REMARK SMILES O=C(OCCOC(=O)c1ccc(-n2cc(CSc3nc4ccccc4c(=O)n3-c3ccc(Cl)cc3)nn2)cc1)c1ccc(-c2c3nc(c(-c4c(F)c(F)c(F)c(F)c4F)c4ccc([nH]4)c(-c4c(F)c(F)c(F)c(F)c4F)c4nc(c(-c5c(F)c(F)c(F)c(F)c5F)c5ccc2[nH]5)C=C4)C=C3)cc1
REMARK SMILES IDX 6 1 5 2 4 3 3 4 2 5 1 6 40 7 41 8 102 9 42 10 101 11 43 12
REMARK SMILES IDX 44 13 45 14 95 15 46 16 100 17 94 18 96 19 47 20 99 21 93 22
REMARK SMILES IDX 92 23 48 25 80 26 60 27 79 28 61 29 64 30 78 31 97 32 62 33
REMARK SMILES IDX 63 34 77 36 98 37 65 38 49 39 50 40 58 41 51 42 52 43 56 44
REMARK SMILES IDX 59 45 53 46 54 47 57 48 55 49 81 50 82 51 90 52 83 53 84 54
REMARK SMILES IDX 88 55 91 56 85 57 86 58 89 59 87 60 66 61 67 62 75 63 68 64
REMARK SMILES IDX 69 65 73 66 76 67 70 68 71 69 74 70 72 71 7 72 8 73 9 74
REMARK SMILES IDX 10 75 39 76 11 77 38 78 12 79 13 80 14 81 37 82 15 83 36 84
REMARK SMILES IDX 16 85 17 86 18 87 19 88 28 89 20 90 26 91 21 92 25 93 27 94
REMARK SMILES IDX 22 95 24 96 23 97 29 98 30 99 35 100 31 101 34 102 32 103
REMARK SMILES IDX 33 104
REMARK H PARENT 96 24 64 35
REMARK Flexibility Score: inf
ROOT
ATOM      1  O   UNL     1       4.064  -1.654   0.469  1.00  0.00    -0.458 OA
ENDROOT
BRANCH   1   2
ATOM      2  C   UNL     1       4.513  -0.657   1.402  1.00  0.00     0.275 C 
BRANCH   2   3
ATOM      3  C   UNL     1       4.670   0.698   0.711  1.00  0.00     0.275 C 
BRANCH   3   4
ATOM      4  O   UNL     1       3.469   1.349   0.247  1.00  0.00    -0.458 OA
BRANCH   4   5
ATOM      5  C   UNL     1       2.433   0.620  -0.217  1.00  0.00     0.338 C 
ATOM      6  O   UNL     1       1.414   0.409   0.423  1.00  0.00    -0.246 OA
BRANCH   5   7
ATOM      7  C   UNL     1       2.493   0.371  -1.678  1.00  0.00     0.060 A 
ATOM      8  C   UNL     1       3.682   0.164  -2.383  1.00  0.00     0.016 A 
ATOM      9  C   UNL     1       1.267   0.314  -2.354  1.00  0.00     0.016 A 
ATOM     10  C   UNL     1       3.654   0.017  -3.764  1.00  0.00     0.010 A 
ATOM     11  C   UNL     1       1.234   0.116  -3.723  1.00  0.00     0.010 A 
ATOM     12  C   UNL     1       2.429   0.039  -4.438  1.00  0.00    -0.014 A 
BRANCH  12  13
ATOM     13  C   UNL     1       2.417  -0.125  -5.891  1.00  0.00     0.031 A 
ATOM     14  C   UNL     1       3.060  -1.381  -6.398  1.00  0.00     0.074 A 
ATOM     15  C   UNL     1       1.714   0.703  -6.694  1.00  0.00     0.049 A 
ATOM     16  N   UNL     1       4.002  -1.532  -7.275  1.00  0.00    -0.248 NA
ATOM     17  C   UNL     1       2.646  -2.639  -5.762  1.00  0.00     0.031 C 
ATOM     18  C   UNL     1       0.824   1.810  -6.327  1.00  0.00     0.029 A 
ATOM     19  N   UNL     1       1.587   0.663  -8.047  1.00  0.00    -0.354 N 
ATOM     20  C   UNL     1       4.183  -2.913  -7.417  1.00  0.00     0.074 A 
ATOM     21  C   UNL     1       3.410  -3.538  -6.381  1.00  0.00     0.031 C 
ATOM     22  C   UNL     1       0.087   2.177  -7.401  1.00  0.00     0.029 A 
ATOM     23  C   UNL     1       0.559   1.444  -8.560  1.00  0.00     0.049 A 
ATOM     24  H   UNL     1       2.178   0.122  -8.619  1.00  0.00     0.167 HD
ATOM     25  C   UNL     1       4.813  -3.464  -8.493  1.00  0.00     0.037 A 
ATOM     26  C   UNL     1       0.115   1.448  -9.843  1.00  0.00     0.037 A 
ATOM     27  C   UNL     1       5.679  -2.517  -9.134  1.00  0.00     0.049 A 
ATOM     28  C   UNL     1       1.182   0.838 -10.677  1.00  0.00     0.074 A 
ATOM     29  C   UNL     1       6.798  -1.822  -8.718  1.00  0.00     0.029 A 
ATOM     30  N   UNL     1       5.215  -1.841 -10.235  1.00  0.00    -0.354 N 
ATOM     31  N   UNL     1       2.348   1.391 -10.870  1.00  0.00    -0.248 NA
ATOM     32  C   UNL     1       1.126  -0.603 -10.877  1.00  0.00     0.031 C 
ATOM     33  C   UNL     1       6.597  -0.500  -9.213  1.00  0.00     0.029 A 
ATOM     34  C   UNL     1       5.438  -0.508  -9.989  1.00  0.00     0.049 A 
ATOM     35  H   UNL     1       4.805  -2.233 -11.039  1.00  0.00     0.167 HD
ATOM     36  C   UNL     1       3.251   0.342 -10.802  1.00  0.00     0.074 A 
ATOM     37  C   UNL     1       2.435  -0.871 -10.855  1.00  0.00     0.031 C 
ATOM     38  C   UNL     1       4.547   0.541 -10.422  1.00  0.00     0.037 A 
BRANCH  25  39
ATOM     39  C   UNL     1       4.411  -4.769  -9.133  1.00  0.00     0.064 A 
ATOM     40  C   UNL     1       5.229  -5.355 -10.118  1.00  0.00     0.173 A 
ATOM     41  C   UNL     1       3.110  -5.308  -9.023  1.00  0.00     0.173 A 
ATOM     42  F   UNL     1       6.476  -4.906 -10.328  1.00  0.00    -0.203 F 
ATOM     43  C   UNL     1       4.757  -6.362 -10.967  1.00  0.00     0.198 A 
ATOM     44  C   UNL     1       2.660  -6.347  -9.835  1.00  0.00     0.198 A 
ATOM     45  F   UNL     1       2.193  -4.773  -8.209  1.00  0.00    -0.203 F 
ATOM     46  F   UNL     1       5.532  -6.812 -11.964  1.00  0.00    -0.200 F 
ATOM     47  C   UNL     1       3.472  -6.854 -10.828  1.00  0.00     0.200 A 
ATOM     48  F   UNL     1       1.405  -6.797  -9.699  1.00  0.00    -0.200 F 
ATOM     49  F   UNL     1       2.999  -7.777 -11.676  1.00  0.00    -0.200 F 
ENDBRANCH  25  39
BRANCH  26  50
ATOM     50  C   UNL     1      -1.272   1.622 -10.337  1.00  0.00     0.064 A 
ATOM     51  C   UNL     1      -1.536   1.940 -11.680  1.00  0.00     0.173 A 
ATOM     52  C   UNL     1      -2.374   1.199  -9.568  1.00  0.00     0.173 A 
ATOM     53  F   UNL     1      -0.535   2.306 -12.495  1.00  0.00    -0.203 F 
ATOM     54  C   UNL     1      -2.820   1.822 -12.225  1.00  0.00     0.198 A 
ATOM     55  C   UNL     1      -3.654   1.083 -10.111  1.00  0.00     0.198 A 
ATOM     56  F   UNL     1      -2.209   0.799  -8.299  1.00  0.00    -0.203 F 
ATOM     57  F   UNL     1      -3.023   2.081 -13.524  1.00  0.00    -0.200 F 
ATOM     58  C   UNL     1      -3.876   1.383 -11.443  1.00  0.00     0.200 A 
ATOM     59  F   UNL     1      -4.659   0.619  -9.354  1.00  0.00    -0.200 F 
ATOM     60  F   UNL     1      -5.092   1.210 -11.978  1.00  0.00    -0.200 F 
ENDBRANCH  26  50
BRANCH  38  61
ATOM     61  C   UNL     1       5.021   1.957 -10.222  1.00  0.00     0.064 A 
ATOM     62  C   UNL     1       4.490   2.840  -9.264  1.00  0.00     0.173 A 
ATOM     63  C   UNL     1       6.170   2.376 -10.904  1.00  0.00     0.173 A 
ATOM     64  F   UNL     1       3.463   2.482  -8.487  1.00  0.00    -0.203 F 
ATOM     65  C   UNL     1       5.056   4.094  -9.033  1.00  0.00     0.198 A 
ATOM     66  C   UNL     1       6.758   3.611 -10.644  1.00  0.00     0.198 A 
ATOM     67  F   UNL     1       6.764   1.556 -11.784  1.00  0.00    -0.203 F 
ATOM     68  F   UNL     1       4.523   4.915  -8.115  1.00  0.00    -0.200 F 
ATOM     69  C   UNL     1       6.195   4.475  -9.718  1.00  0.00     0.200 A 
ATOM     70  F   UNL     1       7.894   3.950 -11.268  1.00  0.00    -0.200 F 
ATOM     71  F   UNL     1       6.769   5.659  -9.465  1.00  0.00    -0.200 F 
ENDBRANCH  38  61
ENDBRANCH  12  13
ENDBRANCH   5   7
ENDBRANCH   4   5
ENDBRANCH   3   4
ENDBRANCH   2   3
ENDBRANCH   1   2
BRANCH   1  72
ATOM     72  C   UNL     1       2.940  -2.330   0.811  1.00  0.00     0.338 C 
ATOM     73  O   UNL     1       2.285  -2.237   1.837  1.00  0.00    -0.246 OA
BRANCH  72  74
ATOM     74  C   UNL     1       2.587  -3.197  -0.320  1.00  0.00     0.060 A 
ATOM     75  C   UNL     1       1.477  -2.891  -1.115  1.00  0.00     0.018 A 
ATOM     76  C   UNL     1       3.371  -4.318  -0.587  1.00  0.00     0.018 A 
ATOM     77  C   UNL     1       1.184  -3.667  -2.238  1.00  0.00     0.029 A 
ATOM     78  C   UNL     1       3.032  -5.145  -1.655  1.00  0.00     0.029 A 
ATOM     79  C   UNL     1       1.945  -4.813  -2.484  1.00  0.00     0.066 A 
BRANCH  79  80
ATOM     80  N   UNL     1       1.557  -5.699  -3.508  1.00  0.00    -0.220 N 
ATOM     81  C   UNL     1       1.629  -7.062  -3.455  1.00  0.00     0.141 A 
ATOM     82  N   UNL     1       1.028  -5.323  -4.691  1.00  0.00    -0.062 NA
ATOM     83  C   UNL     1       1.090  -7.506  -4.640  1.00  0.00     0.093 A 
ATOM     84  N   UNL     1       0.812  -6.417  -5.419  1.00  0.00    -0.134 NA
BRANCH  83  85
ATOM     85  C   UNL     1       0.964  -8.902  -5.105  1.00  0.00     0.138 C 
BRANCH  85  86
ATOM     86  S   UNL     1      -0.619  -9.736  -5.232  1.00  0.00    -0.081 SA
BRANCH  86  87
ATOM     87  C   UNL     1      -1.905  -8.845  -4.456  1.00  0.00     0.176 A 
ATOM     88  N   UNL     1      -3.019  -8.921  -5.123  1.00  0.00    -0.223 NA
ATOM     89  N   UNL     1      -1.812  -8.134  -3.267  1.00  0.00    -0.255 N 
ATOM     90  C   UNL     1      -4.109  -8.161  -4.691  1.00  0.00     0.079 A 
ATOM     91  C   UNL     1      -2.582  -6.962  -3.242  1.00  0.00     0.266 A 
ATOM     92  C   UNL     1      -5.400  -8.428  -5.149  1.00  0.00     0.029 A 
ATOM     93  C   UNL     1      -3.903  -7.052  -3.885  1.00  0.00     0.066 A 
ATOM     94  O   UNL     1      -2.253  -5.887  -2.743  1.00  0.00    -0.268 OA
ATOM     95  C   UNL     1      -6.448  -7.548  -4.856  1.00  0.00     0.002 A 
ATOM     96  C   UNL     1      -4.924  -6.131  -3.632  1.00  0.00     0.016 A 
ATOM     97  C   UNL     1      -6.202  -6.380  -4.132  1.00  0.00     0.001 A 
BRANCH  89  98
ATOM     98  C   UNL     1      -0.992  -8.455  -2.113  1.00  0.00     0.051 A 
ATOM     99  C   UNL     1      -1.082  -7.680  -0.937  1.00  0.00     0.028 A 
ATOM    100  C   UNL     1      -0.095  -9.530  -2.056  1.00  0.00     0.028 A 
ATOM    101  C   UNL     1      -0.151  -7.788   0.102  1.00  0.00     0.022 A 
ATOM    102  C   UNL     1       0.881  -9.614  -1.049  1.00  0.00     0.022 A 
ATOM    103  C   UNL     1       0.880  -8.704  -0.002  1.00  0.00     0.041 A 
ATOM    104  Cl  UNL     1       2.171  -8.682   1.127  1.00  0.00    -0.084 Cl
ENDBRANCH  89  98
ENDBRANCH  86  87
ENDBRANCH  85  86
ENDBRANCH  83  85
ENDBRANCH  79  80
ENDBRANCH  72  74
ENDBRANCH   1  72
TORSDOF 16
