REMARK SMILES CC(C)(C)N(CC(=O)OCCOC(=O)c1ccc(-c2c3nc(c(-c4c(F)c(F)c(F)c(F)c4F)c4ccc([nH]4)c(-c4c(F)c(F)c(F)c(F)c4F)c4nc(c(-c5c(F)c(F)c(F)c(F)c5F)c5ccc2[nH]5)C=C4)C=C3)cc1)C(=O)Nc1ccc([N+](=O)[O-])cc1
REMARK SMILES IDX 10 1 9 2 7 3 8 4 6 5 5 6 2 7 1 8 3 9 4 10 78 11 79 12 80 13
REMARK SMILES IDX 81 15 82 16 89 17 83 18 88 19 84 20 85 21 86 22 87 23 11 24
REMARK SMILES IDX 12 25 13 26 14 27 15 28 16 29 77 30 17 31 76 32 18 33 19 34
REMARK SMILES IDX 20 35 70 36 21 37 75 38 69 39 71 40 22 41 74 42 68 43 67 44
REMARK SMILES IDX 23 46 55 47 35 48 54 49 36 50 39 51 53 52 72 53 37 54 38 55
REMARK SMILES IDX 52 57 73 58 40 59 24 60 25 61 33 62 26 63 27 64 31 65 34 66
REMARK SMILES IDX 28 67 29 68 32 69 30 70 56 71 57 72 65 73 58 74 59 75 63 76
REMARK SMILES IDX 66 77 60 78 61 79 64 80 62 81 41 82 42 83 50 84 43 85 44 86
REMARK SMILES IDX 48 87 51 88 45 89 46 90 49 91 47 92
REMARK H PARENT 80 14 71 45 39 56
REMARK Flexibility Score: inf
ROOT
ATOM      1  C   UNL     1       5.282   2.400  -1.256  1.00  0.00     0.274 C 
ENDROOT
BRANCH   1   2
ATOM      2  O   UNL     1       3.914   1.840  -1.223  1.00  0.00    -0.461 OA
BRANCH   2   3
ATOM      3  C   UNL     1       3.555   1.104  -0.107  1.00  0.00     0.325 C 
ATOM      4  O   UNL     1       4.374   0.581   0.645  1.00  0.00    -0.250 OA
BRANCH   3   5
ATOM      5  C   UNL     1       2.062   1.345   0.343  1.00  0.00     0.244 C 
BRANCH   5   6
ATOM      6  N   UNL     1       1.053   1.717  -0.658  1.00  0.00    -0.309 N 
BRANCH   6   7
ATOM      7  C   UNL     1       0.362   0.530  -1.316  1.00  0.00     0.037 C 
ATOM      8  C   UNL     1       0.664  -0.845  -0.639  1.00  0.00     0.034 C 
ATOM      9  C   UNL     1       0.826   0.391  -2.775  1.00  0.00     0.034 C 
ATOM     10  C   UNL     1      -1.178   0.664  -1.214  1.00  0.00     0.034 C 
ENDBRANCH   6   7
BRANCH   6  11
ATOM     11  C   UNL     1       0.675   2.992  -1.072  1.00  0.00     0.322 C 
ATOM     12  O   UNL     1      -0.075   3.142  -2.048  1.00  0.00    -0.248 OA
ATOM     13  N   UNL     1       0.925   4.175  -0.449  1.00  0.00    -0.308 N 
ATOM     14  H   UNL     1       0.291   4.865  -0.753  1.00  0.00     0.171 HD
BRANCH  13  15
ATOM     15  C   UNL     1       1.807   4.706   0.489  1.00  0.00     0.043 A 
ATOM     16  C   UNL     1       1.532   6.282   1.320  1.00  0.00     0.033 A 
ATOM     17  C   UNL     1       3.265   3.866   0.940  1.00  0.00     0.033 A 
ATOM     18  C   UNL     1       2.893   6.855   2.714  1.00  0.00     0.088 A 
ATOM     19  C   UNL     1       4.463   4.362   2.148  1.00  0.00     0.088 A 
ATOM     20  C   UNL     1       4.301   5.818   3.031  1.00  0.00     0.269 A 
BRANCH  20  21
ATOM     21  N   UNL     1       5.162   6.057   4.161  1.00  0.00     0.062 N 
ATOM     22  O   UNL     1       4.906   7.036   4.869  1.00  0.00    -0.258 OA
ATOM     23  O   UNL     1       6.061   5.233   4.363  1.00  0.00    -0.258 OA
ENDBRANCH  20  21
ENDBRANCH  13  15
ENDBRANCH   6  11
ENDBRANCH   5   6
ENDBRANCH   3   5
ENDBRANCH   2   3
ENDBRANCH   1   2
BRANCH   1  24
ATOM     24  C   UNL     1       5.289   3.946  -1.547  1.00  0.00     0.275 C 
BRANCH  24  25
ATOM     25  O   UNL     1       5.156   4.723  -0.311  1.00  0.00    -0.458 OA
BRANCH  25  26
ATOM     26  C   UNL     1       4.298   5.792  -0.312  1.00  0.00     0.338 C 
ATOM     27  O   UNL     1       4.114   6.472  -1.317  1.00  0.00    -0.246 OA
BRANCH  26  28
ATOM     28  C   UNL     1       3.408   6.092   1.036  1.00  0.00     0.060 A 
ATOM     29  C   UNL     1       2.390   5.057   2.470  1.00  0.00     0.016 A 
ATOM     30  C   UNL     1       2.935   7.831   0.831  1.00  0.00     0.016 A 
ATOM     31  C   UNL     1       1.090   5.855   3.379  1.00  0.00     0.010 A 
ATOM     32  C   UNL     1       1.660   8.501   1.855  1.00  0.00     0.010 A 
ATOM     33  C   UNL     1       0.786   7.553   3.085  1.00  0.00    -0.014 A 
BRANCH  33  34
ATOM     34  C   UNL     1      -0.088   8.210   4.091  1.00  0.00     0.031 A 
ATOM     35  C   UNL     1      -1.241   9.055   3.659  1.00  0.00     0.074 A 
ATOM     36  C   UNL     1       0.168   7.980   5.399  1.00  0.00     0.049 A 
ATOM     37  N   UNL     1      -2.090   9.723   4.396  1.00  0.00    -0.248 NA
ATOM     38  C   UNL     1      -1.467   9.191   2.213  1.00  0.00     0.031 C 
ATOM     39  C   UNL     1       1.296   7.199   5.924  1.00  0.00     0.029 A 
ATOM     40  N   UNL     1      -0.507   8.341   6.537  1.00  0.00    -0.354 N 
ATOM     41  C   UNL     1      -2.930  10.376   3.507  1.00  0.00     0.074 A 
ATOM     42  C   UNL     1      -2.474  10.052   2.174  1.00  0.00     0.031 C 
ATOM     43  C   UNL     1       1.174   7.044   7.245  1.00  0.00     0.029 A 
ATOM     44  C   UNL     1       0.040   7.826   7.692  1.00  0.00     0.049 A 
ATOM     45  H   UNL     1      -1.308   8.914   6.528  1.00  0.00     0.167 HD
ATOM     46  C   UNL     1      -3.991  11.168   3.792  1.00  0.00     0.037 A 
ATOM     47  C   UNL     1      -0.305   7.997   8.981  1.00  0.00     0.037 A 
ATOM     48  C   UNL     1      -4.419  11.460   5.137  1.00  0.00     0.049 A 
ATOM     49  C   UNL     1      -1.472   8.893   9.258  1.00  0.00     0.074 A 
ATOM     50  C   UNL     1      -5.458  12.268   5.561  1.00  0.00     0.029 A 
ATOM     51  N   UNL     1      -3.824  10.940   6.282  1.00  0.00    -0.354 N 
ATOM     52  N   UNL     1      -2.244   9.524   8.405  1.00  0.00    -0.248 NA
ATOM     53  C   UNL     1      -1.811   9.115  10.665  1.00  0.00     0.031 C 
ATOM     54  C   UNL     1      -5.467  12.267   6.961  1.00  0.00     0.029 A 
ATOM     55  C   UNL     1      -4.470  11.415   7.411  1.00  0.00     0.049 A 
ATOM     56  H   UNL     1      -3.056  10.325   6.288  1.00  0.00     0.167 HD
ATOM     57  C   UNL     1      -3.164  10.218   9.170  1.00  0.00     0.074 A 
ATOM     58  C   UNL     1      -2.879   9.890  10.555  1.00  0.00     0.031 C 
ATOM     59  C   UNL     1      -4.147  11.062   8.771  1.00  0.00     0.037 A 
BRANCH  46  60
ATOM     60  C   UNL     1      -4.731  11.784   2.639  1.00  0.00     0.064 A 
ATOM     61  C   UNL     1      -5.511  11.014   1.762  1.00  0.00     0.173 A 
ATOM     62  C   UNL     1      -4.671  13.168   2.411  1.00  0.00     0.173 A 
ATOM     63  F   UNL     1      -5.587   9.683   1.919  1.00  0.00    -0.203 F 
ATOM     64  C   UNL     1      -6.181  11.600   0.690  1.00  0.00     0.198 A 
ATOM     65  C   UNL     1      -5.366  13.755   1.355  1.00  0.00     0.198 A 
ATOM     66  F   UNL     1      -3.938  13.955   3.213  1.00  0.00    -0.203 F 
ATOM     67  F   UNL     1      -6.877  10.834  -0.162  1.00  0.00    -0.200 F 
ATOM     68  C   UNL     1      -6.114  12.970   0.491  1.00  0.00     0.200 A 
ATOM     69  F   UNL     1      -5.306  15.081   1.170  1.00  0.00    -0.200 F 
ATOM     70  F   UNL     1      -6.762  13.533  -0.538  1.00  0.00    -0.200 F 
ENDBRANCH  46  60
BRANCH  47  71
ATOM     71  C   UNL     1       0.473   7.345  10.073  1.00  0.00     0.064 A 
ATOM     72  C   UNL     1      -0.114   6.391  10.916  1.00  0.00     0.173 A 
ATOM     73  C   UNL     1       1.825   7.655  10.297  1.00  0.00     0.173 A 
ATOM     74  F   UNL     1      -1.406   6.064  10.760  1.00  0.00    -0.203 F 
ATOM     75  C   UNL     1       0.610   5.791  11.947  1.00  0.00     0.198 A 
ATOM     76  C   UNL     1       2.560   7.024  11.300  1.00  0.00     0.198 A 
ATOM     77  F   UNL     1       2.446   8.556   9.522  1.00  0.00    -0.203 F 
ATOM     78  F   UNL     1       0.005   4.922  12.769  1.00  0.00    -0.200 F 
ATOM     79  C   UNL     1       1.948   6.101  12.133  1.00  0.00     0.200 A 
ATOM     80  F   UNL     1       3.859   7.311  11.458  1.00  0.00    -0.200 F 
ATOM     81  F   UNL     1       2.645   5.517  13.117  1.00  0.00    -0.200 F 
ENDBRANCH  47  71
BRANCH  59  82
ATOM     82  C   UNL     1      -4.987  11.649   9.864  1.00  0.00     0.064 A 
ATOM     83  C   UNL     1      -4.473  12.608  10.749  1.00  0.00     0.173 A 
ATOM     84  C   UNL     1      -6.313  11.229  10.035  1.00  0.00     0.173 A 
ATOM     85  F   UNL     1      -3.202  13.021  10.635  1.00  0.00    -0.203 F 
ATOM     86  C   UNL     1      -5.247  13.093  11.798  1.00  0.00     0.198 A 
ATOM     87  C   UNL     1      -7.095  11.744  11.063  1.00  0.00     0.198 A 
ATOM     88  F   UNL     1      -6.846  10.316   9.210  1.00  0.00    -0.203 F 
ATOM     89  F   UNL     1      -4.714  13.951  12.679  1.00  0.00    -0.200 F 
ATOM     90  C   UNL     1      -6.557  12.664  11.951  1.00  0.00     0.200 A 
ATOM     91  F   UNL     1      -8.364  11.338  11.203  1.00  0.00    -0.200 F 
ATOM     92  F   UNL     1      -7.299  13.127  12.966  1.00  0.00    -0.200 F 
ENDBRANCH  59  82
ENDBRANCH  33  34
ENDBRANCH  26  28
ENDBRANCH  25  26
ENDBRANCH  24  25
ENDBRANCH   1  24
TORSDOF 16
