REMARK SMILES CCOc1cc(C[NH+]2CCC3(CC2)[C@H](C(=O)OCCOC(=O)c2ccc(-c4c5nc(c(-c6c(F)c(F)c(F)c(F)c6F)c6ccc([nH]6)c(-c6c(F)c(F)c(F)c(F)c6F)c6nc(c(-c7c(F)c(F)c(F)c(F)c7F)c7ccc4[nH]7)C=C6)C=C5)cc2)CC(=O)N3C)ccc1OC
REMARK SMILES IDX 18 1 17 2 15 3 16 4 14 5 8 6 9 7 13 8 10 10 12 11 11 12
REMARK SMILES IDX 89 13 86 14 87 15 90 16 88 17 7 18 6 19 4 20 5 21 93 22
REMARK SMILES IDX 92 23 91 24 3 25 2 26 1 27 94 28 95 29 19 30 20 31 21 32
REMARK SMILES IDX 22 33 23 34 24 35 85 36 25 37 84 38 26 39 27 40 28 41 78 42
REMARK SMILES IDX 29 43 83 44 77 45 79 46 30 47 82 48 76 49 75 50 31 52 63 53
REMARK SMILES IDX 43 54 62 55 44 56 47 57 61 58 80 59 45 60 46 61 60 63 81 64
REMARK SMILES IDX 48 65 32 66 33 67 41 68 34 69 35 70 39 71 42 72 36 73 37 74
REMARK SMILES IDX 40 75 38 76 64 77 65 78 73 79 66 80 67 81 71 82 74 83 68 84
REMARK SMILES IDX 69 85 72 86 70 87 49 88 50 89 58 90 51 91 52 92 56 93 59 94
REMARK SMILES IDX 53 95 54 96 57 97 55 98
REMARK H PARENT 8 9 79 51 47 62
REMARK Flexibility Score: inf
ROOT
ATOM      1  C   UNL     1       4.667  -4.458   0.837  1.00  0.00     0.274 C 
ENDROOT
BRANCH   1   2
ATOM      2  O   UNL     1       3.781  -4.292  -0.305  1.00  0.00    -0.462 OA
BRANCH   2   3
ATOM      3  C   UNL     1       2.714  -3.483  -0.118  1.00  0.00     0.311 C 
ATOM      4  O   UNL     1       2.517  -2.880   0.938  1.00  0.00    -0.252 OA
BRANCH   3   5
ATOM      5  C   UNL     1       1.752  -3.288  -1.298  1.00  0.00     0.134 C 
ATOM      6  N   UNL     1       3.175  -3.275  -5.324  1.00  0.00    -0.331 N 
ATOM      7  C   UNL     1       3.639  -4.416  -4.545  1.00  0.00     0.265 C 
ATOM      8  C   UNL     1       1.737  -3.119  -5.214  1.00  0.00     0.265 C 
ATOM      9  H   UNL     1       3.387  -3.543  -6.285  1.00  0.00     0.348 HD
ATOM     10  C   UNL     1       3.203  -4.465  -3.076  1.00  0.00     0.091 C 
ATOM     11  C   UNL     1       1.215  -2.977  -3.782  1.00  0.00     0.091 C 
ATOM     12  C   UNL     1       1.787  -3.964  -2.716  1.00  0.00     0.067 C 
ATOM     13  N   UNL     1       0.780  -5.030  -2.558  1.00  0.00    -0.339 N 
ATOM     14  C   UNL     1       0.341  -3.545  -0.778  1.00  0.00     0.118 C 
ATOM     15  C   UNL     1      -0.091  -4.787  -1.494  1.00  0.00     0.223 C 
ATOM     16  C   UNL     1       0.264  -5.799  -3.676  1.00  0.00     0.147 C 
ATOM     17  O   UNL     1      -1.116  -5.398  -1.243  1.00  0.00    -0.275 OA
BRANCH   6  18
ATOM     18  C   UNL     1       3.975  -2.037  -5.353  1.00  0.00     0.299 C 
BRANCH  18  19
ATOM     19  C   UNL     1       3.885  -1.159  -4.121  1.00  0.00     0.010 A 
ATOM     20  C   UNL     1       2.500   0.192  -2.599  1.00  0.00     0.161 A 
ATOM     21  C   UNL     1       2.829  -0.234  -3.909  1.00  0.00     0.060 A 
ATOM     22  C   UNL     1       3.349  -0.137  -1.550  1.00  0.00     0.160 A 
ATOM     23  C   UNL     1       4.395  -1.015  -1.805  1.00  0.00     0.051 A 
ATOM     24  C   UNL     1       4.715  -1.484  -3.063  1.00  0.00     0.013 A 
BRANCH  20  25
ATOM     25  O   UNL     1       1.158   0.234  -2.280  1.00  0.00    -0.490 OA
BRANCH  25  26
ATOM     26  C   UNL     1       0.440   1.438  -2.476  1.00  0.00     0.226 C 
ATOM     27  C   UNL     1      -0.453   1.599  -1.249  1.00  0.00     0.049 C 
ENDBRANCH  25  26
ENDBRANCH  20  25
BRANCH  22  28
ATOM     28  O   UNL     1       3.306   0.284  -0.255  1.00  0.00    -0.493 OA
ATOM     29  C   UNL     1       2.087   0.203   0.458  1.00  0.00     0.278 C 
ENDBRANCH  22  28
ENDBRANCH  18  19
ENDBRANCH   6  18
ENDBRANCH   3   5
ENDBRANCH   2   3
ENDBRANCH   1   2
BRANCH   1  30
ATOM     30  C   UNL     1       6.125  -4.118   0.490  1.00  0.00     0.275 C 
BRANCH  30  31
ATOM     31  O   UNL     1       6.344  -2.694   0.365  1.00  0.00    -0.458 OA
BRANCH  31  32
ATOM     32  C   UNL     1       7.502  -2.349  -0.277  1.00  0.00     0.338 C 
ATOM     33  O   UNL     1       8.336  -3.141  -0.681  1.00  0.00    -0.246 OA
BRANCH  32  34
ATOM     34  C   UNL     1       7.574  -0.882  -0.592  1.00  0.00     0.060 A 
ATOM     35  C   UNL     1       6.617   0.022  -0.147  1.00  0.00     0.016 A 
ATOM     36  C   UNL     1       8.523  -0.425  -1.512  1.00  0.00     0.016 A 
ATOM     37  C   UNL     1       6.459   1.250  -0.811  1.00  0.00     0.010 A 
ATOM     38  C   UNL     1       8.469   0.890  -2.019  1.00  0.00     0.010 A 
ATOM     39  C   UNL     1       7.398   1.749  -1.721  1.00  0.00    -0.014 A 
BRANCH  39  40
ATOM     40  C   UNL     1       7.303   3.133  -2.322  1.00  0.00     0.031 A 
ATOM     41  C   UNL     1       7.725   3.390  -3.760  1.00  0.00     0.074 A 
ATOM     42  C   UNL     1       6.903   4.207  -1.599  1.00  0.00     0.049 A 
ATOM     43  N   UNL     1       8.174   4.491  -4.317  1.00  0.00    -0.248 NA
ATOM     44  C   UNL     1       7.635   2.254  -4.692  1.00  0.00     0.031 C 
ATOM     45  C   UNL     1       6.338   4.190  -0.249  1.00  0.00     0.029 A 
ATOM     46  N   UNL     1       6.954   5.557  -1.899  1.00  0.00    -0.354 N 
ATOM     47  C   UNL     1       8.502   4.160  -5.630  1.00  0.00     0.074 A 
ATOM     48  C   UNL     1       8.177   2.758  -5.796  1.00  0.00     0.031 C 
ATOM     49  C   UNL     1       6.085   5.439   0.155  1.00  0.00     0.029 A 
ATOM     50  C   UNL     1       6.629   6.358  -0.826  1.00  0.00     0.049 A 
ATOM     51  H   UNL     1       7.196   5.908  -2.786  1.00  0.00     0.167 HD
ATOM     52  C   UNL     1       9.040   4.951  -6.594  1.00  0.00     0.037 A 
ATOM     53  C   UNL     1       6.847   7.664  -0.576  1.00  0.00     0.037 A 
ATOM     54  C   UNL     1       9.289   6.366  -6.440  1.00  0.00     0.049 A 
ATOM     55  C   UNL     1       7.551   8.502  -1.599  1.00  0.00     0.074 A 
ATOM     56  C   UNL     1       9.844   7.253  -7.349  1.00  0.00     0.029 A 
ATOM     57  N   UNL     1       8.974   7.106  -5.310  1.00  0.00    -0.354 N 
ATOM     58  N   UNL     1       7.994   8.161  -2.782  1.00  0.00    -0.248 NA
ATOM     59  C   UNL     1       7.803   9.904  -1.241  1.00  0.00     0.031 C 
ATOM     60  C   UNL     1       9.906   8.517  -6.753  1.00  0.00     0.029 A 
ATOM     61  C   UNL     1       9.331   8.432  -5.497  1.00  0.00     0.049 A 
ATOM     62  H   UNL     1       8.557   6.742  -4.495  1.00  0.00     0.167 HD
ATOM     63  C   UNL     1       8.539   9.314  -3.327  1.00  0.00     0.074 A 
ATOM     64  C   UNL     1       8.367  10.365  -2.347  1.00  0.00     0.031 C 
ATOM     65  C   UNL     1       9.127   9.482  -4.535  1.00  0.00     0.037 A 
BRANCH  52  66
ATOM     66  C   UNL     1       9.447   4.324  -7.903  1.00  0.00     0.064 A 
ATOM     67  C   UNL     1       8.513   3.908  -8.861  1.00  0.00     0.173 A 
ATOM     68  C   UNL     1      10.809   4.241  -8.245  1.00  0.00     0.173 A 
ATOM     69  F   UNL     1       7.200   3.965  -8.592  1.00  0.00    -0.203 F 
ATOM     70  C   UNL     1       8.924   3.419 -10.101  1.00  0.00     0.198 A 
ATOM     71  C   UNL     1      11.215   3.781  -9.496  1.00  0.00     0.198 A 
ATOM     72  F   UNL     1      11.750   4.643  -7.376  1.00  0.00    -0.203 F 
ATOM     73  F   UNL     1       8.012   3.000 -10.990  1.00  0.00    -0.200 F 
ATOM     74  C   UNL     1      10.273   3.365 -10.421  1.00  0.00     0.200 A 
ATOM     75  F   UNL     1      12.518   3.754  -9.809  1.00  0.00    -0.200 F 
ATOM     76  F   UNL     1      10.663   2.915 -11.622  1.00  0.00    -0.200 F 
ENDBRANCH  52  66
BRANCH  53  77
ATOM     77  C   UNL     1       6.486   8.233   0.753  1.00  0.00     0.064 A 
ATOM     78  C   UNL     1       5.490   9.210   0.873  1.00  0.00     0.173 A 
ATOM     79  C   UNL     1       7.134   7.817   1.929  1.00  0.00     0.173 A 
ATOM     80  F   UNL     1       4.860   9.661  -0.222  1.00  0.00    -0.203 F 
ATOM     81  C   UNL     1       5.169   9.762   2.112  1.00  0.00     0.198 A 
ATOM     82  C   UNL     1       6.782   8.337   3.171  1.00  0.00     0.198 A 
ATOM     83  F   UNL     1       8.096   6.884   1.874  1.00  0.00    -0.203 F 
ATOM     84  F   UNL     1       4.253  10.736   2.190  1.00  0.00    -0.200 F 
ATOM     85  C   UNL     1       5.808   9.318   3.261  1.00  0.00     0.200 A 
ATOM     86  F   UNL     1       7.385   7.887   4.280  1.00  0.00    -0.200 F 
ATOM     87  F   UNL     1       5.490   9.843   4.452  1.00  0.00    -0.200 F 
ENDBRANCH  53  77
BRANCH  65  88
ATOM     88  C   UNL     1       9.544  10.874  -4.905  1.00  0.00     0.064 A 
ATOM     89  C   UNL     1      10.639  11.509  -4.302  1.00  0.00     0.173 A 
ATOM     90  C   UNL     1       8.841  11.576  -5.897  1.00  0.00     0.173 A 
ATOM     91  F   UNL     1      11.329  10.890  -3.332  1.00  0.00    -0.203 F 
ATOM     92  C   UNL     1      10.998  12.807  -4.659  1.00  0.00     0.198 A 
ATOM     93  C   UNL     1       9.223  12.859  -6.275  1.00  0.00     0.198 A 
ATOM     94  F   UNL     1       7.786  11.012  -6.505  1.00  0.00    -0.203 F 
ATOM     95  F   UNL     1      12.013  13.416  -4.031  1.00  0.00    -0.200 F 
ATOM     96  C   UNL     1      10.295  13.477  -5.650  1.00  0.00     0.200 A 
ATOM     97  F   UNL     1       8.549  13.500  -7.240  1.00  0.00    -0.200 F 
ATOM     98  F   UNL     1      10.646  14.723  -5.996  1.00  0.00    -0.200 F 
ENDBRANCH  65  88
ENDBRANCH  39  40
ENDBRANCH  32  34
ENDBRANCH  31  32
ENDBRANCH  30  31
ENDBRANCH   1  30
TORSDOF 16
