REMARK SMILES Cc1nn(C)c(C)c1[C@@H](C(=O)OCCOC(=O)c1ccc(-c2c3nc(c(-c4c(F)c(F)c(F)c(F)c4F)c4ccc([nH]4)c(-c4c(F)c(F)c(F)c(F)c4F)c4nc(c(-c5c(F)c(F)c(F)c(F)c5F)c5ccc2[nH]5)C=C4)C=C3)cc1)[NH+]1CCN(c2ccccc2F)CC1
REMARK SMILES IDX 13 1 12 2 10 3 11 4 9 5 8 6 1 7 2 8 3 9 4 10 6 11 5 12 7 13
REMARK SMILES IDX 81 14 82 15 93 16 83 18 92 19 84 20 85 21 86 22 90 23 87 24
REMARK SMILES IDX 89 25 91 26 88 27 14 28 15 29 16 30 17 31 18 32 19 33 80 34
REMARK SMILES IDX 20 35 79 36 21 37 22 38 23 39 73 40 24 41 78 42 72 43 74 44
REMARK SMILES IDX 25 45 77 46 71 47 70 48 26 50 58 51 38 52 57 53 39 54 42 55
REMARK SMILES IDX 56 56 75 57 40 58 41 59 55 61 76 62 43 63 27 64 28 65 36 66
REMARK SMILES IDX 29 67 30 68 34 69 37 70 31 71 32 72 35 73 33 74 59 75 60 76
REMARK SMILES IDX 68 77 61 78 62 79 66 80 69 81 63 82 64 83 67 84 65 85 44 86
REMARK SMILES IDX 45 87 53 88 46 89 47 90 51 91 54 92 48 93 49 94 52 95 50 96
REMARK H PARENT 81 17 74 49 42 60
REMARK Flexibility Score: inf
ROOT
ATOM      1  C   UNL     1      -0.217   3.387   3.598  1.00  0.00     0.274 C 
ENDROOT
BRANCH   1   2
ATOM      2  O   UNL     1      -0.333   2.507   2.460  1.00  0.00    -0.457 OA
BRANCH   2   3
ATOM      3  C   UNL     1      -0.686   3.101   1.282  1.00  0.00     0.370 C 
ATOM      4  O   UNL     1      -0.836   4.316   1.164  1.00  0.00    -0.245 OA
BRANCH   3   5
ATOM      5  C   UNL     1      -1.014   2.101   0.152  1.00  0.00     0.330 C 
BRANCH   5   6
ATOM      6  C   UNL     1      -0.615   0.660   0.346  1.00  0.00     0.065 A 
ATOM      7  C   UNL     1      -2.996  -0.451   0.077  1.00  0.00     0.069 C 
ATOM      8  C   UNL     1      -1.522  -0.446   0.273  1.00  0.00     0.069 A 
ATOM      9  N   UNL     1      -0.892  -1.616   0.380  1.00  0.00    -0.178 NA
ATOM     10  N   UNL     1       0.394  -1.290   0.557  1.00  0.00    -0.272 N 
ATOM     11  C   UNL     1       0.607   0.063   0.659  1.00  0.00     0.045 A 
ATOM     12  C   UNL     1       1.357  -2.367   0.592  1.00  0.00     0.174 C 
ATOM     13  C   UNL     1       1.930   0.626   1.041  1.00  0.00     0.067 C 
ENDBRANCH   5   6
BRANCH   5  14
ATOM     14  N   UNL     1      -0.665   2.639  -1.183  1.00  0.00    -0.316 N 
ATOM     15  C   UNL     1       0.739   2.910  -1.482  1.00  0.00     0.284 C 
ATOM     16  C   UNL     1      -1.362   2.059  -2.341  1.00  0.00     0.284 C 
ATOM     17  H   UNL     1      -1.072   3.563  -1.035  1.00  0.00     0.349 HD
ATOM     18  C   UNL     1       1.528   1.835  -2.251  1.00  0.00     0.178 C 
ATOM     19  C   UNL     1      -0.621   0.930  -3.099  1.00  0.00     0.178 C 
ATOM     20  N   UNL     1       0.768   1.315  -3.385  1.00  0.00    -0.358 N 
BRANCH  20  21
ATOM     21  C   UNL     1       1.467   0.465  -4.248  1.00  0.00     0.073 A 
ATOM     22  C   UNL     1       2.168  -0.654  -3.773  1.00  0.00     0.029 A 
ATOM     23  C   UNL     1       1.509   0.720  -5.628  1.00  0.00     0.146 A 
ATOM     24  C   UNL     1       2.917  -1.459  -4.637  1.00  0.00     0.002 A 
ATOM     25  C   UNL     1       2.256  -0.075  -6.495  1.00  0.00     0.041 A 
ATOM     26  F   UNL     1       0.842   1.768  -6.138  1.00  0.00    -0.205 F 
ATOM     27  C   UNL     1       2.969  -1.164  -5.997  1.00  0.00     0.003 A 
ENDBRANCH  20  21
ENDBRANCH   5  14
ENDBRANCH   3   5
ENDBRANCH   2   3
ENDBRANCH   1   2
BRANCH   1  28
ATOM     28  C   UNL     1       1.224   3.840   3.823  1.00  0.00     0.275 C 
BRANCH  28  29
ATOM     29  O   UNL     1       1.681   4.606   2.695  1.00  0.00    -0.458 OA
BRANCH  29  30
ATOM     30  C   UNL     1       2.882   4.258   2.186  1.00  0.00     0.338 C 
ATOM     31  O   UNL     1       3.646   3.411   2.632  1.00  0.00    -0.246 OA
BRANCH  30  32
ATOM     32  C   UNL     1       3.173   5.012   0.944  1.00  0.00     0.060 A 
ATOM     33  C   UNL     1       2.156   5.506   0.124  1.00  0.00     0.016 A 
ATOM     34  C   UNL     1       4.502   5.131   0.531  1.00  0.00     0.016 A 
ATOM     35  C   UNL     1       2.457   6.022  -1.139  1.00  0.00     0.010 A 
ATOM     36  C   UNL     1       4.806   5.742  -0.688  1.00  0.00     0.010 A 
ATOM     37  C   UNL     1       3.786   6.177  -1.551  1.00  0.00    -0.014 A 
BRANCH  37  38
ATOM     38  C   UNL     1       4.146   6.808  -2.852  1.00  0.00     0.031 A 
ATOM     39  C   UNL     1       5.062   6.095  -3.809  1.00  0.00     0.074 A 
ATOM     40  C   UNL     1       3.724   8.052  -3.152  1.00  0.00     0.049 A 
ATOM     41  N   UNL     1       5.805   6.585  -4.769  1.00  0.00    -0.248 NA
ATOM     42  C   UNL     1       5.169   4.636  -3.652  1.00  0.00     0.031 C 
ATOM     43  C   UNL     1       2.775   8.844  -2.369  1.00  0.00     0.029 A 
ATOM     44  N   UNL     1       4.068   8.883  -4.192  1.00  0.00    -0.354 N 
ATOM     45  C   UNL     1       6.516   5.509  -5.285  1.00  0.00     0.074 A 
ATOM     46  C   UNL     1       6.103   4.335  -4.546  1.00  0.00     0.031 C 
ATOM     47  C   UNL     1       2.605  10.037  -2.956  1.00  0.00     0.029 A 
ATOM     48  C   UNL     1       3.519  10.137  -4.087  1.00  0.00     0.049 A 
ATOM     49  H   UNL     1       4.650   8.606  -4.936  1.00  0.00     0.167 HD
ATOM     50  C   UNL     1       7.440   5.514  -6.276  1.00  0.00     0.037 A 
ATOM     51  C   UNL     1       3.776  11.271  -4.766  1.00  0.00     0.037 A 
ATOM     52  C   UNL     1       7.798   6.680  -7.045  1.00  0.00     0.049 A 
ATOM     53  C   UNL     1       4.840  11.272  -5.822  1.00  0.00     0.074 A 
ATOM     54  C   UNL     1       8.726   6.793  -8.066  1.00  0.00     0.029 A 
ATOM     55  N   UNL     1       7.221   7.931  -6.891  1.00  0.00    -0.354 N 
ATOM     56  N   UNL     1       5.602  10.286  -6.225  1.00  0.00    -0.248 NA
ATOM     57  C   UNL     1       5.103  12.551  -6.495  1.00  0.00     0.031 C 
ATOM     58  C   UNL     1       8.726   8.119  -8.515  1.00  0.00     0.029 A 
ATOM     59  C   UNL     1       7.773   8.822  -7.797  1.00  0.00     0.049 A 
ATOM     60  H   UNL     1       6.521   8.154  -6.235  1.00  0.00     0.167 HD
ATOM     61  C   UNL     1       6.426  10.818  -7.205  1.00  0.00     0.074 A 
ATOM     62  C   UNL     1       6.065  12.214  -7.343  1.00  0.00     0.031 C 
ATOM     63  C   UNL     1       7.396  10.205  -7.924  1.00  0.00     0.037 A 
BRANCH  50  64
ATOM     64  C   UNL     1       8.166   4.235  -6.571  1.00  0.00     0.064 A 
ATOM     65  C   UNL     1       7.562   3.180  -7.267  1.00  0.00     0.173 A 
ATOM     66  C   UNL     1       9.517   4.096  -6.210  1.00  0.00     0.173 A 
ATOM     67  F   UNL     1       6.271   3.259  -7.625  1.00  0.00    -0.203 F 
ATOM     68  C   UNL     1       8.279   2.028  -7.583  1.00  0.00     0.198 A 
ATOM     69  C   UNL     1      10.237   2.954  -6.549  1.00  0.00     0.198 A 
ATOM     70  F   UNL     1      10.144   5.080  -5.548  1.00  0.00    -0.203 F 
ATOM     71  F   UNL     1       7.675   1.020  -8.227  1.00  0.00    -0.200 F 
ATOM     72  C   UNL     1       9.617   1.920  -7.233  1.00  0.00     0.200 A 
ATOM     73  F   UNL     1      11.533   2.858  -6.220  1.00  0.00    -0.200 F 
ATOM     74  F   UNL     1      10.309   0.818  -7.552  1.00  0.00    -0.200 F 
ENDBRANCH  50  64
BRANCH  51  75
ATOM     75  C   UNL     1       3.050  12.514  -4.403  1.00  0.00     0.064 A 
ATOM     76  C   UNL     1       2.074  13.049  -5.252  1.00  0.00     0.173 A 
ATOM     77  C   UNL     1       3.284  13.163  -3.181  1.00  0.00     0.173 A 
ATOM     78  F   UNL     1       1.836  12.478  -6.442  1.00  0.00    -0.203 F 
ATOM     79  C   UNL     1       1.353  14.185  -4.890  1.00  0.00     0.198 A 
ATOM     80  C   UNL     1       2.542  14.281  -2.807  1.00  0.00     0.198 A 
ATOM     81  F   UNL     1       4.209  12.688  -2.334  1.00  0.00    -0.203 F 
ATOM     82  F   UNL     1       0.440  14.692  -5.729  1.00  0.00    -0.200 F 
ATOM     83  C   UNL     1       1.579  14.792  -3.663  1.00  0.00     0.200 A 
ATOM     84  F   UNL     1       2.753  14.854  -1.614  1.00  0.00    -0.200 F 
ATOM     85  F   UNL     1       0.870  15.872  -3.307  1.00  0.00    -0.200 F 
ENDBRANCH  51  75
BRANCH  63  86
ATOM     86  C   UNL     1       8.104  11.030  -8.953  1.00  0.00     0.064 A 
ATOM     87  C   UNL     1       9.098  11.950  -8.595  1.00  0.00     0.173 A 
ATOM     88  C   UNL     1       7.806  10.872 -10.314  1.00  0.00     0.173 A 
ATOM     89  F   UNL     1       9.404  12.146  -7.303  1.00  0.00    -0.203 F 
ATOM     90  C   UNL     1       9.759  12.698  -9.565  1.00  0.00     0.198 A 
ATOM     91  C   UNL     1       8.482  11.607 -11.283  1.00  0.00     0.198 A 
ATOM     92  F   UNL     1       6.863  10.001 -10.703  1.00  0.00    -0.203 F 
ATOM     93  F   UNL     1      10.683  13.598  -9.201  1.00  0.00    -0.200 F 
ATOM     94  C   UNL     1       9.455  12.522 -10.907  1.00  0.00     0.200 A 
ATOM     95  F   UNL     1       8.191  11.433 -12.579  1.00  0.00    -0.200 F 
ATOM     96  F   UNL     1      10.094  13.242 -11.840  1.00  0.00    -0.200 F 
ENDBRANCH  63  86
ENDBRANCH  37  38
ENDBRANCH  30  32
ENDBRANCH  29  30
ENDBRANCH  28  29
ENDBRANCH   1  28
TORSDOF 14
