REMARK SMILES O=C(OCCOC(=O)[C@@H]1[C@H](C(=O)NCc2ccccc2Cl)[C@@H]2C=C[C@H]1C2)c1ccc(-c2c3nc(c(-c4c(F)c(F)c(F)c(F)c4F)c4ccc([nH]4)c(-c4c(F)c(F)c(F)c(F)c4F)c4nc(c(-c5c(F)c(F)c(F)c(F)c5F)c5ccc2[nH]5)C=C4)C=C3)cc1
REMARK SMILES IDX 5 1 4 2 3 3 2 4 1 5 27 6 28 7 89 8 29 9 88 10 30 11 31 12
REMARK SMILES IDX 32 13 82 14 33 15 87 16 81 17 83 18 34 19 86 20 80 21 79 22
REMARK SMILES IDX 35 24 67 25 47 26 66 27 48 28 51 29 65 30 84 31 49 32 50 33
REMARK SMILES IDX 64 35 85 36 52 37 36 38 37 39 45 40 38 41 39 42 43 43 46 44
REMARK SMILES IDX 40 45 41 46 44 47 42 48 68 49 69 50 77 51 70 52 71 53 75 54
REMARK SMILES IDX 78 55 72 56 73 57 76 58 74 59 53 60 54 61 62 62 55 63 56 64
REMARK SMILES IDX 60 65 63 66 57 67 58 68 61 69 59 70 6 71 7 72 8 73 9 74
REMARK SMILES IDX 10 75 25 76 22 77 24 78 26 79 23 80 11 81 12 82 13 83 14 85
REMARK SMILES IDX 15 86 16 87 20 88 17 89 19 90 21 91 18 92
REMARK H PARENT 83 23 51 34 13 84
REMARK Flexibility Score: inf
ROOT
ATOM      1  C   UNL     1       4.787   1.058  -0.357  1.00  0.00     0.274 C 
ENDROOT
BRANCH   1   2
ATOM      2  C   UNL     1       4.581  -0.336  -0.979  1.00  0.00     0.275 C 
BRANCH   2   3
ATOM      3  O   UNL     1       3.429  -1.123  -0.618  1.00  0.00    -0.458 OA
BRANCH   3   4
ATOM      4  C   UNL     1       3.144  -1.764   0.538  1.00  0.00     0.338 C 
ATOM      5  O   UNL     1       2.244  -2.595   0.596  1.00  0.00    -0.246 OA
BRANCH   4   6
ATOM      6  C   UNL     1       3.793  -1.336   1.798  1.00  0.00     0.060 A 
ATOM      7  C   UNL     1       5.152  -1.034   1.893  1.00  0.00     0.016 A 
ATOM      8  C   UNL     1       2.973  -1.197   2.929  1.00  0.00     0.016 A 
ATOM      9  C   UNL     1       5.659  -0.434   3.038  1.00  0.00     0.010 A 
ATOM     10  C   UNL     1       3.490  -0.661   4.108  1.00  0.00     0.010 A 
ATOM     11  C   UNL     1       4.836  -0.260   4.153  1.00  0.00    -0.014 A 
BRANCH  11  12
ATOM     12  C   UNL     1       5.492   0.012   5.442  1.00  0.00     0.031 A 
ATOM     13  C   UNL     1       5.998  -1.195   6.165  1.00  0.00     0.074 A 
ATOM     14  C   UNL     1       5.736   1.254   5.892  1.00  0.00     0.049 A 
ATOM     15  N   UNL     1       6.749  -1.257   7.226  1.00  0.00    -0.248 NA
ATOM     16  C   UNL     1       5.705  -2.504   5.549  1.00  0.00     0.031 C 
ATOM     17  C   UNL     1       5.497   2.491   5.160  1.00  0.00     0.029 A 
ATOM     18  N   UNL     1       6.237   1.688   7.090  1.00  0.00    -0.354 N 
ATOM     19  C   UNL     1       7.086  -2.594   7.351  1.00  0.00     0.074 A 
ATOM     20  C   UNL     1       6.416  -3.323   6.303  1.00  0.00     0.031 C 
ATOM     21  C   UNL     1       5.683   3.544   5.971  1.00  0.00     0.029 A 
ATOM     22  C   UNL     1       6.156   3.050   7.255  1.00  0.00     0.049 A 
ATOM     23  H   UNL     1       6.617   1.083   7.768  1.00  0.00     0.167 HD
ATOM     24  C   UNL     1       7.918  -3.149   8.256  1.00  0.00     0.037 A 
ATOM     25  C   UNL     1       6.463   3.810   8.321  1.00  0.00     0.037 A 
ATOM     26  C   UNL     1       8.490  -2.406   9.340  1.00  0.00     0.049 A 
ATOM     27  C   UNL     1       7.191   3.134   9.446  1.00  0.00     0.074 A 
ATOM     28  C   UNL     1       9.275  -2.859  10.379  1.00  0.00     0.029 A 
ATOM     29  N   UNL     1       8.293  -1.043   9.540  1.00  0.00    -0.354 N 
ATOM     30  N   UNL     1       7.540   1.873   9.552  1.00  0.00    -0.248 NA
ATOM     31  C   UNL     1       7.636   3.980  10.556  1.00  0.00     0.031 C 
ATOM     32  C   UNL     1       9.490  -1.786  11.250  1.00  0.00     0.029 A 
ATOM     33  C   UNL     1       8.901  -0.647  10.717  1.00  0.00     0.049 A 
ATOM     34  H   UNL     1       7.794  -0.449   8.934  1.00  0.00     0.167 HD
ATOM     35  C   UNL     1       8.294   1.779  10.708  1.00  0.00     0.074 A 
ATOM     36  C   UNL     1       8.346   3.117  11.271  1.00  0.00     0.031 C 
ATOM     37  C   UNL     1       8.908   0.696  11.246  1.00  0.00     0.037 A 
BRANCH  24  38
ATOM     38  C   UNL     1       8.155  -4.620   8.127  1.00  0.00     0.064 A 
ATOM     39  C   UNL     1       8.915  -5.157   7.074  1.00  0.00     0.173 A 
ATOM     40  C   UNL     1       7.548  -5.511   9.021  1.00  0.00     0.173 A 
ATOM     41  F   UNL     1       9.476  -4.346   6.163  1.00  0.00    -0.203 F 
ATOM     42  C   UNL     1       9.038  -6.534   6.911  1.00  0.00     0.198 A 
ATOM     43  C   UNL     1       7.694  -6.886   8.870  1.00  0.00     0.198 A 
ATOM     44  F   UNL     1       6.788  -5.047  10.025  1.00  0.00    -0.203 F 
ATOM     45  F   UNL     1       9.713  -7.027   5.863  1.00  0.00    -0.200 F 
ATOM     46  C   UNL     1       8.431  -7.397   7.811  1.00  0.00     0.200 A 
ATOM     47  F   UNL     1       7.100  -7.719   9.735  1.00  0.00    -0.200 F 
ATOM     48  F   UNL     1       8.538  -8.723   7.647  1.00  0.00    -0.200 F 
ENDBRANCH  24  38
BRANCH  25  49
ATOM     49  C   UNL     1       6.147   5.263   8.327  1.00  0.00     0.064 A 
ATOM     50  C   UNL     1       7.148   6.239   8.252  1.00  0.00     0.173 A 
ATOM     51  C   UNL     1       4.815   5.704   8.401  1.00  0.00     0.173 A 
ATOM     52  F   UNL     1       8.436   5.873   8.185  1.00  0.00    -0.203 F 
ATOM     53  C   UNL     1       6.834   7.599   8.273  1.00  0.00     0.198 A 
ATOM     54  C   UNL     1       4.501   7.063   8.403  1.00  0.00     0.198 A 
ATOM     55  F   UNL     1       3.815   4.813   8.468  1.00  0.00    -0.203 F 
ATOM     56  F   UNL     1       7.815   8.511   8.235  1.00  0.00    -0.200 F 
ATOM     57  C   UNL     1       5.511   8.010   8.346  1.00  0.00     0.200 A 
ATOM     58  F   UNL     1       3.220   7.454   8.463  1.00  0.00    -0.200 F 
ATOM     59  F   UNL     1       5.212   9.316   8.367  1.00  0.00    -0.200 F 
ENDBRANCH  25  49
BRANCH  37  60
ATOM     60  C   UNL     1       9.691   0.924  12.501  1.00  0.00     0.064 A 
ATOM     61  C   UNL     1       9.056   1.197  13.720  1.00  0.00     0.173 A 
ATOM     62  C   UNL     1      11.089   0.815  12.489  1.00  0.00     0.173 A 
ATOM     63  F   UNL     1       7.721   1.324  13.774  1.00  0.00    -0.203 F 
ATOM     64  C   UNL     1       9.798   1.381  14.881  1.00  0.00     0.198 A 
ATOM     65  C   UNL     1      11.824   0.961  13.659  1.00  0.00     0.198 A 
ATOM     66  F   UNL     1      11.738   0.546  11.346  1.00  0.00    -0.203 F 
ATOM     67  F   UNL     1       9.177   1.694  16.026  1.00  0.00    -0.200 F 
ATOM     68  C   UNL     1      11.179   1.252  14.852  1.00  0.00     0.200 A 
ATOM     69  F   UNL     1      13.156   0.817  13.633  1.00  0.00    -0.200 F 
ATOM     70  F   UNL     1      11.891   1.416  15.975  1.00  0.00    -0.200 F 
ENDBRANCH  37  60
ENDBRANCH  11  12
ENDBRANCH   4   6
ENDBRANCH   3   4
ENDBRANCH   2   3
ENDBRANCH   1   2
BRANCH   1  71
ATOM     71  O   UNL     1       4.011   1.441   0.784  1.00  0.00    -0.462 OA
BRANCH  71  72
ATOM     72  C   UNL     1       2.676   1.600   0.606  1.00  0.00     0.310 C 
ATOM     73  O   UNL     1       2.083   1.331  -0.432  1.00  0.00    -0.252 OA
BRANCH  72  74
ATOM     74  C   UNL     1       1.986   1.978   1.890  1.00  0.00     0.119 C 
ATOM     75  C   UNL     1       0.737   2.885   1.856  1.00  0.00     0.100 C 
ATOM     76  C   UNL     1       2.827   2.627   3.008  1.00  0.00     0.027 C 
ATOM     77  C   UNL     1       0.979   3.872   3.037  1.00  0.00     0.025 C 
ATOM     78  C   UNL     1       3.240   4.049   2.715  1.00  0.00    -0.027 C 
ATOM     79  C   UNL     1       1.728   2.953   4.026  1.00  0.00     0.017 C 
ATOM     80  C   UNL     1       2.128   4.800   2.751  1.00  0.00    -0.027 C 
BRANCH  75  81
ATOM     81  C   UNL     1       0.192   3.399   0.525  1.00  0.00     0.224 C 
ATOM     82  O   UNL     1      -1.019   3.258   0.303  1.00  0.00    -0.275 OA
ATOM     83  N   UNL     1       0.907   3.999  -0.460  1.00  0.00    -0.352 N 
ATOM     84  H   UNL     1       0.454   4.013  -1.334  1.00  0.00     0.163 HD
BRANCH  83  85
ATOM     85  C   UNL     1       2.211   4.620  -0.462  1.00  0.00     0.153 C 
BRANCH  85  86
ATOM     86  C   UNL     1       3.165   4.296  -1.588  1.00  0.00    -0.010 A 
ATOM     87  C   UNL     1       2.918   3.289  -2.535  1.00  0.00     0.007 A 
ATOM     88  C   UNL     1       4.429   4.924  -1.613  1.00  0.00     0.046 A 
ATOM     89  C   UNL     1       3.913   2.891  -3.438  1.00  0.00     0.000 A 
ATOM     90  C   UNL     1       5.418   4.530  -2.520  1.00  0.00     0.021 A 
ATOM     91  Cl  UNL     1       4.851   6.166  -0.481  1.00  0.00    -0.084 Cl
ATOM     92  C   UNL     1       5.164   3.503  -3.425  1.00  0.00     0.002 A 
ENDBRANCH  85  86
ENDBRANCH  83  85
ENDBRANCH  75  81
ENDBRANCH  72  74
ENDBRANCH  71  72
ENDBRANCH   1  71
TORSDOF 14
