REMARK SMILES COc1ccc2c(c1)c(CC(=O)OCCOC(=O)c1ccc(-c3c4nc(c(-c5c(F)c(F)c(F)c(F)c5F)c5ccc([nH]5)c(-c5c(F)c(F)c(F)c(F)c5F)c5nc(c(-c6c(F)c(F)c(F)c(F)c6F)c6ccc3[nH]6)C=C5)C=C4)cc1)c(C)n2Cc1ccc(Br)cc1
REMARK SMILES IDX 14 1 13 2 11 3 12 4 10 5 9 6 3 7 4 8 8 9 5 10 7 11 6 12
REMARK SMILES IDX 84 13 82 14 83 15 2 16 1 17 85 18 86 19 87 20 92 21 88 22
REMARK SMILES IDX 91 23 89 24 90 25 15 26 16 27 17 28 18 29 19 30 20 31 81 32
REMARK SMILES IDX 21 33 80 34 22 35 23 36 24 37 74 38 25 39 79 40 73 41 75 42
REMARK SMILES IDX 26 43 78 44 72 45 71 46 27 48 59 49 39 50 58 51 40 52 43 53
REMARK SMILES IDX 57 54 76 55 41 56 42 57 56 59 77 60 44 61 28 62 29 63 37 64
REMARK SMILES IDX 30 65 31 66 35 67 38 68 32 69 33 70 36 71 34 72 60 73 61 74
REMARK SMILES IDX 69 75 62 76 63 77 67 78 70 79 64 80 65 81 68 82 66 83 45 84
REMARK SMILES IDX 46 85 54 86 47 87 48 88 52 89 55 90 49 91 50 92 53 93 51 94
REMARK H PARENT 75 47 43 58
REMARK Flexibility Score: inf
ROOT
ATOM      1  C   UNL     1      -1.430   4.096  -5.966  1.00  0.00     0.274 C 
ENDROOT
BRANCH   1   2
ATOM      2  O   UNL     1      -0.917   4.637  -4.721  1.00  0.00    -0.462 OA
BRANCH   2   3
ATOM      3  C   UNL     1      -1.851   5.249  -3.959  1.00  0.00     0.310 C 
ATOM      4  O   UNL     1      -3.038   5.291  -4.281  1.00  0.00    -0.252 OA
BRANCH   3   5
ATOM      5  C   UNL     1      -1.360   6.025  -2.764  1.00  0.00     0.160 C 
BRANCH   5   6
ATOM      6  C   UNL     1       0.001   5.840  -2.158  1.00  0.00    -0.008 A 
ATOM      7  C   UNL     1       1.553   2.444  -1.093  1.00  0.00     0.119 A 
ATOM      8  C   UNL     1       2.838   2.910  -0.929  1.00  0.00     0.048 A 
ATOM      9  C   UNL     1       0.552   3.328  -1.492  1.00  0.00     0.057 A 
ATOM     10  C   UNL     1       3.109   4.279  -1.086  1.00  0.00     0.031 A 
ATOM     11  C   UNL     1       0.765   4.706  -1.700  1.00  0.00     0.007 A 
ATOM     12  C   UNL     1       2.060   5.165  -1.424  1.00  0.00     0.049 A 
ATOM     13  N   UNL     1       2.028   6.538  -1.583  1.00  0.00    -0.340 N 
ATOM     14  C   UNL     1       0.720   6.947  -1.715  1.00  0.00     0.020 A 
ATOM     15  C   UNL     1       0.223   8.342  -1.510  1.00  0.00     0.065 C 
BRANCH   7  16
ATOM     16  O   UNL     1       1.189   1.126  -1.038  1.00  0.00    -0.497 OA
ATOM     17  C   UNL     1       1.503   0.466   0.182  1.00  0.00     0.278 C 
ENDBRANCH   7  16
BRANCH  13  18
ATOM     18  C   UNL     1       3.191   7.419  -1.626  1.00  0.00     0.157 C 
BRANCH  18  19
ATOM     19  C   UNL     1       3.471   7.851  -3.051  1.00  0.00    -0.028 A 
ATOM     20  C   UNL     1       2.744   8.894  -3.649  1.00  0.00     0.007 A 
ATOM     21  C   UNL     1       4.413   7.164  -3.829  1.00  0.00     0.007 A 
ATOM     22  C   UNL     1       2.903   9.205  -4.999  1.00  0.00     0.016 A 
ATOM     23  C   UNL     1       4.604   7.500  -5.173  1.00  0.00     0.016 A 
ATOM     24  C   UNL     1       3.836   8.505  -5.756  1.00  0.00     0.017 A 
ATOM     25  Br  UNL     1       4.051   8.920  -7.586  1.00  0.00    -0.051 Br
ENDBRANCH  18  19
ENDBRANCH  13  18
ENDBRANCH   5   6
ENDBRANCH   3   5
ENDBRANCH   2   3
ENDBRANCH   1   2
BRANCH   1  26
ATOM     26  C   UNL     1      -1.718   2.594  -5.862  1.00  0.00     0.275 C 
BRANCH  26  27
ATOM     27  O   UNL     1      -2.922   2.383  -5.102  1.00  0.00    -0.458 OA
BRANCH  27  28
ATOM     28  C   UNL     1      -2.785   1.741  -3.918  1.00  0.00     0.338 C 
ATOM     29  O   UNL     1      -1.857   1.032  -3.561  1.00  0.00    -0.246 OA
BRANCH  28  30
ATOM     30  C   UNL     1      -3.717   2.411  -2.994  1.00  0.00     0.060 A 
ATOM     31  C   UNL     1      -5.068   2.608  -3.239  1.00  0.00     0.016 A 
ATOM     32  C   UNL     1      -3.095   3.123  -1.979  1.00  0.00     0.016 A 
ATOM     33  C   UNL     1      -5.715   3.656  -2.578  1.00  0.00     0.010 A 
ATOM     34  C   UNL     1      -3.716   4.154  -1.321  1.00  0.00     0.010 A 
ATOM     35  C   UNL     1      -4.998   4.489  -1.704  1.00  0.00    -0.014 A 
BRANCH  35  36
ATOM     36  C   UNL     1      -5.587   5.667  -1.094  1.00  0.00     0.031 A 
ATOM     37  C   UNL     1      -6.208   5.408   0.220  1.00  0.00     0.074 A 
ATOM     38  C   UNL     1      -5.454   6.946  -1.502  1.00  0.00     0.049 A 
ATOM     39  N   UNL     1      -7.472   5.327   0.461  1.00  0.00    -0.248 NA
ATOM     40  C   UNL     1      -5.345   5.100   1.368  1.00  0.00     0.031 C 
ATOM     41  C   UNL     1      -4.620   7.530  -2.546  1.00  0.00     0.029 A 
ATOM     42  N   UNL     1      -6.078   8.039  -0.975  1.00  0.00    -0.354 N 
ATOM     43  C   UNL     1      -7.581   5.081   1.818  1.00  0.00     0.074 A 
ATOM     44  C   UNL     1      -6.251   4.806   2.300  1.00  0.00     0.031 C 
ATOM     45  C   UNL     1      -4.655   8.882  -2.468  1.00  0.00     0.029 A 
ATOM     46  C   UNL     1      -5.655   9.255  -1.486  1.00  0.00     0.049 A 
ATOM     47  H   UNL     1      -6.776   7.968  -0.285  1.00  0.00     0.167 HD
ATOM     48  C   UNL     1      -8.742   5.301   2.488  1.00  0.00     0.037 A 
ATOM     49  C   UNL     1      -6.118  10.478  -1.133  1.00  0.00     0.037 A 
ATOM     50  C   UNL     1      -9.853   5.497   1.595  1.00  0.00     0.049 A 
ATOM     51  C   UNL     1      -7.462  10.276  -0.536  1.00  0.00     0.074 A 
ATOM     52  C   UNL     1     -10.461   4.713   0.632  1.00  0.00     0.029 A 
ATOM     53  N   UNL     1     -10.246   6.784   1.317  1.00  0.00    -0.354 N 
ATOM     54  N   UNL     1      -8.510   9.892  -1.210  1.00  0.00    -0.248 NA
ATOM     55  C   UNL     1      -7.546  10.104   0.905  1.00  0.00     0.031 C 
ATOM     56  C   UNL     1     -10.771   5.607  -0.438  1.00  0.00     0.029 A 
ATOM     57  C   UNL     1     -10.367   6.884  -0.049  1.00  0.00     0.049 A 
ATOM     58  H   UNL     1     -10.409   7.500   1.972  1.00  0.00     0.167 HD
ATOM     59  C   UNL     1      -9.203   9.062  -0.342  1.00  0.00     0.074 A 
ATOM     60  C   UNL     1      -8.616   9.310   0.971  1.00  0.00     0.031 C 
ATOM     61  C   UNL     1      -9.999   8.057  -0.810  1.00  0.00     0.037 A 
BRANCH  48  62
ATOM     62  C   UNL     1      -8.798   5.601   3.951  1.00  0.00     0.064 A 
ATOM     63  C   UNL     1      -9.992   5.409   4.663  1.00  0.00     0.173 A 
ATOM     64  C   UNL     1      -7.766   6.278   4.636  1.00  0.00     0.173 A 
ATOM     65  F   UNL     1     -11.048   4.824   4.078  1.00  0.00    -0.203 F 
ATOM     66  C   UNL     1     -10.143   5.871   5.972  1.00  0.00     0.198 A 
ATOM     67  C   UNL     1      -7.897   6.682   5.960  1.00  0.00     0.198 A 
ATOM     68  F   UNL     1      -6.639   6.653   4.014  1.00  0.00    -0.203 F 
ATOM     69  F   UNL     1     -11.326   5.748   6.588  1.00  0.00    -0.200 F 
ATOM     70  C   UNL     1      -9.092   6.496   6.623  1.00  0.00     0.200 A 
ATOM     71  F   UNL     1      -6.877   7.308   6.564  1.00  0.00    -0.200 F 
ATOM     72  F   UNL     1      -9.246   6.963   7.869  1.00  0.00    -0.200 F 
ENDBRANCH  48  62
BRANCH  49  73
ATOM     73  C   UNL     1      -5.397  11.765  -1.026  1.00  0.00     0.064 A 
ATOM     74  C   UNL     1      -6.102  12.976  -0.914  1.00  0.00     0.173 A 
ATOM     75  C   UNL     1      -4.027  11.803  -0.708  1.00  0.00     0.173 A 
ATOM     76  F   UNL     1      -7.417  13.018  -1.175  1.00  0.00    -0.203 F 
ATOM     77  C   UNL     1      -5.486  14.143  -0.454  1.00  0.00     0.198 A 
ATOM     78  C   UNL     1      -3.412  12.971  -0.253  1.00  0.00     0.198 A 
ATOM     79  F   UNL     1      -3.283  10.688  -0.736  1.00  0.00    -0.203 F 
ATOM     80  F   UNL     1      -6.209  15.258  -0.284  1.00  0.00    -0.200 F 
ATOM     81  C   UNL     1      -4.145  14.134  -0.105  1.00  0.00     0.200 A 
ATOM     82  F   UNL     1      -2.121  12.943   0.111  1.00  0.00    -0.200 F 
ATOM     83  F   UNL     1      -3.573  15.230   0.412  1.00  0.00    -0.200 F 
ENDBRANCH  49  73
BRANCH  61  84
ATOM     84  C   UNL     1     -10.302   8.037  -2.285  1.00  0.00     0.064 A 
ATOM     85  C   UNL     1      -9.328   7.846  -3.281  1.00  0.00     0.173 A 
ATOM     86  C   UNL     1     -11.640   8.071  -2.697  1.00  0.00     0.173 A 
ATOM     87  F   UNL     1      -8.035   7.711  -2.963  1.00  0.00    -0.203 F 
ATOM     88  C   UNL     1      -9.677   7.731  -4.627  1.00  0.00     0.198 A 
ATOM     89  C   UNL     1     -11.990   7.922  -4.037  1.00  0.00     0.198 A 
ATOM     90  F   UNL     1     -12.619   8.201  -1.788  1.00  0.00    -0.203 F 
ATOM     91  F   UNL     1      -8.726   7.557  -5.558  1.00  0.00    -0.200 F 
ATOM     92  C   UNL     1     -11.009   7.761  -5.002  1.00  0.00     0.200 A 
ATOM     93  F   UNL     1     -13.283   7.906  -4.391  1.00  0.00    -0.200 F 
ATOM     94  F   UNL     1     -11.350   7.607  -6.290  1.00  0.00    -0.200 F 
ENDBRANCH  61  84
ENDBRANCH  35  36
ENDBRANCH  28  30
ENDBRANCH  27  28
ENDBRANCH  26  27
ENDBRANCH   1  26
TORSDOF 15
