REMARK SMILES C[C@H]1[NH2+]CC[C@H]1C(=O)N1CCC(C(=O)OCCOC(=O)c2ccc(-c3c4nc(c(-c5c(F)c(F)c(F)c(F)c5F)c5ccc([nH]5)c(-c5c(F)c(F)c(F)c(F)c5F)c5nc(c(-c6c(F)c(F)c(F)c(F)c6F)c6ccc3[nH]6)C=C5)C=C4)cc2)CC1
REMARK SMILES IDX 17 1 16 2 15 3 13 4 14 5 12 6 7 7 8 8 9 9 10 10 85 11 11 12
REMARK SMILES IDX 84 13 6 14 1 15 2 16 3 17 4 18 5 21 18 22 19 23 20 24 21 25
REMARK SMILES IDX 22 26 83 27 23 28 82 29 24 30 25 31 26 32 76 33 27 34 81 35
REMARK SMILES IDX 75 36 77 37 28 38 80 39 74 40 73 41 29 43 61 44 41 45 60 46
REMARK SMILES IDX 42 47 45 48 59 49 78 50 43 51 44 52 58 54 79 55 46 56 30 57
REMARK SMILES IDX 31 58 39 59 32 60 33 61 37 62 40 63 34 64 35 65 38 66 36 67
REMARK SMILES IDX 62 68 63 69 71 70 64 71 65 72 69 73 72 74 66 75 67 76 70 77
REMARK SMILES IDX 68 78 47 79 48 80 56 81 49 82 50 83 54 84 57 85 51 86 52 87
REMARK SMILES IDX 55 88 53 89
REMARK H PARENT 3 19 3 20 77 42 45 53
REMARK Flexibility Score: inf
ROOT
ATOM      1  C   UNL     1       6.233   7.332   2.866  1.00  0.00     0.275 C 
ENDROOT
BRANCH   1   2
ATOM      2  C   UNL     1       6.306   6.283   1.752  1.00  0.00     0.274 C 
BRANCH   2   3
ATOM      3  O   UNL     1       5.048   5.600   1.587  1.00  0.00    -0.462 OA
BRANCH   3   4
ATOM      4  C   UNL     1       4.963   4.367   2.143  1.00  0.00     0.309 C 
ATOM      5  O   UNL     1       5.884   3.797   2.720  1.00  0.00    -0.252 OA
BRANCH   4   6
ATOM      6  C   UNL     1       3.568   3.778   2.089  1.00  0.00     0.103 C 
ATOM      7  C   UNL     1       0.982   2.061  -0.246  1.00  0.00     0.231 C 
ATOM      8  O   UNL     1       1.505   2.640  -1.198  1.00  0.00    -0.274 OA
ATOM      9  N   UNL     1       1.244   2.434   1.064  1.00  0.00    -0.342 N 
ATOM     10  C   UNL     1       1.160   3.851   1.403  1.00  0.00     0.120 C 
ATOM     11  C   UNL     1       2.244   1.689   1.812  1.00  0.00     0.120 C 
ATOM     12  C   UNL     1       2.514   4.558   1.299  1.00  0.00     0.037 C 
ATOM     13  C   UNL     1       3.621   2.320   1.622  1.00  0.00     0.037 C 
BRANCH   7  14
ATOM     14  C   UNL     1      -0.069   0.979  -0.459  1.00  0.00     0.142 C 
ATOM     15  C   UNL     1       1.586  -1.026  -0.286  1.00  0.00     0.076 C 
ATOM     16  C   UNL     1       0.396  -0.376  -0.986  1.00  0.00     0.192 C 
ATOM     17  N   UNL     1      -0.794  -1.237  -0.811  1.00  0.00    -0.343 N 
ATOM     18  C   UNL     1      -1.647  -0.652   0.230  1.00  0.00     0.261 C 
ATOM     19  H   UNL     1      -0.502  -2.173  -0.529  1.00  0.00     0.346 HD
ATOM     20  H   UNL     1      -1.309  -1.302  -1.689  1.00  0.00     0.346 HD
ATOM     21  C   UNL     1      -0.962   0.616   0.712  1.00  0.00     0.081 C 
ENDBRANCH   7  14
ENDBRANCH   4   6
ENDBRANCH   3   4
ENDBRANCH   2   3
ENDBRANCH   1   2
BRANCH   1  22
ATOM     22  O   UNL     1       6.059   6.741   4.170  1.00  0.00    -0.458 OA
BRANCH  22  23
ATOM     23  C   UNL     1       4.772   6.609   4.564  1.00  0.00     0.338 C 
ATOM     24  O   UNL     1       3.771   6.926   3.945  1.00  0.00    -0.246 OA
BRANCH  23  25
ATOM     25  C   UNL     1       4.690   5.902   5.852  1.00  0.00     0.060 A 
ATOM     26  C   UNL     1       4.108   4.635   5.851  1.00  0.00     0.016 A 
ATOM     27  C   UNL     1       5.005   6.530   7.056  1.00  0.00     0.016 A 
ATOM     28  C   UNL     1       3.770   4.012   7.044  1.00  0.00     0.010 A 
ATOM     29  C   UNL     1       4.698   5.886   8.264  1.00  0.00     0.010 A 
ATOM     30  C   UNL     1       4.046   4.639   8.263  1.00  0.00    -0.014 A 
BRANCH  30  31
ATOM     31  C   UNL     1       3.566   4.002   9.514  1.00  0.00     0.031 A 
ATOM     32  C   UNL     1       2.418   4.608  10.271  1.00  0.00     0.074 A 
ATOM     33  C   UNL     1       4.101   2.837   9.922  1.00  0.00     0.049 A 
ATOM     34  N   UNL     1       1.877   4.228  11.401  1.00  0.00    -0.248 NA
ATOM     35  C   UNL     1       1.792   5.799   9.676  1.00  0.00     0.031 C 
ATOM     36  C   UNL     1       5.176   2.117   9.239  1.00  0.00     0.029 A 
ATOM     37  N   UNL     1       3.800   2.044  11.000  1.00  0.00    -0.354 N 
ATOM     38  C   UNL     1       0.875   5.149  11.671  1.00  0.00     0.074 A 
ATOM     39  C   UNL     1       0.882   6.111  10.589  1.00  0.00     0.031 C 
ATOM     40  C   UNL     1       5.430   0.977   9.901  1.00  0.00     0.029 A 
ATOM     41  C   UNL     1       4.572   0.912  11.081  1.00  0.00     0.049 A 
ATOM     42  H   UNL     1       3.097   2.265  11.653  1.00  0.00     0.167 HD
ATOM     43  C   UNL     1       0.026   5.189  12.725  1.00  0.00     0.037 A 
ATOM     44  C   UNL     1       4.597  -0.059  12.012  1.00  0.00     0.037 A 
ATOM     45  C   UNL     1      -0.004   4.213  13.783  1.00  0.00     0.049 A 
ATOM     46  C   UNL     1       3.657   0.018  13.183  1.00  0.00     0.074 A 
ATOM     47  C   UNL     1      -0.817   4.174  14.902  1.00  0.00     0.029 A 
ATOM     48  N   UNL     1       0.811   3.092  13.843  1.00  0.00    -0.354 N 
ATOM     49  N   UNL     1       2.744   0.919  13.452  1.00  0.00    -0.248 NA
ATOM     50  C   UNL     1       3.756  -1.054  14.182  1.00  0.00     0.031 C 
ATOM     51  C   UNL     1      -0.478   3.042  15.652  1.00  0.00     0.029 A 
ATOM     52  C   UNL     1       0.522   2.357  14.981  1.00  0.00     0.049 A 
ATOM     53  H   UNL     1       1.494   2.854  13.175  1.00  0.00     0.167 HD
ATOM     54  C   UNL     1       2.151   0.518  14.640  1.00  0.00     0.074 A 
ATOM     55  C   UNL     1       2.794  -0.720  15.031  1.00  0.00     0.031 C 
ATOM     56  C   UNL     1       1.167   1.124  15.348  1.00  0.00     0.037 A 
BRANCH  43  57
ATOM     57  C   UNL     1      -0.921   6.348  12.804  1.00  0.00     0.064 A 
ATOM     58  C   UNL     1      -2.052   6.436  11.980  1.00  0.00     0.173 A 
ATOM     59  C   UNL     1      -0.704   7.373  13.737  1.00  0.00     0.173 A 
ATOM     60  F   UNL     1      -2.292   5.489  11.061  1.00  0.00    -0.203 F 
ATOM     61  C   UNL     1      -2.921   7.520  12.074  1.00  0.00     0.198 A 
ATOM     62  C   UNL     1      -1.587   8.444  13.844  1.00  0.00     0.198 A 
ATOM     63  F   UNL     1       0.363   7.334  14.549  1.00  0.00    -0.203 F 
ATOM     64  F   UNL     1      -3.975   7.605  11.250  1.00  0.00    -0.200 F 
ATOM     65  C   UNL     1      -2.692   8.519  13.009  1.00  0.00     0.200 A 
ATOM     66  F   UNL     1      -1.368   9.405  14.752  1.00  0.00    -0.200 F 
ATOM     67  F   UNL     1      -3.531   9.560  13.099  1.00  0.00    -0.200 F 
ENDBRANCH  43  57
BRANCH  44  68
ATOM     68  C   UNL     1       5.559  -1.182  11.881  1.00  0.00     0.064 A 
ATOM     69  C   UNL     1       5.120  -2.478  11.580  1.00  0.00     0.173 A 
ATOM     70  C   UNL     1       6.936  -0.981  12.056  1.00  0.00     0.173 A 
ATOM     71  F   UNL     1       3.810  -2.722  11.429  1.00  0.00    -0.203 F 
ATOM     72  C   UNL     1       6.021  -3.534  11.469  1.00  0.00     0.198 A 
ATOM     73  C   UNL     1       7.839  -2.033  11.919  1.00  0.00     0.198 A 
ATOM     74  F   UNL     1       7.405   0.241  12.346  1.00  0.00    -0.203 F 
ATOM     75  F   UNL     1       5.573  -4.771  11.218  1.00  0.00    -0.200 F 
ATOM     76  C   UNL     1       7.380  -3.309  11.632  1.00  0.00     0.200 A 
ATOM     77  F   UNL     1       9.152  -1.809  12.067  1.00  0.00    -0.200 F 
ATOM     78  F   UNL     1       8.248  -4.325  11.520  1.00  0.00    -0.200 F 
ENDBRANCH  44  68
BRANCH  56  79
ATOM     79  C   UNL     1       0.709   0.438  16.599  1.00  0.00     0.064 A 
ATOM     80  C   UNL     1       1.484   0.451  17.767  1.00  0.00     0.173 A 
ATOM     81  C   UNL     1      -0.529  -0.222  16.634  1.00  0.00     0.173 A 
ATOM     82  F   UNL     1       2.681   1.055  17.776  1.00  0.00    -0.203 F 
ATOM     83  C   UNL     1       1.047  -0.195  18.921  1.00  0.00     0.198 A 
ATOM     84  C   UNL     1      -0.972  -0.847  17.796  1.00  0.00     0.198 A 
ATOM     85  F   UNL     1      -1.307  -0.258  15.542  1.00  0.00    -0.203 F 
ATOM     86  F   UNL     1       1.823  -0.208  20.014  1.00  0.00    -0.200 F 
ATOM     87  C   UNL     1      -0.182  -0.839  18.936  1.00  0.00     0.200 A 
ATOM     88  F   UNL     1      -2.162  -1.463  17.811  1.00  0.00    -0.200 F 
ATOM     89  F   UNL     1      -0.600  -1.461  20.047  1.00  0.00    -0.200 F 
ENDBRANCH  56  79
ENDBRANCH  30  31
ENDBRANCH  23  25
ENDBRANCH  22  23
ENDBRANCH   1  22
TORSDOF 12
