REMARK SMILES CC(C)c1cc(OCC(=O)OCCOC(=O)c2ccc(-c3c4nc(c(-c5c(F)c(F)c(F)c(F)c5F)c5ccc([nH]5)c(-c5c(F)c(F)c(F)c(F)c5F)c5nc(c(-c6c(F)c(F)c(F)c(F)c6F)c6ccc3[nH]6)C=C5)C=C4)cc2)nc(Nc2ccc(F)cc2F)n1
REMARK SMILES IDX 12 1 11 2 9 3 10 4 8 5 7 6 6 7 4 8 5 9 91 10 81 11 80 12
REMARK SMILES IDX 2 13 1 14 3 15 82 16 83 18 84 19 89 20 85 21 88 22 90 23
REMARK SMILES IDX 86 24 87 25 13 26 14 27 15 28 16 29 17 30 18 31 79 32 19 33
REMARK SMILES IDX 78 34 20 35 21 36 22 37 72 38 23 39 77 40 71 41 73 42 24 43
REMARK SMILES IDX 76 44 70 45 69 46 25 48 57 49 37 50 56 51 38 52 41 53 55 54
REMARK SMILES IDX 74 55 39 56 40 57 54 59 75 60 42 61 26 62 27 63 35 64 28 65
REMARK SMILES IDX 29 66 33 67 36 68 30 69 31 70 34 71 32 72 58 73 59 74 67 75
REMARK SMILES IDX 60 76 61 77 65 78 68 79 62 80 63 81 66 82 64 83 43 84 44 85
REMARK SMILES IDX 52 86 45 87 46 88 50 89 53 90 47 91 48 92 51 93 49 94
REMARK H PARENT 82 17 73 47 41 58
REMARK Flexibility Score: inf
ROOT
ATOM      1  C   UNL     1      -2.220  -5.290  -3.775  1.00  0.00     0.274 C 
ENDROOT
BRANCH   1   2
ATOM      2  O   UNL     1      -2.906  -4.504  -2.780  1.00  0.00    -0.460 OA
BRANCH   2   3
ATOM      3  C   UNL     1      -3.056  -5.092  -1.564  1.00  0.00     0.344 C 
ATOM      4  O   UNL     1      -2.577  -6.176  -1.244  1.00  0.00    -0.248 OA
BRANCH   3   5
ATOM      5  C   UNL     1      -3.898  -4.262  -0.598  1.00  0.00     0.353 C 
BRANCH   5   6
ATOM      6  O   UNL     1      -4.406  -3.019  -1.044  1.00  0.00    -0.466 OA
BRANCH   6   7
ATOM      7  C   UNL     1      -3.671  -1.896  -0.778  1.00  0.00     0.218 A 
ATOM      8  C   UNL     1      -1.711  -0.655  -0.457  1.00  0.00     0.052 A 
ATOM      9  C   UNL     1      -2.299  -1.887  -0.637  1.00  0.00     0.092 A 
ATOM     10  N   UNL     1      -2.449   0.453  -0.401  1.00  0.00    -0.217 NA
ATOM     11  C   UNL     1      -3.771   0.376  -0.592  1.00  0.00     0.230 A 
ATOM     12  N   UNL     1      -4.423  -0.779  -0.741  1.00  0.00    -0.177 NA
BRANCH   8  13
ATOM     13  C   UNL     1      -0.219  -0.472  -0.340  1.00  0.00     0.032 C 
ATOM     14  C   UNL     1       0.239   0.984  -0.512  1.00  0.00     0.014 C 
ATOM     15  C   UNL     1       0.292  -0.985   0.994  1.00  0.00     0.014 C 
ENDBRANCH   8  13
BRANCH  11  16
ATOM     16  N   UNL     1      -4.477   1.576  -0.583  1.00  0.00    -0.322 N 
ATOM     17  H   UNL     1      -5.461   1.537  -0.571  1.00  0.00     0.170 HD
BRANCH  16  18
ATOM     18  C   UNL     1      -3.864   2.839  -0.591  1.00  0.00     0.077 A 
ATOM     19  C   UNL     1      -4.062   3.719   0.478  1.00  0.00     0.032 A 
ATOM     20  C   UNL     1      -2.875   3.165  -1.545  1.00  0.00     0.149 A 
ATOM     21  C   UNL     1      -3.265   4.862   0.605  1.00  0.00     0.041 A 
ATOM     22  C   UNL     1      -2.088   4.303  -1.432  1.00  0.00     0.080 A 
ATOM     23  F   UNL     1      -2.667   2.359  -2.599  1.00  0.00    -0.205 F 
ATOM     24  C   UNL     1      -2.282   5.136  -0.344  1.00  0.00     0.126 A 
ATOM     25  F   UNL     1      -1.501   6.213  -0.192  1.00  0.00    -0.207 F 
ENDBRANCH  16  18
ENDBRANCH  11  16
ENDBRANCH   6   7
ENDBRANCH   5   6
ENDBRANCH   3   5
ENDBRANCH   2   3
ENDBRANCH   1   2
BRANCH   1  26
ATOM     26  C   UNL     1      -0.738  -4.936  -3.856  1.00  0.00     0.275 C 
BRANCH  26  27
ATOM     27  O   UNL     1      -0.100  -5.129  -2.578  1.00  0.00    -0.458 OA
BRANCH  27  28
ATOM     28  C   UNL     1       0.492  -4.029  -2.071  1.00  0.00     0.338 C 
ATOM     29  O   UNL     1       0.550  -2.922  -2.593  1.00  0.00    -0.246 OA
BRANCH  28  30
ATOM     30  C   UNL     1       1.107  -4.282  -0.756  1.00  0.00     0.060 A 
ATOM     31  C   UNL     1       0.377  -4.813   0.311  1.00  0.00     0.016 A 
ATOM     32  C   UNL     1       2.411  -3.819  -0.552  1.00  0.00     0.016 A 
ATOM     33  C   UNL     1       0.943  -4.837   1.593  1.00  0.00     0.010 A 
ATOM     34  C   UNL     1       2.992  -3.894   0.715  1.00  0.00     0.010 A 
ATOM     35  C   UNL     1       2.256  -4.381   1.807  1.00  0.00    -0.014 A 
BRANCH  35  36
ATOM     36  C   UNL     1       2.898  -4.476   3.146  1.00  0.00     0.031 A 
ATOM     37  C   UNL     1       3.219  -3.256   3.967  1.00  0.00     0.074 A 
ATOM     38  C   UNL     1       3.247  -5.689   3.607  1.00  0.00     0.049 A 
ATOM     39  N   UNL     1       3.815  -3.154   5.129  1.00  0.00    -0.248 NA
ATOM     40  C   UNL     1       2.800  -1.971   3.410  1.00  0.00     0.031 C 
ATOM     41  C   UNL     1       2.999  -6.954   2.919  1.00  0.00     0.029 A 
ATOM     42  N   UNL     1       3.910  -6.047   4.752  1.00  0.00    -0.354 N 
ATOM     43  C   UNL     1       3.809  -1.799   5.444  1.00  0.00     0.074 A 
ATOM     44  C   UNL     1       3.177  -1.110   4.343  1.00  0.00     0.031 C 
ATOM     45  C   UNL     1       3.519  -7.953   3.648  1.00  0.00     0.029 A 
ATOM     46  C   UNL     1       4.175  -7.389   4.825  1.00  0.00     0.049 A 
ATOM     47  H   UNL     1       4.170  -5.404   5.451  1.00  0.00     0.167 HD
ATOM     48  C   UNL     1       4.288  -1.181   6.550  1.00  0.00     0.037 A 
ATOM     49  C   UNL     1       4.902  -8.084   5.717  1.00  0.00     0.037 A 
ATOM     50  C   UNL     1       4.975  -1.854   7.618  1.00  0.00     0.049 A 
ATOM     51  C   UNL     1       5.539  -7.369   6.871  1.00  0.00     0.074 A 
ATOM     52  C   UNL     1       5.493  -1.325   8.787  1.00  0.00     0.029 A 
ATOM     53  N   UNL     1       5.268  -3.208   7.626  1.00  0.00    -0.354 N 
ATOM     54  N   UNL     1       5.486  -6.098   7.186  1.00  0.00    -0.248 NA
ATOM     55  C   UNL     1       6.344  -8.184   7.789  1.00  0.00     0.031 C 
ATOM     56  C   UNL     1       6.144  -2.353   9.479  1.00  0.00     0.029 A 
ATOM     57  C   UNL     1       5.997  -3.527   8.758  1.00  0.00     0.049 A 
ATOM     58  H   UNL     1       4.997  -3.849   6.929  1.00  0.00     0.167 HD
ATOM     59  C   UNL     1       6.237  -5.961   8.344  1.00  0.00     0.074 A 
ATOM     60  C   UNL     1       6.731  -7.281   8.680  1.00  0.00     0.031 C 
ATOM     61  C   UNL     1       6.492  -4.843   9.066  1.00  0.00     0.037 A 
BRANCH  48  62
ATOM     62  C   UNL     1       4.107   0.304   6.652  1.00  0.00     0.064 A 
ATOM     63  C   UNL     1       2.870   0.865   7.003  1.00  0.00     0.173 A 
ATOM     64  C   UNL     1       5.189   1.172   6.444  1.00  0.00     0.173 A 
ATOM     65  F   UNL     1       1.804   0.076   7.201  1.00  0.00    -0.203 F 
ATOM     66  C   UNL     1       2.721   2.244   7.136  1.00  0.00     0.198 A 
ATOM     67  C   UNL     1       5.040   2.549   6.591  1.00  0.00     0.198 A 
ATOM     68  F   UNL     1       6.391   0.684   6.105  1.00  0.00    -0.203 F 
ATOM     69  F   UNL     1       1.526   2.760   7.454  1.00  0.00    -0.200 F 
ATOM     70  C   UNL     1       3.807   3.084   6.936  1.00  0.00     0.200 A 
ATOM     71  F   UNL     1       6.090   3.360   6.402  1.00  0.00    -0.200 F 
ATOM     72  F   UNL     1       3.664   4.410   7.070  1.00  0.00    -0.200 F 
ENDBRANCH  48  62
BRANCH  49  73
ATOM     73  C   UNL     1       5.078  -9.541   5.514  1.00  0.00     0.064 A 
ATOM     74  C   UNL     1       4.398 -10.466   6.313  1.00  0.00     0.173 A 
ATOM     75  C   UNL     1       5.880 -10.030   4.472  1.00  0.00     0.173 A 
ATOM     76  F   UNL     1       3.634 -10.040   7.329  1.00  0.00    -0.203 F 
ATOM     77  C   UNL     1       4.510 -11.834   6.074  1.00  0.00     0.198 A 
ATOM     78  C   UNL     1       5.973 -11.396   4.221  1.00  0.00     0.198 A 
ATOM     79  F   UNL     1       6.544  -9.177   3.678  1.00  0.00    -0.203 F 
ATOM     80  F   UNL     1       3.861 -12.704   6.859  1.00  0.00    -0.200 F 
ATOM     81  C   UNL     1       5.289 -12.296   5.022  1.00  0.00     0.200 A 
ATOM     82  F   UNL     1       6.713 -11.837   3.194  1.00  0.00    -0.200 F 
ATOM     83  F   UNL     1       5.379 -13.611   4.781  1.00  0.00    -0.200 F 
ENDBRANCH  49  73
BRANCH  61  84
ATOM     84  C   UNL     1       7.337  -5.001  10.291  1.00  0.00     0.064 A 
ATOM     85  C   UNL     1       8.726  -5.160  10.201  1.00  0.00     0.173 A 
ATOM     86  C   UNL     1       6.755  -4.962  11.567  1.00  0.00     0.173 A 
ATOM     87  F   UNL     1       9.322  -5.218   9.001  1.00  0.00    -0.203 F 
ATOM     88  C   UNL     1       9.504  -5.295  11.348  1.00  0.00     0.198 A 
ATOM     89  C   UNL     1       7.538  -5.076  12.711  1.00  0.00     0.198 A 
ATOM     90  F   UNL     1       5.430  -4.807  11.701  1.00  0.00    -0.203 F 
ATOM     91  F   UNL     1      10.826  -5.483  11.240  1.00  0.00    -0.200 F 
ATOM     92  C   UNL     1       8.910  -5.248  12.601  1.00  0.00     0.200 A 
ATOM     93  F   UNL     1       6.965  -5.024  13.921  1.00  0.00    -0.200 F 
ATOM     94  F   UNL     1       9.661  -5.377  13.703  1.00  0.00    -0.200 F 
ENDBRANCH  61  84
ENDBRANCH  35  36
ENDBRANCH  28  30
ENDBRANCH  27  28
ENDBRANCH  26  27
ENDBRANCH   1  26
TORSDOF 16
