REMARK SMILES Cc1ccc(-c2ccc(/C=C(\C#N)C3N=c4ccccc4=N3)o2)cc1C(=O)OCCOC(=O)c1ccc(-c2c3nc(c(-c4c(F)c(F)c(F)c(F)c4F)c4ccc([nH]4)c(-c4c(F)c(F)c(F)c(F)c4F)c4nc(c(-c5c(F)c(F)c(F)c(F)c5F)c5ccc2[nH]5)C=C4)C=C3)cc1
REMARK SMILES IDX 29 1 28 2 26 3 27 4 25 5 1 6 2 7 3 8 4 9 24 10 5 11 6 12
REMARK SMILES IDX 7 13 23 14 8 15 9 16 10 17 11 18 12 19 13 20 14 21 15 22
REMARK SMILES IDX 22 23 16 24 21 25 17 26 20 27 18 28 19 29 30 30 31 31 32 32
REMARK SMILES IDX 33 33 34 34 35 35 96 36 36 37 95 38 37 39 38 40 39 41 89 42
REMARK SMILES IDX 40 43 94 44 88 45 90 46 41 47 93 48 87 49 86 50 42 52 74 53
REMARK SMILES IDX 54 54 73 55 55 56 58 57 72 58 91 59 56 60 57 61 71 63 92 64
REMARK SMILES IDX 59 65 43 66 44 67 52 68 45 69 46 70 50 71 53 72 47 73 48 74
REMARK SMILES IDX 51 75 49 76 75 77 76 78 84 79 77 80 78 81 82 82 85 83 79 84
REMARK SMILES IDX 80 85 83 86 81 87 60 88 61 89 69 90 62 91 63 92 67 93 70 94
REMARK SMILES IDX 64 95 65 96 68 97 66 98
REMARK H PARENT 90 51 58 62
REMARK Flexibility Score: inf
ROOT
ATOM      1  C   UNL     1       3.093   2.730  -1.995  1.00  0.00     0.275 C 
ENDROOT
BRANCH   1   2
ATOM      2  O   UNL     1       1.946   1.851  -2.067  1.00  0.00    -0.458 OA
BRANCH   2   3
ATOM      3  C   UNL     1       1.787   1.136  -0.920  1.00  0.00     0.338 C 
ATOM      4  O   UNL     1       2.489   1.286   0.072  1.00  0.00    -0.246 OA
BRANCH   3   5
ATOM      5  C   UNL     1       0.766   0.058  -0.896  1.00  0.00     0.063 A 
ATOM      6  C   UNL     1       2.654  -1.605  -0.378  1.00  0.00     0.045 C 
ATOM      7  C   UNL     1       1.200  -1.213  -0.469  1.00  0.00    -0.037 A 
ATOM      8  C   UNL     1       0.238  -2.173  -0.128  1.00  0.00     0.005 A 
ATOM      9  C   UNL     1      -1.125  -1.862  -0.127  1.00  0.00     0.012 A 
ATOM     10  C   UNL     1      -0.618   0.339  -0.973  1.00  0.00     0.028 A 
ATOM     11  C   UNL     1      -1.579  -0.602  -0.531  1.00  0.00     0.018 A 
BRANCH  11  12
ATOM     12  C   UNL     1      -3.015  -0.290  -0.469  1.00  0.00     0.134 A 
ATOM     13  C   UNL     1      -3.849   0.504  -1.222  1.00  0.00     0.051 A 
ATOM     14  O   UNL     1      -3.752  -0.883   0.534  1.00  0.00    -0.457 OA
ATOM     15  C   UNL     1      -5.144   0.371  -0.667  1.00  0.00     0.051 A 
ATOM     16  C   UNL     1      -5.073  -0.476   0.436  1.00  0.00     0.128 A 
BRANCH  16  17
ATOM     17  C   UNL     1      -6.174  -0.866   1.269  1.00  0.00     0.066 C 
ATOM     18  C   UNL     1      -6.132  -1.509   2.456  1.00  0.00     0.080 C 
BRANCH  18  19
ATOM     19  C   UNL     1      -4.918  -1.896   3.084  1.00  0.00     0.099 C 
ATOM     20  N   UNL     1      -3.956  -2.249   3.650  1.00  0.00    -0.193 NA
ENDBRANCH  18  19
BRANCH  18  21
ATOM     21  C   UNL     1      -7.427  -1.861   3.180  1.00  0.00     0.263 C 
ATOM     22  N   UNL     1      -7.669  -3.329   3.109  1.00  0.00    -0.251 NA
ATOM     23  N   UNL     1      -7.415  -1.409   4.601  1.00  0.00    -0.251 NA
ATOM     24  C   UNL     1      -7.759  -3.665   4.349  1.00  0.00     0.086 A 
ATOM     25  C   UNL     1      -7.615  -2.503   5.253  1.00  0.00     0.086 A 
ATOM     26  C   UNL     1      -7.963  -5.002   4.919  1.00  0.00     0.030 A 
ATOM     27  C   UNL     1      -7.701  -2.711   6.705  1.00  0.00     0.030 A 
ATOM     28  C   UNL     1      -8.001  -5.107   6.255  1.00  0.00     0.002 A 
ATOM     29  C   UNL     1      -7.878  -3.967   7.142  1.00  0.00     0.002 A 
ENDBRANCH  18  21
ENDBRANCH  16  17
ENDBRANCH  11  12
ENDBRANCH   3   5
ENDBRANCH   2   3
ENDBRANCH   1   2
BRANCH   1  30
ATOM     30  C   UNL     1       2.946   4.081  -2.717  1.00  0.00     0.275 C 
BRANCH  30  31
ATOM     31  O   UNL     1       1.695   4.821  -2.687  1.00  0.00    -0.458 OA
BRANCH  31  32
ATOM     32  C   UNL     1       0.602   4.431  -1.992  1.00  0.00     0.338 C 
ATOM     33  O   UNL     1      -0.489   4.246  -2.506  1.00  0.00    -0.246 OA
BRANCH  32  34
ATOM     34  C   UNL     1       0.820   4.279  -0.544  1.00  0.00     0.060 A 
ATOM     35  C   UNL     1      -0.067   3.476   0.196  1.00  0.00     0.016 A 
ATOM     36  C   UNL     1       1.989   4.782   0.016  1.00  0.00     0.016 A 
ATOM     37  C   UNL     1       0.263   3.084   1.481  1.00  0.00     0.010 A 
ATOM     38  C   UNL     1       2.411   4.248   1.196  1.00  0.00     0.010 A 
ATOM     39  C   UNL     1       1.510   3.477   1.950  1.00  0.00    -0.014 A 
BRANCH  39  40
ATOM     40  C   UNL     1       1.852   3.495   3.353  1.00  0.00     0.031 A 
ATOM     41  C   UNL     1       2.444   2.291   3.955  1.00  0.00     0.074 A 
ATOM     42  C   UNL     1       1.747   4.778   3.788  1.00  0.00     0.049 A 
ATOM     43  N   UNL     1       2.484   2.067   5.215  1.00  0.00    -0.248 NA
ATOM     44  C   UNL     1       3.003   1.166   3.202  1.00  0.00     0.031 C 
ATOM     45  C   UNL     1       2.271   5.517   4.918  1.00  0.00     0.029 A 
ATOM     46  N   UNL     1       0.931   5.746   3.145  1.00  0.00    -0.354 N 
ATOM     47  C   UNL     1       3.434   1.080   5.423  1.00  0.00     0.074 A 
ATOM     48  C   UNL     1       3.552   0.411   4.162  1.00  0.00     0.031 C 
ATOM     49  C   UNL     1       1.498   6.612   5.105  1.00  0.00     0.029 A 
ATOM     50  C   UNL     1       0.397   6.551   4.145  1.00  0.00     0.049 A 
ATOM     51  H   UNL     1       0.774   5.831   2.177  1.00  0.00     0.167 HD
ATOM     52  C   UNL     1       4.144   1.138   6.587  1.00  0.00     0.037 A 
ATOM     53  C   UNL     1      -0.925   6.347   4.423  1.00  0.00     0.037 A 
ATOM     54  C   UNL     1       3.633   2.272   7.359  1.00  0.00     0.049 A 
ATOM     55  C   UNL     1      -1.010   5.635   5.752  1.00  0.00     0.074 A 
ATOM     56  C   UNL     1       4.056   3.587   7.447  1.00  0.00     0.029 A 
ATOM     57  N   UNL     1       2.304   2.250   7.762  1.00  0.00    -0.354 N 
ATOM     58  N   UNL     1      -0.177   4.707   6.156  1.00  0.00    -0.248 NA
ATOM     59  C   UNL     1      -1.923   6.088   6.789  1.00  0.00     0.031 C 
ATOM     60  C   UNL     1       2.927   4.370   7.828  1.00  0.00     0.029 A 
ATOM     61  C   UNL     1       1.822   3.536   7.925  1.00  0.00     0.049 A 
ATOM     62  H   UNL     1       1.777   1.432   7.910  1.00  0.00     0.167 HD
ATOM     63  C   UNL     1      -0.352   4.525   7.503  1.00  0.00     0.074 A 
ATOM     64  C   UNL     1      -1.467   5.396   7.843  1.00  0.00     0.031 C 
ATOM     65  C   UNL     1       0.435   3.744   8.305  1.00  0.00     0.037 A 
BRANCH  52  66
ATOM     66  C   UNL     1       5.435   0.435   6.959  1.00  0.00     0.064 A 
ATOM     67  C   UNL     1       6.132   0.845   8.123  1.00  0.00     0.173 A 
ATOM     68  C   UNL     1       6.067  -0.599   6.240  1.00  0.00     0.173 A 
ATOM     69  F   UNL     1       5.637   1.786   8.940  1.00  0.00    -0.203 F 
ATOM     70  C   UNL     1       7.365   0.308   8.505  1.00  0.00     0.198 A 
ATOM     71  C   UNL     1       7.302  -1.142   6.628  1.00  0.00     0.198 A 
ATOM     72  F   UNL     1       5.522  -1.140   5.149  1.00  0.00    -0.203 F 
ATOM     73  F   UNL     1       7.976   0.765   9.607  1.00  0.00    -0.200 F 
ATOM     74  C   UNL     1       7.954  -0.684   7.754  1.00  0.00     0.200 A 
ATOM     75  F   UNL     1       7.858  -2.120   5.896  1.00  0.00    -0.200 F 
ATOM     76  F   UNL     1       9.134  -1.203   8.120  1.00  0.00    -0.200 F 
ENDBRANCH  52  66
BRANCH  53  77
ATOM     77  C   UNL     1      -1.767   6.101   3.194  1.00  0.00     0.064 A 
ATOM     78  C   UNL     1      -1.653   7.019   2.118  1.00  0.00     0.173 A 
ATOM     79  C   UNL     1      -2.442   4.906   2.916  1.00  0.00     0.173 A 
ATOM     80  F   UNL     1      -1.045   8.202   2.308  1.00  0.00    -0.203 F 
ATOM     81  C   UNL     1      -2.058   6.705   0.819  1.00  0.00     0.198 A 
ATOM     82  C   UNL     1      -2.888   4.610   1.615  1.00  0.00     0.198 A 
ATOM     83  F   UNL     1      -2.606   3.979   3.868  1.00  0.00    -0.203 F 
ATOM     84  F   UNL     1      -1.789   7.547  -0.190  1.00  0.00    -0.200 F 
ATOM     85  C   UNL     1      -2.667   5.493   0.566  1.00  0.00     0.200 A 
ATOM     86  F   UNL     1      -3.444   3.417   1.351  1.00  0.00    -0.200 F 
ATOM     87  F   UNL     1      -2.982   5.146  -0.691  1.00  0.00    -0.200 F 
ENDBRANCH  53  77
BRANCH  65  88
ATOM     88  C   UNL     1      -0.044   3.159   9.611  1.00  0.00     0.064 A 
ATOM     89  C   UNL     1      -1.403   3.005   9.925  1.00  0.00     0.173 A 
ATOM     90  C   UNL     1       0.862   2.568  10.526  1.00  0.00     0.173 A 
ATOM     91  F   UNL     1      -2.371   3.348   9.065  1.00  0.00    -0.203 F 
ATOM     92  C   UNL     1      -1.821   2.436  11.124  1.00  0.00     0.198 A 
ATOM     93  C   UNL     1       0.434   1.900  11.667  1.00  0.00     0.198 A 
ATOM     94  F   UNL     1       2.188   2.583  10.332  1.00  0.00    -0.203 F 
ATOM     95  F   UNL     1      -3.127   2.415  11.421  1.00  0.00    -0.200 F 
ATOM     96  C   UNL     1      -0.905   1.872  11.988  1.00  0.00     0.200 A 
ATOM     97  F   UNL     1       1.328   1.273  12.443  1.00  0.00    -0.200 F 
ATOM     98  F   UNL     1      -1.315   1.283  13.118  1.00  0.00    -0.200 F 
ENDBRANCH  65  88
ENDBRANCH  39  40
ENDBRANCH  32  34
ENDBRANCH  31  32
ENDBRANCH  30  31
ENDBRANCH   1  30
TORSDOF 15
