REMARK SMILES O=CN[C@H](C(=O)OCCOC(=O)c1ccc(-c2c3nc(c(-c4c(F)c(F)c(F)c(F)c4F)c4ccc([nH]4)c(-c4c(F)c(F)c(F)c(F)c4F)c4nc(c(-c5c(F)c(F)c(F)c(F)c5F)c5ccc2[nH]5)C=C4)C=C3)cc1)[C@@H]1CCO[C@@]2(CCOC2)C1
REMARK SMILES IDX 9 1 8 2 7 3 5 4 6 5 4 6 3 7 1 8 2 9 76 11 77 12 85 13 78 14
REMARK SMILES IDX 80 15 79 16 81 17 84 18 82 19 83 20 10 21 11 22 12 23 13 24
REMARK SMILES IDX 14 25 75 26 15 27 74 28 16 29 17 30 18 31 68 32 19 33 73 34
REMARK SMILES IDX 67 35 69 36 20 37 72 38 66 39 65 40 21 42 53 43 33 44 52 45
REMARK SMILES IDX 34 46 37 47 51 48 70 49 35 50 36 51 50 53 71 54 38 55 22 56
REMARK SMILES IDX 23 57 31 58 24 59 25 60 29 61 32 62 26 63 27 64 30 65 28 66
REMARK SMILES IDX 54 67 55 68 63 69 56 70 57 71 61 72 64 73 58 74 59 75 62 76
REMARK SMILES IDX 60 77 39 78 40 79 48 80 41 81 42 82 46 83 49 84 43 85 44 86
REMARK SMILES IDX 47 87 45 88
REMARK H PARENT 3 10 69 41 37 52
REMARK Flexibility Score: inf
ROOT
ATOM      1  C   UNL     1       0.105   1.709  -1.642  1.00  0.00     0.275 C 
ENDROOT
BRANCH   1   2
ATOM      2  C   UNL     1       0.732   2.337  -0.393  1.00  0.00     0.274 C 
BRANCH   2   3
ATOM      3  O   UNL     1       2.137   2.575  -0.596  1.00  0.00    -0.461 OA
BRANCH   3   4
ATOM      4  C   UNL     1       3.008   1.809   0.111  1.00  0.00     0.329 C 
ATOM      5  O   UNL     1       2.682   1.047   1.014  1.00  0.00    -0.250 OA
BRANCH   4   6
ATOM      6  C   UNL     1       4.478   1.994  -0.347  1.00  0.00     0.195 C 
BRANCH   6   7
ATOM      7  N   UNL     1       4.567   2.694  -1.633  1.00  0.00    -0.345 N 
ATOM      8  O   UNL     1       4.465   4.536  -2.953  1.00  0.00    -0.279 OA
ATOM      9  C   UNL     1       4.458   4.035  -1.838  1.00  0.00     0.337 C 
ATOM     10  H   UNL     1       4.722   2.137  -2.429  1.00  0.00     0.164 HD
ENDBRANCH   6   7
BRANCH   6  11
ATOM     11  C   UNL     1       5.388   2.584   0.765  1.00  0.00     0.028 C 
ATOM     12  C   UNL     1       6.815   2.891   0.272  1.00  0.00     0.035 C 
ATOM     13  C   UNL     1       5.531   1.696   2.030  1.00  0.00     0.044 C 
ATOM     14  C   UNL     1       7.615   1.615   0.071  1.00  0.00     0.161 C 
ATOM     15  C   UNL     1       6.493   0.492   1.895  1.00  0.00     0.094 C 
ATOM     16  O   UNL     1       7.730   0.909   1.301  1.00  0.00    -0.372 OA
ATOM     17  C   UNL     1       6.856  -0.080   3.270  1.00  0.00     0.066 C 
ATOM     18  C   UNL     1       5.885  -0.732   1.179  1.00  0.00     0.195 C 
ATOM     19  C   UNL     1       6.006  -1.320   3.395  1.00  0.00     0.163 C 
ATOM     20  O   UNL     1       5.945  -1.856   2.074  1.00  0.00    -0.378 OA
ENDBRANCH   6  11
ENDBRANCH   4   6
ENDBRANCH   3   4
ENDBRANCH   2   3
ENDBRANCH   1   2
BRANCH   1  21
ATOM     21  O   UNL     1       0.590   0.370  -1.875  1.00  0.00    -0.458 OA
BRANCH  21  22
ATOM     22  C   UNL     1       1.710   0.297  -2.630  1.00  0.00     0.338 C 
ATOM     23  O   UNL     1       2.344   1.220  -3.113  1.00  0.00    -0.246 OA
BRANCH  22  24
ATOM     24  C   UNL     1       2.207  -1.084  -2.697  1.00  0.00     0.060 A 
ATOM     25  C   UNL     1       3.528  -1.297  -2.297  1.00  0.00     0.016 A 
ATOM     26  C   UNL     1       1.465  -2.115  -3.275  1.00  0.00     0.016 A 
ATOM     27  C   UNL     1       4.133  -2.529  -2.500  1.00  0.00     0.010 A 
ATOM     28  C   UNL     1       2.076  -3.357  -3.486  1.00  0.00     0.010 A 
ATOM     29  C   UNL     1       3.421  -3.557  -3.127  1.00  0.00    -0.014 A 
BRANCH  29  30
ATOM     30  C   UNL     1       4.152  -4.788  -3.498  1.00  0.00     0.031 A 
ATOM     31  C   UNL     1       4.634  -4.965  -4.910  1.00  0.00     0.074 A 
ATOM     32  C   UNL     1       4.470  -5.690  -2.554  1.00  0.00     0.049 A 
ATOM     33  N   UNL     1       5.311  -5.953  -5.437  1.00  0.00    -0.248 NA
ATOM     34  C   UNL     1       4.321  -3.879  -5.852  1.00  0.00     0.031 C 
ATOM     35  C   UNL     1       4.116  -5.589  -1.139  1.00  0.00     0.029 A 
ATOM     36  N   UNL     1       5.183  -6.858  -2.643  1.00  0.00    -0.354 N 
ATOM     37  C   UNL     1       5.494  -5.615  -6.771  1.00  0.00     0.074 A 
ATOM     38  C   UNL     1       4.846  -4.338  -6.979  1.00  0.00     0.031 C 
ATOM     39  C   UNL     1       4.622  -6.649  -0.487  1.00  0.00     0.029 A 
ATOM     40  C   UNL     1       5.309  -7.513  -1.444  1.00  0.00     0.049 A 
ATOM     41  H   UNL     1       5.567  -7.193  -3.485  1.00  0.00     0.167 HD
ATOM     42  C   UNL     1       6.149  -6.307  -7.733  1.00  0.00     0.037 A 
ATOM     43  C   UNL     1       5.904  -8.686  -1.157  1.00  0.00     0.037 A 
ATOM     44  C   UNL     1       6.807  -7.569  -7.523  1.00  0.00     0.049 A 
ATOM     45  C   UNL     1       6.585  -9.456  -2.254  1.00  0.00     0.074 A 
ATOM     46  C   UNL     1       7.488  -8.353  -8.438  1.00  0.00     0.029 A 
ATOM     47  N   UNL     1       6.872  -8.227  -6.304  1.00  0.00    -0.354 N 
ATOM     48  N   UNL     1       6.729  -9.142  -3.519  1.00  0.00    -0.248 NA
ATOM     49  C   UNL     1       7.183 -10.746  -1.883  1.00  0.00     0.031 C 
ATOM     50  C   UNL     1       7.942  -9.501  -7.778  1.00  0.00     0.029 A 
ATOM     51  C   UNL     1       7.571  -9.415  -6.446  1.00  0.00     0.049 A 
ATOM     52  H   UNL     1       6.480  -7.900  -5.463  1.00  0.00     0.167 HD
ATOM     53  C   UNL     1       7.443 -10.185  -4.091  1.00  0.00     0.074 A 
ATOM     54  C   UNL     1       7.718 -11.134  -3.032  1.00  0.00     0.031 C 
ATOM     55  C   UNL     1       7.832 -10.346  -5.379  1.00  0.00     0.037 A 
BRANCH  42  56
ATOM     56  C   UNL     1       6.158  -5.722  -9.111  1.00  0.00     0.064 A 
ATOM     57  C   UNL     1       6.989  -4.644  -9.446  1.00  0.00     0.173 A 
ATOM     58  C   UNL     1       5.339  -6.261 -10.114  1.00  0.00     0.173 A 
ATOM     59  F   UNL     1       7.776  -4.084  -8.515  1.00  0.00    -0.203 F 
ATOM     60  C   UNL     1       6.988  -4.115 -10.734  1.00  0.00     0.198 A 
ATOM     61  C   UNL     1       5.354  -5.741 -11.405  1.00  0.00     0.198 A 
ATOM     62  F   UNL     1       4.525  -7.292  -9.841  1.00  0.00    -0.203 F 
ATOM     63  F   UNL     1       7.764  -3.062 -11.025  1.00  0.00    -0.200 F 
ATOM     64  C   UNL     1       6.174  -4.667 -11.713  1.00  0.00     0.200 A 
ATOM     65  F   UNL     1       4.570  -6.278 -12.351  1.00  0.00    -0.200 F 
ATOM     66  F   UNL     1       6.175  -4.157 -12.952  1.00  0.00    -0.200 F 
ENDBRANCH  42  56
BRANCH  43  67
ATOM     67  C   UNL     1       5.870  -9.208   0.231  1.00  0.00     0.064 A 
ATOM     68  C   UNL     1       7.024  -9.232   1.023  1.00  0.00     0.173 A 
ATOM     69  C   UNL     1       4.680  -9.699   0.787  1.00  0.00     0.173 A 
ATOM     70  F   UNL     1       8.190  -8.798   0.521  1.00  0.00    -0.203 F 
ATOM     71  C   UNL     1       6.993  -9.739   2.320  1.00  0.00     0.198 A 
ATOM     72  C   UNL     1       4.646 -10.186   2.091  1.00  0.00     0.198 A 
ATOM     73  F   UNL     1       3.551  -9.701   0.064  1.00  0.00    -0.203 F 
ATOM     74  F   UNL     1       8.118  -9.788   3.046  1.00  0.00    -0.200 F 
ATOM     75  C   UNL     1       5.803 -10.211   2.855  1.00  0.00     0.200 A 
ATOM     76  F   UNL     1       3.493 -10.636   2.606  1.00  0.00    -0.200 F 
ATOM     77  F   UNL     1       5.774 -10.699   4.102  1.00  0.00    -0.200 F 
ENDBRANCH  43  67
BRANCH  55  78
ATOM     78  C   UNL     1       8.605 -11.586  -5.706  1.00  0.00     0.064 A 
ATOM     79  C   UNL     1       7.971 -12.832  -5.814  1.00  0.00     0.173 A 
ATOM     80  C   UNL     1       9.986 -11.525  -5.938  1.00  0.00     0.173 A 
ATOM     81  F   UNL     1       6.653 -12.941  -5.585  1.00  0.00    -0.203 F 
ATOM     82  C   UNL     1       8.698 -13.979  -6.121  1.00  0.00     0.198 A 
ATOM     83  C   UNL     1      10.707 -12.670  -6.265  1.00  0.00     0.198 A 
ATOM     84  F   UNL     1      10.636 -10.355  -5.849  1.00  0.00    -0.203 F 
ATOM     85  F   UNL     1       8.079 -15.166  -6.181  1.00  0.00    -0.200 F 
ATOM     86  C   UNL     1      10.063 -13.896  -6.351  1.00  0.00     0.200 A 
ATOM     87  F   UNL     1      12.025 -12.589  -6.492  1.00  0.00    -0.200 F 
ATOM     88  F   UNL     1      10.762 -15.001  -6.646  1.00  0.00    -0.200 F 
ENDBRANCH  55  78
ENDBRANCH  29  30
ENDBRANCH  22  24
ENDBRANCH  21  22
ENDBRANCH   1  21
TORSDOF 13
