REMARK SMILES C[C@](NC(=O)[C@](C)([NH3+])C(F)(F)F)(C(=O)OCCOC(=O)c1ccc(-c2c3nc(c(-c4c(F)c(F)c(F)c(F)c4F)c4ccc([nH]4)c(-c4c(F)c(F)c(F)c(F)c4F)c4nc(c(-c5c(F)c(F)c(F)c(F)c5F)c5ccc2[nH]5)C=C4)C=C3)cc1)c1ccccc1
REMARK SMILES IDX 16 1 15 2 13 3 14 4 2 5 1 6 84 7 85 8 89 9 86 10 88 11 87 12
REMARK SMILES IDX 3 13 4 14 5 16 6 17 7 18 8 19 9 23 10 24 11 25 12 26 17 27
REMARK SMILES IDX 18 28 19 29 20 30 21 31 22 32 83 33 23 34 82 35 24 36 25 37
REMARK SMILES IDX 26 38 76 39 27 40 81 41 75 42 77 43 28 44 80 45 74 46 73 47
REMARK SMILES IDX 29 49 61 50 41 51 60 52 42 53 45 54 59 55 78 56 43 57 44 58
REMARK SMILES IDX 58 60 79 61 46 62 30 63 31 64 39 65 32 66 33 67 37 68 40 69
REMARK SMILES IDX 34 70 35 71 38 72 36 73 62 74 63 75 71 76 64 77 65 78 69 79
REMARK SMILES IDX 72 80 66 81 67 82 70 83 68 84 47 85 48 86 56 87 49 88 50 89
REMARK SMILES IDX 54 90 57 91 51 92 52 93 55 94 53 95
REMARK H PARENT 3 15 8 20 8 21 8 22 77 48 45 59
REMARK Flexibility Score: inf
ROOT
ATOM      1  C   UNL     1      -0.232   4.195  -0.998  1.00  0.00     0.274 C 
ENDROOT
BRANCH   1   2
ATOM      2  O   UNL     1      -0.620   3.010  -0.254  1.00  0.00    -0.460 OA
BRANCH   2   3
ATOM      3  C   UNL     1      -0.493   1.824  -0.908  1.00  0.00     0.336 C 
ATOM      4  O   UNL     1       0.014   1.726  -2.023  1.00  0.00    -0.249 OA
BRANCH   3   5
ATOM      5  C   UNL     1      -1.040   0.592  -0.096  1.00  0.00     0.161 C 
ATOM      6  C   UNL     1      -1.958  -0.218  -1.040  1.00  0.00     0.053 C 
BRANCH   5   7
ATOM      7  C   UNL     1       0.196  -0.338   0.250  1.00  0.00    -0.012 A 
ATOM      8  C   UNL     1       0.624  -0.599   1.573  1.00  0.00     0.007 A 
ATOM      9  C   UNL     1       0.943  -0.956  -0.778  1.00  0.00     0.007 A 
ATOM     10  C   UNL     1       1.665  -1.496   1.848  1.00  0.00     0.000 A 
ATOM     11  C   UNL     1       2.001  -1.831  -0.503  1.00  0.00     0.000 A 
ATOM     12  C   UNL     1       2.348  -2.119   0.811  1.00  0.00     0.000 A 
ENDBRANCH   5   7
BRANCH   5  13
ATOM     13  N   UNL     1      -1.799   0.848   1.176  1.00  0.00    -0.331 N 
ATOM     14  C   UNL     1      -2.913   1.442   1.662  1.00  0.00     0.291 C 
ATOM     15  H   UNL     1      -1.310   0.436   1.924  1.00  0.00     0.165 HD
ATOM     16  O   UNL     1      -3.207   1.018   2.788  1.00  0.00    -0.267 OA
BRANCH  14  17
ATOM     17  C   UNL     1      -3.706   2.605   1.030  1.00  0.00     0.267 C 
ATOM     18  C   UNL     1      -4.122   2.332  -0.411  1.00  0.00     0.100 C 
BRANCH  17  19
ATOM     19  N   UNL     1      -2.861   3.844   1.076  1.00  0.00    -0.337 N 
ATOM     20  H   UNL     1      -3.374   4.621   0.661  1.00  0.00     0.345 HD
ATOM     21  H   UNL     1      -2.000   3.687   0.552  1.00  0.00     0.345 HD
ATOM     22  H   UNL     1      -2.634   4.065   2.046  1.00  0.00     0.345 HD
ENDBRANCH  17  19
BRANCH  17  23
ATOM     23  C   UNL     1      -5.012   2.748   1.878  1.00  0.00     0.453 C 
ATOM     24  F   UNL     1      -5.821   3.709   1.356  1.00  0.00    -0.164 F 
ATOM     25  F   UNL     1      -5.741   1.609   1.901  1.00  0.00    -0.164 F 
ATOM     26  F   UNL     1      -4.759   3.125   3.154  1.00  0.00    -0.164 F 
ENDBRANCH  17  23
ENDBRANCH  14  17
ENDBRANCH   5  13
ENDBRANCH   3   5
ENDBRANCH   2   3
ENDBRANCH   1   2
BRANCH   1  27
ATOM     27  C   UNL     1       0.308   5.267  -0.047  1.00  0.00     0.275 C 
BRANCH  27  28
ATOM     28  O   UNL     1       1.588   4.844   0.456  1.00  0.00    -0.458 OA
BRANCH  28  29
ATOM     29  C   UNL     1       1.533   4.121   1.597  1.00  0.00     0.338 C 
ATOM     30  O   UNL     1       0.573   3.937   2.324  1.00  0.00    -0.246 OA
BRANCH  29  31
ATOM     31  C   UNL     1       2.784   3.362   1.708  1.00  0.00     0.060 A 
ATOM     32  C   UNL     1       2.794   2.091   1.147  1.00  0.00     0.016 A 
ATOM     33  C   UNL     1       3.882   3.829   2.425  1.00  0.00     0.016 A 
ATOM     34  C   UNL     1       3.864   1.239   1.384  1.00  0.00     0.010 A 
ATOM     35  C   UNL     1       4.989   2.984   2.608  1.00  0.00     0.010 A 
ATOM     36  C   UNL     1       4.971   1.660   2.130  1.00  0.00    -0.014 A 
BRANCH  36  37
ATOM     37  C   UNL     1       6.027   0.666   2.487  1.00  0.00     0.031 A 
ATOM     38  C   UNL     1       6.289   0.336   3.934  1.00  0.00     0.074 A 
ATOM     39  C   UNL     1       6.679  -0.029   1.532  1.00  0.00     0.049 A 
ATOM     40  N   UNL     1       7.229  -0.412   4.460  1.00  0.00    -0.248 NA
ATOM     41  C   UNL     1       5.374   0.925   4.924  1.00  0.00     0.031 C 
ATOM     42  C   UNL     1       6.468   0.106   0.091  1.00  0.00     0.029 A 
ATOM     43  N   UNL     1       7.625  -1.022   1.634  1.00  0.00    -0.354 N 
ATOM     44  C   UNL     1       7.063  -0.318   5.837  1.00  0.00     0.074 A 
ATOM     45  C   UNL     1       5.923   0.542   6.067  1.00  0.00     0.031 C 
ATOM     46  C   UNL     1       7.202  -0.816  -0.551  1.00  0.00     0.029 A 
ATOM     47  C   UNL     1       8.009  -1.546   0.422  1.00  0.00     0.049 A 
ATOM     48  H   UNL     1       7.994  -1.328   2.494  1.00  0.00     0.167 HD
ATOM     49  C   UNL     1       7.801  -0.890   6.819  1.00  0.00     0.037 A 
ATOM     50  C   UNL     1       8.925  -2.487   0.124  1.00  0.00     0.037 A 
ATOM     51  C   UNL     1       8.885  -1.810   6.595  1.00  0.00     0.049 A 
ATOM     52  C   UNL     1       9.742  -3.097   1.231  1.00  0.00     0.074 A 
ATOM     53  C   UNL     1       9.703  -2.427   7.527  1.00  0.00     0.029 A 
ATOM     54  N   UNL     1       9.283  -2.269   5.350  1.00  0.00    -0.354 N 
ATOM     55  N   UNL     1       9.649  -2.918   2.526  1.00  0.00    -0.248 NA
ATOM     56  C   UNL     1      10.815  -4.019   0.829  1.00  0.00     0.031 C 
ATOM     57  C   UNL     1      10.613  -3.240   6.843  1.00  0.00     0.029 A 
ATOM     58  C   UNL     1      10.337  -3.159   5.488  1.00  0.00     0.049 A 
ATOM     59  H   UNL     1       8.878  -2.003   4.493  1.00  0.00     0.167 HD
ATOM     60  C   UNL     1      10.642  -3.706   3.091  1.00  0.00     0.074 A 
ATOM     61  C   UNL     1      11.308  -4.389   2.002  1.00  0.00     0.031 C 
ATOM     62  C   UNL     1      10.982  -3.840   4.396  1.00  0.00     0.037 A 
BRANCH  49  63
ATOM     63  C   UNL     1       7.494  -0.491   8.232  1.00  0.00     0.064 A 
ATOM     64  C   UNL     1       6.359  -0.955   8.911  1.00  0.00     0.173 A 
ATOM     65  C   UNL     1       8.371   0.361   8.921  1.00  0.00     0.173 A 
ATOM     66  F   UNL     1       5.481  -1.757   8.290  1.00  0.00    -0.203 F 
ATOM     67  C   UNL     1       6.100  -0.559  10.222  1.00  0.00     0.198 A 
ATOM     68  C   UNL     1       8.122   0.734  10.239  1.00  0.00     0.198 A 
ATOM     69  F   UNL     1       9.473   0.829   8.316  1.00  0.00    -0.203 F 
ATOM     70  F   UNL     1       4.985  -0.976  10.838  1.00  0.00    -0.200 F 
ATOM     71  C   UNL     1       6.984   0.280  10.886  1.00  0.00     0.200 A 
ATOM     72  F   UNL     1       8.983   1.536  10.881  1.00  0.00    -0.200 F 
ATOM     73  F   UNL     1       6.733   0.658  12.147  1.00  0.00    -0.200 F 
ENDBRANCH  49  63
BRANCH  50  74
ATOM     74  C   UNL     1       9.150  -2.894  -1.288  1.00  0.00     0.064 A 
ATOM     75  C   UNL     1       8.835  -4.190  -1.721  1.00  0.00     0.173 A 
ATOM     76  C   UNL     1       9.703  -2.011  -2.227  1.00  0.00     0.173 A 
ATOM     77  F   UNL     1       8.332  -5.082  -0.855  1.00  0.00    -0.203 F 
ATOM     78  C   UNL     1       9.075  -4.589  -3.035  1.00  0.00     0.198 A 
ATOM     79  C   UNL     1       9.912  -2.400  -3.548  1.00  0.00     0.198 A 
ATOM     80  F   UNL     1      10.030  -0.762  -1.863  1.00  0.00    -0.203 F 
ATOM     81  F   UNL     1       8.807  -5.847  -3.411  1.00  0.00    -0.200 F 
ATOM     82  C   UNL     1       9.606  -3.691  -3.949  1.00  0.00     0.200 A 
ATOM     83  F   UNL     1      10.414  -1.525  -4.430  1.00  0.00    -0.200 F 
ATOM     84  F   UNL     1       9.831  -4.073  -5.213  1.00  0.00    -0.200 F 
ENDBRANCH  50  74
BRANCH  62  85
ATOM     85  C   UNL     1      12.105  -4.780   4.718  1.00  0.00     0.064 A 
ATOM     86  C   UNL     1      13.440  -4.450   4.441  1.00  0.00     0.173 A 
ATOM     87  C   UNL     1      11.846  -6.014   5.333  1.00  0.00     0.173 A 
ATOM     88  F   UNL     1      13.736  -3.289   3.839  1.00  0.00    -0.203 F 
ATOM     89  C   UNL     1      14.472  -5.334   4.744  1.00  0.00     0.198 A 
ATOM     90  C   UNL     1      12.883  -6.884   5.657  1.00  0.00     0.198 A 
ATOM     91  F   UNL     1      10.586  -6.374   5.623  1.00  0.00    -0.203 F 
ATOM     92  F   UNL     1      15.736  -5.018   4.428  1.00  0.00    -0.200 F 
ATOM     93  C   UNL     1      14.194  -6.547   5.356  1.00  0.00     0.200 A 
ATOM     94  F   UNL     1      12.613  -8.052   6.256  1.00  0.00    -0.200 F 
ATOM     95  F   UNL     1      15.189  -7.396   5.647  1.00  0.00    -0.200 F 
ENDBRANCH  62  85
ENDBRANCH  36  37
ENDBRANCH  29  31
ENDBRANCH  28  29
ENDBRANCH  27  28
ENDBRANCH   1  27
TORSDOF 16
