REMARK SMILES [NH3+][C@H](CS[C@@H]1CC(=O)N(c2ccc3ccccc3c2)C1=O)C(=O)OCCOC(=O)c1ccc(-c2c3nc(c(-c4c(F)c(F)c(F)c(F)c4F)c4ccc([nH]4)c(-c4c(F)c(F)c(F)c(F)c4F)c4nc(c(-c5c(F)c(F)c(F)c(F)c5F)c5ccc2[nH]5)C=C4)C=C3)cc1
REMARK SMILES IDX 25 1 24 2 22 3 23 4 2 5 1 6 3 10 4 11 5 12 6 13 20 14 7 15
REMARK SMILES IDX 9 16 21 17 8 18 10 19 11 20 19 21 12 22 18 23 13 24 17 25
REMARK SMILES IDX 14 26 16 27 15 28 26 29 27 30 28 31 29 32 30 33 31 34 92 35
REMARK SMILES IDX 32 36 91 37 33 38 34 39 35 40 85 41 36 42 90 43 84 44 86 45
REMARK SMILES IDX 37 46 89 47 83 48 82 49 38 51 70 52 50 53 69 54 51 55 54 56
REMARK SMILES IDX 68 57 87 58 52 59 53 60 67 62 88 63 55 64 39 65 40 66 48 67
REMARK SMILES IDX 41 68 42 69 46 70 49 71 43 72 44 73 47 74 45 75 71 76 72 77
REMARK SMILES IDX 80 78 73 79 74 80 78 81 81 82 75 83 76 84 79 85 77 86 56 87
REMARK SMILES IDX 57 88 65 89 58 90 59 91 63 92 66 93 60 94 61 95 64 96 62 97
REMARK H PARENT 1 7 1 8 1 9 86 50 54 61
REMARK Flexibility Score: inf
ROOT
ATOM      1  C   UNL     1      -3.370  -0.309   2.601  1.00  0.00     0.274 C 
ENDROOT
BRANCH   1   2
ATOM      2  O   UNL     1      -2.148   0.470   2.434  1.00  0.00    -0.458 OA
BRANCH   2   3
ATOM      3  C   UNL     1      -0.946  -0.150   2.405  1.00  0.00     0.365 C 
ATOM      4  O   UNL     1      -0.771  -1.255   2.913  1.00  0.00    -0.245 OA
BRANCH   3   5
ATOM      5  C   UNL     1       0.228   0.649   1.710  1.00  0.00     0.301 C 
BRANCH   5   6
ATOM      6  N   UNL     1       0.446   1.992   2.303  1.00  0.00    -0.345 N 
ATOM      7  H   UNL     1       0.314   1.943   3.313  1.00  0.00     0.345 HD
ATOM      8  H   UNL     1      -0.222   2.652   1.905  1.00  0.00     0.345 HD
ATOM      9  H   UNL     1       1.395   2.304   2.099  1.00  0.00     0.345 HD
ENDBRANCH   5   6
BRANCH   5  10
ATOM     10  C   UNL     1       0.410   0.623   0.147  1.00  0.00     0.147 C 
BRANCH  10  11
ATOM     11  S   UNL     1       0.160   2.212  -0.914  1.00  0.00    -0.141 SA
BRANCH  11  12
ATOM     12  C   UNL     1      -1.519   1.869  -1.637  1.00  0.00     0.146 C 
ATOM     13  C   UNL     1      -2.327   2.875  -2.446  1.00  0.00     0.125 C 
ATOM     14  C   UNL     1      -2.373   1.783  -0.446  1.00  0.00     0.247 C 
ATOM     15  C   UNL     1      -3.404   3.381  -1.497  1.00  0.00     0.235 C 
ATOM     16  N   UNL     1      -3.144   2.873  -0.265  1.00  0.00    -0.250 N 
ATOM     17  O   UNL     1      -2.340   0.763   0.212  1.00  0.00    -0.273 OA
ATOM     18  O   UNL     1      -4.356   4.061  -1.848  1.00  0.00    -0.274 OA
BRANCH  16  19
ATOM     19  C   UNL     1      -3.827   3.093   0.954  1.00  0.00     0.052 A 
ATOM     20  C   UNL     1      -5.213   3.053   1.060  1.00  0.00     0.027 A 
ATOM     21  C   UNL     1      -3.066   3.261   2.128  1.00  0.00     0.035 A 
ATOM     22  C   UNL     1      -5.818   3.093   2.328  1.00  0.00     0.011 A 
ATOM     23  C   UNL     1      -3.657   3.331   3.405  1.00  0.00    -0.016 A 
ATOM     24  C   UNL     1      -5.057   3.220   3.509  1.00  0.00    -0.018 A 
ATOM     25  C   UNL     1      -2.885   3.468   4.576  1.00  0.00     0.009 A 
ATOM     26  C   UNL     1      -5.646   3.220   4.789  1.00  0.00     0.009 A 
ATOM     27  C   UNL     1      -3.487   3.483   5.835  1.00  0.00     0.001 A 
ATOM     28  C   UNL     1      -4.867   3.350   5.942  1.00  0.00     0.001 A 
ENDBRANCH  16  19
ENDBRANCH  11  12
ENDBRANCH  10  11
ENDBRANCH   5  10
ENDBRANCH   3   5
ENDBRANCH   2   3
ENDBRANCH   1   2
BRANCH   1  29
ATOM     29  C   UNL     1      -3.899  -1.068   1.353  1.00  0.00     0.275 C 
BRANCH  29  30
ATOM     30  O   UNL     1      -3.206  -2.311   1.212  1.00  0.00    -0.458 OA
BRANCH  30  31
ATOM     31  C   UNL     1      -2.250  -2.451   0.266  1.00  0.00     0.338 C 
ATOM     32  O   UNL     1      -1.980  -1.761  -0.697  1.00  0.00    -0.246 OA
BRANCH  31  33
ATOM     33  C   UNL     1      -1.445  -3.572   0.763  1.00  0.00     0.060 A 
ATOM     34  C   UNL     1      -0.117  -3.337   1.131  1.00  0.00     0.016 A 
ATOM     35  C   UNL     1      -2.089  -4.771   1.074  1.00  0.00     0.016 A 
ATOM     36  C   UNL     1       0.543  -4.269   1.917  1.00  0.00     0.010 A 
ATOM     37  C   UNL     1      -1.422  -5.712   1.839  1.00  0.00     0.010 A 
ATOM     38  C   UNL     1      -0.113  -5.452   2.275  1.00  0.00    -0.014 A 
BRANCH  38  39
ATOM     39  C   UNL     1       0.618  -6.493   3.009  1.00  0.00     0.031 A 
ATOM     40  C   UNL     1       1.144  -7.649   2.223  1.00  0.00     0.074 A 
ATOM     41  C   UNL     1       0.793  -6.383   4.336  1.00  0.00     0.049 A 
ATOM     42  N   UNL     1       1.761  -8.721   2.637  1.00  0.00    -0.248 NA
ATOM     43  C   UNL     1       0.933  -7.595   0.765  1.00  0.00     0.031 C 
ATOM     44  C   UNL     1       0.321  -5.271   5.164  1.00  0.00     0.029 A 
ATOM     45  N   UNL     1       1.409  -7.226   5.222  1.00  0.00    -0.354 N 
ATOM     46  C   UNL     1       2.016  -9.463   1.494  1.00  0.00     0.074 A 
ATOM     47  C   UNL     1       1.445  -8.751   0.375  1.00  0.00     0.031 C 
ATOM     48  C   UNL     1       0.661  -5.506   6.443  1.00  0.00     0.029 A 
ATOM     49  C   UNL     1       1.340  -6.796   6.524  1.00  0.00     0.049 A 
ATOM     50  H   UNL     1       1.859  -8.059   4.951  1.00  0.00     0.167 HD
ATOM     51  C   UNL     1       2.688 -10.631   1.398  1.00  0.00     0.037 A 
ATOM     52  C   UNL     1       1.763  -7.404   7.647  1.00  0.00     0.037 A 
ATOM     53  C   UNL     1       3.232 -11.323   2.534  1.00  0.00     0.049 A 
ATOM     54  C   UNL     1       2.455  -8.738   7.512  1.00  0.00     0.074 A 
ATOM     55  C   UNL     1       3.922 -12.519   2.570  1.00  0.00     0.029 A 
ATOM     56  N   UNL     1       3.138 -10.870   3.845  1.00  0.00    -0.354 N 
ATOM     57  N   UNL     1       2.716  -9.432   6.429  1.00  0.00    -0.248 NA
ATOM     58  C   UNL     1       2.921  -9.367   8.753  1.00  0.00     0.031 C 
ATOM     59  C   UNL     1       4.201 -12.816   3.908  1.00  0.00     0.029 A 
ATOM     60  C   UNL     1       3.743 -11.774   4.701  1.00  0.00     0.049 A 
ATOM     61  H   UNL     1       2.705 -10.031   4.124  1.00  0.00     0.167 HD
ATOM     62  C   UNL     1       3.395 -10.566   6.853  1.00  0.00     0.074 A 
ATOM     63  C   UNL     1       3.535 -10.446   8.291  1.00  0.00     0.031 C 
ATOM     64  C   UNL     1       3.857 -11.618   6.130  1.00  0.00     0.037 A 
BRANCH  51  65
ATOM     65  C   UNL     1       2.848 -11.227   0.031  1.00  0.00     0.064 A 
ATOM     66  C   UNL     1       3.670 -10.632  -0.940  1.00  0.00     0.173 A 
ATOM     67  C   UNL     1       2.188 -12.416  -0.309  1.00  0.00     0.173 A 
ATOM     68  F   UNL     1       4.302  -9.478  -0.676  1.00  0.00    -0.203 F 
ATOM     69  C   UNL     1       3.811 -11.198  -2.204  1.00  0.00     0.198 A 
ATOM     70  C   UNL     1       2.356 -12.996  -1.563  1.00  0.00     0.198 A 
ATOM     71  F   UNL     1       1.381 -13.019   0.577  1.00  0.00    -0.203 F 
ATOM     72  F   UNL     1       4.564 -10.588  -3.130  1.00  0.00    -0.200 F 
ATOM     73  C   UNL     1       3.163 -12.385  -2.511  1.00  0.00     0.200 A 
ATOM     74  F   UNL     1       1.735 -14.147  -1.856  1.00  0.00    -0.200 F 
ATOM     75  F   UNL     1       3.310 -12.936  -3.724  1.00  0.00    -0.200 F 
ENDBRANCH  51  65
BRANCH  52  76
ATOM     76  C   UNL     1       1.536  -6.782   8.979  1.00  0.00     0.064 A 
ATOM     77  C   UNL     1       2.606  -6.371   9.786  1.00  0.00     0.173 A 
ATOM     78  C   UNL     1       0.239  -6.617   9.492  1.00  0.00     0.173 A 
ATOM     79  F   UNL     1       3.867  -6.524   9.355  1.00  0.00    -0.203 F 
ATOM     80  C   UNL     1       2.393  -5.856  11.065  1.00  0.00     0.198 A 
ATOM     81  C   UNL     1       0.025  -6.067  10.755  1.00  0.00     0.198 A 
ATOM     82  F   UNL     1      -0.824  -6.991   8.766  1.00  0.00    -0.203 F 
ATOM     83  F   UNL     1       3.439  -5.537  11.839  1.00  0.00    -0.200 F 
ATOM     84  C   UNL     1       1.102  -5.701  11.546  1.00  0.00     0.200 A 
ATOM     85  F   UNL     1      -1.225  -5.906  11.210  1.00  0.00    -0.200 F 
ATOM     86  F   UNL     1       0.898  -5.211  12.776  1.00  0.00    -0.200 F 
ENDBRANCH  52  76
BRANCH  64  87
ATOM     87  C   UNL     1       4.578 -12.693   6.891  1.00  0.00     0.064 A 
ATOM     88  C   UNL     1       3.908 -13.535   7.791  1.00  0.00     0.173 A 
ATOM     89  C   UNL     1       5.956 -12.886   6.711  1.00  0.00     0.173 A 
ATOM     90  F   UNL     1       2.592 -13.383   8.007  1.00  0.00    -0.203 F 
ATOM     91  C   UNL     1       4.601 -14.495   8.522  1.00  0.00     0.198 A 
ATOM     92  C   UNL     1       6.637 -13.876   7.411  1.00  0.00     0.198 A 
ATOM     93  F   UNL     1       6.642 -12.118   5.850  1.00  0.00    -0.203 F 
ATOM     94  F   UNL     1       3.954 -15.234   9.434  1.00  0.00    -0.200 F 
ATOM     95  C   UNL     1       5.963 -14.668   8.328  1.00  0.00     0.200 A 
ATOM     96  F   UNL     1       7.949 -14.057   7.207  1.00  0.00    -0.200 F 
ATOM     97  F   UNL     1       6.629 -15.592   9.034  1.00  0.00    -0.200 F 
ENDBRANCH  64  87
ENDBRANCH  38  39
ENDBRANCH  31  33
ENDBRANCH  30  31
ENDBRANCH  29  30
ENDBRANCH   1  29
TORSDOF 16
