REMARK SMILES NS(=O)(=O)c1ccc(-c2cc(Cl)cc3c2O[C@H](C(F)(F)F)C(C(=O)OCCOC(=O)c2ccc(-c4c5nc(c(-c6c(F)c(F)c(F)c(F)c6F)c6ccc([nH]6)c(-c6c(F)c(F)c(F)c(F)c6F)c6nc(c(-c7c(F)c(F)c(F)c(F)c7F)c7ccc4[nH]7)C=C6)C=C5)cc2)=C3)cc1
REMARK SMILES IDX 26 1 25 2 23 3 24 4 22 5 9 6 10 7 15 8 11 9 14 10 16 11
REMARK SMILES IDX 12 12 13 13 94 14 17 15 8 16 5 17 6 18 96 19 7 20 95 21 2 22
REMARK SMILES IDX 3 23 4 24 1 25 18 28 19 29 20 30 21 31 27 32 28 33 29 34
REMARK SMILES IDX 30 35 31 36 32 37 93 38 33 39 92 40 34 41 35 42 36 43 86 44
REMARK SMILES IDX 37 45 91 46 85 47 87 48 38 49 90 50 84 51 83 52 39 54 71 55
REMARK SMILES IDX 51 56 70 57 52 58 55 59 69 60 88 61 53 62 54 63 68 65 89 66
REMARK SMILES IDX 56 67 40 68 41 69 49 70 42 71 43 72 47 73 50 74 44 75 45 76
REMARK SMILES IDX 48 77 46 78 72 79 73 80 81 81 74 82 75 83 79 84 82 85 76 86
REMARK SMILES IDX 77 87 80 88 78 89 57 90 58 91 66 92 59 93 60 94 64 95 67 96
REMARK SMILES IDX 61 97 62 98 65 99 63 100
REMARK H PARENT 1 26 1 27 87 53 55 64
REMARK Flexibility Score: inf
ROOT
ATOM      1  C   UNL     1       2.300  10.278   8.173  1.00  0.00     0.275 C 
ENDROOT
BRANCH   1   2
ATOM      2  O   UNL     1       1.306  10.107   7.134  1.00  0.00    -0.459 OA
BRANCH   2   3
ATOM      3  C   UNL     1       1.304  11.153   6.264  1.00  0.00     0.338 C 
ATOM      4  O   UNL     1       1.998  12.155   6.389  1.00  0.00    -0.246 OA
BRANCH   3   5
ATOM      5  C   UNL     1       0.473  10.930   5.056  1.00  0.00     0.087 C 
ATOM      6  C   UNL     1       1.097   7.649   2.718  1.00  0.00     0.026 A 
ATOM      7  C   UNL     1       2.472   7.362   2.910  1.00  0.00     0.033 A 
ATOM      8  C   UNL     1       0.677   8.876   3.237  1.00  0.00     0.135 A 
ATOM      9  C   UNL     1       3.383   8.296   3.421  1.00  0.00     0.042 A 
ATOM     10  C   UNL     1       1.637   9.877   3.516  1.00  0.00     0.019 A 
ATOM     11  O   UNL     1      -0.620   9.146   3.643  1.00  0.00    -0.475 OA
ATOM     12  Cl  UNL     1       5.011   7.918   3.801  1.00  0.00    -0.084 Cl
ATOM     13  C   UNL     1       2.984   9.593   3.628  1.00  0.00     0.032 A 
ATOM     14  C   UNL     1       1.161  11.207   3.937  1.00  0.00     0.027 C 
ATOM     15  C   UNL     1      -0.634   9.893   4.952  1.00  0.00     0.316 C 
BRANCH   6  16
ATOM     16  C   UNL     1       0.376   6.728   1.791  1.00  0.00    -0.015 A 
ATOM     17  C   UNL     1      -0.112   4.611  -0.051  1.00  0.00     0.082 A 
ATOM     18  C   UNL     1      -0.521   4.495   1.280  1.00  0.00     0.022 A 
ATOM     19  C   UNL     1       0.448   5.806  -0.495  1.00  0.00     0.022 A 
ATOM     20  C   UNL     1      -0.307   5.566   2.183  1.00  0.00     0.010 A 
ATOM     21  C   UNL     1       0.683   6.845   0.416  1.00  0.00     0.010 A 
BRANCH  17  22
ATOM     22  S   UNL     1      -0.259   3.261  -1.198  1.00  0.00     0.238 S 
ATOM     23  O   UNL     1       0.649   3.479  -2.295  1.00  0.00    -0.207 OA
ATOM     24  O   UNL     1      -1.668   2.991  -1.400  1.00  0.00    -0.207 OA
BRANCH  22  25
ATOM     25  N   UNL     1       0.363   1.944  -0.372  1.00  0.00    -0.225 NA
ATOM     26  H   UNL     1       0.316   1.116  -0.967  1.00  0.00     0.137 HD
ATOM     27  H   UNL     1      -0.182   1.785   0.475  1.00  0.00     0.137 HD
ENDBRANCH  22  25
ENDBRANCH  17  22
ENDBRANCH   6  16
BRANCH  15  28
ATOM     28  C   UNL     1      -1.954  10.648   5.129  1.00  0.00     0.430 C 
ATOM     29  F   UNL     1      -2.166  11.531   4.124  1.00  0.00    -0.167 F 
ATOM     30  F   UNL     1      -3.014   9.813   5.174  1.00  0.00    -0.167 F 
ATOM     31  F   UNL     1      -1.955  11.356   6.287  1.00  0.00    -0.167 F 
ENDBRANCH  15  28
ENDBRANCH   3   5
ENDBRANCH   2   3
ENDBRANCH   1   2
BRANCH   1  32
ATOM     32  C   UNL     1       2.437   9.053   9.079  1.00  0.00     0.275 C 
BRANCH  32  33
ATOM     33  O   UNL     1       2.834   7.897   8.317  1.00  0.00    -0.458 OA
BRANCH  33  34
ATOM     34  C   UNL     1       1.807   7.090   7.965  1.00  0.00     0.338 C 
ATOM     35  O   UNL     1       0.639   7.218   8.301  1.00  0.00    -0.246 OA
BRANCH  34  36
ATOM     36  C   UNL     1       2.235   6.083   6.966  1.00  0.00     0.060 A 
ATOM     37  C   UNL     1       1.274   5.712   6.030  1.00  0.00     0.016 A 
ATOM     38  C   UNL     1       3.506   5.495   6.913  1.00  0.00     0.016 A 
ATOM     39  C   UNL     1       1.596   4.794   5.035  1.00  0.00     0.010 A 
ATOM     40  C   UNL     1       3.816   4.553   5.906  1.00  0.00     0.010 A 
ATOM     41  C   UNL     1       2.867   4.205   4.936  1.00  0.00    -0.014 A 
BRANCH  41  42
ATOM     42  C   UNL     1       3.090   3.269   3.783  1.00  0.00     0.031 A 
ATOM     43  C   UNL     1       2.234   2.045   3.637  1.00  0.00     0.074 A 
ATOM     44  C   UNL     1       3.859   3.624   2.731  1.00  0.00     0.049 A 
ATOM     45  N   UNL     1       2.178   1.195   2.643  1.00  0.00    -0.248 NA
ATOM     46  C   UNL     1       1.327   1.731   4.751  1.00  0.00     0.031 C 
ATOM     47  C   UNL     1       4.732   4.779   2.707  1.00  0.00     0.029 A 
ATOM     48  N   UNL     1       3.965   3.120   1.452  1.00  0.00    -0.354 N 
ATOM     49  C   UNL     1       1.226   0.259   3.003  1.00  0.00     0.074 A 
ATOM     50  C   UNL     1       0.708   0.652   4.296  1.00  0.00     0.031 C 
ATOM     51  C   UNL     1       5.139   5.017   1.452  1.00  0.00     0.029 A 
ATOM     52  C   UNL     1       4.697   3.921   0.599  1.00  0.00     0.049 A 
ATOM     53  H   UNL     1       3.557   2.268   1.174  1.00  0.00     0.167 HD
ATOM     54  C   UNL     1       0.844  -0.852   2.332  1.00  0.00     0.037 A 
ATOM     55  C   UNL     1       5.023   3.774  -0.704  1.00  0.00     0.037 A 
ATOM     56  C   UNL     1       1.414  -1.296   1.092  1.00  0.00     0.049 A 
ATOM     57  C   UNL     1       4.652   2.482  -1.387  1.00  0.00     0.074 A 
ATOM     58  C   UNL     1       1.185  -2.477   0.407  1.00  0.00     0.029 A 
ATOM     59  N   UNL     1       2.343  -0.581   0.354  1.00  0.00    -0.354 N 
ATOM     60  N   UNL     1       3.899   1.502  -0.950  1.00  0.00    -0.248 NA
ATOM     61  C   UNL     1       5.253   2.232  -2.708  1.00  0.00     0.031 C 
ATOM     62  C   UNL     1       1.958  -2.464  -0.759  1.00  0.00     0.029 A 
ATOM     63  C   UNL     1       2.626  -1.253  -0.824  1.00  0.00     0.049 A 
ATOM     64  H   UNL     1       2.742   0.277   0.626  1.00  0.00     0.167 HD
ATOM     65  C   UNL     1       3.989   0.502  -1.908  1.00  0.00     0.074 A 
ATOM     66  C   UNL     1       4.802   1.018  -2.987  1.00  0.00     0.031 C 
ATOM     67  C   UNL     1       3.466  -0.746  -1.877  1.00  0.00     0.037 A 
BRANCH  54  68
ATOM     68  C   UNL     1      -0.207  -1.691   2.982  1.00  0.00     0.064 A 
ATOM     69  C   UNL     1      -1.552  -1.295   2.988  1.00  0.00     0.173 A 
ATOM     70  C   UNL     1       0.138  -2.887   3.625  1.00  0.00     0.173 A 
ATOM     71  F   UNL     1      -1.917  -0.143   2.405  1.00  0.00    -0.203 F 
ATOM     72  C   UNL     1      -2.514  -2.060   3.640  1.00  0.00     0.198 A 
ATOM     73  C   UNL     1      -0.829  -3.661   4.255  1.00  0.00     0.198 A 
ATOM     74  F   UNL     1       1.415  -3.297   3.648  1.00  0.00    -0.203 F 
ATOM     75  F   UNL     1      -3.785  -1.640   3.682  1.00  0.00    -0.200 F 
ATOM     76  C   UNL     1      -2.152  -3.243   4.270  1.00  0.00     0.200 A 
ATOM     77  F   UNL     1      -0.479  -4.803   4.861  1.00  0.00    -0.200 F 
ATOM     78  F   UNL     1      -3.078  -3.975   4.905  1.00  0.00    -0.200 F 
ENDBRANCH  54  68
BRANCH  55  79
ATOM     79  C   UNL     1       5.860   4.787  -1.418  1.00  0.00     0.064 A 
ATOM     80  C   UNL     1       5.405   5.424  -2.584  1.00  0.00     0.173 A 
ATOM     81  C   UNL     1       7.162   5.096  -0.991  1.00  0.00     0.173 A 
ATOM     82  F   UNL     1       4.189   5.138  -3.073  1.00  0.00    -0.203 F 
ATOM     83  C   UNL     1       6.217   6.314  -3.291  1.00  0.00     0.198 A 
ATOM     84  C   UNL     1       7.953   6.022  -1.668  1.00  0.00     0.198 A 
ATOM     85  F   UNL     1       7.674   4.496   0.094  1.00  0.00    -0.203 F 
ATOM     86  F   UNL     1       5.780   6.854  -4.437  1.00  0.00    -0.200 F 
ATOM     87  C   UNL     1       7.486   6.622  -2.825  1.00  0.00     0.200 A 
ATOM     88  F   UNL     1       9.174   6.322  -1.202  1.00  0.00    -0.200 F 
ATOM     89  F   UNL     1       8.263   7.482  -3.498  1.00  0.00    -0.200 F 
ENDBRANCH  55  79
BRANCH  67  90
ATOM     90  C   UNL     1       3.744  -1.637  -3.049  1.00  0.00     0.064 A 
ATOM     91  C   UNL     1       4.990  -2.257  -3.220  1.00  0.00     0.173 A 
ATOM     92  C   UNL     1       2.738  -1.905  -3.987  1.00  0.00     0.173 A 
ATOM     93  F   UNL     1       5.989  -2.015  -2.358  1.00  0.00    -0.203 F 
ATOM     94  C   UNL     1       5.220  -3.110  -4.297  1.00  0.00     0.198 A 
ATOM     95  C   UNL     1       2.965  -2.774  -5.051  1.00  0.00     0.198 A 
ATOM     96  F   UNL     1       1.530  -1.335  -3.861  1.00  0.00    -0.203 F 
ATOM     97  F   UNL     1       6.426  -3.673  -4.460  1.00  0.00    -0.200 F 
ATOM     98  C   UNL     1       4.205  -3.373  -5.206  1.00  0.00     0.200 A 
ATOM     99  F   UNL     1       1.981  -3.034  -5.922  1.00  0.00    -0.200 F 
ATOM    100  F   UNL     1       4.425  -4.203  -6.236  1.00  0.00    -0.200 F 
ENDBRANCH  67  90
ENDBRANCH  41  42
ENDBRANCH  34  36
ENDBRANCH  33  34
ENDBRANCH  32  33
ENDBRANCH   1  32
TORSDOF 15
