REMARK SMILES CCC[NH2+]CC(=O)N1CCC(CC(=O)OCCOC(=O)c2ccc(-c3c4nc(c(-c5c(F)c(F)c(F)c(F)c5F)c5ccc([nH]5)c(-c5c(F)c(F)c(F)c(F)c5F)c5nc(c(-c6c(F)c(F)c(F)c(F)c6F)c6ccc3[nH]6)C=C5)C=C4)cc2)CC1
REMARK SMILES IDX 15 1 13 2 14 3 12 4 11 5 6 6 7 7 8 8 9 9 85 10 10 11 84 12
REMARK SMILES IDX 5 13 4 14 3 17 2 18 1 19 16 20 17 21 18 22 19 23 20 24 21 25
REMARK SMILES IDX 22 26 83 27 23 28 82 29 24 30 25 31 26 32 76 33 27 34 81 35
REMARK SMILES IDX 75 36 77 37 28 38 80 39 74 40 73 41 29 43 61 44 41 45 60 46
REMARK SMILES IDX 42 47 45 48 59 49 78 50 43 51 44 52 58 54 79 55 46 56 30 57
REMARK SMILES IDX 31 58 39 59 32 60 33 61 37 62 40 63 34 64 35 65 38 66 36 67
REMARK SMILES IDX 62 68 63 69 71 70 64 71 65 72 69 73 72 74 66 75 67 76 70 77
REMARK SMILES IDX 68 78 47 79 48 80 56 81 49 82 50 83 54 84 57 85 51 86 52 87
REMARK SMILES IDX 55 88 53 89
REMARK H PARENT 4 15 4 16 77 42 45 53
REMARK Flexibility Score: inf
ROOT
ATOM      1  O   UNL     1       8.374   2.284  -4.092  1.00  0.00    -0.462 OA
ENDROOT
BRANCH   1   2
ATOM      2  C   UNL     1       8.258   2.309  -2.741  1.00  0.00     0.306 C 
ATOM      3  O   UNL     1       8.948   2.985  -1.988  1.00  0.00    -0.252 OA
BRANCH   2   4
ATOM      4  C   UNL     1       7.196   1.351  -2.244  1.00  0.00     0.126 C 
BRANCH   4   5
ATOM      5  C   UNL     1       5.829   1.506  -2.926  1.00  0.00     0.003 C 
ATOM      6  C   UNL     1       2.596  -0.725  -4.162  1.00  0.00     0.277 C 
ATOM      7  O   UNL     1       3.135  -1.688  -4.716  1.00  0.00    -0.268 OA
ATOM      8  N   UNL     1       3.307   0.443  -3.921  1.00  0.00    -0.338 N 
ATOM      9  C   UNL     1       4.354   0.827  -4.857  1.00  0.00     0.120 C 
ATOM     10  C   UNL     1       3.326   1.148  -2.649  1.00  0.00     0.120 C 
ATOM     11  C   UNL     1       5.739   0.701  -4.235  1.00  0.00     0.026 C 
ATOM     12  C   UNL     1       4.701   1.059  -1.982  1.00  0.00     0.026 C 
BRANCH   6  13
ATOM     13  C   UNL     1       1.064  -0.707  -3.973  1.00  0.00     0.362 C 
BRANCH  13  14
ATOM     14  N   UNL     1       0.584  -0.650  -2.584  1.00  0.00    -0.338 N 
ATOM     15  H   UNL     1      -0.137  -1.360  -2.457  1.00  0.00     0.346 HD
ATOM     16  H   UNL     1       1.381  -0.817  -1.970  1.00  0.00     0.346 HD
BRANCH  14  17
ATOM     17  C   UNL     1       0.024   0.655  -2.249  1.00  0.00     0.260 C 
BRANCH  17  18
ATOM     18  C   UNL     1      -0.331   0.839  -0.766  1.00  0.00     0.058 C 
ATOM     19  C   UNL     1       0.589   0.153   0.235  1.00  0.00     0.010 C 
ENDBRANCH  17  18
ENDBRANCH  14  17
ENDBRANCH  13  14
ENDBRANCH   6  13
ENDBRANCH   4   5
ENDBRANCH   2   4
ENDBRANCH   1   2
BRANCH   1  20
ATOM     20  C   UNL     1       9.385   3.126  -4.676  1.00  0.00     0.274 C 
BRANCH  20  21
ATOM     21  C   UNL     1       8.803   4.457  -5.158  1.00  0.00     0.275 C 
BRANCH  21  22
ATOM     22  O   UNL     1       8.482   5.317  -4.049  1.00  0.00    -0.458 OA
BRANCH  22  23
ATOM     23  C   UNL     1       7.194   5.289  -3.647  1.00  0.00     0.338 C 
ATOM     24  O   UNL     1       6.268   4.680  -4.167  1.00  0.00    -0.246 OA
BRANCH  23  25
ATOM     25  C   UNL     1       7.048   6.019  -2.377  1.00  0.00     0.060 A 
ATOM     26  C   UNL     1       6.471   5.348  -1.294  1.00  0.00     0.016 A 
ATOM     27  C   UNL     1       7.412   7.364  -2.267  1.00  0.00     0.016 A 
ATOM     28  C   UNL     1       6.242   6.026  -0.098  1.00  0.00     0.010 A 
ATOM     29  C   UNL     1       7.181   8.042  -1.065  1.00  0.00     0.010 A 
ATOM     30  C   UNL     1       6.580   7.382   0.021  1.00  0.00    -0.014 A 
BRANCH  30  31
ATOM     31  C   UNL     1       6.254   8.108   1.272  1.00  0.00     0.031 A 
ATOM     32  C   UNL     1       5.059   9.015   1.325  1.00  0.00     0.074 A 
ATOM     33  C   UNL     1       7.006   7.920   2.372  1.00  0.00     0.049 A 
ATOM     34  N   UNL     1       4.592   9.714   2.330  1.00  0.00    -0.248 NA
ATOM     35  C   UNL     1       4.285   9.156   0.083  1.00  0.00     0.031 C 
ATOM     36  C   UNL     1       8.182   7.053   2.451  1.00  0.00     0.029 A 
ATOM     37  N   UNL     1       6.887   8.442   3.635  1.00  0.00    -0.354 N 
ATOM     38  C   UNL     1       3.473  10.376   1.843  1.00  0.00     0.074 A 
ATOM     39  C   UNL     1       3.347  10.020   0.445  1.00  0.00     0.031 C 
ATOM     40  C   UNL     1       8.670   7.095   3.702  1.00  0.00     0.029 A 
ATOM     41  C   UNL     1       7.857   8.006   4.503  1.00  0.00     0.049 A 
ATOM     42  H   UNL     1       6.173   9.069   3.894  1.00  0.00     0.167 HD
ATOM     43  C   UNL     1       2.622  11.196   2.505  1.00  0.00     0.037 A 
ATOM     44  C   UNL     1       8.065   8.311   5.798  1.00  0.00     0.037 A 
ATOM     45  C   UNL     1       2.744  11.552   3.894  1.00  0.00     0.049 A 
ATOM     46  C   UNL     1       7.120   9.249   6.500  1.00  0.00     0.074 A 
ATOM     47  C   UNL     1       1.929  12.377   4.651  1.00  0.00     0.029 A 
ATOM     48  N   UNL     1       3.749  11.103   4.738  1.00  0.00    -0.354 N 
ATOM     49  N   UNL     1       6.053   9.851   6.036  1.00  0.00    -0.248 NA
ATOM     50  C   UNL     1       7.408   9.542   7.911  1.00  0.00     0.031 C 
ATOM     51  C   UNL     1       2.458  12.452   5.945  1.00  0.00     0.029 A 
ATOM     52  C   UNL     1       3.580  11.642   6.004  1.00  0.00     0.049 A 
ATOM     53  H   UNL     1       4.475  10.492   4.476  1.00  0.00     0.167 HD
ATOM     54  C   UNL     1       5.529  10.573   7.100  1.00  0.00     0.074 A 
ATOM     55  C   UNL     1       6.387  10.320   8.239  1.00  0.00     0.031 C 
ATOM     56  C   UNL     1       4.437  11.375   7.130  1.00  0.00     0.037 A 
BRANCH  43  57
ATOM     57  C   UNL     1       1.481  11.778   1.725  1.00  0.00     0.064 A 
ATOM     58  C   UNL     1       0.375  10.999   1.353  1.00  0.00     0.173 A 
ATOM     59  C   UNL     1       1.474  13.137   1.379  1.00  0.00     0.173 A 
ATOM     60  F   UNL     1       0.342   9.690   1.648  1.00  0.00    -0.203 F 
ATOM     61  C   UNL     1      -0.687  11.555   0.646  1.00  0.00     0.198 A 
ATOM     62  C   UNL     1       0.399  13.696   0.693  1.00  0.00     0.198 A 
ATOM     63  F   UNL     1       2.506  13.926   1.715  1.00  0.00    -0.203 F 
ATOM     64  F   UNL     1      -1.716  10.784   0.268  1.00  0.00    -0.200 F 
ATOM     65  C   UNL     1      -0.678  12.904   0.322  1.00  0.00     0.200 A 
ATOM     66  F   UNL     1       0.405  15.001   0.388  1.00  0.00    -0.200 F 
ATOM     67  F   UNL     1      -1.704  13.439  -0.353  1.00  0.00    -0.200 F 
ENDBRANCH  43  57
BRANCH  44  68
ATOM     68  C   UNL     1       9.211   7.710   6.526  1.00  0.00     0.064 A 
ATOM     69  C   UNL     1       9.005   6.750   7.527  1.00  0.00     0.173 A 
ATOM     70  C   UNL     1      10.530   8.096   6.249  1.00  0.00     0.173 A 
ATOM     71  F   UNL     1       7.759   6.370   7.843  1.00  0.00    -0.203 F 
ATOM     72  C   UNL     1      10.076   6.213   8.237  1.00  0.00     0.198 A 
ATOM     73  C   UNL     1      11.601   7.539   6.943  1.00  0.00     0.198 A 
ATOM     74  F   UNL     1      10.777   9.012   5.302  1.00  0.00    -0.203 F 
ATOM     75  F   UNL     1       9.849   5.332   9.221  1.00  0.00    -0.200 F 
ATOM     76  C   UNL     1      11.373   6.604   7.942  1.00  0.00     0.200 A 
ATOM     77  F   UNL     1      12.854   7.914   6.650  1.00  0.00    -0.200 F 
ATOM     78  F   UNL     1      12.403   6.089   8.627  1.00  0.00    -0.200 F 
ENDBRANCH  44  68
BRANCH  56  79
ATOM     79  C   UNL     1       4.091  12.008   8.446  1.00  0.00     0.064 A 
ATOM     80  C   UNL     1       4.851  13.061   8.977  1.00  0.00     0.173 A 
ATOM     81  C   UNL     1       2.981  11.563   9.178  1.00  0.00     0.173 A 
ATOM     82  F   UNL     1       5.931  13.511   8.321  1.00  0.00    -0.203 F 
ATOM     83  C   UNL     1       4.528  13.625  10.208  1.00  0.00     0.198 A 
ATOM     84  C   UNL     1       2.646  12.146  10.397  1.00  0.00     0.198 A 
ATOM     85  F   UNL     1       2.219  10.562   8.711  1.00  0.00    -0.203 F 
ATOM     86  F   UNL     1       5.298  14.595  10.721  1.00  0.00    -0.200 F 
ATOM     87  C   UNL     1       3.425  13.170  10.915  1.00  0.00     0.200 A 
ATOM     88  F   UNL     1       1.575  11.712  11.075  1.00  0.00    -0.200 F 
ATOM     89  F   UNL     1       3.118  13.712  12.102  1.00  0.00    -0.200 F 
ENDBRANCH  56  79
ENDBRANCH  30  31
ENDBRANCH  23  25
ENDBRANCH  22  23
ENDBRANCH  21  22
ENDBRANCH  20  21
ENDBRANCH   1  20
TORSDOF 16
