REMARK SMILES C[C@H]1CCCC[C@H]1[N@H+]1[C@@H](C(=O)OCCOC(=O)c2ccc(-c3c4nc(c(-c5c(F)c(F)c(F)c(F)c5F)c5ccc([nH]5)c(-c5c(F)c(F)c(F)c(F)c5F)c5nc(c(-c6c(F)c(F)c(F)c(F)c6F)c6ccc3[nH]6)C=C5)C=C4)cc2)CC[C@H]2CCCC[C@H]21
REMARK SMILES IDX 14 1 13 2 12 3 10 4 11 5 9 6 8 7 88 8 81 10 83 11 87 12
REMARK SMILES IDX 82 13 84 14 86 15 85 16 7 17 1 18 2 19 3 20 4 21 6 22 5 23
REMARK SMILES IDX 15 24 16 25 17 26 18 27 19 28 80 29 20 30 79 31 21 32 22 33
REMARK SMILES IDX 23 34 73 35 24 36 78 37 72 38 74 39 25 40 77 41 71 42 70 43
REMARK SMILES IDX 26 45 58 46 38 47 57 48 39 49 42 50 56 51 75 52 40 53 41 54
REMARK SMILES IDX 55 56 76 57 43 58 27 59 28 60 36 61 29 62 30 63 34 64 37 65
REMARK SMILES IDX 31 66 32 67 35 68 33 69 59 70 60 71 68 72 61 73 62 74 66 75
REMARK SMILES IDX 69 76 63 77 64 78 67 79 65 80 44 81 45 82 53 83 46 84 47 85
REMARK SMILES IDX 51 86 54 87 48 88 49 89 52 90 50 91
REMARK H PARENT 8 9 74 44 42 55
REMARK Flexibility Score: inf
ROOT
ATOM      1  C   UNL     1      -4.305  -0.051  -0.800  1.00  0.00     0.275 C 
ENDROOT
BRANCH   1   2
ATOM      2  C   UNL     1      -3.640  -0.412  -2.159  1.00  0.00     0.274 C 
BRANCH   2   3
ATOM      3  O   UNL     1      -2.208  -0.733  -2.151  1.00  0.00    -0.458 OA
BRANCH   3   4
ATOM      4  C   UNL     1      -1.327   0.290  -2.341  1.00  0.00     0.365 C 
ATOM      5  O   UNL     1      -1.705   1.460  -2.427  1.00  0.00    -0.245 OA
BRANCH   4   6
ATOM      6  C   UNL     1       0.158  -0.087  -2.641  1.00  0.00     0.295 C 
ATOM      7  N   UNL     1       0.821  -1.351  -2.172  1.00  0.00    -0.318 N 
ATOM      8  C   UNL     1       2.250  -1.277  -2.997  1.00  0.00     0.188 C 
ATOM      9  H   UNL     1       0.372  -2.245  -2.370  1.00  0.00     0.349 HD
ATOM     10  C   UNL     1       1.150   1.058  -2.347  1.00  0.00     0.078 C 
ATOM     11  C   UNL     1       3.193  -0.846  -1.932  1.00  0.00     0.048 C 
ATOM     12  C   UNL     1       3.171  -2.187  -3.917  1.00  0.00     0.065 C 
ATOM     13  C   UNL     1       2.599   0.649  -1.812  1.00  0.00     0.016 C 
ATOM     14  C   UNL     1       3.260  -2.320  -1.233  1.00  0.00     0.010 C 
ATOM     15  C   UNL     1       4.309  -3.065  -3.331  1.00  0.00     0.006 C 
ATOM     16  C   UNL     1       4.257  -3.283  -1.840  1.00  0.00     0.001 C 
BRANCH   7  17
ATOM     17  C   UNL     1       0.821  -1.416  -0.548  1.00  0.00     0.187 C 
ATOM     18  C   UNL     1       2.946  -0.301   1.076  1.00  0.00     0.014 C 
ATOM     19  C   UNL     1       1.459  -0.522   0.688  1.00  0.00     0.044 C 
ATOM     20  C   UNL     1       0.704   0.759   0.961  1.00  0.00     0.009 C 
ATOM     21  C   UNL     1      -0.777   0.524   0.996  1.00  0.00     0.001 C 
ATOM     22  C   UNL     1      -0.548  -1.878   0.007  1.00  0.00     0.065 C 
ATOM     23  C   UNL     1      -1.346  -0.858   0.783  1.00  0.00     0.006 C 
ENDBRANCH   7  17
ENDBRANCH   4   6
ENDBRANCH   3   4
ENDBRANCH   2   3
ENDBRANCH   1   2
BRANCH   1  24
ATOM     24  O   UNL     1      -3.806   1.206  -0.289  1.00  0.00    -0.458 OA
BRANCH  24  25
ATOM     25  C   UNL     1      -4.000   1.500   1.023  1.00  0.00     0.338 C 
ATOM     26  O   UNL     1      -4.697   0.847   1.808  1.00  0.00    -0.246 OA
BRANCH  25  27
ATOM     27  C   UNL     1      -3.090   2.614   1.456  1.00  0.00     0.060 A 
ATOM     28  C   UNL     1      -2.292   3.262   0.513  1.00  0.00     0.016 A 
ATOM     29  C   UNL     1      -2.805   2.824   2.817  1.00  0.00     0.016 A 
ATOM     30  C   UNL     1      -1.127   3.927   0.917  1.00  0.00     0.010 A 
ATOM     31  C   UNL     1      -1.710   3.630   3.215  1.00  0.00     0.010 A 
ATOM     32  C   UNL     1      -0.828   4.179   2.269  1.00  0.00    -0.014 A 
BRANCH  32  33
ATOM     33  C   UNL     1       0.350   5.042   2.657  1.00  0.00     0.031 A 
ATOM     34  C   UNL     1       1.328   4.662   3.756  1.00  0.00     0.074 A 
ATOM     35  C   UNL     1       0.566   6.218   2.023  1.00  0.00     0.049 A 
ATOM     36  N   UNL     1       2.210   5.408   4.385  1.00  0.00    -0.248 NA
ATOM     37  C   UNL     1       1.329   3.260   4.195  1.00  0.00     0.031 C 
ATOM     38  C   UNL     1      -0.199   6.730   0.886  1.00  0.00     0.029 A 
ATOM     39  N   UNL     1       1.498   7.208   2.251  1.00  0.00    -0.354 N 
ATOM     40  C   UNL     1       2.822   4.588   5.331  1.00  0.00     0.074 A 
ATOM     41  C   UNL     1       2.233   3.274   5.169  1.00  0.00     0.031 C 
ATOM     42  C   UNL     1       0.321   7.892   0.480  1.00  0.00     0.029 A 
ATOM     43  C   UNL     1       1.340   8.301   1.432  1.00  0.00     0.049 A 
ATOM     44  H   UNL     1       2.206   7.139   2.932  1.00  0.00     0.167 HD
ATOM     45  C   UNL     1       3.764   4.906   6.260  1.00  0.00     0.037 A 
ATOM     46  C   UNL     1       1.861   9.541   1.474  1.00  0.00     0.037 A 
ATOM     47  C   UNL     1       4.376   6.209   6.402  1.00  0.00     0.049 A 
ATOM     48  C   UNL     1       2.796   9.916   2.579  1.00  0.00     0.074 A 
ATOM     49  C   UNL     1       5.326   6.627   7.323  1.00  0.00     0.029 A 
ATOM     50  N   UNL     1       4.105   7.307   5.599  1.00  0.00    -0.354 N 
ATOM     51  N   UNL     1       3.271   9.174   3.546  1.00  0.00    -0.248 NA
ATOM     52  C   UNL     1       3.243  11.314   2.613  1.00  0.00     0.031 C 
ATOM     53  C   UNL     1       5.585   7.987   7.113  1.00  0.00     0.029 A 
ATOM     54  C   UNL     1       4.849   8.403   6.018  1.00  0.00     0.049 A 
ATOM     55  H   UNL     1       3.475   7.310   4.842  1.00  0.00     0.167 HD
ATOM     56  C   UNL     1       4.096  10.004   4.290  1.00  0.00     0.074 A 
ATOM     57  C   UNL     1       4.060  11.306   3.657  1.00  0.00     0.031 C 
ATOM     58  C   UNL     1       4.821   9.703   5.394  1.00  0.00     0.037 A 
BRANCH  45  59
ATOM     59  C   UNL     1       4.146   3.849   7.268  1.00  0.00     0.064 A 
ATOM     60  C   UNL     1       4.898   2.715   6.930  1.00  0.00     0.173 A 
ATOM     61  C   UNL     1       3.782   4.005   8.618  1.00  0.00     0.173 A 
ATOM     62  F   UNL     1       5.277   2.510   5.660  1.00  0.00    -0.203 F 
ATOM     63  C   UNL     1       5.236   1.761   7.892  1.00  0.00     0.198 A 
ATOM     64  C   UNL     1       4.150   3.069   9.582  1.00  0.00     0.198 A 
ATOM     65  F   UNL     1       3.081   5.080   9.009  1.00  0.00    -0.203 F 
ATOM     66  F   UNL     1       5.909   0.659   7.533  1.00  0.00    -0.200 F 
ATOM     67  C   UNL     1       4.866   1.941   9.217  1.00  0.00     0.200 A 
ATOM     68  F   UNL     1       3.810   3.259  10.865  1.00  0.00    -0.200 F 
ATOM     69  F   UNL     1       5.192   1.024  10.138  1.00  0.00    -0.200 F 
ENDBRANCH  45  59
BRANCH  46  70
ATOM     70  C   UNL     1       1.430  10.539   0.460  1.00  0.00     0.064 A 
ATOM     71  C   UNL     1       2.315  10.977  -0.532  1.00  0.00     0.173 A 
ATOM     72  C   UNL     1       0.110  11.018   0.421  1.00  0.00     0.173 A 
ATOM     73  F   UNL     1       3.592  10.570  -0.517  1.00  0.00    -0.203 F 
ATOM     74  C   UNL     1       1.891  11.846  -1.536  1.00  0.00     0.198 A 
ATOM     75  C   UNL     1      -0.321  11.855  -0.604  1.00  0.00     0.198 A 
ATOM     76  F   UNL     1      -0.775  10.625   1.349  1.00  0.00    -0.203 F 
ATOM     77  F   UNL     1       2.761  12.268  -2.463  1.00  0.00    -0.200 F 
ATOM     78  C   UNL     1       0.571  12.270  -1.580  1.00  0.00     0.200 A 
ATOM     79  F   UNL     1      -1.603  12.241  -0.656  1.00  0.00    -0.200 F 
ATOM     80  F   UNL     1       0.158  13.078  -2.566  1.00  0.00    -0.200 F 
ENDBRANCH  46  70
BRANCH  58  81
ATOM     81  C   UNL     1       5.694  10.790   5.949  1.00  0.00     0.064 A 
ATOM     82  C   UNL     1       5.162  11.915   6.597  1.00  0.00     0.173 A 
ATOM     83  C   UNL     1       7.089  10.713   5.810  1.00  0.00     0.173 A 
ATOM     84  F   UNL     1       3.834  12.050   6.735  1.00  0.00    -0.203 F 
ATOM     85  C   UNL     1       5.991  12.939   7.051  1.00  0.00     0.198 A 
ATOM     86  C   UNL     1       7.916  11.724   6.293  1.00  0.00     0.198 A 
ATOM     87  F   UNL     1       7.650   9.660   5.198  1.00  0.00    -0.203 F 
ATOM     88  F   UNL     1       5.455  14.035   7.607  1.00  0.00    -0.200 F 
ATOM     89  C   UNL     1       7.366  12.841   6.902  1.00  0.00     0.200 A 
ATOM     90  F   UNL     1       9.245  11.622   6.155  1.00  0.00    -0.200 F 
ATOM     91  F   UNL     1       8.161  13.830   7.333  1.00  0.00    -0.200 F 
ENDBRANCH  58  81
ENDBRANCH  32  33
ENDBRANCH  25  27
ENDBRANCH  24  25
ENDBRANCH   1  24
TORSDOF 12
