REMARK SMILES Cc1cc(C)c(S(=O)(=O)Nc2ccc(N3CCN(c4ccccn4)CC3)c(C(=O)OCCOC(=O)c3ccc(-c4c5nc(c(-c6c(F)c(F)c(F)c(F)c6F)c6ccc([nH]6)c(-c6c(F)c(F)c(F)c(F)c6F)c6nc(c(-c7c(F)c(F)c(F)c(F)c7F)c7ccc4[nH]7)C=C6)C=C5)cc3)c2)c(C)c1
REMARK SMILES IDX 31 1 30 2 28 3 29 4 27 5 11 6 12 7 99 8 13 9 14 10 10 11
REMARK SMILES IDX 7 13 8 14 9 15 6 16 1 17 2 18 3 19 102 20 4 21 100 22 5 23
REMARK SMILES IDX 101 24 15 25 16 26 26 27 17 28 25 29 18 30 19 31 20 32 24 33
REMARK SMILES IDX 21 34 23 35 22 36 32 37 33 38 34 39 35 40 36 41 37 42 98 43
REMARK SMILES IDX 38 44 97 45 39 46 40 47 41 48 91 49 42 50 96 51 90 52 92 53
REMARK SMILES IDX 43 54 95 55 89 56 88 57 44 59 76 60 56 61 75 62 57 63 60 64
REMARK SMILES IDX 74 65 93 66 58 67 59 68 73 70 94 71 61 72 45 73 46 74 54 75
REMARK SMILES IDX 47 76 48 77 52 78 55 79 49 80 50 81 53 82 51 83 77 84 78 85
REMARK SMILES IDX 86 86 79 87 80 88 84 89 87 90 81 91 82 92 85 93 83 94 62 95
REMARK SMILES IDX 63 96 71 97 64 98 65 99 69 100 72 101 66 102 67 103 70 104
REMARK SMILES IDX 68 105
REMARK H PARENT 10 12 92 58 60 69
REMARK Flexibility Score: inf
ROOT
ATOM      1  C   UNL     1       2.320  -1.071   3.729  1.00  0.00     0.275 C 
ENDROOT
BRANCH   1   2
ATOM      2  O   UNL     1       1.681  -2.200   3.101  1.00  0.00    -0.458 OA
BRANCH   2   3
ATOM      3  C   UNL     1       2.060  -2.427   1.820  1.00  0.00     0.340 C 
ATOM      4  O   UNL     1       2.780  -1.702   1.155  1.00  0.00    -0.246 OA
BRANCH   3   5
ATOM      5  C   UNL     1       1.371  -3.623   1.292  1.00  0.00     0.085 A 
ATOM      6  C   UNL     1      -0.774  -4.198   0.389  1.00  0.00     0.050 A 
ATOM      7  C   UNL     1      -0.219  -5.344  -0.190  1.00  0.00     0.029 A 
ATOM      8  C   UNL     1      -0.022  -3.461   1.282  1.00  0.00     0.044 A 
ATOM      9  C   UNL     1       1.157  -5.587  -0.077  1.00  0.00     0.029 A 
ATOM     10  C   UNL     1       1.997  -4.670   0.573  1.00  0.00     0.052 A 
BRANCH   6  11
ATOM     11  N   UNL     1      -1.889  -3.623  -0.284  1.00  0.00    -0.280 N 
ATOM     12  H   UNL     1      -2.361  -4.198  -0.928  1.00  0.00     0.180 HD
BRANCH  11  13
ATOM     13  S   UNL     1      -2.479  -2.068  -0.092  1.00  0.00     0.262 S 
ATOM     14  O   UNL     1      -2.839  -1.942   1.308  1.00  0.00    -0.201 OA
ATOM     15  O   UNL     1      -3.478  -1.921  -1.131  1.00  0.00    -0.201 OA
BRANCH  13  16
ATOM     16  C   UNL     1      -1.224  -0.799  -0.417  1.00  0.00     0.093 A 
ATOM     17  C   UNL     1       1.944   2.129   0.049  1.00  0.00     0.044 C 
ATOM     18  C   UNL     1       0.837   1.136  -0.145  1.00  0.00    -0.051 A 
ATOM     19  C   UNL     1      -0.468   1.445   0.219  1.00  0.00     0.008 A 
ATOM     20  C   UNL     1       1.064  -0.075  -0.798  1.00  0.00     0.008 A 
ATOM     21  C   UNL     1      -1.506   0.501   0.084  1.00  0.00    -0.030 A 
ATOM     22  C   UNL     1       0.041  -1.035  -0.992  1.00  0.00    -0.030 A 
ATOM     23  C   UNL     1      -2.898   1.022   0.346  1.00  0.00     0.046 C 
ATOM     24  C   UNL     1       0.372  -2.155  -1.935  1.00  0.00     0.046 C 
ENDBRANCH  13  16
ENDBRANCH  11  13
ENDBRANCH   6  11
BRANCH  10  25
ATOM     25  N   UNL     1       3.369  -4.806   0.352  1.00  0.00    -0.367 N 
ATOM     26  C   UNL     1       4.139  -3.570  -0.646  1.00  0.00     0.138 C 
ATOM     27  C   UNL     1       4.365  -5.797   1.593  1.00  0.00     0.138 C 
ATOM     28  C   UNL     1       5.879  -2.945  -0.327  1.00  0.00     0.139 C 
ATOM     29  C   UNL     1       6.416  -5.041   1.917  1.00  0.00     0.139 C 
ATOM     30  N   UNL     1       6.998  -3.765   0.722  1.00  0.00    -0.353 N 
BRANCH  30  31
ATOM     31  C   UNL     1       8.370  -3.622   0.531  1.00  0.00     0.128 A 
ATOM     32  C   UNL     1       9.272  -4.621   0.933  1.00  0.00     0.047 A 
ATOM     33  N   UNL     1       8.841  -2.535  -0.112  1.00  0.00    -0.239 NA
ATOM     34  C   UNL     1      10.645  -4.495   0.752  1.00  0.00     0.005 A 
ATOM     35  C   UNL     1      10.190  -2.417  -0.263  1.00  0.00     0.113 A 
ATOM     36  C   UNL     1      11.122  -3.349   0.161  1.00  0.00     0.020 A 
ENDBRANCH  30  31
ENDBRANCH  10  25
ENDBRANCH   3   5
ENDBRANCH   2   3
ENDBRANCH   1   2
BRANCH   1  37
ATOM     37  C   UNL     1       3.289  -1.590   4.783  1.00  0.00     0.275 C 
BRANCH  37  38
ATOM     38  O   UNL     1       4.257  -2.431   4.127  1.00  0.00    -0.458 OA
BRANCH  38  39
ATOM     39  C   UNL     1       4.037  -3.753   4.258  1.00  0.00     0.338 C 
ATOM     40  O   UNL     1       3.280  -4.328   5.020  1.00  0.00    -0.246 OA
BRANCH  39  41
ATOM     41  C   UNL     1       4.800  -4.489   3.251  1.00  0.00     0.060 A 
ATOM     42  C   UNL     1       4.905  -3.964   1.581  1.00  0.00     0.016 A 
ATOM     43  C   UNL     1       5.355  -6.088   3.591  1.00  0.00     0.016 A 
ATOM     44  C   UNL     1       5.536  -5.234   0.229  1.00  0.00     0.010 A 
ATOM     45  C   UNL     1       5.988  -7.176   2.382  1.00  0.00     0.010 A 
ATOM     46  C   UNL     1       6.143  -6.800   0.676  1.00  0.00    -0.014 A 
BRANCH  46  47
ATOM     47  C   UNL     1       6.974  -7.626  -0.305  1.00  0.00     0.031 A 
ATOM     48  C   UNL     1       7.097  -9.115  -0.095  1.00  0.00     0.074 A 
ATOM     49  C   UNL     1       7.719  -7.096  -1.319  1.00  0.00     0.049 A 
ATOM     50  N   UNL     1       7.979  -9.960  -0.572  1.00  0.00    -0.248 NA
ATOM     51  C   UNL     1       6.097  -9.740   0.779  1.00  0.00     0.031 C 
ATOM     52  C   UNL     1       7.707  -5.725  -1.805  1.00  0.00     0.029 A 
ATOM     53  N   UNL     1       8.719  -7.651  -2.111  1.00  0.00    -0.354 N 
ATOM     54  C   UNL     1       7.655 -11.196  -0.029  1.00  0.00     0.074 A 
ATOM     55  C   UNL     1       6.565 -10.973   0.895  1.00  0.00     0.031 C 
ATOM     56  C   UNL     1       8.676  -5.496  -2.689  1.00  0.00     0.029 A 
ATOM     57  C   UNL     1       9.415  -6.716  -2.861  1.00  0.00     0.049 A 
ATOM     58  H   UNL     1       8.913  -8.616  -2.136  1.00  0.00     0.167 HD
ATOM     59  C   UNL     1       8.169 -12.416  -0.320  1.00  0.00     0.037 A 
ATOM     60  C   UNL     1      10.541  -6.759  -3.597  1.00  0.00     0.037 A 
ATOM     61  C   UNL     1       9.191 -12.650  -1.310  1.00  0.00     0.049 A 
ATOM     62  C   UNL     1      11.177  -8.076  -3.823  1.00  0.00     0.074 A 
ATOM     63  C   UNL     1       9.698 -13.858  -1.754  1.00  0.00     0.029 A 
ATOM     64  N   UNL     1       9.860 -11.657  -2.013  1.00  0.00    -0.354 N 
ATOM     65  N   UNL     1      10.843  -9.229  -3.308  1.00  0.00    -0.248 NA
ATOM     66  C   UNL     1      12.293  -8.117  -4.769  1.00  0.00     0.031 C 
ATOM     67  C   UNL     1      10.721 -13.596  -2.672  1.00  0.00     0.029 A 
ATOM     68  C   UNL     1      10.813 -12.225  -2.847  1.00  0.00     0.049 A 
ATOM     69  H   UNL     1       9.685 -10.691  -1.932  1.00  0.00     0.167 HD
ATOM     70  C   UNL     1      11.681 -10.152  -3.897  1.00  0.00     0.074 A 
ATOM     71  C   UNL     1      12.544  -9.418  -4.805  1.00  0.00     0.031 C 
ATOM     72  C   UNL     1      11.703 -11.492  -3.712  1.00  0.00     0.037 A 
BRANCH  59  73
ATOM     73  C   UNL     1       7.628 -13.595   0.445  1.00  0.00     0.064 A 
ATOM     74  C   UNL     1       6.300 -14.033   0.310  1.00  0.00     0.173 A 
ATOM     75  C   UNL     1       8.455 -14.296   1.336  1.00  0.00     0.173 A 
ATOM     76  F   UNL     1       5.459 -13.395  -0.518  1.00  0.00    -0.203 F 
ATOM     77  C   UNL     1       5.807 -15.086   1.078  1.00  0.00     0.198 A 
ATOM     78  C   UNL     1       7.971 -15.375   2.072  1.00  0.00     0.198 A 
ATOM     79  F   UNL     1       9.735 -13.931   1.500  1.00  0.00    -0.203 F 
ATOM     80  F   UNL     1       4.514 -15.429   0.991  1.00  0.00    -0.200 F 
ATOM     81  C   UNL     1       6.644 -15.759   1.954  1.00  0.00     0.200 A 
ATOM     82  F   UNL     1       8.786 -16.035   2.907  1.00  0.00    -0.200 F 
ATOM     83  F   UNL     1       6.168 -16.769   2.695  1.00  0.00    -0.200 F 
ENDBRANCH  59  73
BRANCH  60  84
ATOM     84  C   UNL     1      11.101  -5.501  -4.167  1.00  0.00     0.064 A 
ATOM     85  C   UNL     1      10.856  -5.114  -5.490  1.00  0.00     0.173 A 
ATOM     86  C   UNL     1      11.813  -4.610  -3.350  1.00  0.00     0.173 A 
ATOM     87  F   UNL     1      10.206  -5.943  -6.319  1.00  0.00    -0.203 F 
ATOM     88  C   UNL     1      11.281  -3.873  -5.967  1.00  0.00     0.198 A 
ATOM     89  C   UNL     1      12.209  -3.357  -3.816  1.00  0.00     0.198 A 
ATOM     90  F   UNL     1      12.119  -4.958  -2.093  1.00  0.00    -0.203 F 
ATOM     91  F   UNL     1      11.047  -3.531  -7.241  1.00  0.00    -0.200 F 
ATOM     92  C   UNL     1      11.941  -2.988  -5.125  1.00  0.00     0.200 A 
ATOM     93  F   UNL     1      12.840  -2.505  -2.995  1.00  0.00    -0.200 F 
ATOM     94  F   UNL     1      12.323  -1.786  -5.577  1.00  0.00    -0.200 F 
ENDBRANCH  60  84
BRANCH  72  95
ATOM     95  C   UNL     1      12.706 -12.249  -4.520  1.00  0.00     0.064 A 
ATOM     96  C   UNL     1      14.078 -12.156  -4.252  1.00  0.00     0.173 A 
ATOM     97  C   UNL     1      12.290 -13.063  -5.584  1.00  0.00     0.173 A 
ATOM     98  F   UNL     1      14.521 -11.361  -3.265  1.00  0.00    -0.203 F 
ATOM     99  C   UNL     1      15.004 -12.832  -5.038  1.00  0.00     0.198 A 
ATOM    100  C   UNL     1      13.216 -13.765  -6.346  1.00  0.00     0.198 A 
ATOM    101  F   UNL     1      10.987 -13.173  -5.884  1.00  0.00    -0.203 F 
ATOM    102  F   UNL     1      16.314 -12.679  -4.806  1.00  0.00    -0.200 F 
ATOM    103  C   UNL     1      14.572 -13.642  -6.079  1.00  0.00     0.200 A 
ATOM    104  F   UNL     1      12.798 -14.552  -7.346  1.00  0.00    -0.200 F 
ATOM    105  F   UNL     1      15.465 -14.294  -6.834  1.00  0.00    -0.200 F 
ENDBRANCH  72  95
ENDBRANCH  46  47
ENDBRANCH  39  41
ENDBRANCH  38  39
ENDBRANCH  37  38
ENDBRANCH   1  37
TORSDOF 16
