REMARK SMILES COc1cccc(/C=C2/C(=O)N(c3cccc(C(=O)OCCOC(=O)c4ccc(-c5c6nc(c(-c7c(F)c(F)c(F)c(F)c7F)c7ccc([nH]7)c(-c7c(F)c(F)c(F)c(F)c7F)c7nc(c(-c8c(F)c(F)c(F)c(F)c8F)c8ccc5[nH]8)C=C7)C=C6)cc4)c3)N=C2C)c1
REMARK SMILES IDX 21 1 20 2 18 3 19 4 17 5 13 6 14 7 89 8 15 9 16 10 12 11
REMARK SMILES IDX 8 12 9 13 10 14 91 15 11 16 90 17 92 18 7 19 3 20 4 21 93 22
REMARK SMILES IDX 5 23 6 24 2 25 1 26 22 27 23 28 24 29 25 30 26 31 27 32
REMARK SMILES IDX 88 33 28 34 87 35 29 36 30 37 31 38 81 39 32 40 86 41 80 42
REMARK SMILES IDX 82 43 33 44 85 45 79 46 78 47 34 49 66 50 46 51 65 52 47 53
REMARK SMILES IDX 50 54 64 55 83 56 48 57 49 58 63 60 84 61 51 62 35 63 36 64
REMARK SMILES IDX 44 65 37 66 38 67 42 68 45 69 39 70 40 71 43 72 41 73 67 74
REMARK SMILES IDX 68 75 76 76 69 77 70 78 74 79 77 80 71 81 72 82 75 83 73 84
REMARK SMILES IDX 52 85 53 86 61 87 54 88 55 89 59 90 62 91 56 92 57 93 60 94
REMARK SMILES IDX 58 95
REMARK H PARENT 82 48 50 59
REMARK Flexibility Score: inf
ROOT
ATOM      1  C   UNL     1      11.538  -1.323   1.732  1.00  0.00     0.275 C 
ENDROOT
BRANCH   1   2
ATOM      2  O   UNL     1      10.758  -0.127   1.932  1.00  0.00    -0.458 OA
BRANCH   2   3
ATOM      3  C   UNL     1      11.239   0.794   2.808  1.00  0.00     0.338 C 
ATOM      4  O   UNL     1      12.275   0.729   3.446  1.00  0.00    -0.246 OA
BRANCH   3   5
ATOM      5  C   UNL     1      10.372   1.997   2.769  1.00  0.00     0.062 A 
ATOM      6  C   UNL     1       8.181   2.979   2.546  1.00  0.00     0.070 A 
ATOM      7  C   UNL     1       8.750   4.247   2.399  1.00  0.00     0.028 A 
ATOM      8  C   UNL     1       8.995   1.853   2.686  1.00  0.00     0.044 A 
ATOM      9  C   UNL     1      10.122   4.404   2.568  1.00  0.00     0.003 A 
ATOM     10  C   UNL     1      10.920   3.285   2.808  1.00  0.00     0.016 A 
BRANCH   6  11
ATOM     11  N   UNL     1       6.795   2.830   2.622  1.00  0.00    -0.196 N 
ATOM     12  C   UNL     1       3.769   1.469   3.756  1.00  0.00     0.024 C 
ATOM     13  C   UNL     1       4.723   2.150   3.113  1.00  0.00     0.065 C 
ATOM     14  C   UNL     1       6.139   1.912   3.447  1.00  0.00     0.280 C 
ATOM     15  C   UNL     1       4.760   3.186   2.060  1.00  0.00     0.071 C 
ATOM     16  O   UNL     1       6.562   1.117   4.261  1.00  0.00    -0.267 OA
ATOM     17  N   UNL     1       5.977   3.604   1.824  1.00  0.00    -0.169 NA
ATOM     18  C   UNL     1       3.582   3.690   1.297  1.00  0.00     0.069 C 
BRANCH  12  19
ATOM     19  C   UNL     1       2.355   1.577   3.447  1.00  0.00    -0.021 A 
ATOM     20  C   UNL     1       0.564   1.220   1.862  1.00  0.00     0.119 A 
ATOM     21  C   UNL     1      -0.289   1.943   2.698  1.00  0.00     0.046 A 
ATOM     22  C   UNL     1       1.882   1.017   2.255  1.00  0.00     0.054 A 
ATOM     23  C   UNL     1       0.164   2.451   3.919  1.00  0.00     0.004 A 
ATOM     24  C   UNL     1       1.493   2.273   4.294  1.00  0.00     0.008 A 
BRANCH  20  25
ATOM     25  O   UNL     1       0.018   0.803   0.680  1.00  0.00    -0.497 OA
ATOM     26  C   UNL     1       0.801  -0.087  -0.108  1.00  0.00     0.278 C 
ENDBRANCH  20  25
ENDBRANCH  12  19
ENDBRANCH   6  11
ENDBRANCH   3   5
ENDBRANCH   2   3
ENDBRANCH   1   2
BRANCH   1  27
ATOM     27  C   UNL     1      12.245  -1.305   0.375  1.00  0.00     0.275 C 
BRANCH  27  28
ATOM     28  O   UNL     1      13.262  -0.286   0.353  1.00  0.00    -0.458 OA
BRANCH  28  29
ATOM     29  C   UNL     1      12.957   0.815  -0.369  1.00  0.00     0.338 C 
ATOM     30  O   UNL     1      11.967   1.015  -1.051  1.00  0.00    -0.246 OA
BRANCH  29  31
ATOM     31  C   UNL     1      13.961   1.857  -0.123  1.00  0.00     0.060 A 
ATOM     32  C   UNL     1      13.807   2.624   1.022  1.00  0.00     0.016 A 
ATOM     33  C   UNL     1      14.916   2.208  -1.069  1.00  0.00     0.016 A 
ATOM     34  C   UNL     1      14.501   3.814   1.184  1.00  0.00     0.010 A 
ATOM     35  C   UNL     1      15.714   3.340  -0.844  1.00  0.00     0.010 A 
ATOM     36  C   UNL     1      15.488   4.181   0.265  1.00  0.00    -0.014 A 
BRANCH  36  37
ATOM     37  C   UNL     1      16.248   5.451   0.456  1.00  0.00     0.031 A 
ATOM     38  C   UNL     1      16.267   6.493  -0.632  1.00  0.00     0.074 A 
ATOM     39  C   UNL     1      16.905   5.687   1.610  1.00  0.00     0.049 A 
ATOM     40  N   UNL     1      17.008   7.567  -0.742  1.00  0.00    -0.248 NA
ATOM     41  C   UNL     1      15.337   6.292  -1.755  1.00  0.00     0.031 C 
ATOM     42  C   UNL     1      16.925   4.800   2.775  1.00  0.00     0.029 A 
ATOM     43  N   UNL     1      17.687   6.750   1.998  1.00  0.00    -0.354 N 
ATOM     44  C   UNL     1      16.679   8.133  -1.968  1.00  0.00     0.074 A 
ATOM     45  C   UNL     1      15.679   7.279  -2.571  1.00  0.00     0.031 C 
ATOM     46  C   UNL     1      17.645   5.366   3.753  1.00  0.00     0.029 A 
ATOM     47  C   UNL     1      18.231   6.602   3.251  1.00  0.00     0.049 A 
ATOM     48  H   UNL     1      17.842   7.541   1.432  1.00  0.00     0.167 HD
ATOM     49  C   UNL     1      17.169   9.263  -2.534  1.00  0.00     0.037 A 
ATOM     50  C   UNL     1      19.145   7.342   3.907  1.00  0.00     0.037 A 
ATOM     51  C   UNL     1      18.130  10.132  -1.904  1.00  0.00     0.049 A 
ATOM     52  C   UNL     1      19.721   8.554   3.231  1.00  0.00     0.074 A 
ATOM     53  C   UNL     1      18.675  11.310  -2.386  1.00  0.00     0.029 A 
ATOM     54  N   UNL     1      18.683   9.922  -0.648  1.00  0.00    -0.354 N 
ATOM     55  N   UNL     1      19.438   9.058   2.055  1.00  0.00    -0.248 NA
ATOM     56  C   UNL     1      20.757   9.290   3.967  1.00  0.00     0.031 C 
ATOM     57  C   UNL     1      19.600  11.781  -1.448  1.00  0.00     0.029 A 
ATOM     58  C   UNL     1      19.583  10.934  -0.352  1.00  0.00     0.049 A 
ATOM     59  H   UNL     1      18.469   9.165  -0.056  1.00  0.00     0.167 HD
ATOM     60  C   UNL     1      20.240  10.183   1.919  1.00  0.00     0.074 A 
ATOM     61  C   UNL     1      21.008  10.297   3.142  1.00  0.00     0.031 C 
ATOM     62  C   UNL     1      20.333  11.041   0.874  1.00  0.00     0.037 A 
BRANCH  49  63
ATOM     63  C   UNL     1      16.710   9.604  -3.925  1.00  0.00     0.064 A 
ATOM     64  C   UNL     1      15.400  10.025  -4.200  1.00  0.00     0.173 A 
ATOM     65  C   UNL     1      17.614   9.541  -4.999  1.00  0.00     0.173 A 
ATOM     66  F   UNL     1      14.492  10.094  -3.215  1.00  0.00    -0.203 F 
ATOM     67  C   UNL     1      15.004  10.337  -5.499  1.00  0.00     0.198 A 
ATOM     68  C   UNL     1      17.224   9.888  -6.290  1.00  0.00     0.198 A 
ATOM     69  F   UNL     1      18.882   9.154  -4.794  1.00  0.00    -0.203 F 
ATOM     70  F   UNL     1      13.733  10.684  -5.745  1.00  0.00    -0.200 F 
ATOM     71  C   UNL     1      15.918  10.276  -6.541  1.00  0.00     0.200 A 
ATOM     72  F   UNL     1      18.114   9.844  -7.291  1.00  0.00    -0.200 F 
ATOM     73  F   UNL     1      15.537  10.585  -7.788  1.00  0.00    -0.200 F 
ENDBRANCH  49  63
BRANCH  50  74
ATOM     74  C   UNL     1      19.610   6.925   5.258  1.00  0.00     0.064 A 
ATOM     75  C   UNL     1      19.341   7.707   6.389  1.00  0.00     0.173 A 
ATOM     76  C   UNL     1      20.336   5.737   5.446  1.00  0.00     0.173 A 
ATOM     77  F   UNL     1      18.674   8.863   6.260  1.00  0.00    -0.203 F 
ATOM     78  C   UNL     1      19.794   7.328   7.652  1.00  0.00     0.198 A 
ATOM     79  C   UNL     1      20.755   5.340   6.714  1.00  0.00     0.198 A 
ATOM     80  F   UNL     1      20.623   4.951   4.399  1.00  0.00    -0.203 F 
ATOM     81  F   UNL     1      19.567   8.121   8.708  1.00  0.00    -0.200 F 
ATOM     82  C   UNL     1      20.492   6.140   7.814  1.00  0.00     0.200 A 
ATOM     83  F   UNL     1      21.413   4.183   6.868  1.00  0.00    -0.200 F 
ATOM     84  F   UNL     1      20.920   5.773   9.030  1.00  0.00    -0.200 F 
ENDBRANCH  50  74
BRANCH  62  85
ATOM     85  C   UNL     1      21.264  12.210   1.028  1.00  0.00     0.064 A 
ATOM     86  C   UNL     1      22.657  12.052   1.033  1.00  0.00     0.173 A 
ATOM     87  C   UNL     1      20.750  13.511   1.141  1.00  0.00     0.173 A 
ATOM     88  F   UNL     1      23.198  10.827   0.945  1.00  0.00    -0.203 F 
ATOM     89  C   UNL     1      23.501  13.150   1.175  1.00  0.00     0.198 A 
ATOM     90  C   UNL     1      21.597  14.610   1.247  1.00  0.00     0.198 A 
ATOM     91  F   UNL     1      19.424  13.719   1.136  1.00  0.00    -0.203 F 
ATOM     92  F   UNL     1      24.828  12.970   1.233  1.00  0.00    -0.200 F 
ATOM     93  C   UNL     1      22.971  14.428   1.273  1.00  0.00     0.200 A 
ATOM     94  F   UNL     1      21.083  15.845   1.326  1.00  0.00    -0.200 F 
ATOM     95  F   UNL     1      23.786  15.485   1.401  1.00  0.00    -0.200 F 
ENDBRANCH  62  85
ENDBRANCH  36  37
ENDBRANCH  29  31
ENDBRANCH  28  29
ENDBRANCH  27  28
ENDBRANCH   1  27
TORSDOF 14
