REMARK SMILES C=CCCC[C@]1(C(=O)OCCOC(=O)c2ccc(-c3c4nc(c(-c5c(F)c(F)c(F)c(F)c5F)c5ccc([nH]5)c(-c5c(F)c(F)c(F)c(F)c5F)c5nc(c(-c6c(F)c(F)c(F)c(F)c6F)c6ccc3[nH]6)C=C5)C=C4)cc2)CCCN(C(=O)OC(C)(C)C)C1
REMARK SMILES IDX 10 1 9 2 7 3 8 4 6 5 78 6 89 7 79 8 81 9 80 10 5 11 4 12
REMARK SMILES IDX 3 13 2 14 1 15 82 16 83 17 84 18 85 19 86 20 87 21 88 22
REMARK SMILES IDX 11 23 12 24 13 25 14 26 15 27 16 28 77 29 17 30 76 31 18 32
REMARK SMILES IDX 19 33 20 34 70 35 21 36 75 37 69 38 71 39 22 40 74 41 68 42
REMARK SMILES IDX 67 43 23 45 55 46 35 47 54 48 36 49 39 50 53 51 72 52 37 53
REMARK SMILES IDX 38 54 52 56 73 57 40 58 24 59 25 60 33 61 26 62 27 63 31 64
REMARK SMILES IDX 34 65 28 66 29 67 32 68 30 69 56 70 57 71 65 72 58 73 59 74
REMARK SMILES IDX 63 75 66 76 60 77 61 78 64 79 62 80 41 81 42 82 50 83 43 84
REMARK SMILES IDX 44 85 48 86 51 87 45 88 46 89 49 90 47 91
REMARK H PARENT 71 44 39 55
REMARK Flexibility Score: inf
ROOT
ATOM      1  C   UNL     1      -0.217  -0.841   2.582  1.00  0.00     0.274 C 
ENDROOT
BRANCH   1   2
ATOM      2  O   UNL     1      -0.612   0.485   2.990  1.00  0.00    -0.462 OA
BRANCH   2   3
ATOM      3  C   UNL     1      -1.821   1.014   3.377  1.00  0.00     0.314 C 
ATOM      4  O   UNL     1      -2.874   0.414   3.515  1.00  0.00    -0.252 OA
BRANCH   3   5
ATOM      5  C   UNL     1      -1.526   2.532   3.490  1.00  0.00     0.086 C 
ATOM      6  C   UNL     1      -1.299   2.733   1.934  1.00  0.00     0.022 C 
ATOM      7  C   UNL     1      -2.462   3.748   3.817  1.00  0.00     0.141 C 
ATOM      8  C   UNL     1      -0.769   4.045   1.413  1.00  0.00     0.023 C 
ATOM      9  N   UNL     1      -1.691   5.000   3.413  1.00  0.00    -0.307 N 
ATOM     10  C   UNL     1      -1.569   5.192   1.983  1.00  0.00     0.123 C 
BRANCH   5  11
ATOM     11  C   UNL     1      -0.640   2.523   4.796  1.00  0.00     0.021 C 
BRANCH  11  12
ATOM     12  C   UNL     1       0.776   1.989   4.914  1.00  0.00     0.005 C 
BRANCH  12  13
ATOM     13  C   UNL     1       1.835   3.059   5.020  1.00  0.00     0.027 C 
BRANCH  13  14
ATOM     14  C   UNL     1       1.841   3.736   6.364  1.00  0.00    -0.035 C 
ATOM     15  C   UNL     1       2.886   3.720   7.200  1.00  0.00     0.004 C 
ENDBRANCH  13  14
ENDBRANCH  12  13
ENDBRANCH  11  12
ENDBRANCH   5  11
BRANCH   9  16
ATOM     16  C   UNL     1      -0.780   5.664   4.254  1.00  0.00     0.410 C 
ATOM     17  O   UNL     1      -0.920   5.749   5.469  1.00  0.00    -0.224 OA
BRANCH  16  18
ATOM     18  O   UNL     1       0.309   6.124   3.564  1.00  0.00    -0.444 OA
BRANCH  18  19
ATOM     19  C   UNL     1       1.449   6.909   4.056  1.00  0.00     0.106 C 
ATOM     20  C   UNL     1       1.284   7.487   5.460  1.00  0.00     0.056 C 
ATOM     21  C   UNL     1       2.764   6.114   3.967  1.00  0.00     0.056 C 
ATOM     22  C   UNL     1       1.595   8.050   3.039  1.00  0.00     0.056 C 
ENDBRANCH  18  19
ENDBRANCH  16  18
ENDBRANCH   9  16
ENDBRANCH   3   5
ENDBRANCH   2   3
ENDBRANCH   1   2
BRANCH   1  23
ATOM     23  C   UNL     1       1.041  -1.217   3.397  1.00  0.00     0.275 C 
BRANCH  23  24
ATOM     24  O   UNL     1       0.840  -1.044   4.812  1.00  0.00    -0.458 OA
BRANCH  24  25
ATOM     25  C   UNL     1      -0.253  -1.666   5.299  1.00  0.00     0.338 C 
ATOM     26  O   UNL     1      -0.835  -2.608   4.787  1.00  0.00    -0.246 OA
BRANCH  25  27
ATOM     27  C   UNL     1      -0.779  -0.896   6.441  1.00  0.00     0.060 A 
ATOM     28  C   UNL     1      -2.159  -0.662   6.486  1.00  0.00     0.016 A 
ATOM     29  C   UNL     1       0.048  -0.468   7.484  1.00  0.00     0.016 A 
ATOM     30  C   UNL     1      -2.735  -0.110   7.630  1.00  0.00     0.010 A 
ATOM     31  C   UNL     1      -0.528   0.057   8.643  1.00  0.00     0.010 A 
ATOM     32  C   UNL     1      -1.929   0.127   8.757  1.00  0.00    -0.014 A 
BRANCH  32  33
ATOM     33  C   UNL     1      -2.518  -0.107  10.104  1.00  0.00     0.031 A 
ATOM     34  C   UNL     1      -2.756   0.968  11.111  1.00  0.00     0.074 A 
ATOM     35  C   UNL     1      -2.729  -1.404  10.416  1.00  0.00     0.049 A 
ATOM     36  N   UNL     1      -3.173   0.844  12.347  1.00  0.00    -0.248 NA
ATOM     37  C   UNL     1      -2.487   2.351  10.701  1.00  0.00     0.031 C 
ATOM     38  C   UNL     1      -2.483  -2.533   9.511  1.00  0.00     0.029 A 
ATOM     39  N   UNL     1      -3.161  -2.004  11.569  1.00  0.00    -0.354 N 
ATOM     40  C   UNL     1      -3.220   2.128  12.869  1.00  0.00     0.074 A 
ATOM     41  C   UNL     1      -2.768   3.019  11.816  1.00  0.00     0.031 C 
ATOM     42  C   UNL     1      -2.760  -3.680  10.135  1.00  0.00     0.029 A 
ATOM     43  C   UNL     1      -3.149  -3.377  11.500  1.00  0.00     0.049 A 
ATOM     44  H   UNL     1      -3.450  -1.504  12.365  1.00  0.00     0.167 HD
ATOM     45  C   UNL     1      -3.606   2.508  14.114  1.00  0.00     0.037 A 
ATOM     46  C   UNL     1      -3.385  -4.308  12.437  1.00  0.00     0.037 A 
ATOM     47  C   UNL     1      -4.036   1.590  15.147  1.00  0.00     0.049 A 
ATOM     48  C   UNL     1      -3.776  -3.855  13.804  1.00  0.00     0.074 A 
ATOM     49  C   UNL     1      -4.516   1.880  16.414  1.00  0.00     0.029 A 
ATOM     50  N   UNL     1      -4.015   0.204  15.044  1.00  0.00    -0.354 N 
ATOM     51  N   UNL     1      -3.897  -2.633  14.260  1.00  0.00    -0.248 NA
ATOM     52  C   UNL     1      -4.072  -4.904  14.784  1.00  0.00     0.031 C 
ATOM     53  C   UNL     1      -4.720   0.676  17.098  1.00  0.00     0.029 A 
ATOM     54  C   UNL     1      -4.430  -0.371  16.238  1.00  0.00     0.049 A 
ATOM     55  H   UNL     1      -3.745  -0.297  14.241  1.00  0.00     0.167 HD
ATOM     56  C   UNL     1      -4.293  -2.761  15.579  1.00  0.00     0.074 A 
ATOM     57  C   UNL     1      -4.422  -4.183  15.839  1.00  0.00     0.031 C 
ATOM     58  C   UNL     1      -4.524  -1.788  16.493  1.00  0.00     0.037 A 
BRANCH  45  59
ATOM     59  C   UNL     1      -3.574   3.974  14.455  1.00  0.00     0.064 A 
ATOM     60  C   UNL     1      -4.481   4.885  13.893  1.00  0.00     0.173 A 
ATOM     61  C   UNL     1      -2.689   4.457  15.434  1.00  0.00     0.173 A 
ATOM     62  F   UNL     1      -5.354   4.479  12.958  1.00  0.00    -0.203 F 
ATOM     63  C   UNL     1      -4.491   6.223  14.283  1.00  0.00     0.198 A 
ATOM     64  C   UNL     1      -2.722   5.789  15.842  1.00  0.00     0.198 A 
ATOM     65  F   UNL     1      -1.811   3.630  16.020  1.00  0.00    -0.203 F 
ATOM     66  F   UNL     1      -5.350   7.080  13.712  1.00  0.00    -0.200 F 
ATOM     67  C   UNL     1      -3.619   6.672  15.263  1.00  0.00     0.200 A 
ATOM     68  F   UNL     1      -1.893   6.214  16.806  1.00  0.00    -0.200 F 
ATOM     69  F   UNL     1      -3.645   7.955  15.651  1.00  0.00    -0.200 F 
ENDBRANCH  45  59
BRANCH  46  70
ATOM     70  C   UNL     1      -3.257  -5.743  12.081  1.00  0.00     0.064 A 
ATOM     71  C   UNL     1      -4.389  -6.558  11.971  1.00  0.00     0.173 A 
ATOM     72  C   UNL     1      -2.009  -6.307  11.770  1.00  0.00     0.173 A 
ATOM     73  F   UNL     1      -5.601  -6.063  12.264  1.00  0.00    -0.203 F 
ATOM     74  C   UNL     1      -4.279  -7.888  11.575  1.00  0.00     0.198 A 
ATOM     75  C   UNL     1      -1.904  -7.627  11.341  1.00  0.00     0.198 A 
ATOM     76  F   UNL     1      -0.897  -5.560  11.840  1.00  0.00    -0.203 F 
ATOM     77  F   UNL     1      -5.374  -8.656  11.508  1.00  0.00    -0.200 F 
ATOM     78  C   UNL     1      -3.039  -8.418  11.250  1.00  0.00     0.200 A 
ATOM     79  F   UNL     1      -0.708  -8.126  11.002  1.00  0.00    -0.200 F 
ATOM     80  F   UNL     1      -2.937  -9.693  10.850  1.00  0.00    -0.200 F 
ENDBRANCH  46  70
BRANCH  58  81
ATOM     81  C   UNL     1      -4.936  -2.245  17.861  1.00  0.00     0.064 A 
ATOM     82  C   UNL     1      -4.033  -2.893  18.718  1.00  0.00     0.173 A 
ATOM     83  C   UNL     1      -6.248  -2.046  18.316  1.00  0.00     0.173 A 
ATOM     84  F   UNL     1      -2.775  -3.131  18.318  1.00  0.00    -0.203 F 
ATOM     85  C   UNL     1      -4.439  -3.355  19.967  1.00  0.00     0.198 A 
ATOM     86  C   UNL     1      -6.640  -2.479  19.579  1.00  0.00     0.198 A 
ATOM     87  F   UNL     1      -7.150  -1.434  17.534  1.00  0.00    -0.203 F 
ATOM     88  F   UNL     1      -3.577  -4.029  20.741  1.00  0.00    -0.200 F 
ATOM     89  C   UNL     1      -5.739  -3.142  20.399  1.00  0.00     0.200 A 
ATOM     90  F   UNL     1      -7.894  -2.264  19.999  1.00  0.00    -0.200 F 
ATOM     91  F   UNL     1      -6.128  -3.588  21.601  1.00  0.00    -0.200 F 
ENDBRANCH  58  81
ENDBRANCH  32  33
ENDBRANCH  25  27
ENDBRANCH  24  25
ENDBRANCH  23  24
ENDBRANCH   1  23
TORSDOF 18
