REMARK SMILES O=C(OCCOC(=O)c1oc2cccc3c2c1CCC3)c1ccc(-c2c3nc(c(-c4c(F)c(F)c(F)c(F)c4F)c4ccc([nH]4)c(-c4c(F)c(F)c(F)c(F)c4F)c4nc(c(-c5c(F)c(F)c(F)c(F)c5F)c5ccc2[nH]5)C=C4)C=C3)cc1
REMARK SMILES IDX 4 1 3 2 2 3 1 4 21 5 22 6 83 7 23 8 82 9 24 10 25 11 26 12
REMARK SMILES IDX 76 13 27 14 81 15 75 16 77 17 28 18 80 19 74 20 73 21 29 23
REMARK SMILES IDX 61 24 41 25 60 26 42 27 45 28 59 29 78 30 43 31 44 32 58 34
REMARK SMILES IDX 79 35 46 36 30 37 31 38 39 39 32 40 33 41 37 42 40 43 34 44
REMARK SMILES IDX 35 45 38 46 36 47 62 48 63 49 71 50 64 51 65 52 69 53 72 54
REMARK SMILES IDX 66 55 67 56 70 57 68 58 47 59 48 60 56 61 49 62 50 63 54 64
REMARK SMILES IDX 57 65 51 66 52 67 55 68 53 69 5 70 6 71 7 72 8 73 9 74 10 75
REMARK SMILES IDX 17 76 11 77 16 78 18 79 12 80 15 81 19 82 13 83 14 84 20 85
REMARK H PARENT 77 22 45 33
REMARK Flexibility Score: inf
ROOT
ATOM      1  C   UNL     1       4.577  -0.306   1.115  1.00  0.00     0.275 C 
ENDROOT
BRANCH   1   2
ATOM      2  O   UNL     1       3.491   0.604   1.397  1.00  0.00    -0.458 OA
BRANCH   2   3
ATOM      3  C   UNL     1       2.414   0.610   0.579  1.00  0.00     0.338 C 
ATOM      4  O   UNL     1       1.462  -0.143   0.693  1.00  0.00    -0.246 OA
BRANCH   3   5
ATOM      5  C   UNL     1       2.448   1.755  -0.365  1.00  0.00     0.060 A 
ATOM      6  C   UNL     1       3.643   2.422  -0.650  1.00  0.00     0.016 A 
ATOM      7  C   UNL     1       1.254   2.170  -0.975  1.00  0.00     0.016 A 
ATOM      8  C   UNL     1       3.640   3.508  -1.510  1.00  0.00     0.010 A 
ATOM      9  C   UNL     1       1.247   3.276  -1.828  1.00  0.00     0.010 A 
ATOM     10  C   UNL     1       2.442   3.948  -2.084  1.00  0.00    -0.014 A 
BRANCH  10  11
ATOM     11  C   UNL     1       2.549   5.099  -2.973  1.00  0.00     0.031 A 
ATOM     12  C   UNL     1       3.217   4.881  -4.284  1.00  0.00     0.074 A 
ATOM     13  C   UNL     1       2.106   6.333  -2.670  1.00  0.00     0.049 A 
ATOM     14  N   UNL     1       4.330   5.393  -4.707  1.00  0.00    -0.248 NA
ATOM     15  C   UNL     1       2.572   3.970  -5.237  1.00  0.00     0.031 C 
ATOM     16  C   UNL     1       1.190   6.734  -1.604  1.00  0.00     0.029 A 
ATOM     17  N   UNL     1       2.368   7.502  -3.328  1.00  0.00    -0.354 N 
ATOM     18  C   UNL     1       4.464   4.990  -6.034  1.00  0.00     0.074 A 
ATOM     19  C   UNL     1       3.394   4.058  -6.285  1.00  0.00     0.031 C 
ATOM     20  C   UNL     1       0.836   8.027  -1.794  1.00  0.00     0.029 A 
ATOM     21  C   UNL     1       1.605   8.573  -2.902  1.00  0.00     0.049 A 
ATOM     22  H   UNL     1       3.041   7.574  -4.043  1.00  0.00     0.167 HD
ATOM     23  C   UNL     1       5.358   5.582  -6.876  1.00  0.00     0.037 A 
ATOM     24  C   UNL     1       1.578   9.810  -3.450  1.00  0.00     0.037 A 
ATOM     25  C   UNL     1       6.408   6.250  -6.153  1.00  0.00     0.049 A 
ATOM     26  C   UNL     1       2.846  10.016  -4.192  1.00  0.00     0.074 A 
ATOM     27  C   UNL     1       7.381   5.857  -5.254  1.00  0.00     0.029 A 
ATOM     28  N   UNL     1       6.415   7.620  -6.119  1.00  0.00    -0.354 N 
ATOM     29  N   UNL     1       4.015  10.174  -3.636  1.00  0.00    -0.248 NA
ATOM     30  C   UNL     1       2.866   9.767  -5.626  1.00  0.00     0.031 C 
ATOM     31  C   UNL     1       7.586   6.982  -4.402  1.00  0.00     0.029 A 
ATOM     32  C   UNL     1       6.724   7.989  -4.837  1.00  0.00     0.049 A 
ATOM     33  H   UNL     1       6.231   8.225  -6.873  1.00  0.00     0.167 HD
ATOM     34  C   UNL     1       4.913   9.652  -4.552  1.00  0.00     0.074 A 
ATOM     35  C   UNL     1       4.172   9.561  -5.802  1.00  0.00     0.031 C 
ATOM     36  C   UNL     1       6.082   9.079  -4.143  1.00  0.00     0.037 A 
BRANCH  23  37
ATOM     37  C   UNL     1       5.129   5.821  -8.353  1.00  0.00     0.064 A 
ATOM     38  C   UNL     1       6.173   6.361  -9.136  1.00  0.00     0.173 A 
ATOM     39  C   UNL     1       3.854   5.835  -8.957  1.00  0.00     0.173 A 
ATOM     40  F   UNL     1       7.428   6.413  -8.665  1.00  0.00    -0.203 F 
ATOM     41  C   UNL     1       5.940   6.952 -10.381  1.00  0.00     0.198 A 
ATOM     42  C   UNL     1       3.635   6.376 -10.225  1.00  0.00     0.198 A 
ATOM     43  F   UNL     1       2.757   5.425  -8.309  1.00  0.00    -0.203 F 
ATOM     44  F   UNL     1       6.941   7.571 -11.022  1.00  0.00    -0.200 F 
ATOM     45  C   UNL     1       4.669   6.966 -10.921  1.00  0.00     0.200 A 
ATOM     46  F   UNL     1       2.393   6.391 -10.729  1.00  0.00    -0.200 F 
ATOM     47  F   UNL     1       4.430   7.588 -12.084  1.00  0.00    -0.200 F 
ENDBRANCH  23  37
BRANCH  24  48
ATOM     48  C   UNL     1       0.444  10.755  -3.549  1.00  0.00     0.064 A 
ATOM     49  C   UNL     1       0.652  12.105  -3.879  1.00  0.00     0.173 A 
ATOM     50  C   UNL     1      -0.887  10.298  -3.594  1.00  0.00     0.173 A 
ATOM     51  F   UNL     1       1.894  12.612  -3.905  1.00  0.00    -0.203 F 
ATOM     52  C   UNL     1      -0.404  12.938  -4.260  1.00  0.00     0.198 A 
ATOM     53  C   UNL     1      -1.942  11.134  -3.961  1.00  0.00     0.198 A 
ATOM     54  F   UNL     1      -1.181   9.008  -3.377  1.00  0.00    -0.203 F 
ATOM     55  F   UNL     1      -0.156  14.200  -4.637  1.00  0.00    -0.200 F 
ATOM     56  C   UNL     1      -1.698  12.449  -4.310  1.00  0.00     0.200 A 
ATOM     57  F   UNL     1      -3.185  10.639  -4.037  1.00  0.00    -0.200 F 
ATOM     58  F   UNL     1      -2.702  13.229  -4.733  1.00  0.00    -0.200 F 
ENDBRANCH  24  48
BRANCH  36  59
ATOM     59  C   UNL     1       6.557   9.368  -2.751  1.00  0.00     0.064 A 
ATOM     60  C   UNL     1       5.864   8.975  -1.595  1.00  0.00     0.173 A 
ATOM     61  C   UNL     1       7.831   9.931  -2.587  1.00  0.00     0.173 A 
ATOM     62  F   UNL     1       4.690   8.335  -1.679  1.00  0.00    -0.203 F 
ATOM     63  C   UNL     1       6.406   9.182  -0.328  1.00  0.00     0.198 A 
ATOM     64  C   UNL     1       8.385  10.102  -1.321  1.00  0.00     0.198 A 
ATOM     65  F   UNL     1       8.563  10.268  -3.661  1.00  0.00    -0.203 F 
ATOM     66  F   UNL     1       5.723   8.808   0.764  1.00  0.00    -0.200 F 
ATOM     67  C   UNL     1       7.669   9.737  -0.193  1.00  0.00     0.200 A 
ATOM     68  F   UNL     1       9.627  10.591  -1.197  1.00  0.00    -0.200 F 
ATOM     69  F   UNL     1       8.209   9.893   1.024  1.00  0.00    -0.200 F 
ENDBRANCH  36  59
ENDBRANCH  10  11
ENDBRANCH   3   5
ENDBRANCH   2   3
ENDBRANCH   1   2
BRANCH   1  70
ATOM     70  C   UNL     1       4.218  -1.631   0.450  1.00  0.00     0.275 C 
BRANCH  70  71
ATOM     71  O   UNL     1       3.824  -1.392  -0.910  1.00  0.00    -0.456 OA
BRANCH  71  72
ATOM     72  C   UNL     1       2.721  -2.078  -1.332  1.00  0.00     0.374 C 
ATOM     73  O   UNL     1       2.104  -2.905  -0.676  1.00  0.00    -0.242 OA
BRANCH  72  74
ATOM     74  C   UNL     1       2.484  -1.762  -2.711  1.00  0.00     0.216 A 
ATOM     75  O   UNL     1       1.468  -0.888  -3.053  1.00  0.00    -0.449 OA
ATOM     76  C   UNL     1       3.093  -2.239  -3.852  1.00  0.00     0.014 A 
ATOM     77  C   UNL     1       1.414  -0.851  -4.421  1.00  0.00     0.135 A 
ATOM     78  C   UNL     1       2.385  -1.681  -4.925  1.00  0.00     0.028 A 
ATOM     79  C   UNL     1       4.203  -3.188  -4.127  1.00  0.00     0.041 C 
ATOM     80  C   UNL     1       0.546  -0.144  -5.243  1.00  0.00     0.048 A 
ATOM     81  C   UNL     1       2.550  -1.922  -6.288  1.00  0.00    -0.037 A 
ATOM     82  C   UNL     1       3.990  -3.865  -5.513  1.00  0.00     0.010 C 
ATOM     83  C   UNL     1       0.719  -0.348  -6.628  1.00  0.00     0.004 A 
ATOM     84  C   UNL     1       1.700  -1.219  -7.146  1.00  0.00     0.004 A 
ATOM     85  C   UNL     1       3.638  -2.886  -6.681  1.00  0.00     0.036 C 
ENDBRANCH  72  74
ENDBRANCH  71  72
ENDBRANCH  70  71
ENDBRANCH   1  70
TORSDOF 11
