REMARK SMILES N#C[C@H]1CN(C(=O)[C@H]([NH3+])CC(=O)OCCOC(=O)c2ccc(-c3c4nc(c(-c5c(F)c(F)c(F)c(F)c5F)c5ccc([nH]5)c(-c5c(F)c(F)c(F)c(F)c5F)c5nc(c(-c6c(F)c(F)c(F)c(F)c6F)c6ccc3[nH]6)C=C5)C=C4)cc2)CCO1
REMARK SMILES IDX 14 1 13 2 11 3 12 4 10 5 8 6 6 7 7 8 5 9 3 10 4 11 84 12
REMARK SMILES IDX 83 13 82 14 2 15 1 16 9 17 15 21 16 22 17 23 18 24 19 25
REMARK SMILES IDX 20 26 81 27 21 28 80 29 22 30 23 31 24 32 74 33 25 34 79 35
REMARK SMILES IDX 73 36 75 37 26 38 78 39 72 40 71 41 27 43 59 44 39 45 58 46
REMARK SMILES IDX 40 47 43 48 57 49 76 50 41 51 42 52 56 54 77 55 44 56 28 57
REMARK SMILES IDX 29 58 37 59 30 60 31 61 35 62 38 63 32 64 33 65 36 66 34 67
REMARK SMILES IDX 60 68 61 69 69 70 62 71 63 72 67 73 70 74 64 75 65 76 68 77
REMARK SMILES IDX 66 78 45 79 46 80 54 81 47 82 48 83 52 84 55 85 49 86 50 87
REMARK SMILES IDX 53 88 51 89
REMARK H PARENT 9 18 9 19 9 20 75 42 43 53
REMARK Flexibility Score: inf
ROOT
ATOM      1  C   UNL     1       5.921   3.031  -5.628  1.00  0.00     0.274 C 
ENDROOT
BRANCH   1   2
ATOM      2  O   UNL     1       5.078   2.734  -4.500  1.00  0.00    -0.462 OA
BRANCH   2   3
ATOM      3  C   UNL     1       5.044   3.673  -3.527  1.00  0.00     0.312 C 
ATOM      4  O   UNL     1       5.730   4.689  -3.503  1.00  0.00    -0.252 OA
BRANCH   3   5
ATOM      5  C   UNL     1       4.170   3.287  -2.368  1.00  0.00     0.198 C 
BRANCH   5   6
ATOM      6  C   UNL     1       2.881   2.518  -2.675  1.00  0.00     0.282 C 
BRANCH   6   7
ATOM      7  C   UNL     1       1.932   2.570  -1.445  1.00  0.00     0.281 C 
ATOM      8  O   UNL     1       0.894   3.235  -1.500  1.00  0.00    -0.268 OA
BRANCH   7   9
ATOM      9  N   UNL     1       2.286   1.897  -0.278  1.00  0.00    -0.332 N 
ATOM     10  C   UNL     1       4.292   2.235   1.065  1.00  0.00     0.240 C 
ATOM     11  C   UNL     1       3.591   1.308   0.052  1.00  0.00     0.167 C 
ATOM     12  O   UNL     1       3.491   2.296   2.269  1.00  0.00    -0.360 OA
ATOM     13  C   UNL     1       2.178   2.833   1.993  1.00  0.00     0.183 C 
ATOM     14  C   UNL     1       1.437   2.025   0.912  1.00  0.00     0.148 C 
BRANCH  10  15
ATOM     15  C   UNL     1       5.656   1.750   1.340  1.00  0.00     0.096 C 
ATOM     16  N   UNL     1       6.744   1.383   1.484  1.00  0.00    -0.195 NA
ENDBRANCH  10  15
ENDBRANCH   7   9
ENDBRANCH   6   7
BRANCH   6  17
ATOM     17  N   UNL     1       3.035   1.127  -3.127  1.00  0.00    -0.347 N 
ATOM     18  H   UNL     1       3.431   0.566  -2.372  1.00  0.00     0.345 HD
ATOM     19  H   UNL     1       3.659   1.099  -3.934  1.00  0.00     0.345 HD
ATOM     20  H   UNL     1       2.124   0.751  -3.388  1.00  0.00     0.345 HD
ENDBRANCH   6  17
ENDBRANCH   5   6
ENDBRANCH   3   5
ENDBRANCH   2   3
ENDBRANCH   1   2
BRANCH   1  21
ATOM     21  C   UNL     1       5.152   3.749  -6.741  1.00  0.00     0.275 C 
BRANCH  21  22
ATOM     22  O   UNL     1       4.735   5.074  -6.349  1.00  0.00    -0.458 OA
BRANCH  22  23
ATOM     23  C   UNL     1       3.477   5.149  -5.856  1.00  0.00     0.338 C 
ATOM     24  O   UNL     1       2.676   4.237  -5.743  1.00  0.00    -0.246 OA
BRANCH  23  25
ATOM     25  C   UNL     1       3.205   6.484  -5.304  1.00  0.00     0.060 A 
ATOM     26  C   UNL     1       3.085   6.598  -3.918  1.00  0.00     0.016 A 
ATOM     27  C   UNL     1       2.919   7.571  -6.127  1.00  0.00     0.016 A 
ATOM     28  C   UNL     1       2.663   7.788  -3.343  1.00  0.00     0.010 A 
ATOM     29  C   UNL     1       2.520   8.783  -5.545  1.00  0.00     0.010 A 
ATOM     30  C   UNL     1       2.378   8.896  -4.149  1.00  0.00    -0.014 A 
BRANCH  30  31
ATOM     31  C   UNL     1       1.920  10.152  -3.504  1.00  0.00     0.031 A 
ATOM     32  C   UNL     1       0.517  10.647  -3.709  1.00  0.00     0.074 A 
ATOM     33  C   UNL     1       2.761  10.815  -2.688  1.00  0.00     0.049 A 
ATOM     34  N   UNL     1      -0.048  11.742  -3.264  1.00  0.00    -0.248 NA
ATOM     35  C   UNL     1      -0.367   9.805  -4.527  1.00  0.00     0.031 C 
ATOM     36  C   UNL     1       4.133  10.406  -2.380  1.00  0.00     0.029 A 
ATOM     37  N   UNL     1       2.587  11.965  -1.961  1.00  0.00    -0.354 N 
ATOM     38  C   UNL     1      -1.343  11.732  -3.765  1.00  0.00     0.074 A 
ATOM     39  C   UNL     1      -1.472  10.536  -4.570  1.00  0.00     0.031 C 
ATOM     40  C   UNL     1       4.667  11.277  -1.512  1.00  0.00     0.029 A 
ATOM     41  C   UNL     1       3.703  12.341  -1.256  1.00  0.00     0.049 A 
ATOM     42  H   UNL     1       1.742  12.472  -1.946  1.00  0.00     0.167 HD
ATOM     43  C   UNL     1      -2.330  12.638  -3.565  1.00  0.00     0.037 A 
ATOM     44  C   UNL     1       3.937  13.439  -0.513  1.00  0.00     0.037 A 
ATOM     45  C   UNL     1      -2.192  13.821  -2.751  1.00  0.00     0.049 A 
ATOM     46  C   UNL     1       2.841  14.458  -0.360  1.00  0.00     0.074 A 
ATOM     47  C   UNL     1      -3.135  14.794  -2.473  1.00  0.00     0.029 A 
ATOM     48  N   UNL     1      -1.031  14.192  -2.086  1.00  0.00    -0.354 N 
ATOM     49  N   UNL     1       1.620  14.441  -0.837  1.00  0.00    -0.248 NA
ATOM     50  C   UNL     1       3.159  15.649   0.437  1.00  0.00     0.031 C 
ATOM     51  C   UNL     1      -2.528  15.786  -1.694  1.00  0.00     0.029 A 
ATOM     52  C   UNL     1      -1.226  15.396  -1.423  1.00  0.00     0.049 A 
ATOM     53  H   UNL     1      -0.192  13.677  -2.084  1.00  0.00     0.167 HD
ATOM     54  C   UNL     1       1.016  15.604  -0.380  1.00  0.00     0.074 A 
ATOM     55  C   UNL     1       1.998  16.287   0.438  1.00  0.00     0.031 C 
ATOM     56  C   UNL     1      -0.236  16.068  -0.618  1.00  0.00     0.037 A 
BRANCH  43  57
ATOM     57  C   UNL     1      -3.639  12.411  -4.271  1.00  0.00     0.064 A 
ATOM     58  C   UNL     1      -4.502  11.361  -3.922  1.00  0.00     0.173 A 
ATOM     59  C   UNL     1      -4.052  13.282  -5.292  1.00  0.00     0.173 A 
ATOM     60  F   UNL     1      -4.155  10.492  -2.960  1.00  0.00    -0.203 F 
ATOM     61  C   UNL     1      -5.712  11.173  -4.588  1.00  0.00     0.198 A 
ATOM     62  C   UNL     1      -5.277  13.112  -5.932  1.00  0.00     0.198 A 
ATOM     63  F   UNL     1      -3.271  14.307  -5.663  1.00  0.00    -0.203 F 
ATOM     64  F   UNL     1      -6.495  10.132  -4.272  1.00  0.00    -0.200 F 
ATOM     65  C   UNL     1      -6.102  12.053  -5.586  1.00  0.00     0.200 A 
ATOM     66  F   UNL     1      -5.659  13.975  -6.884  1.00  0.00    -0.200 F 
ATOM     67  F   UNL     1      -7.270  11.877  -6.219  1.00  0.00    -0.200 F 
ENDBRANCH  43  57
BRANCH  44  68
ATOM     68  C   UNL     1       5.268  13.642   0.119  1.00  0.00     0.064 A 
ATOM     69  C   UNL     1       5.416  13.648   1.513  1.00  0.00     0.173 A 
ATOM     70  C   UNL     1       6.418  13.847  -0.658  1.00  0.00     0.173 A 
ATOM     71  F   UNL     1       4.344  13.478   2.301  1.00  0.00    -0.203 F 
ATOM     72  C   UNL     1       6.657  13.876   2.104  1.00  0.00     0.198 A 
ATOM     73  C   UNL     1       7.665  14.037  -0.067  1.00  0.00     0.198 A 
ATOM     74  F   UNL     1       6.334  13.850  -1.997  1.00  0.00    -0.203 F 
ATOM     75  F   UNL     1       6.759  13.933   3.439  1.00  0.00    -0.200 F 
ATOM     76  C   UNL     1       7.781  14.063   1.314  1.00  0.00     0.200 A 
ATOM     77  F   UNL     1       8.751  14.199  -0.835  1.00  0.00    -0.200 F 
ATOM     78  F   UNL     1       8.975  14.277   1.884  1.00  0.00    -0.200 F 
ENDBRANCH  44  68
BRANCH  56  79
ATOM     79  C   UNL     1      -0.620  17.359   0.050  1.00  0.00     0.064 A 
ATOM     80  C   UNL     1      -0.029  18.582  -0.305  1.00  0.00     0.173 A 
ATOM     81  C   UNL     1      -1.586  17.372   1.068  1.00  0.00     0.173 A 
ATOM     82  F   UNL     1       0.911  18.626  -1.262  1.00  0.00    -0.203 F 
ATOM     83  C   UNL     1      -0.353  19.757   0.368  1.00  0.00     0.198 A 
ATOM     84  C   UNL     1      -1.938  18.556   1.710  1.00  0.00     0.198 A 
ATOM     85  F   UNL     1      -2.191  16.234   1.443  1.00  0.00    -0.203 F 
ATOM     86  F   UNL     1       0.283  20.897   0.066  1.00  0.00    -0.200 F 
ATOM     87  C   UNL     1      -1.310  19.744   1.371  1.00  0.00     0.200 A 
ATOM     88  F   UNL     1      -2.877  18.544   2.667  1.00  0.00    -0.200 F 
ATOM     89  F   UNL     1      -1.617  20.875   2.021  1.00  0.00    -0.200 F 
ENDBRANCH  56  79
ENDBRANCH  30  31
ENDBRANCH  23  25
ENDBRANCH  22  23
ENDBRANCH  21  22
ENDBRANCH   1  21
TORSDOF 16
