REMARK SMILES CCC(CC)([NH2+]Cc1cc(C(N)=O)ccc1F)C(=O)OCCOC(=O)c1ccc(-c2c3nc(c(-c4c(F)c(F)c(F)c(F)c4F)c4ccc([nH]4)c(-c4c(F)c(F)c(F)c(F)c4F)c4nc(c(-c5c(F)c(F)c(F)c(F)c5F)c5ccc2[nH]5)C=C4)C=C3)cc1
REMARK SMILES IDX 21 1 20 2 18 3 19 4 3 5 2 6 1 7 4 8 5 9 6 10 7 13 8 14 9 15
REMARK SMILES IDX 16 16 10 17 15 18 17 19 14 20 11 21 12 22 13 23 22 26 23 27
REMARK SMILES IDX 24 28 25 29 26 30 27 31 88 32 28 33 87 34 29 35 30 36 31 37
REMARK SMILES IDX 81 38 32 39 86 40 80 41 82 42 33 43 85 44 79 45 78 46 34 48
REMARK SMILES IDX 66 49 46 50 65 51 47 52 50 53 64 54 83 55 48 56 49 57 63 59
REMARK SMILES IDX 84 60 51 61 35 62 36 63 44 64 37 65 38 66 42 67 45 68 39 69
REMARK SMILES IDX 40 70 43 71 41 72 67 73 68 74 76 75 69 76 70 77 74 78 77 79
REMARK SMILES IDX 71 80 72 81 75 82 73 83 52 84 53 85 61 86 54 87 55 88 59 89
REMARK SMILES IDX 62 90 56 91 57 92 60 93 58 94
REMARK H PARENT 6 11 6 12 12 24 12 25 82 47 50 58
REMARK Flexibility Score: inf
ROOT
ATOM      1  C   UNL     1       4.205   2.096  -1.614  1.00  0.00     0.274 C 
ENDROOT
BRANCH   1   2
ATOM      2  O   UNL     1       2.821   2.288  -1.247  1.00  0.00    -0.457 OA
BRANCH   2   3
ATOM      3  C   UNL     1       1.932   1.441  -1.844  1.00  0.00     0.368 C 
ATOM      4  O   UNL     1       2.272   0.466  -2.511  1.00  0.00    -0.245 OA
BRANCH   3   5
ATOM      5  C   UNL     1       0.449   1.897  -1.655  1.00  0.00     0.194 C 
BRANCH   5   6
ATOM      6  C   UNL     1       0.049   1.641  -0.174  1.00  0.00     0.077 C 
ATOM      7  C   UNL     1       0.092   0.174   0.258  1.00  0.00     0.011 C 
ENDBRANCH   5   6
BRANCH   5   8
ATOM      8  C   UNL     1      -0.482   1.059  -2.589  1.00  0.00     0.077 C 
ATOM      9  C   UNL     1      -1.985   1.230  -2.392  1.00  0.00     0.011 C 
ENDBRANCH   5   8
BRANCH   5  10
ATOM     10  N   UNL     1       0.289   3.370  -1.871  1.00  0.00    -0.328 N 
ATOM     11  H   UNL     1       0.526   3.820  -0.987  1.00  0.00     0.347 HD
ATOM     12  H   UNL     1      -0.670   3.447  -2.207  1.00  0.00     0.347 HD
BRANCH  10  13
ATOM     13  C   UNL     1       1.057   4.067  -2.915  1.00  0.00     0.301 C 
BRANCH  13  14
ATOM     14  C   UNL     1       0.798   3.595  -4.318  1.00  0.00     0.043 A 
ATOM     15  C   UNL     1       1.533   2.527  -4.855  1.00  0.00     0.026 A 
ATOM     16  C   UNL     1      -0.257   4.118  -5.067  1.00  0.00     0.132 A 
ATOM     17  C   UNL     1       1.085   1.864  -6.001  1.00  0.00     0.040 A 
ATOM     18  C   UNL     1      -0.622   3.555  -6.288  1.00  0.00     0.040 A 
ATOM     19  F   UNL     1      -0.960   5.157  -4.597  1.00  0.00    -0.206 F 
ATOM     20  C   UNL     1       0.028   2.404  -6.740  1.00  0.00     0.017 A 
BRANCH  17  21
ATOM     21  C   UNL     1       1.613   0.523  -6.370  1.00  0.00     0.248 C 
ATOM     22  N   UNL     1       2.112  -0.255  -5.359  1.00  0.00    -0.366 N 
ATOM     23  O   UNL     1       1.531   0.098  -7.515  1.00  0.00    -0.270 OA
ATOM     24  H   UNL     1       2.170   0.104  -4.444  1.00  0.00     0.159 HD
ATOM     25  H   UNL     1       2.414  -1.173  -5.547  1.00  0.00     0.159 HD
ENDBRANCH  17  21
ENDBRANCH  13  14
ENDBRANCH  10  13
ENDBRANCH   5  10
ENDBRANCH   3   5
ENDBRANCH   2   3
ENDBRANCH   1   2
BRANCH   1  26
ATOM     26  C   UNL     1       5.084   2.948  -0.700  1.00  0.00     0.275 C 
BRANCH  26  27
ATOM     27  O   UNL     1       4.969   2.375   0.610  1.00  0.00    -0.458 OA
BRANCH  27  28
ATOM     28  C   UNL     1       4.613   3.216   1.605  1.00  0.00     0.338 C 
ATOM     29  O   UNL     1       4.706   4.427   1.636  1.00  0.00    -0.246 OA
BRANCH  28  30
ATOM     30  C   UNL     1       3.956   2.400   2.641  1.00  0.00     0.060 A 
ATOM     31  C   UNL     1       2.895   1.577   2.259  1.00  0.00     0.016 A 
ATOM     32  C   UNL     1       4.304   2.520   3.983  1.00  0.00     0.016 A 
ATOM     33  C   UNL     1       2.128   0.933   3.222  1.00  0.00     0.010 A 
ATOM     34  C   UNL     1       3.580   1.803   4.943  1.00  0.00     0.010 A 
ATOM     35  C   UNL     1       2.458   1.036   4.576  1.00  0.00    -0.014 A 
BRANCH  35  36
ATOM     36  C   UNL     1       1.553   0.452   5.604  1.00  0.00     0.031 A 
ATOM     37  C   UNL     1       0.896   1.365   6.603  1.00  0.00     0.074 A 
ATOM     38  C   UNL     1       1.247  -0.861   5.617  1.00  0.00     0.049 A 
ATOM     39  N   UNL     1       0.257   1.068   7.705  1.00  0.00    -0.248 NA
ATOM     40  C   UNL     1       0.977   2.808   6.326  1.00  0.00     0.031 C 
ATOM     41  C   UNL     1       1.711  -1.854   4.648  1.00  0.00     0.029 A 
ATOM     42  N   UNL     1       0.448  -1.581   6.471  1.00  0.00    -0.354 N 
ATOM     43  C   UNL     1      -0.069   2.284   8.290  1.00  0.00     0.074 A 
ATOM     44  C   UNL     1       0.426   3.325   7.414  1.00  0.00     0.031 C 
ATOM     45  C   UNL     1       1.151  -3.040   4.933  1.00  0.00     0.029 A 
ATOM     46  C   UNL     1       0.364  -2.915   6.156  1.00  0.00     0.049 A 
ATOM     47  H   UNL     1      -0.021  -1.178   7.238  1.00  0.00     0.167 HD
ATOM     48  C   UNL     1      -0.714   2.510   9.458  1.00  0.00     0.037 A 
ATOM     49  C   UNL     1      -0.245  -3.929   6.800  1.00  0.00     0.037 A 
ATOM     50  C   UNL     1      -1.269   1.476  10.289  1.00  0.00     0.049 A 
ATOM     51  C   UNL     1      -0.941  -3.663   8.106  1.00  0.00     0.074 A 
ATOM     52  C   UNL     1      -1.898   1.596  11.515  1.00  0.00     0.029 A 
ATOM     53  N   UNL     1      -1.295   0.131   9.954  1.00  0.00    -0.354 N 
ATOM     54  N   UNL     1      -1.109  -2.527   8.735  1.00  0.00    -0.248 NA
ATOM     55  C   UNL     1      -1.502  -4.827   8.808  1.00  0.00     0.031 C 
ATOM     56  C   UNL     1      -2.296   0.320  11.929  1.00  0.00     0.029 A 
ATOM     57  C   UNL     1      -1.941  -0.589  10.945  1.00  0.00     0.049 A 
ATOM     58  H   UNL     1      -0.911  -0.255   9.134  1.00  0.00     0.167 HD
ATOM     59  C   UNL     1      -1.792  -2.835   9.904  1.00  0.00     0.074 A 
ATOM     60  C   UNL     1      -2.029  -4.263   9.887  1.00  0.00     0.031 C 
ATOM     61  C   UNL     1      -2.175  -2.008  10.907  1.00  0.00     0.037 A 
BRANCH  48  62
ATOM     62  C   UNL     1      -0.813   3.929   9.927  1.00  0.00     0.064 A 
ATOM     63  C   UNL     1      -0.011   4.372  10.990  1.00  0.00     0.173 A 
ATOM     64  C   UNL     1      -1.707   4.841   9.350  1.00  0.00     0.173 A 
ATOM     65  F   UNL     1       0.860   3.536  11.575  1.00  0.00    -0.203 F 
ATOM     66  C   UNL     1      -0.106   5.678  11.463  1.00  0.00     0.198 A 
ATOM     67  C   UNL     1      -1.781   6.154   9.809  1.00  0.00     0.198 A 
ATOM     68  F   UNL     1      -2.477   4.469   8.317  1.00  0.00    -0.203 F 
ATOM     69  F   UNL     1       0.657   6.074  12.491  1.00  0.00    -0.200 F 
ATOM     70  C   UNL     1      -0.987   6.569  10.869  1.00  0.00     0.200 A 
ATOM     71  F   UNL     1      -2.613   7.022   9.218  1.00  0.00    -0.200 F 
ATOM     72  F   UNL     1      -1.064   7.831  11.312  1.00  0.00    -0.200 F 
ENDBRANCH  48  62
BRANCH  49  73
ATOM     73  C   UNL     1      -0.189  -5.301   6.232  1.00  0.00     0.064 A 
ATOM     74  C   UNL     1       1.009  -6.030   6.199  1.00  0.00     0.173 A 
ATOM     75  C   UNL     1      -1.334  -5.901   5.692  1.00  0.00     0.173 A 
ATOM     76  F   UNL     1       2.131  -5.501   6.708  1.00  0.00    -0.203 F 
ATOM     77  C   UNL     1       1.065  -7.296   5.622  1.00  0.00     0.198 A 
ATOM     78  C   UNL     1      -1.283  -7.178   5.138  1.00  0.00     0.198 A 
ATOM     79  F   UNL     1      -2.508  -5.254   5.727  1.00  0.00    -0.203 F 
ATOM     80  F   UNL     1       2.230  -7.956   5.570  1.00  0.00    -0.200 F 
ATOM     81  C   UNL     1      -0.081  -7.870   5.093  1.00  0.00     0.200 A 
ATOM     82  F   UNL     1      -2.397  -7.740   4.650  1.00  0.00    -0.200 F 
ATOM     83  F   UNL     1      -0.029  -9.092   4.545  1.00  0.00    -0.200 F 
ENDBRANCH  49  73
BRANCH  61  84
ATOM     84  C   UNL     1      -2.907  -2.618  12.063  1.00  0.00     0.064 A 
ATOM     85  C   UNL     1      -4.286  -2.416  12.217  1.00  0.00     0.173 A 
ATOM     86  C   UNL     1      -2.230  -3.343  13.053  1.00  0.00     0.173 A 
ATOM     87  F   UNL     1      -4.974  -1.723  11.297  1.00  0.00    -0.203 F 
ATOM     88  C   UNL     1      -4.961  -2.913  13.328  1.00  0.00     0.198 A 
ATOM     89  C   UNL     1      -2.911  -3.855  14.154  1.00  0.00     0.198 A 
ATOM     90  F   UNL     1      -0.913  -3.571  12.941  1.00  0.00    -0.203 F 
ATOM     91  F   UNL     1      -6.275  -2.691  13.467  1.00  0.00    -0.200 F 
ATOM     92  C   UNL     1      -4.274  -3.633  14.294  1.00  0.00     0.200 A 
ATOM     93  F   UNL     1      -2.251  -4.567  15.077  1.00  0.00    -0.200 F 
ATOM     94  F   UNL     1      -4.926  -4.117  15.360  1.00  0.00    -0.200 F 
ENDBRANCH  61  84
ENDBRANCH  35  36
ENDBRANCH  28  30
ENDBRANCH  27  28
ENDBRANCH  26  27
ENDBRANCH   1  26
TORSDOF 17
