REMARK SMILES CCS(=O)(=O)c1ccccc1NC[C@H]1CC[C@H](C(=O)OCCOC(=O)c2ccc(-c3c4nc(c(-c5c(F)c(F)c(F)c(F)c5F)c5ccc([nH]5)c(-c5c(F)c(F)c(F)c(F)c5F)c5nc(c(-c6c(F)c(F)c(F)c(F)c6F)c6ccc3[nH]6)C=C5)C=C4)cc2)O1
REMARK SMILES IDX 20 1 18 2 19 3 17 4 14 5 15 6 89 7 16 8 13 9 12 10 11 12
REMARK SMILES IDX 6 13 7 14 8 15 10 16 9 17 3 18 4 19 5 20 2 21 1 22 21 23
REMARK SMILES IDX 22 24 23 25 24 26 25 27 26 28 27 29 88 30 28 31 87 32 29 33
REMARK SMILES IDX 30 34 31 35 81 36 32 37 86 38 80 39 82 40 33 41 85 42 79 43
REMARK SMILES IDX 78 44 34 46 66 47 46 48 65 49 47 50 50 51 64 52 83 53 48 54
REMARK SMILES IDX 49 55 63 57 84 58 51 59 35 60 36 61 44 62 37 63 38 64 42 65
REMARK SMILES IDX 45 66 39 67 40 68 43 69 41 70 67 71 68 72 76 73 69 74 70 75
REMARK SMILES IDX 74 76 77 77 71 78 72 79 75 80 73 81 52 82 53 83 61 84 54 85
REMARK SMILES IDX 55 86 59 87 62 88 56 89 57 90 60 91 58 92
REMARK H PARENT 12 11 82 45 50 56
REMARK Flexibility Score: inf
ROOT
ATOM      1  O   UNL     1       4.734   9.233  -1.469  1.00  0.00    -0.460 OA
ENDROOT
BRANCH   1   2
ATOM      2  C   UNL     1       3.431   9.255  -1.859  1.00  0.00     0.335 C 
ATOM      3  O   UNL     1       2.599  10.066  -1.466  1.00  0.00    -0.249 OA
BRANCH   2   4
ATOM      4  C   UNL     1       3.099   8.155  -2.873  1.00  0.00     0.228 C 
ATOM      5  C   UNL     1       3.300   5.843  -3.082  1.00  0.00     0.138 C 
ATOM      6  C   UNL     1       4.606   6.453  -3.559  1.00  0.00     0.037 C 
ATOM      7  O   UNL     1       2.733   6.899  -2.271  1.00  0.00    -0.361 OA
ATOM      8  C   UNL     1       4.201   7.869  -3.889  1.00  0.00     0.047 C 
BRANCH   5   9
ATOM      9  C   UNL     1       2.284   5.467  -4.192  1.00  0.00     0.145 C 
BRANCH   9  10
ATOM     10  N   UNL     1       2.898   4.874  -5.371  1.00  0.00    -0.381 N 
ATOM     11  H   UNL     1       3.006   5.455  -6.158  1.00  0.00     0.160 HD
BRANCH  10  12
ATOM     12  C   UNL     1       3.345   3.569  -5.488  1.00  0.00     0.053 A 
ATOM     13  C   UNL     1       4.200   3.160  -6.533  1.00  0.00     0.090 A 
ATOM     14  C   UNL     1       4.646   1.831  -6.641  1.00  0.00     0.022 A 
ATOM     15  C   UNL     1       4.198   0.868  -5.745  1.00  0.00     0.001 A 
ATOM     16  C   UNL     1       2.906   2.566  -4.608  1.00  0.00     0.027 A 
ATOM     17  C   UNL     1       3.322   1.235  -4.732  1.00  0.00     0.002 A 
BRANCH  13  18
ATOM     18  S   UNL     1       4.838   4.317  -7.738  1.00  0.00     0.180 S 
ATOM     19  O   UNL     1       6.164   3.867  -8.121  1.00  0.00    -0.224 OA
ATOM     20  O   UNL     1       4.660   5.662  -7.211  1.00  0.00    -0.224 OA
BRANCH  18  21
ATOM     21  C   UNL     1       3.755   4.162  -9.142  1.00  0.00     0.139 C 
ATOM     22  C   UNL     1       3.890   2.849  -9.884  1.00  0.00     0.021 C 
ENDBRANCH  18  21
ENDBRANCH  13  18
ENDBRANCH  10  12
ENDBRANCH   9  10
ENDBRANCH   5   9
ENDBRANCH   2   4
ENDBRANCH   1   2
BRANCH   1  23
ATOM     23  C   UNL     1       5.146  10.285  -0.577  1.00  0.00     0.274 C 
BRANCH  23  24
ATOM     24  C   UNL     1       5.806  11.445  -1.330  1.00  0.00     0.275 C 
BRANCH  24  25
ATOM     25  O   UNL     1       4.858  12.166  -2.141  1.00  0.00    -0.458 OA
BRANCH  25  26
ATOM     26  C   UNL     1       4.831  11.820  -3.449  1.00  0.00     0.338 C 
ATOM     27  O   UNL     1       5.530  11.000  -4.016  1.00  0.00    -0.246 OA
BRANCH  26  28
ATOM     28  C   UNL     1       3.713  12.503  -4.117  1.00  0.00     0.060 A 
ATOM     29  C   UNL     1       2.657  11.725  -4.600  1.00  0.00     0.016 A 
ATOM     30  C   UNL     1       3.738  13.882  -4.331  1.00  0.00     0.016 A 
ATOM     31  C   UNL     1       1.608  12.326  -5.290  1.00  0.00     0.010 A 
ATOM     32  C   UNL     1       2.684  14.484  -5.026  1.00  0.00     0.010 A 
ATOM     33  C   UNL     1       1.614  13.710  -5.509  1.00  0.00    -0.014 A 
BRANCH  33  34
ATOM     34  C   UNL     1       0.501  14.348  -6.250  1.00  0.00     0.031 A 
ATOM     35  C   UNL     1       0.694  14.787  -7.671  1.00  0.00     0.074 A 
ATOM     36  C   UNL     1      -0.683  14.530  -5.639  1.00  0.00     0.049 A 
ATOM     37  N   UNL     1      -0.124  15.445  -8.452  1.00  0.00    -0.248 NA
ATOM     38  C   UNL     1       1.978  14.440  -8.297  1.00  0.00     0.031 C 
ATOM     39  C   UNL     1      -1.000  14.109  -4.275  1.00  0.00     0.029 A 
ATOM     40  N   UNL     1      -1.837  15.126  -6.084  1.00  0.00    -0.354 N 
ATOM     41  C   UNL     1       0.549  15.605  -9.655  1.00  0.00     0.074 A 
ATOM     42  C   UNL     1       1.849  14.986  -9.498  1.00  0.00     0.031 C 
ATOM     43  C   UNL     1      -2.263  14.465  -3.991  1.00  0.00     0.029 A 
ATOM     44  C   UNL     1      -2.826  15.178  -5.134  1.00  0.00     0.049 A 
ATOM     45  H   UNL     1      -1.944  15.482  -6.996  1.00  0.00     0.167 HD
ATOM     46  C   UNL     1       0.117  16.212 -10.786  1.00  0.00     0.037 A 
ATOM     47  C   UNL     1      -4.038  15.764  -5.172  1.00  0.00     0.037 A 
ATOM     48  C   UNL     1      -1.181  16.817 -10.941  1.00  0.00     0.049 A 
ATOM     49  C   UNL     1      -4.466  16.491  -6.417  1.00  0.00     0.074 A 
ATOM     50  C   UNL     1      -1.721  17.432 -12.057  1.00  0.00     0.029 A 
ATOM     51  N   UNL     1      -2.143  16.885  -9.943  1.00  0.00    -0.354 N 
ATOM     52  N   UNL     1      -3.825  16.636  -7.551  1.00  0.00    -0.248 NA
ATOM     53  C   UNL     1      -5.781  17.146  -6.382  1.00  0.00     0.031 C 
ATOM     54  C   UNL     1      -2.993  17.910 -11.722  1.00  0.00     0.029 A 
ATOM     55  C   UNL     1      -3.262  17.557 -10.410  1.00  0.00     0.049 A 
ATOM     56  H   UNL     1      -2.045  16.512  -9.037  1.00  0.00     0.167 HD
ATOM     57  C   UNL     1      -4.660  17.386  -8.368  1.00  0.00     0.074 A 
ATOM     58  C   UNL     1      -5.862  17.651  -7.606  1.00  0.00     0.031 C 
ATOM     59  C   UNL     1      -4.447  17.818  -9.634  1.00  0.00     0.037 A 
BRANCH  46  60
ATOM     60  C   UNL     1       1.067  16.277 -11.944  1.00  0.00     0.064 A 
ATOM     61  C   UNL     1       1.353  15.150 -12.726  1.00  0.00     0.173 A 
ATOM     62  C   UNL     1       1.666  17.495 -12.300  1.00  0.00     0.173 A 
ATOM     63  F   UNL     1       0.814  13.960 -12.419  1.00  0.00    -0.203 F 
ATOM     64  C   UNL     1       2.220  15.235 -13.813  1.00  0.00     0.198 A 
ATOM     65  C   UNL     1       2.515  17.581 -13.400  1.00  0.00     0.198 A 
ATOM     66  F   UNL     1       1.420  18.604 -11.585  1.00  0.00    -0.203 F 
ATOM     67  F   UNL     1       2.507  14.137 -14.527  1.00  0.00    -0.200 F 
ATOM     68  C   UNL     1       2.795  16.451 -14.152  1.00  0.00     0.200 A 
ATOM     69  F   UNL     1       3.062  18.759 -13.732  1.00  0.00    -0.200 F 
ATOM     70  F   UNL     1       3.624  16.532 -15.202  1.00  0.00    -0.200 F 
ENDBRANCH  46  60
BRANCH  47  71
ATOM     71  C   UNL     1      -4.919  15.712  -3.978  1.00  0.00     0.064 A 
ATOM     72  C   UNL     1      -6.091  14.946  -3.979  1.00  0.00     0.173 A 
ATOM     73  C   UNL     1      -4.604  16.426  -2.812  1.00  0.00     0.173 A 
ATOM     74  F   UNL     1      -6.447  14.269  -5.081  1.00  0.00    -0.203 F 
ATOM     75  C   UNL     1      -6.922  14.903  -2.861  1.00  0.00     0.198 A 
ATOM     76  C   UNL     1      -5.421  16.362  -1.687  1.00  0.00     0.198 A 
ATOM     77  F   UNL     1      -3.494  17.178  -2.764  1.00  0.00    -0.203 F 
ATOM     78  F   UNL     1      -8.057  14.193  -2.901  1.00  0.00    -0.200 F 
ATOM     79  C   UNL     1      -6.582  15.605  -1.714  1.00  0.00     0.200 A 
ATOM     80  F   UNL     1      -5.086  17.035  -0.578  1.00  0.00    -0.200 F 
ATOM     81  F   UNL     1      -7.379  15.558  -0.638  1.00  0.00    -0.200 F 
ENDBRANCH  47  71
BRANCH  59  82
ATOM     82  C   UNL     1      -5.543  18.614 -10.277  1.00  0.00     0.064 A 
ATOM     83  C   UNL     1      -5.784  19.948  -9.918  1.00  0.00     0.173 A 
ATOM     84  C   UNL     1      -6.337  18.049 -11.287  1.00  0.00     0.173 A 
ATOM     85  F   UNL     1      -5.062  20.526  -8.946  1.00  0.00    -0.203 F 
ATOM     86  C   UNL     1      -6.793  20.683 -10.534  1.00  0.00     0.198 A 
ATOM     87  C   UNL     1      -7.330  18.795 -11.917  1.00  0.00     0.198 A 
ATOM     88  F   UNL     1      -6.143  16.778 -11.668  1.00  0.00    -0.203 F 
ATOM     89  F   UNL     1      -7.032  21.944 -10.148  1.00  0.00    -0.200 F 
ATOM     90  C   UNL     1      -7.560  20.108 -11.537  1.00  0.00     0.200 A 
ATOM     91  F   UNL     1      -8.065  18.241 -12.891  1.00  0.00    -0.200 F 
ATOM     92  F   UNL     1      -8.528  20.819 -12.132  1.00  0.00    -0.200 F 
ENDBRANCH  59  82
ENDBRANCH  33  34
ENDBRANCH  26  28
ENDBRANCH  25  26
ENDBRANCH  24  25
ENDBRANCH  23  24
ENDBRANCH   1  23
TORSDOF 16
