REMARK SMILES COc1cccc(S[C@H]2CC[C@@]([NH3+])(C(=O)OCCOC(=O)c3ccc(-c4c5nc(c(-c6c(F)c(F)c(F)c(F)c6F)c6ccc([nH]6)c(-c6c(F)c(F)c(F)c(F)c6F)c6nc(c(-c7c(F)c(F)c(F)c(F)c7F)c7ccc4[nH]7)C=C6)C=C5)cc3)C2)c1
REMARK SMILES IDX 17 1 16 2 14 3 15 4 12 5 9 6 10 7 85 8 11 9 8 10 7 11 3 12
REMARK SMILES IDX 4 13 86 14 5 15 6 16 2 17 1 18 13 19 18 23 19 24 20 25 21 26
REMARK SMILES IDX 22 27 23 28 84 29 24 30 83 31 25 32 26 33 27 34 77 35 28 36
REMARK SMILES IDX 82 37 76 38 78 39 29 40 81 41 75 42 74 43 30 45 62 46 42 47
REMARK SMILES IDX 61 48 43 49 46 50 60 51 79 52 44 53 45 54 59 56 80 57 47 58
REMARK SMILES IDX 31 59 32 60 40 61 33 62 34 63 38 64 41 65 35 66 36 67 39 68
REMARK SMILES IDX 37 69 63 70 64 71 72 72 65 73 66 74 70 75 73 76 67 77 68 78
REMARK SMILES IDX 71 79 69 80 48 81 49 82 57 83 50 84 51 85 55 86 58 87 52 88
REMARK SMILES IDX 53 89 56 90 54 91
REMARK H PARENT 13 20 13 21 13 22 78 44 46 55
REMARK Flexibility Score: inf
ROOT
ATOM      1  C   UNL     1       8.187  -1.636  -0.900  1.00  0.00     0.274 C 
ENDROOT
BRANCH   1   2
ATOM      2  O   UNL     1       7.150  -0.689  -0.561  1.00  0.00    -0.457 OA
BRANCH   2   3
ATOM      3  C   UNL     1       6.045  -1.195   0.047  1.00  0.00     0.368 C 
ATOM      4  O   UNL     1       5.914  -2.371   0.385  1.00  0.00    -0.245 OA
BRANCH   3   5
ATOM      5  C   UNL     1       4.881  -0.167   0.205  1.00  0.00     0.193 C 
ATOM      6  C   UNL     1       5.073   1.247   2.214  1.00  0.00     0.059 C 
ATOM      7  C   UNL     1       4.892   2.164   1.013  1.00  0.00     0.022 C 
ATOM      8  C   UNL     1       4.470  -0.066   1.696  1.00  0.00     0.095 C 
ATOM      9  C   UNL     1       5.179   1.289  -0.215  1.00  0.00     0.082 C 
BRANCH   6  10
ATOM     10  S   UNL     1       6.847   1.025   2.580  1.00  0.00    -0.122 SA
BRANCH  10  11
ATOM     11  C   UNL     1       7.284   2.263   3.783  1.00  0.00     0.011 A 
ATOM     12  C   UNL     1       9.092   3.078   5.211  1.00  0.00     0.119 A 
ATOM     13  C   UNL     1       8.263   4.106   5.655  1.00  0.00     0.046 A 
ATOM     14  C   UNL     1       8.597   2.167   4.279  1.00  0.00     0.061 A 
ATOM     15  C   UNL     1       6.956   4.215   5.177  1.00  0.00     0.005 A 
ATOM     16  C   UNL     1       6.467   3.295   4.243  1.00  0.00     0.015 A 
BRANCH  12  17
ATOM     17  O   UNL     1      10.351   3.068   5.747  1.00  0.00    -0.497 OA
ATOM     18  C   UNL     1      11.238   2.057   5.278  1.00  0.00     0.278 C 
ENDBRANCH  12  17
ENDBRANCH  10  11
ENDBRANCH   6  10
BRANCH   5  19
ATOM     19  N   UNL     1       3.750  -0.703  -0.595  1.00  0.00    -0.343 N 
ATOM     20  H   UNL     1       4.027  -0.766  -1.575  1.00  0.00     0.345 HD
ATOM     21  H   UNL     1       2.947  -0.080  -0.508  1.00  0.00     0.345 HD
ATOM     22  H   UNL     1       3.500  -1.630  -0.252  1.00  0.00     0.345 HD
ENDBRANCH   5  19
ENDBRANCH   3   5
ENDBRANCH   2   3
ENDBRANCH   1   2
BRANCH   1  23
ATOM     23  C   UNL     1       9.318  -1.611   0.127  1.00  0.00     0.275 C 
BRANCH  23  24
ATOM     24  O   UNL     1       8.807  -2.050   1.393  1.00  0.00    -0.458 OA
BRANCH  24  25
ATOM     25  C   UNL     1       9.462  -1.592   2.482  1.00  0.00     0.338 C 
ATOM     26  O   UNL     1      10.532  -0.996   2.489  1.00  0.00    -0.246 OA
BRANCH  25  27
ATOM     27  C   UNL     1       8.649  -1.821   3.705  1.00  0.00     0.060 A 
ATOM     28  C   UNL     1       7.294  -2.161   3.630  1.00  0.00     0.016 A 
ATOM     29  C   UNL     1       9.219  -1.550   4.953  1.00  0.00     0.016 A 
ATOM     30  C   UNL     1       6.495  -2.123   4.772  1.00  0.00     0.010 A 
ATOM     31  C   UNL     1       8.433  -1.591   6.109  1.00  0.00     0.010 A 
ATOM     32  C   UNL     1       7.057  -1.853   6.028  1.00  0.00    -0.014 A 
BRANCH  32  33
ATOM     33  C   UNL     1       6.229  -1.894   7.262  1.00  0.00     0.031 A 
ATOM     34  C   UNL     1       6.099  -0.688   8.150  1.00  0.00     0.074 A 
ATOM     35  C   UNL     1       5.630  -3.047   7.616  1.00  0.00     0.049 A 
ATOM     36  N   UNL     1       5.613  -0.605   9.364  1.00  0.00    -0.248 NA
ATOM     37  C   UNL     1       6.579   0.591   7.607  1.00  0.00     0.031 C 
ATOM     38  C   UNL     1       5.648  -4.284   6.833  1.00  0.00     0.029 A 
ATOM     39  N   UNL     1       4.909  -3.373   8.738  1.00  0.00    -0.354 N 
ATOM     40  C   UNL     1       5.763   0.723   9.744  1.00  0.00     0.074 A 
ATOM     41  C   UNL     1       6.384   1.411   8.632  1.00  0.00     0.031 C 
ATOM     42  C   UNL     1       4.974  -5.232   7.495  1.00  0.00     0.029 A 
ATOM     43  C   UNL     1       4.555  -4.698   8.786  1.00  0.00     0.049 A 
ATOM     44  H   UNL     1       4.671  -2.723   9.438  1.00  0.00     0.167 HD
ATOM     45  C   UNL     1       5.415   1.306  10.918  1.00  0.00     0.037 A 
ATOM     46  C   UNL     1       4.015  -5.430   9.778  1.00  0.00     0.037 A 
ATOM     47  C   UNL     1       4.772   0.622  12.013  1.00  0.00     0.049 A 
ATOM     48  C   UNL     1       3.699  -4.780  11.089  1.00  0.00     0.074 A 
ATOM     49  C   UNL     1       4.346   1.142  13.224  1.00  0.00     0.029 A 
ATOM     50  N   UNL     1       4.464  -0.730  12.032  1.00  0.00    -0.354 N 
ATOM     51  N   UNL     1       3.877  -3.535  11.455  1.00  0.00    -0.248 NA
ATOM     52  C   UNL     1       3.122  -5.639  12.130  1.00  0.00     0.031 C 
ATOM     53  C   UNL     1       3.817   0.097  13.991  1.00  0.00     0.029 A 
ATOM     54  C   UNL     1       3.875  -1.066  13.242  1.00  0.00     0.049 A 
ATOM     55  H   UNL     1       4.638  -1.359  11.294  1.00  0.00     0.167 HD
ATOM     56  C   UNL     1       3.438  -3.459  12.768  1.00  0.00     0.074 A 
ATOM     57  C   UNL     1       2.963  -4.780  13.127  1.00  0.00     0.031 C 
ATOM     58  C   UNL     1       3.432  -2.389  13.599  1.00  0.00     0.037 A 
BRANCH  45  59
ATOM     59  C   UNL     1       5.741   2.758  11.103  1.00  0.00     0.064 A 
ATOM     60  C   UNL     1       4.997   3.768  10.476  1.00  0.00     0.173 A 
ATOM     61  C   UNL     1       6.758   3.145  11.991  1.00  0.00     0.173 A 
ATOM     62  F   UNL     1       4.020   3.451   9.614  1.00  0.00    -0.203 F 
ATOM     63  C   UNL     1       5.265   5.112  10.725  1.00  0.00     0.198 A 
ATOM     64  C   UNL     1       7.008   4.489  12.254  1.00  0.00     0.198 A 
ATOM     65  F   UNL     1       7.492   2.217  12.623  1.00  0.00    -0.203 F 
ATOM     66  F   UNL     1       4.556   6.062  10.099  1.00  0.00    -0.200 F 
ATOM     67  C   UNL     1       6.262   5.471  11.620  1.00  0.00     0.200 A 
ATOM     68  F   UNL     1       7.962   4.834  13.130  1.00  0.00    -0.200 F 
ATOM     69  F   UNL     1       6.504   6.765  11.872  1.00  0.00    -0.200 F 
ENDBRANCH  45  59
BRANCH  46  70
ATOM     70  C   UNL     1       3.810  -6.883   9.563  1.00  0.00     0.064 A 
ATOM     71  C   UNL     1       2.528  -7.410   9.373  1.00  0.00     0.173 A 
ATOM     72  C   UNL     1       4.903  -7.759   9.471  1.00  0.00     0.173 A 
ATOM     73  F   UNL     1       1.454  -6.613   9.475  1.00  0.00    -0.203 F 
ATOM     74  C   UNL     1       2.346  -8.761   9.086  1.00  0.00     0.198 A 
ATOM     75  C   UNL     1       4.722  -9.102   9.158  1.00  0.00     0.198 A 
ATOM     76  F   UNL     1       6.150  -7.296   9.644  1.00  0.00    -0.203 F 
ATOM     77  F   UNL     1       1.108  -9.247   8.921  1.00  0.00    -0.200 F 
ATOM     78  C   UNL     1       3.443  -9.602   8.965  1.00  0.00     0.200 A 
ATOM     79  F   UNL     1       5.785  -9.906   9.023  1.00  0.00    -0.200 F 
ATOM     80  F   UNL     1       3.268 -10.895   8.661  1.00  0.00    -0.200 F 
ENDBRANCH  46  70
BRANCH  58  81
ATOM     81  C   UNL     1       2.888  -2.609  14.978  1.00  0.00     0.064 A 
ATOM     82  C   UNL     1       3.622  -3.306  15.949  1.00  0.00     0.173 A 
ATOM     83  C   UNL     1       1.621  -2.124  15.332  1.00  0.00     0.173 A 
ATOM     84  F   UNL     1       4.830  -3.806  15.651  1.00  0.00    -0.203 F 
ATOM     85  C   UNL     1       3.094  -3.533  17.217  1.00  0.00     0.198 A 
ATOM     86  C   UNL     1       1.106  -2.333  16.608  1.00  0.00     0.198 A 
ATOM     87  F   UNL     1       0.881  -1.450  14.438  1.00  0.00    -0.203 F 
ATOM     88  F   UNL     1       3.791  -4.245  18.114  1.00  0.00    -0.200 F 
ATOM     89  C   UNL     1       1.839  -3.044  17.547  1.00  0.00     0.200 A 
ATOM     90  F   UNL     1      -0.106  -1.856  16.927  1.00  0.00    -0.200 F 
ATOM     91  F   UNL     1       1.329  -3.270  18.765  1.00  0.00    -0.200 F 
ENDBRANCH  58  81
ENDBRANCH  32  33
ENDBRANCH  25  27
ENDBRANCH  24  25
ENDBRANCH  23  24
ENDBRANCH   1  23
TORSDOF 15
