REMARK SMILES Cc1cc(OC(F)(F)F)cc2c1O[C@H](C(F)(F)F)C(C(=O)OCCOC(=O)c1ccc(-c3c4nc(c(-c5c(F)c(F)c(F)c(F)c5F)c5ccc([nH]5)c(-c5c(F)c(F)c(F)c(F)c5F)c5nc(c(-c6c(F)c(F)c(F)c(F)c6F)c6ccc3[nH]6)C=C5)C=C4)cc1)=C2
REMARK SMILES IDX 23 1 22 2 20 3 21 4 19 5 1 6 2 7 3 8 12 9 4 10 11 11 13 12
REMARK SMILES IDX 10 13 91 14 14 15 5 16 6 17 7 18 8 19 9 20 15 21 16 22 17 23
REMARK SMILES IDX 18 24 24 25 25 26 26 27 27 28 28 29 29 30 90 31 30 32 89 33
REMARK SMILES IDX 31 34 32 35 33 36 83 37 34 38 88 39 82 40 84 41 35 42 87 43
REMARK SMILES IDX 81 44 80 45 36 47 68 48 48 49 67 50 49 51 52 52 66 53 85 54
REMARK SMILES IDX 50 55 51 56 65 58 86 59 53 60 37 61 38 62 46 63 39 64 40 65
REMARK SMILES IDX 44 66 47 67 41 68 42 69 45 70 43 71 69 72 70 73 78 74 71 75
REMARK SMILES IDX 72 76 76 77 79 78 73 79 74 80 77 81 75 82 54 83 55 84 63 85
REMARK SMILES IDX 56 86 57 87 61 88 64 89 58 90 59 91 62 92 60 93
REMARK H PARENT 84 46 52 57
REMARK Flexibility Score: inf
ROOT
ATOM      1  C   UNL     1      -6.233   1.562   4.039  1.00  0.00     0.275 C 
ENDROOT
BRANCH   1   2
ATOM      2  O   UNL     1      -4.930   1.350   3.455  1.00  0.00    -0.459 OA
BRANCH   2   3
ATOM      3  C   UNL     1      -4.650   2.101   2.362  1.00  0.00     0.338 C 
ATOM      4  O   UNL     1      -5.384   2.907   1.823  1.00  0.00    -0.246 OA
BRANCH   3   5
ATOM      5  C   UNL     1      -3.269   1.839   1.911  1.00  0.00     0.087 C 
ATOM      6  C   UNL     1       1.038  -0.272   0.082  1.00  0.00     0.048 C 
ATOM      7  C   UNL     1       0.546   1.124   0.348  1.00  0.00    -0.005 A 
ATOM      8  C   UNL     1       1.339   2.221  -0.043  1.00  0.00     0.054 A 
ATOM      9  C   UNL     1      -0.720   1.350   0.907  1.00  0.00     0.131 A 
ATOM     10  C   UNL     1       0.892   3.529   0.147  1.00  0.00     0.130 A 
ATOM     11  C   UNL     1      -1.177   2.656   1.077  1.00  0.00     0.021 A 
ATOM     12  O   UNL     1      -1.450   0.253   1.274  1.00  0.00    -0.475 OA
ATOM     13  C   UNL     1      -0.366   3.737   0.714  1.00  0.00     0.058 A 
ATOM     14  C   UNL     1      -2.508   2.894   1.602  1.00  0.00     0.027 C 
ATOM     15  C   UNL     1      -2.824   0.418   1.721  1.00  0.00     0.316 C 
BRANCH  10  16
ATOM     16  O   UNL     1       1.560   4.676  -0.172  1.00  0.00    -0.406 OA
BRANCH  16  17
ATOM     17  C   UNL     1       2.798   4.558  -0.852  1.00  0.00     0.573 C 
ATOM     18  F   UNL     1       3.708   3.910  -0.095  1.00  0.00    -0.132 F 
ATOM     19  F   UNL     1       2.646   3.912  -2.028  1.00  0.00    -0.132 F 
ATOM     20  F   UNL     1       3.270   5.797  -1.111  1.00  0.00    -0.132 F 
ENDBRANCH  16  17
ENDBRANCH  10  16
BRANCH  15  21
ATOM     21  C   UNL     1      -3.745  -0.329   0.743  1.00  0.00     0.430 C 
ATOM     22  F   UNL     1      -3.332  -1.604   0.550  1.00  0.00    -0.167 F 
ATOM     23  F   UNL     1      -5.016  -0.400   1.207  1.00  0.00    -0.167 F 
ATOM     24  F   UNL     1      -3.792   0.271  -0.469  1.00  0.00    -0.167 F 
ENDBRANCH  15  21
ENDBRANCH   3   5
ENDBRANCH   2   3
ENDBRANCH   1   2
BRANCH   1  25
ATOM     25  C   UNL     1      -6.137   2.430   5.293  1.00  0.00     0.275 C 
BRANCH  25  26
ATOM     26  O   UNL     1      -5.707   3.759   4.943  1.00  0.00    -0.458 OA
BRANCH  26  27
ATOM     27  C   UNL     1      -4.433   4.059   5.278  1.00  0.00     0.338 C 
ATOM     28  O   UNL     1      -3.633   3.355   5.874  1.00  0.00    -0.246 OA
BRANCH  27  29
ATOM     29  C   UNL     1      -4.076   5.393   4.774  1.00  0.00     0.060 A 
ATOM     30  C   UNL     1      -4.053   5.621   3.400  1.00  0.00     0.016 A 
ATOM     31  C   UNL     1      -3.578   6.352   5.652  1.00  0.00     0.016 A 
ATOM     32  C   UNL     1      -3.393   6.736   2.892  1.00  0.00     0.010 A 
ATOM     33  C   UNL     1      -3.029   7.532   5.143  1.00  0.00     0.010 A 
ATOM     34  C   UNL     1      -2.875   7.710   3.756  1.00  0.00    -0.014 A 
BRANCH  34  35
ATOM     35  C   UNL     1      -2.124   8.881   3.223  1.00  0.00     0.031 A 
ATOM     36  C   UNL     1      -0.701   9.124   3.659  1.00  0.00     0.074 A 
ATOM     37  C   UNL     1      -2.700   9.721   2.340  1.00  0.00     0.049 A 
ATOM     38  N   UNL     1       0.056  10.176   3.476  1.00  0.00    -0.248 NA
ATOM     39  C   UNL     1      -0.045   8.041   4.411  1.00  0.00     0.031 C 
ATOM     40  C   UNL     1      -4.043   9.572   1.779  1.00  0.00     0.029 A 
ATOM     41  N   UNL     1      -2.225  10.871   1.757  1.00  0.00    -0.354 N 
ATOM     42  C   UNL     1       1.253   9.902   4.128  1.00  0.00     0.074 A 
ATOM     43  C   UNL     1       1.120   8.591   4.723  1.00  0.00     0.031 C 
ATOM     44  C   UNL     1      -4.272  10.567   0.910  1.00  0.00     0.029 A 
ATOM     45  C   UNL     1      -3.134  11.479   0.925  1.00  0.00     0.049 A 
ATOM     46  H   UNL     1      -1.321  11.226   1.920  1.00  0.00     0.167 HD
ATOM     47  C   UNL     1       2.362  10.675   4.215  1.00  0.00     0.037 A 
ATOM     48  C   UNL     1      -3.081  12.662   0.283  1.00  0.00     0.037 A 
ATOM     49  C   UNL     1       2.506  11.958   3.576  1.00  0.00     0.049 A 
ATOM     50  C   UNL     1      -1.869  13.534   0.455  1.00  0.00     0.074 A 
ATOM     51  C   UNL     1       3.593  12.814   3.597  1.00  0.00     0.029 A 
ATOM     52  N   UNL     1       1.538  12.560   2.787  1.00  0.00    -0.354 N 
ATOM     53  N   UNL     1      -0.768  13.297   1.125  1.00  0.00    -0.248 NA
ATOM     54  C   UNL     1      -1.903  14.850  -0.200  1.00  0.00     0.031 C 
ATOM     55  C   UNL     1       3.267  13.953   2.854  1.00  0.00     0.029 A 
ATOM     56  C   UNL     1       1.995  13.786   2.331  1.00  0.00     0.049 A 
ATOM     57  H   UNL     1       0.656  12.174   2.580  1.00  0.00     0.167 HD
ATOM     58  C   UNL     1       0.025  14.424   0.966  1.00  0.00     0.074 A 
ATOM     59  C   UNL     1      -0.711  15.337   0.115  1.00  0.00     0.031 C 
ATOM     60  C   UNL     1       1.250  14.682   1.485  1.00  0.00     0.037 A 
BRANCH  47  61
ATOM     61  C   UNL     1       3.509  10.174   5.044  1.00  0.00     0.064 A 
ATOM     62  C   UNL     1       4.328   9.120   4.614  1.00  0.00     0.173 A 
ATOM     63  C   UNL     1       3.835  10.806   6.255  1.00  0.00     0.173 A 
ATOM     64  F   UNL     1       4.052   8.474   3.472  1.00  0.00    -0.203 F 
ATOM     65  C   UNL     1       5.423   8.710   5.371  1.00  0.00     0.198 A 
ATOM     66  C   UNL     1       4.947  10.412   6.995  1.00  0.00     0.198 A 
ATOM     67  F   UNL     1       3.088  11.823   6.709  1.00  0.00    -0.203 F 
ATOM     68  F   UNL     1       6.174   7.679   4.957  1.00  0.00    -0.200 F 
ATOM     69  C   UNL     1       5.738   9.362   6.554  1.00  0.00     0.200 A 
ATOM     70  F   UNL     1       5.256  11.053   8.130  1.00  0.00    -0.200 F 
ATOM     71  F   UNL     1       6.802   8.977   7.272  1.00  0.00    -0.200 F 
ENDBRANCH  47  61
BRANCH  48  72
ATOM     72  C   UNL     1      -4.233  13.103  -0.548  1.00  0.00     0.064 A 
ATOM     73  C   UNL     1      -4.117  13.204  -1.940  1.00  0.00     0.173 A 
ATOM     74  C   UNL     1      -5.475  13.413   0.028  1.00  0.00     0.173 A 
ATOM     75  F   UNL     1      -2.943  12.945  -2.535  1.00  0.00    -0.203 F 
ATOM     76  C   UNL     1      -5.198  13.603  -2.725  1.00  0.00     0.198 A 
ATOM     77  C   UNL     1      -6.563  13.780  -0.760  1.00  0.00     0.198 A 
ATOM     78  F   UNL     1      -5.639  13.334   1.357  1.00  0.00    -0.203 F 
ATOM     79  F   UNL     1      -5.050  13.726  -4.051  1.00  0.00    -0.200 F 
ATOM     80  C   UNL     1      -6.422  13.880  -2.136  1.00  0.00     0.200 A 
ATOM     81  F   UNL     1      -7.748  14.030  -0.188  1.00  0.00    -0.200 F 
ATOM     82  F   UNL     1      -7.465  14.248  -2.893  1.00  0.00    -0.200 F 
ENDBRANCH  48  72
BRANCH  60  83
ATOM     83  C   UNL     1       1.881  15.999   1.141  1.00  0.00     0.064 A 
ATOM     84  C   UNL     1       1.422  17.198   1.704  1.00  0.00     0.173 A 
ATOM     85  C   UNL     1       2.994  16.055   0.289  1.00  0.00     0.173 A 
ATOM     86  F   UNL     1       0.351  17.198   2.513  1.00  0.00    -0.203 F 
ATOM     87  C   UNL     1       2.045  18.408   1.414  1.00  0.00     0.198 A 
ATOM     88  C   UNL     1       3.633  17.262   0.024  1.00  0.00     0.198 A 
ATOM     89  F   UNL     1       3.476  14.934  -0.269  1.00  0.00    -0.203 F 
ATOM     90  F   UNL     1       1.567  19.547   1.933  1.00  0.00    -0.200 F 
ATOM     91  C   UNL     1       3.155  18.438   0.583  1.00  0.00     0.200 A 
ATOM     92  F   UNL     1       4.714  17.288  -0.767  1.00  0.00    -0.200 F 
ATOM     93  F   UNL     1       3.762  19.603   0.316  1.00  0.00    -0.200 F 
ENDBRANCH  60  83
ENDBRANCH  34  35
ENDBRANCH  27  29
ENDBRANCH  26  27
ENDBRANCH  25  26
ENDBRANCH   1  25
TORSDOF 14
