REMARK SMILES Cc1ccc2nc(CC3(CC(=O)OCCOC(=O)c4ccc(-c5c6nc(c(-c7c(F)c(F)c(F)c(F)c7F)c7ccc([nH]7)c(-c7c(F)c(F)c(F)c(F)c7F)c7nc(c(-c8c(F)c(F)c(F)c(F)c8F)c8ccc5[nH]8)C=C7)C=C6)cc4)CCCCC3)sc2c1
REMARK SMILES IDX 14 1 13 2 11 3 12 4 10 5 9 6 82 7 86 8 83 9 85 10 84 11 8 12
REMARK SMILES IDX 7 13 1 14 2 15 3 16 89 17 4 18 88 19 5 20 87 21 6 22 15 23
REMARK SMILES IDX 16 24 17 25 18 26 19 27 20 28 81 29 21 30 80 31 22 32 23 33
REMARK SMILES IDX 24 34 74 35 25 36 79 37 73 38 75 39 26 40 78 41 72 42 71 43
REMARK SMILES IDX 27 45 59 46 39 47 58 48 40 49 43 50 57 51 76 52 41 53 42 54
REMARK SMILES IDX 56 56 77 57 44 58 28 59 29 60 37 61 30 62 31 63 35 64 38 65
REMARK SMILES IDX 32 66 33 67 36 68 34 69 60 70 61 71 69 72 62 73 63 74 67 75
REMARK SMILES IDX 70 76 64 77 65 78 68 79 66 80 45 81 46 82 54 83 47 84 48 85
REMARK SMILES IDX 52 86 55 87 49 88 50 89 53 90 51 91
REMARK H PARENT 75 44 43 55
REMARK Flexibility Score: inf
ROOT
ATOM      1  C   UNL     1      -5.955  -4.517   1.206  1.00  0.00     0.274 C 
ENDROOT
BRANCH   1   2
ATOM      2  O   UNL     1      -5.398  -3.652   0.196  1.00  0.00    -0.462 OA
BRANCH   2   3
ATOM      3  C   UNL     1      -6.286  -2.956  -0.546  1.00  0.00     0.306 C 
ATOM      4  O   UNL     1      -7.505  -3.027  -0.424  1.00  0.00    -0.252 OA
BRANCH   3   5
ATOM      5  C   UNL     1      -5.662  -2.047  -1.586  1.00  0.00     0.130 C 
BRANCH   5   6
ATOM      6  C   UNL     1      -4.123  -1.786  -1.640  1.00  0.00    -0.013 C 
ATOM      7  C   UNL     1      -3.858  -0.845  -2.859  1.00  0.00     0.008 C 
ATOM      8  C   UNL     1      -3.319  -3.089  -1.890  1.00  0.00     0.008 C 
ATOM      9  C   UNL     1      -4.168  -1.490  -4.215  1.00  0.00     0.001 C 
ATOM     10  C   UNL     1      -3.686  -3.776  -3.203  1.00  0.00     0.001 C 
ATOM     11  C   UNL     1      -3.477  -2.840  -4.390  1.00  0.00     0.000 C 
BRANCH   6  12
ATOM     12  C   UNL     1      -3.693  -1.061  -0.320  1.00  0.00     0.075 C 
BRANCH  12  13
ATOM     13  C   UNL     1      -2.226  -0.733  -0.214  1.00  0.00     0.094 A 
ATOM     14  C   UNL     1       3.663   1.174  -0.009  1.00  0.00     0.044 C 
ATOM     15  C   UNL     1       2.374   0.403  -0.018  1.00  0.00    -0.050 A 
ATOM     16  C   UNL     1       2.382  -0.988   0.106  1.00  0.00     0.006 A 
ATOM     17  C   UNL     1       1.153   1.090  -0.137  1.00  0.00     0.024 A 
ATOM     18  C   UNL     1       1.187  -1.714   0.111  1.00  0.00     0.030 A 
ATOM     19  C   UNL     1      -0.042   0.348  -0.140  1.00  0.00     0.055 A 
ATOM     20  C   UNL     1      -0.043  -1.041  -0.015  1.00  0.00     0.082 A 
ATOM     21  S   UNL     1      -1.672   0.893  -0.288  1.00  0.00    -0.119 S 
ATOM     22  N   UNL     1      -1.290  -1.638  -0.031  1.00  0.00    -0.241 NA
ENDBRANCH  12  13
ENDBRANCH   6  12
ENDBRANCH   5   6
ENDBRANCH   3   5
ENDBRANCH   2   3
ENDBRANCH   1   2
BRANCH   1  23
ATOM     23  C   UNL     1      -5.914  -3.836   2.570  1.00  0.00     0.275 C 
BRANCH  23  24
ATOM     24  O   UNL     1      -6.632  -2.591   2.506  1.00  0.00    -0.458 OA
BRANCH  24  25
ATOM     25  C   UNL     1      -5.960  -1.502   2.939  1.00  0.00     0.338 C 
ATOM     26  O   UNL     1      -4.853  -1.458   3.445  1.00  0.00    -0.246 OA
BRANCH  25  27
ATOM     27  C   UNL     1      -6.784  -0.303   2.723  1.00  0.00     0.060 A 
ATOM     28  C   UNL     1      -7.221   0.039   1.442  1.00  0.00     0.016 A 
ATOM     29  C   UNL     1      -7.044   0.536   3.806  1.00  0.00     0.016 A 
ATOM     30  C   UNL     1      -7.891   1.243   1.232  1.00  0.00     0.010 A 
ATOM     31  C   UNL     1      -7.767   1.712   3.606  1.00  0.00     0.010 A 
ATOM     32  C   UNL     1      -8.180   2.085   2.314  1.00  0.00    -0.014 A 
BRANCH  32  33
ATOM     33  C   UNL     1      -8.905   3.363   2.117  1.00  0.00     0.031 A 
ATOM     34  C   UNL     1      -8.213   4.667   2.393  1.00  0.00     0.074 A 
ATOM     35  C   UNL     1     -10.196   3.350   1.737  1.00  0.00     0.049 A 
ATOM     36  N   UNL     1      -8.716   5.872   2.478  1.00  0.00    -0.248 NA
ATOM     37  C   UNL     1      -6.759   4.604   2.614  1.00  0.00     0.031 C 
ATOM     38  C   UNL     1     -10.969   2.152   1.410  1.00  0.00     0.029 A 
ATOM     39  N   UNL     1     -11.091   4.379   1.583  1.00  0.00    -0.354 N 
ATOM     40  C   UNL     1      -7.654   6.703   2.803  1.00  0.00     0.074 A 
ATOM     41  C   UNL     1      -6.476   5.867   2.901  1.00  0.00     0.031 C 
ATOM     42  C   UNL     1     -12.223   2.512   1.097  1.00  0.00     0.029 A 
ATOM     43  C   UNL     1     -12.357   3.956   1.262  1.00  0.00     0.049 A 
ATOM     44  H   UNL     1     -10.849   5.327   1.692  1.00  0.00     0.167 HD
ATOM     45  C   UNL     1      -7.666   8.042   3.005  1.00  0.00     0.037 A 
ATOM     46  C   UNL     1     -13.507   4.648   1.158  1.00  0.00     0.037 A 
ATOM     47  C   UNL     1      -8.835   8.872   2.876  1.00  0.00     0.049 A 
ATOM     48  C   UNL     1     -13.500   6.128   1.415  1.00  0.00     0.074 A 
ATOM     49  C   UNL     1      -8.946  10.242   3.035  1.00  0.00     0.029 A 
ATOM     50  N   UNL     1     -10.100   8.404   2.548  1.00  0.00    -0.354 N 
ATOM     51  N   UNL     1     -12.497   6.904   1.746  1.00  0.00    -0.248 NA
ATOM     52  C   UNL     1     -14.787   6.826   1.296  1.00  0.00     0.031 C 
ATOM     53  C   UNL     1     -10.284  10.600   2.834  1.00  0.00     0.029 A 
ATOM     54  C   UNL     1     -10.999   9.457   2.513  1.00  0.00     0.049 A 
ATOM     55  H   UNL     1     -10.325   7.463   2.367  1.00  0.00     0.167 HD
ATOM     56  C   UNL     1     -13.026   8.180   1.864  1.00  0.00     0.074 A 
ATOM     57  C   UNL     1     -14.438   8.079   1.554  1.00  0.00     0.031 C 
ATOM     58  C   UNL     1     -12.400   9.334   2.202  1.00  0.00     0.037 A 
BRANCH  45  59
ATOM     59  C   UNL     1      -6.380   8.693   3.418  1.00  0.00     0.064 A 
ATOM     60  C   UNL     1      -5.333   8.902   2.509  1.00  0.00     0.173 A 
ATOM     61  C   UNL     1      -6.210   9.149   4.734  1.00  0.00     0.173 A 
ATOM     62  F   UNL     1      -5.442   8.471   1.243  1.00  0.00    -0.203 F 
ATOM     63  C   UNL     1      -4.155   9.529   2.908  1.00  0.00     0.198 A 
ATOM     64  C   UNL     1      -5.040   9.795   5.123  1.00  0.00     0.198 A 
ATOM     65  F   UNL     1      -7.184   8.976   5.640  1.00  0.00    -0.203 F 
ATOM     66  F   UNL     1      -3.152   9.687   2.032  1.00  0.00    -0.200 F 
ATOM     67  C   UNL     1      -4.012   9.980   4.212  1.00  0.00     0.200 A 
ATOM     68  F   UNL     1      -4.907  10.239   6.381  1.00  0.00    -0.200 F 
ATOM     69  F   UNL     1      -2.880  10.589   4.591  1.00  0.00    -0.200 F 
ENDBRANCH  45  59
BRANCH  46  70
ATOM     70  C   UNL     1     -14.763   3.933   0.822  1.00  0.00     0.064 A 
ATOM     71  C   UNL     1     -15.364   4.086  -0.434  1.00  0.00     0.173 A 
ATOM     72  C   UNL     1     -15.374   3.066   1.740  1.00  0.00     0.173 A 
ATOM     73  F   UNL     1     -14.828   4.924  -1.334  1.00  0.00    -0.203 F 
ATOM     74  C   UNL     1     -16.533   3.401  -0.758  1.00  0.00     0.198 A 
ATOM     75  C   UNL     1     -16.529   2.363   1.406  1.00  0.00     0.198 A 
ATOM     76  F   UNL     1     -14.836   2.887   2.955  1.00  0.00    -0.203 F 
ATOM     77  F   UNL     1     -17.105   3.588  -1.956  1.00  0.00    -0.200 F 
ATOM     78  C   UNL     1     -17.110   2.534   0.158  1.00  0.00     0.200 A 
ATOM     79  F   UNL     1     -17.076   1.518   2.289  1.00  0.00    -0.200 F 
ATOM     80  F   UNL     1     -18.228   1.868  -0.159  1.00  0.00    -0.200 F 
ENDBRANCH  46  70
BRANCH  58  81
ATOM     81  C   UNL     1     -13.234  10.578   2.229  1.00  0.00     0.064 A 
ATOM     82  C   UNL     1     -14.126  10.837   3.280  1.00  0.00     0.173 A 
ATOM     83  C   UNL     1     -13.117  11.534   1.210  1.00  0.00     0.173 A 
ATOM     84  F   UNL     1     -14.283   9.943   4.268  1.00  0.00    -0.203 F 
ATOM     85  C   UNL     1     -14.887  12.002   3.298  1.00  0.00     0.198 A 
ATOM     86  C   UNL     1     -13.863  12.708   1.243  1.00  0.00     0.198 A 
ATOM     87  F   UNL     1     -12.274  11.331   0.186  1.00  0.00    -0.203 F 
ATOM     88  F   UNL     1     -15.762  12.213   4.290  1.00  0.00    -0.200 F 
ATOM     89  C   UNL     1     -14.751  12.938   2.283  1.00  0.00     0.200 A 
ATOM     90  F   UNL     1     -13.726  13.615   0.266  1.00  0.00    -0.200 F 
ATOM     91  F   UNL     1     -15.483  14.061   2.303  1.00  0.00    -0.200 F 
ENDBRANCH  58  81
ENDBRANCH  32  33
ENDBRANCH  25  27
ENDBRANCH  24  25
ENDBRANCH  23  24
ENDBRANCH   1  23
TORSDOF 14
