REMARK SMILES O=C(OCCOC(=O)[C@H](CCCCl)[P@TB4](=O)(c1ccccc1)c1ccccc1)c1ccc(-c2c3nc(c(-c4c(F)c(F)c(F)c(F)c4F)c4ccc([nH]4)c(-c4c(F)c(F)c(F)c(F)c4F)c4nc(c(-c5c(F)c(F)c(F)c(F)c5F)c5ccc2[nH]5)C=C4)C=C3)cc1
REMARK SMILES IDX 5 1 4 2 3 3 2 4 1 5 28 6 29 7 90 8 30 9 89 10 31 11 32 12
REMARK SMILES IDX 33 13 83 14 34 15 88 16 82 17 84 18 35 19 87 20 81 21 80 22
REMARK SMILES IDX 36 24 68 25 48 26 67 27 49 28 52 29 66 30 85 31 50 32 51 33
REMARK SMILES IDX 65 35 86 36 53 37 37 38 38 39 46 40 39 41 40 42 44 43 47 44
REMARK SMILES IDX 41 45 42 46 45 47 43 48 69 49 70 50 78 51 71 52 72 53 76 54
REMARK SMILES IDX 79 55 73 56 74 57 77 58 75 59 54 60 55 61 63 62 56 63 57 64
REMARK SMILES IDX 61 65 64 66 58 67 59 68 62 69 60 70 6 71 7 72 8 73 9 74
REMARK SMILES IDX 10 75 11 76 12 77 13 78 14 79 15 80 16 81 17 82 21 83 18 84
REMARK SMILES IDX 20 85 19 86 22 87 23 88 27 89 24 90 26 91 25 92
REMARK H PARENT 84 23 52 34
REMARK Flexibility Score: inf
ROOT
ATOM      1  C   UNL     1       4.373   0.980   1.402  1.00  0.00       nan C 
ENDROOT
BRANCH   1   2
ATOM      2  C   UNL     1       4.362   1.606  -0.004  1.00  0.00       nan C 
BRANCH   2   3
ATOM      3  O   UNL     1       3.428   1.072  -0.960  1.00  0.00       nan OA
BRANCH   3   4
ATOM      4  C   UNL     1       3.524  -0.022  -1.753  1.00  0.00       nan C 
ATOM      5  O   UNL     1       2.653  -0.240  -2.591  1.00  0.00       nan OA
BRANCH   4   6
ATOM      6  C   UNL     1       4.527  -1.095  -1.485  1.00  0.00       nan A 
ATOM      7  C   UNL     1       5.783  -0.947  -0.914  1.00  0.00       nan A 
ATOM      8  C   UNL     1       4.117  -2.396  -1.744  1.00  0.00       nan A 
ATOM      9  C   UNL     1       6.404  -2.039  -0.281  1.00  0.00       nan A 
ATOM     10  C   UNL     1       4.730  -3.465  -1.079  1.00  0.00       nan A 
ATOM     11  C   UNL     1       5.749  -3.278  -0.132  1.00  0.00       nan A 
BRANCH  11  12
ATOM     12  C   UNL     1       6.249  -4.607   0.881  1.00  0.00       inf A 
ATOM     13  C   UNL     1       6.592  -5.686  -0.616  1.00  0.00     0.074 A 
ATOM     14  C   UNL     1       6.604  -4.963   2.692  1.00  0.00     0.049 A 
ATOM     15  N   UNL     1       6.776  -7.001  -0.654  1.00  0.00    -0.248 NA
ATOM     16  C   UNL     1       6.769  -5.135  -1.986  1.00  0.00     0.031 C 
ATOM     17  C   UNL     1       6.556  -4.229   4.169  1.00  0.00     0.029 A 
ATOM     18  N   UNL     1       7.210  -6.203   3.439  1.00  0.00    -0.354 N 
ATOM     19  C   UNL     1       7.161  -7.372  -1.898  1.00  0.00     0.074 A 
ATOM     20  C   UNL     1       6.881  -6.234  -2.736  1.00  0.00     0.031 C 
ATOM     21  C   UNL     1       6.654  -5.074   5.214  1.00  0.00     0.029 A 
ATOM     22  C   UNL     1       6.929  -6.385   4.744  1.00  0.00     0.049 A 
ATOM     23  H   UNL     1       7.787  -6.840   2.960  1.00  0.00     0.167 HD
ATOM     24  C   UNL     1       7.869  -8.483  -2.210  1.00  0.00     0.037 A 
ATOM     25  C   UNL     1       6.927  -7.569   5.375  1.00  0.00     0.037 A 
ATOM     26  C   UNL     1       8.377  -9.444  -1.238  1.00  0.00     0.049 A 
ATOM     27  C   UNL     1       7.474  -8.776   4.641  1.00  0.00     0.074 A 
ATOM     28  C   UNL     1       9.222 -10.511  -1.486  1.00  0.00     0.029 A 
ATOM     29  N   UNL     1       8.164  -9.433   0.153  1.00  0.00    -0.354 N 
ATOM     30  N   UNL     1       7.720  -8.959   3.358  1.00  0.00    -0.248 NA
ATOM     31  C   UNL     1       7.883  -9.886   5.500  1.00  0.00     0.031 C 
ATOM     32  C   UNL     1       9.494 -11.153  -0.274  1.00  0.00     0.029 A 
ATOM     33  C   UNL     1       8.858 -10.480   0.765  1.00  0.00     0.049 A 
ATOM     34  H   UNL     1       7.604  -8.778   0.629  1.00  0.00     0.167 HD
ATOM     35  C   UNL     1       8.381 -10.181   3.256  1.00  0.00     0.074 A 
ATOM     36  C   UNL     1       8.483 -10.678   4.625  1.00  0.00     0.031 C 
ATOM     37  C   UNL     1       8.902 -10.838   2.180  1.00  0.00     0.037 A 
BRANCH  24  38
ATOM     38  C   UNL     1       8.236  -8.623  -3.656  1.00  0.00     0.064 A 
ATOM     39  C   UNL     1       9.082  -7.697  -4.289  1.00  0.00     0.173 A 
ATOM     40  C   UNL     1       7.696  -9.655  -4.435  1.00  0.00     0.173 A 
ATOM     41  F   UNL     1       9.640  -6.699  -3.585  1.00  0.00    -0.203 F 
ATOM     42  C   UNL     1       9.289  -7.737  -5.663  1.00  0.00     0.198 A 
ATOM     43  C   UNL     1       7.945  -9.721  -5.804  1.00  0.00     0.198 A 
ATOM     44  F   UNL     1       6.913 -10.590  -3.875  1.00  0.00    -0.203 F 
ATOM     45  F   UNL     1      10.006  -6.773  -6.256  1.00  0.00    -0.200 F 
ATOM     46  C   UNL     1       8.719  -8.747  -6.420  1.00  0.00     0.200 A 
ATOM     47  F   UNL     1       7.417 -10.713  -6.533  1.00  0.00    -0.200 F 
ATOM     48  F   UNL     1       8.903  -8.774  -7.747  1.00  0.00    -0.200 F 
ENDBRANCH  24  38
BRANCH  25  49
ATOM     49  C   UNL     1       6.477  -7.626   6.774  1.00  0.00     0.064 A 
ATOM     50  C   UNL     1       7.376  -7.381   7.815  1.00  0.00     0.173 A 
ATOM     51  C   UNL     1       5.132  -7.845   7.093  1.00  0.00     0.173 A 
ATOM     52  F   UNL     1       8.676  -7.202   7.542  1.00  0.00    -0.203 F 
ATOM     53  C   UNL     1       6.941  -7.321   9.133  1.00  0.00     0.198 A 
ATOM     54  C   UNL     1       4.697  -7.784   8.415  1.00  0.00     0.198 A 
ATOM     55  F   UNL     1       4.236  -8.082   6.123  1.00  0.00    -0.203 F 
ATOM     56  F   UNL     1       7.819  -7.073  10.113  1.00  0.00    -0.200 F 
ATOM     57  C   UNL     1       5.599  -7.508   9.432  1.00  0.00     0.200 A 
ATOM     58  F   UNL     1       3.398  -7.949   8.702  1.00  0.00    -0.200 F 
ATOM     59  F   UNL     1       5.175  -7.411  10.699  1.00  0.00    -0.200 F 
ENDBRANCH  25  49
BRANCH  37  60
ATOM     60  C   UNL     1       9.702 -12.081   2.528  1.00  0.00     0.064 A 
ATOM     61  C   UNL     1       9.092 -13.266   2.970  1.00  0.00     0.173 A 
ATOM     62  C   UNL     1      11.105 -12.066   2.437  1.00  0.00     0.173 A 
ATOM     63  F   UNL     1       7.759 -13.325   3.110  1.00  0.00    -0.203 F 
ATOM     64  C   UNL     1       9.856 -14.369   3.349  1.00  0.00     0.198 A 
ATOM     65  C   UNL     1      11.862 -13.187   2.771  1.00  0.00     0.198 A 
ATOM     66  F   UNL     1      11.743 -10.964   2.016  1.00  0.00    -0.203 F 
ATOM     67  F   UNL     1       9.255 -15.457   3.850  1.00  0.00    -0.200 F 
ATOM     68  C   UNL     1      11.238 -14.332   3.241  1.00  0.00     0.200 A 
ATOM     69  F   UNL     1      13.196 -13.154   2.648  1.00  0.00    -0.200 F 
ATOM     70  F   UNL     1      11.970 -15.393   3.607  1.00  0.00    -0.200 F 
ENDBRANCH  37  60
ENDBRANCH  11  12
ENDBRANCH   4   6
ENDBRANCH   3   4
ENDBRANCH   2   3
ENDBRANCH   1   2
BRANCH   1  71
ATOM     71  O   UNL     1       4.178  -0.446   1.481  1.00  0.00       nan OA
BRANCH  71  72
ATOM     72  C   UNL     1       2.875  -0.814   1.410  1.00  0.00       nan C 
ATOM     73  O   UNL     1       1.963  -0.010   1.234  1.00  0.00       nan OA
BRANCH  72  74
ATOM     74  C   UNL     1       2.622  -2.266   1.727  1.00  0.00       nan C 
BRANCH  74  75
ATOM     75  C   UNL     1       1.572  -3.013   0.826  1.00  0.00       nan C 
BRANCH  75  76
ATOM     76  C   UNL     1       2.144  -4.169   0.049  1.00  0.00       nan C 
BRANCH  76  77
ATOM     77  C   UNL     1       1.820  -5.604   0.402  1.00  0.00       nan C 
ATOM     78  Cl  UNL     1       0.439  -6.220  -0.512  1.00  0.00       nan Cl
ENDBRANCH  76  77
ENDBRANCH  75  76
ENDBRANCH  74  75
BRANCH  74  79
ATOM     79  P   UNL     1       3.232  -2.825   3.359  1.00  0.00       nan P 
ATOM     80  O   UNL     1       2.104  -3.892   3.365  1.00  0.00       nan OA
BRANCH  79  81
ATOM     81  C   UNL     1       4.885  -3.742   2.358  1.00  0.00       nan A 
ATOM     82  C   UNL     1       4.700  -5.539   2.037  1.00  0.00       nan A 
ATOM     83  C   UNL     1       6.557  -2.942   2.174  1.00  0.00       nan A 
ATOM     84  C   UNL     1       6.142  -6.565   1.525  1.00  0.00       nan A 
ATOM     85  C   UNL     1       8.050  -3.941   1.653  1.00  0.00       nan A 
ATOM     86  C   UNL     1       7.870  -5.765   1.318  1.00  0.00       nan A 
ENDBRANCH  79  81
BRANCH  79  87
ATOM     87  C   UNL     1       3.842  -3.384   4.991  1.00  0.00       nan A 
ATOM     88  C   UNL     1       3.430  -4.599   5.569  1.00  0.00       nan A 
ATOM     89  C   UNL     1       4.381  -2.397   5.842  1.00  0.00       nan A 
ATOM     90  C   UNL     1       3.520  -4.803   6.946  1.00  0.00       nan A 
ATOM     91  C   UNL     1       4.530  -2.634   7.212  1.00  0.00       nan A 
ATOM     92  C   UNL     1       4.086  -3.833   7.766  1.00  0.00       nan A 
ENDBRANCH  79  87
ENDBRANCH  74  79
ENDBRANCH  72  74
ENDBRANCH  71  72
ENDBRANCH   1  71
TORSDOF 17
