REMARK SMILES CC[C@]1(C(=O)OCCOC(=O)c2ccc(-c3c4nc(c(-c5c(F)c(F)c(F)c(F)c5F)c5ccc([nH]5)c(-c5c(F)c(F)c(F)c(F)c5F)c5nc(c(-c6c(F)c(F)c(F)c(F)c6F)c6ccc3[nH]6)C=C5)C=C4)cc2)CCN(C(=O)[C@]2(C)CCCO2)C1
REMARK SMILES IDX 7 1 6 2 4 3 5 4 3 5 75 6 86 7 76 8 77 9 2 10 1 11 78 12
REMARK SMILES IDX 79 13 80 14 82 15 85 16 81 17 83 18 84 19 8 20 9 21 10 22
REMARK SMILES IDX 11 23 12 24 13 25 74 26 14 27 73 28 15 29 16 30 17 31 67 32
REMARK SMILES IDX 18 33 72 34 66 35 68 36 19 37 71 38 65 39 64 40 20 42 52 43
REMARK SMILES IDX 32 44 51 45 33 46 36 47 50 48 69 49 34 50 35 51 49 53 70 54
REMARK SMILES IDX 37 55 21 56 22 57 30 58 23 59 24 60 28 61 31 62 25 63 26 64
REMARK SMILES IDX 29 65 27 66 53 67 54 68 62 69 55 70 56 71 60 72 63 73 57 74
REMARK SMILES IDX 58 75 61 76 59 77 38 78 39 79 47 80 40 81 41 82 45 83 48 84
REMARK SMILES IDX 42 85 43 86 46 87 44 88
REMARK H PARENT 68 41 36 52
REMARK Flexibility Score: inf
ROOT
ATOM      1  C   UNL     1      -3.042 -11.643   3.276  1.00  0.00     0.274 C 
ENDROOT
BRANCH   1   2
ATOM      2  O   UNL     1      -2.356 -11.096   2.130  1.00  0.00    -0.462 OA
BRANCH   2   3
ATOM      3  C   UNL     1      -1.007 -11.264   2.059  1.00  0.00     0.314 C 
ATOM      4  O   UNL     1      -0.346 -11.820   2.925  1.00  0.00    -0.252 OA
BRANCH   3   5
ATOM      5  C   UNL     1      -0.403 -10.629   0.802  1.00  0.00     0.087 C 
ATOM      6  C   UNL     1      -1.462 -10.279  -0.273  1.00  0.00     0.042 C 
ATOM      7  C   UNL     1       0.125  -9.246   1.202  1.00  0.00     0.138 C 
ATOM      8  C   UNL     1      -0.877  -9.066  -0.971  1.00  0.00     0.121 C 
ATOM      9  N   UNL     1      -0.173  -8.364   0.083  1.00  0.00    -0.339 N 
BRANCH   5  10
ATOM     10  C   UNL     1       0.680 -11.514   0.121  1.00  0.00     0.017 C 
ATOM     11  C   UNL     1       1.914 -11.886   0.933  1.00  0.00     0.005 C 
ENDBRANCH   5  10
BRANCH   9  12
ATOM     12  C   UNL     1       0.254  -7.053   0.099  1.00  0.00     0.254 C 
ATOM     13  O   UNL     1       0.906  -6.631   1.060  1.00  0.00    -0.272 OA
BRANCH  12  14
ATOM     14  C   UNL     1      -0.201  -6.093  -1.042  1.00  0.00     0.144 C 
ATOM     15  C   UNL     1      -1.647  -5.631  -0.795  1.00  0.00     0.048 C 
ATOM     16  O   UNL     1      -0.173  -6.673  -2.355  1.00  0.00    -0.365 OA
ATOM     17  C   UNL     1       0.745  -4.882  -1.067  1.00  0.00     0.053 C 
ATOM     18  C   UNL     1      -2.397  -5.963  -2.066  1.00  0.00     0.032 C 
ATOM     19  C   UNL     1      -1.306  -6.193  -3.083  1.00  0.00     0.162 C 
ENDBRANCH  12  14
ENDBRANCH   9  12
ENDBRANCH   3   5
ENDBRANCH   2   3
ENDBRANCH   1   2
BRANCH   1  20
ATOM     20  C   UNL     1      -3.880 -12.841   2.840  1.00  0.00     0.275 C 
BRANCH  20  21
ATOM     21  O   UNL     1      -2.987 -13.856   2.351  1.00  0.00    -0.458 OA
BRANCH  21  22
ATOM     22  C   UNL     1      -3.346 -14.474   1.205  1.00  0.00     0.338 C 
ATOM     23  O   UNL     1      -4.408 -14.374   0.608  1.00  0.00    -0.246 OA
BRANCH  22  24
ATOM     24  C   UNL     1      -2.212 -15.282   0.716  1.00  0.00     0.060 A 
ATOM     25  C   UNL     1      -0.928 -14.741   0.722  1.00  0.00     0.016 A 
ATOM     26  C   UNL     1      -2.428 -16.535   0.145  1.00  0.00     0.016 A 
ATOM     27  C   UNL     1       0.114 -15.394   0.069  1.00  0.00     0.010 A 
ATOM     28  C   UNL     1      -1.351 -17.244  -0.406  1.00  0.00     0.010 A 
ATOM     29  C   UNL     1      -0.070 -16.666  -0.491  1.00  0.00    -0.014 A 
BRANCH  29  30
ATOM     30  C   UNL     1       1.056 -17.349  -1.200  1.00  0.00     0.031 A 
ATOM     31  C   UNL     1       0.890 -17.821  -2.624  1.00  0.00     0.074 A 
ATOM     32  C   UNL     1       2.253 -17.516  -0.600  1.00  0.00     0.049 A 
ATOM     33  N   UNL     1       1.682 -18.577  -3.346  1.00  0.00    -0.248 NA
ATOM     34  C   UNL     1      -0.332 -17.401  -3.326  1.00  0.00     0.031 C 
ATOM     35  C   UNL     1       2.593 -17.083   0.756  1.00  0.00     0.029 A 
ATOM     36  N   UNL     1       3.421 -18.073  -1.066  1.00  0.00    -0.354 N 
ATOM     37  C   UNL     1       1.017 -18.790  -4.547  1.00  0.00     0.074 A 
ATOM     38  C   UNL     1      -0.237 -18.071  -4.466  1.00  0.00     0.031 C 
ATOM     39  C   UNL     1       3.894 -17.316   0.983  1.00  0.00     0.029 A 
ATOM     40  C   UNL     1       4.460 -18.009  -0.169  1.00  0.00     0.049 A 
ATOM     41  H   UNL     1       3.505 -18.480  -1.959  1.00  0.00     0.167 HD
ATOM     42  C   UNL     1       1.412 -19.521  -5.617  1.00  0.00     0.037 A 
ATOM     43  C   UNL     1       5.719 -18.483  -0.242  1.00  0.00     0.037 A 
ATOM     44  C   UNL     1       2.695 -20.165  -5.741  1.00  0.00     0.049 A 
ATOM     45  C   UNL     1       6.145 -19.267  -1.451  1.00  0.00     0.074 A 
ATOM     46  C   UNL     1       3.184 -20.924  -6.791  1.00  0.00     0.029 A 
ATOM     47  N   UNL     1       3.706 -20.097  -4.795  1.00  0.00    -0.354 N 
ATOM     48  N   UNL     1       5.466 -19.548  -2.535  1.00  0.00    -0.248 NA
ATOM     49  C   UNL     1       7.504 -19.827  -1.429  1.00  0.00     0.031 C 
ATOM     50  C   UNL     1       4.485 -21.330  -6.473  1.00  0.00     0.029 A 
ATOM     51  C   UNL     1       4.817 -20.798  -5.238  1.00  0.00     0.049 A 
ATOM     52  H   UNL     1       3.644 -19.621  -3.935  1.00  0.00     0.167 HD
ATOM     53  C   UNL     1       6.306 -20.327  -3.317  1.00  0.00     0.074 A 
ATOM     54  C   UNL     1       7.561 -20.441  -2.603  1.00  0.00     0.031 C 
ATOM     55  C   UNL     1       6.054 -20.913  -4.513  1.00  0.00     0.037 A 
BRANCH  42  56
ATOM     56  C   UNL     1       0.430 -19.699  -6.737  1.00  0.00     0.064 A 
ATOM     57  C   UNL     1       0.140 -18.671  -7.644  1.00  0.00     0.173 A 
ATOM     58  C   UNL     1      -0.200 -20.940  -6.926  1.00  0.00     0.173 A 
ATOM     59  F   UNL     1       0.703 -17.462  -7.497  1.00  0.00    -0.203 F 
ATOM     60  C   UNL     1      -0.761 -18.872  -8.688  1.00  0.00     0.198 A 
ATOM     61  C   UNL     1      -1.080 -21.145  -7.984  1.00  0.00     0.198 A 
ATOM     62  F   UNL     1       0.048 -21.958  -6.088  1.00  0.00    -0.203 F 
ATOM     63  F   UNL     1      -1.056 -17.864  -9.520  1.00  0.00    -0.200 F 
ATOM     64  C   UNL     1      -1.364 -20.110  -8.861  1.00  0.00     0.200 A 
ATOM     65  F   UNL     1      -1.653 -22.344  -8.155  1.00  0.00    -0.200 F 
ATOM     66  F   UNL     1      -2.225 -20.302  -9.870  1.00  0.00    -0.200 F 
ENDBRANCH  42  56
BRANCH  43  67
ATOM     67  C   UNL     1       6.659 -18.264   0.888  1.00  0.00     0.064 A 
ATOM     68  C   UNL     1       7.764 -17.413   0.749  1.00  0.00     0.173 A 
ATOM     69  C   UNL     1       6.471 -18.895   2.126  1.00  0.00     0.173 A 
ATOM     70  F   UNL     1       8.004 -16.813  -0.426  1.00  0.00    -0.203 F 
ATOM     71  C   UNL     1       8.648 -17.205   1.806  1.00  0.00     0.198 A 
ATOM     72  C   UNL     1       7.338 -18.662   3.191  1.00  0.00     0.198 A 
ATOM     73  F   UNL     1       5.432 -19.724   2.307  1.00  0.00    -0.203 F 
ATOM     74  F   UNL     1       9.719 -16.417   1.636  1.00  0.00    -0.200 F 
ATOM     75  C   UNL     1       8.428 -17.822   3.029  1.00  0.00     0.200 A 
ATOM     76  F   UNL     1       7.114 -19.250   4.374  1.00  0.00    -0.200 F 
ATOM     77  F   UNL     1       9.272 -17.612   4.048  1.00  0.00    -0.200 F 
ENDBRANCH  43  67
BRANCH  55  78
ATOM     78  C   UNL     1       7.158 -21.727  -5.116  1.00  0.00     0.064 A 
ATOM     79  C   UNL     1       7.485 -22.994  -4.611  1.00  0.00     0.173 A 
ATOM     80  C   UNL     1       7.891 -21.241  -6.207  1.00  0.00     0.173 A 
ATOM     81  F   UNL     1       6.822 -23.492  -3.557  1.00  0.00    -0.203 F 
ATOM     82  C   UNL     1       8.527 -23.735  -5.162  1.00  0.00     0.198 A 
ATOM     83  C   UNL     1       8.918 -21.994  -6.769  1.00  0.00     0.198 A 
ATOM     84  F   UNL     1       7.614 -20.036  -6.726  1.00  0.00    -0.203 F 
ATOM     85  F   UNL     1       8.854 -24.923  -4.635  1.00  0.00    -0.200 F 
ATOM     86  C   UNL     1       9.240 -23.236  -6.242  1.00  0.00     0.200 A 
ATOM     87  F   UNL     1       9.604 -21.515  -7.816  1.00  0.00    -0.200 F 
ATOM     88  F   UNL     1      10.247 -23.948  -6.767  1.00  0.00    -0.200 F 
ENDBRANCH  55  78
ENDBRANCH  29  30
ENDBRANCH  22  24
ENDBRANCH  21  22
ENDBRANCH  20  21
ENDBRANCH   1  20
TORSDOF 14
