REMARK SMILES C[C@H](C[N@@H+](C)[C@@H](C)[C@@H](C)O)C(=O)OCCOC(=O)c1ccc(-c2c3nc(c(-c4c(F)c(F)c(F)c(F)c4F)c4ccc([nH]4)c(-c4c(F)c(F)c(F)c(F)c4F)c4nc(c(-c5c(F)c(F)c(F)c(F)c5F)c5ccc2[nH]5)C=C4)C=C3)cc1
REMARK SMILES IDX 13 1 11 2 12 3 2 4 1 5 3 6 4 7 5 8 6 10 7 11 8 12 9 13 10 14
REMARK SMILES IDX 14 16 15 17 16 18 17 19 18 20 19 21 20 22 81 23 21 24 80 25
REMARK SMILES IDX 22 26 23 27 24 28 74 29 25 30 79 31 73 32 75 33 26 34 78 35
REMARK SMILES IDX 72 36 71 37 27 39 59 40 39 41 58 42 40 43 43 44 57 45 76 46
REMARK SMILES IDX 41 47 42 48 56 50 77 51 44 52 28 53 29 54 37 55 30 56 31 57
REMARK SMILES IDX 35 58 38 59 32 60 33 61 36 62 34 63 60 64 61 65 69 66 62 67
REMARK SMILES IDX 63 68 67 69 70 70 64 71 65 72 68 73 66 74 45 75 46 76 54 77
REMARK SMILES IDX 47 78 48 79 52 80 55 81 49 82 50 83 53 84 51 85
REMARK H PARENT 4 9 10 15 75 38 43 49
REMARK Flexibility Score: inf
ROOT
ATOM      1  O   UNL     1      -1.950  -0.317   1.028  1.00  0.00    -0.462 OA
ENDROOT
BRANCH   1   2
ATOM      2  C   UNL     1      -1.067  -0.436   2.046  1.00  0.00     0.314 C 
ATOM      3  O   UNL     1      -1.369  -0.750   3.192  1.00  0.00    -0.252 OA
BRANCH   2   4
ATOM      4  C   UNL     1       0.368  -0.157   1.610  1.00  0.00     0.151 C 
ATOM      5  C   UNL     1       1.093   0.713   2.634  1.00  0.00     0.026 C 
BRANCH   4   6
ATOM      6  C   UNL     1       0.591   0.278   0.140  1.00  0.00     0.277 C 
BRANCH   6   7
ATOM      7  N   UNL     1       0.598   1.712  -0.247  1.00  0.00    -0.332 N 
ATOM      8  C   UNL     1       1.329   1.838  -1.524  1.00  0.00     0.333 C 
ATOM      9  H   UNL     1       1.048   2.195   0.530  1.00  0.00     0.348 HD
BRANCH   7  10
ATOM     10  C   UNL     1      -0.725   2.390  -0.368  1.00  0.00     0.209 C 
ATOM     11  C   UNL     1      -1.716   1.714  -1.336  1.00  0.00     0.078 C 
BRANCH  10  12
ATOM     12  C   UNL     1      -1.352   2.806   0.999  1.00  0.00     0.169 C 
ATOM     13  C   UNL     1      -0.496   3.822   1.754  1.00  0.00     0.045 C 
BRANCH  12  14
ATOM     14  O   UNL     1      -2.659   3.367   0.835  1.00  0.00    -0.387 OA
ATOM     15  H   UNL     1      -2.596   4.186   0.318  1.00  0.00     0.211 HD
ENDBRANCH  12  14
ENDBRANCH  10  12
ENDBRANCH   7  10
ENDBRANCH   6   7
ENDBRANCH   4   6
ENDBRANCH   2   4
ENDBRANCH   1   2
BRANCH   1  16
ATOM     16  C   UNL     1      -3.360  -0.401   1.325  1.00  0.00     0.274 C 
BRANCH  16  17
ATOM     17  C   UNL     1      -4.067  -1.178   0.213  1.00  0.00     0.275 C 
BRANCH  17  18
ATOM     18  O   UNL     1      -3.633  -2.548   0.251  1.00  0.00    -0.458 OA
BRANCH  18  19
ATOM     19  C   UNL     1      -2.523  -2.807  -0.479  1.00  0.00     0.338 C 
ATOM     20  O   UNL     1      -2.000  -2.117  -1.334  1.00  0.00    -0.246 OA
BRANCH  19  21
ATOM     21  C   UNL     1      -1.871  -3.978   0.117  1.00  0.00     0.060 A 
ATOM     22  C   UNL     1      -0.623  -3.780   0.713  1.00  0.00     0.016 A 
ATOM     23  C   UNL     1      -2.465  -5.237   0.093  1.00  0.00     0.016 A 
ATOM     24  C   UNL     1       0.046  -4.842   1.302  1.00  0.00     0.010 A 
ATOM     25  C   UNL     1      -1.787  -6.310   0.670  1.00  0.00     0.010 A 
ATOM     26  C   UNL     1      -0.528  -6.116   1.268  1.00  0.00    -0.014 A 
BRANCH  26  27
ATOM     27  C   UNL     1       0.237  -7.274   1.772  1.00  0.00     0.031 A 
ATOM     28  C   UNL     1       0.864  -8.206   0.781  1.00  0.00     0.074 A 
ATOM     29  C   UNL     1       0.365  -7.468   3.096  1.00  0.00     0.049 A 
ATOM     30  N   UNL     1       1.432  -9.366   0.975  1.00  0.00    -0.248 NA
ATOM     31  C   UNL     1       0.839  -7.773  -0.626  1.00  0.00     0.031 C 
ATOM     32  C   UNL     1      -0.152  -6.576   4.134  1.00  0.00     0.029 A 
ATOM     33  N   UNL     1       0.961  -8.487   3.793  1.00  0.00    -0.354 N 
ATOM     34  C   UNL     1       1.804  -9.816  -0.284  1.00  0.00     0.074 A 
ATOM     35  C   UNL     1       1.391  -8.810  -1.238  1.00  0.00     0.031 C 
ATOM     36  C   UNL     1       0.135  -7.096   5.339  1.00  0.00     0.029 A 
ATOM     37  C   UNL     1       0.805  -8.379   5.153  1.00  0.00     0.049 A 
ATOM     38  H   UNL     1       1.451  -9.223   3.362  1.00  0.00     0.167 HD
ATOM     39  C   UNL     1       2.433 -10.970  -0.604  1.00  0.00     0.037 A 
ATOM     40  C   UNL     1       1.131  -9.247   6.129  1.00  0.00     0.037 A 
ATOM     41  C   UNL     1       2.843 -11.948   0.369  1.00  0.00     0.049 A 
ATOM     42  C   UNL     1       1.783 -10.548   5.739  1.00  0.00     0.074 A 
ATOM     43  C   UNL     1       3.472 -13.162   0.167  1.00  0.00     0.029 A 
ATOM     44  N   UNL     1       2.663 -11.811   1.740  1.00  0.00    -0.354 N 
ATOM     45  N   UNL     1       2.100 -10.991   4.545  1.00  0.00    -0.248 NA
ATOM     46  C   UNL     1       2.115 -11.473   6.830  1.00  0.00     0.031 C 
ATOM     47  C   UNL     1       3.642 -13.777   1.413  1.00  0.00     0.029 A 
ATOM     48  C   UNL     1       3.161 -12.924   2.396  1.00  0.00     0.049 A 
ATOM     49  H   UNL     1       2.244 -11.037   2.180  1.00  0.00     0.167 HD
ATOM     50  C   UNL     1       2.684 -12.234   4.740  1.00  0.00     0.074 A 
ATOM     51  C   UNL     1       2.699 -12.463   6.171  1.00  0.00     0.031 C 
ATOM     52  C   UNL     1       3.160 -13.113   3.824  1.00  0.00     0.037 A 
BRANCH  39  53
ATOM     53  C   UNL     1       2.679 -11.249  -2.058  1.00  0.00     0.064 A 
ATOM     54  C   UNL     1       3.636 -10.538  -2.797  1.00  0.00     0.173 A 
ATOM     55  C   UNL     1       1.959 -12.257  -2.718  1.00  0.00     0.173 A 
ATOM     56  F   UNL     1       4.337  -9.550  -2.220  1.00  0.00    -0.203 F 
ATOM     57  C   UNL     1       3.850 -10.813  -4.146  1.00  0.00     0.198 A 
ATOM     58  C   UNL     1       2.194 -12.547  -4.059  1.00  0.00     0.198 A 
ATOM     59  F   UNL     1       1.029 -12.965  -2.059  1.00  0.00    -0.203 F 
ATOM     60  F   UNL     1       4.738 -10.090  -4.843  1.00  0.00    -0.200 F 
ATOM     61  C   UNL     1       3.134 -11.821  -4.774  1.00  0.00     0.200 A 
ATOM     62  F   UNL     1       1.506 -13.527  -4.662  1.00  0.00    -0.200 F 
ATOM     63  F   UNL     1       3.345 -12.088  -6.070  1.00  0.00    -0.200 F 
ENDBRANCH  39  53
BRANCH  40  64
ATOM     64  C   UNL     1       0.816  -8.935   7.548  1.00  0.00     0.064 A 
ATOM     65  C   UNL     1       1.834  -8.717   8.486  1.00  0.00     0.173 A 
ATOM     66  C   UNL     1      -0.511  -8.861   8.000  1.00  0.00     0.173 A 
ATOM     67  F   UNL     1       3.119  -8.801   8.111  1.00  0.00    -0.203 F 
ATOM     68  C   UNL     1       1.538  -8.457   9.823  1.00  0.00     0.198 A 
ATOM     69  C   UNL     1      -0.806  -8.569   9.330  1.00  0.00     0.198 A 
ATOM     70  F   UNL     1      -1.525  -9.063   7.145  1.00  0.00    -0.203 F 
ATOM     71  F   UNL     1       2.533  -8.303  10.709  1.00  0.00    -0.200 F 
ATOM     72  C   UNL     1       0.219  -8.377  10.243  1.00  0.00     0.200 A 
ATOM     73  F   UNL     1      -2.082  -8.481   9.728  1.00  0.00    -0.200 F 
ATOM     74  F   UNL     1      -0.064  -8.124  11.528  1.00  0.00    -0.200 F 
ENDBRANCH  40  64
BRANCH  52  75
ATOM     75  C   UNL     1       3.760 -14.381   4.356  1.00  0.00     0.064 A 
ATOM     76  C   UNL     1       2.964 -15.397   4.903  1.00  0.00     0.173 A 
ATOM     77  C   UNL     1       5.147 -14.586   4.298  1.00  0.00     0.173 A 
ATOM     78  F   UNL     1       1.635 -15.238   4.993  1.00  0.00    -0.203 F 
ATOM     79  C   UNL     1       3.538 -16.561   5.405  1.00  0.00     0.198 A 
ATOM     80  C   UNL     1       5.714 -15.764   4.773  1.00  0.00     0.198 A 
ATOM     81  F   UNL     1       5.949 -13.646   3.777  1.00  0.00    -0.203 F 
ATOM     82  F   UNL     1       2.765 -17.495   5.974  1.00  0.00    -0.200 F 
ATOM     83  C   UNL     1       4.911 -16.745   5.334  1.00  0.00     0.200 A 
ATOM     84  F   UNL     1       7.039 -15.947   4.693  1.00  0.00    -0.200 F 
ATOM     85  F   UNL     1       5.462 -17.867   5.818  1.00  0.00    -0.200 F 
ENDBRANCH  52  75
ENDBRANCH  26  27
ENDBRANCH  19  21
ENDBRANCH  18  19
ENDBRANCH  17  18
ENDBRANCH  16  17
ENDBRANCH   1  16
TORSDOF 16
