REMARK SMILES CCc1cc(Nc2ccc(C(=O)OCCOC(=O)c3ccc(-c4c5nc(c(-c6c(F)c(F)c(F)c(F)c6F)c6ccc([nH]6)c(-c6c(F)c(F)c(F)c(F)c6F)c6nc(c(-c7c(F)c(F)c(F)c(F)c7F)c7ccc4[nH]7)C=C6)C=C5)cc3)cc2)nc(C(C)C)n1
REMARK SMILES IDX 14 1 13 2 11 3 12 4 10 5 7 6 8 7 83 8 9 9 82 10 6 11 5 13
REMARK SMILES IDX 3 14 4 15 89 16 85 17 84 18 2 19 1 20 86 21 87 22 88 23
REMARK SMILES IDX 15 24 16 25 17 26 18 27 19 28 20 29 81 30 21 31 80 32 22 33
REMARK SMILES IDX 23 34 24 35 74 36 25 37 79 38 73 39 75 40 26 41 78 42 72 43
REMARK SMILES IDX 71 44 27 46 59 47 39 48 58 49 40 50 43 51 57 52 76 53 41 54
REMARK SMILES IDX 42 55 56 57 77 58 44 59 28 60 29 61 37 62 30 63 31 64 35 65
REMARK SMILES IDX 38 66 32 67 33 68 36 69 34 70 60 71 61 72 69 73 62 74 63 75
REMARK SMILES IDX 67 76 70 77 64 78 65 79 68 80 66 81 45 82 46 83 54 84 47 85
REMARK SMILES IDX 48 86 52 87 55 88 49 89 50 90 53 91 51 92
REMARK H PARENT 6 12 75 45 43 56
REMARK Flexibility Score: inf
ROOT
ATOM      1  C   UNL     1       3.022   4.336 -11.892  1.00  0.00     0.275 C 
ENDROOT
BRANCH   1   2
ATOM      2  O   UNL     1       2.413   4.241 -10.588  1.00  0.00    -0.458 OA
BRANCH   2   3
ATOM      3  C   UNL     1       3.280   4.243  -9.547  1.00  0.00     0.338 C 
ATOM      4  O   UNL     1       4.499   4.285  -9.609  1.00  0.00    -0.246 OA
BRANCH   3   5
ATOM      5  C   UNL     1       2.551   4.268  -8.261  1.00  0.00     0.060 A 
ATOM      6  C   UNL     1       1.394   4.154  -5.708  1.00  0.00     0.040 A 
ATOM      7  C   UNL     1       2.519   4.951  -5.935  1.00  0.00     0.027 A 
ATOM      8  C   UNL     1       0.835   3.445  -6.782  1.00  0.00     0.027 A 
ATOM      9  C   UNL     1       3.108   4.987  -7.197  1.00  0.00     0.018 A 
ATOM     10  C   UNL     1       1.394   3.515  -8.062  1.00  0.00     0.018 A 
BRANCH   6  11
ATOM     11  N   UNL     1       0.986   3.914  -4.380  1.00  0.00    -0.340 N 
ATOM     12  H   UNL     1       0.605   4.662  -3.866  1.00  0.00     0.168 HD
BRANCH  11  13
ATOM     13  C   UNL     1       1.095   2.655  -3.747  1.00  0.00     0.134 A 
ATOM     14  C   UNL     1       0.871   1.285  -1.842  1.00  0.00     0.046 A 
ATOM     15  C   UNL     1       0.704   2.526  -2.430  1.00  0.00     0.071 A 
ATOM     16  N   UNL     1       1.350   0.228  -2.527  1.00  0.00    -0.238 NA
ATOM     17  C   UNL     1       1.687   0.432  -3.811  1.00  0.00     0.133 A 
ATOM     18  N   UNL     1       1.570   1.609  -4.441  1.00  0.00    -0.216 NA
BRANCH  14  19
ATOM     19  C   UNL     1       0.474   1.090  -0.399  1.00  0.00     0.053 C 
ATOM     20  C   UNL     1       1.009  -0.190   0.232  1.00  0.00     0.011 C 
ENDBRANCH  14  19
BRANCH  17  21
ATOM     21  C   UNL     1       2.197  -0.729  -4.632  1.00  0.00     0.051 C 
ATOM     22  C   UNL     1       3.392  -1.408  -3.966  1.00  0.00     0.016 C 
ATOM     23  C   UNL     1       1.070  -1.722  -4.904  1.00  0.00     0.016 C 
ENDBRANCH  17  21
ENDBRANCH  11  13
ENDBRANCH   6  11
ENDBRANCH   3   5
ENDBRANCH   2   3
ENDBRANCH   1   2
BRANCH   1  24
ATOM     24  C   UNL     1       3.092   5.793 -12.347  1.00  0.00     0.275 C 
BRANCH  24  25
ATOM     25  O   UNL     1       3.970   6.530 -11.477  1.00  0.00    -0.458 OA
BRANCH  25  26
ATOM     26  C   UNL     1       3.615   7.812 -11.236  1.00  0.00     0.338 C 
ATOM     27  O   UNL     1       2.680   8.419 -11.730  1.00  0.00    -0.246 OA
BRANCH  26  28
ATOM     28  C   UNL     1       4.534   8.426 -10.251  1.00  0.00     0.060 A 
ATOM     29  C   UNL     1       4.964   7.721  -9.127  1.00  0.00     0.016 A 
ATOM     30  C   UNL     1       4.873   9.772 -10.389  1.00  0.00     0.016 A 
ATOM     31  C   UNL     1       5.628   8.382  -8.089  1.00  0.00     0.010 A 
ATOM     32  C   UNL     1       5.618  10.411  -9.392  1.00  0.00     0.010 A 
ATOM     33  C   UNL     1       5.952   9.742  -8.201  1.00  0.00    -0.014 A 
BRANCH  33  34
ATOM     34  C   UNL     1       6.530  10.498  -7.050  1.00  0.00     0.031 A 
ATOM     35  C   UNL     1       5.793  11.695  -6.500  1.00  0.00     0.074 A 
ATOM     36  C   UNL     1       7.688  10.128  -6.467  1.00  0.00     0.049 A 
ATOM     37  N   UNL     1       6.204  12.615  -5.662  1.00  0.00    -0.248 NA
ATOM     38  C   UNL     1       4.413  11.895  -6.973  1.00  0.00     0.031 C 
ATOM     39  C   UNL     1       8.500   8.972  -6.841  1.00  0.00     0.029 A 
ATOM     40  N   UNL     1       8.377  10.691  -5.418  1.00  0.00    -0.354 N 
ATOM     41  C   UNL     1       5.173  13.544  -5.582  1.00  0.00     0.074 A 
ATOM     42  C   UNL     1       4.107  13.067  -6.437  1.00  0.00     0.031 C 
ATOM     43  C   UNL     1       9.547   8.880  -6.005  1.00  0.00     0.029 A 
ATOM     44  C   UNL     1       9.523  10.012  -5.082  1.00  0.00     0.049 A 
ATOM     45  H   UNL     1       8.076  11.504  -4.951  1.00  0.00     0.167 HD
ATOM     46  C   UNL     1       5.124  14.695  -4.870  1.00  0.00     0.037 A 
ATOM     47  C   UNL     1      10.461  10.282  -4.155  1.00  0.00     0.037 A 
ATOM     48  C   UNL     1       6.137  15.128  -3.946  1.00  0.00     0.049 A 
ATOM     49  C   UNL     1      10.349  11.526  -3.317  1.00  0.00     0.074 A 
ATOM     50  C   UNL     1       6.186  16.289  -3.193  1.00  0.00     0.029 A 
ATOM     51  N   UNL     1       7.262  14.390  -3.614  1.00  0.00    -0.354 N 
ATOM     52  N   UNL     1       9.426  12.455  -3.337  1.00  0.00    -0.248 NA
ATOM     53  C   UNL     1      11.423  11.768  -2.341  1.00  0.00     0.031 C 
ATOM     54  C   UNL     1       7.341  16.253  -2.403  1.00  0.00     0.029 A 
ATOM     55  C   UNL     1       7.997  15.059  -2.649  1.00  0.00     0.049 A 
ATOM     56  H   UNL     1       7.503  13.520  -4.006  1.00  0.00     0.167 HD
ATOM     57  C   UNL     1       9.805  13.388  -2.382  1.00  0.00     0.074 A 
ATOM     58  C   UNL     1      11.028  12.901  -1.779  1.00  0.00     0.031 C 
ATOM     59  C   UNL     1       9.202  14.554  -2.047  1.00  0.00     0.037 A 
BRANCH  46  60
ATOM     60  C   UNL     1       3.943  15.592  -5.089  1.00  0.00     0.064 A 
ATOM     61  C   UNL     1       2.685  15.312  -4.539  1.00  0.00     0.173 A 
ATOM     62  C   UNL     1       4.087  16.769  -5.840  1.00  0.00     0.173 A 
ATOM     63  F   UNL     1       2.494  14.190  -3.829  1.00  0.00    -0.203 F 
ATOM     64  C   UNL     1       1.608  16.169  -4.748  1.00  0.00     0.198 A 
ATOM     65  C   UNL     1       3.014  17.635  -6.028  1.00  0.00     0.198 A 
ATOM     66  F   UNL     1       5.273  17.083  -6.385  1.00  0.00    -0.203 F 
ATOM     67  F   UNL     1       0.404  15.864  -4.245  1.00  0.00    -0.200 F 
ATOM     68  C   UNL     1       1.774  17.332  -5.487  1.00  0.00     0.200 A 
ATOM     69  F   UNL     1       3.180  18.762  -6.734  1.00  0.00    -0.200 F 
ATOM     70  F   UNL     1       0.737  18.159  -5.681  1.00  0.00    -0.200 F 
ENDBRANCH  46  60
BRANCH  47  71
ATOM     71  C   UNL     1      11.605   9.354  -3.972  1.00  0.00     0.064 A 
ATOM     72  C   UNL     1      11.693   8.541  -2.834  1.00  0.00     0.173 A 
ATOM     73  C   UNL     1      12.629   9.258  -4.926  1.00  0.00     0.173 A 
ATOM     74  F   UNL     1      10.752   8.620  -1.881  1.00  0.00    -0.203 F 
ATOM     75  C   UNL     1      12.766   7.672  -2.652  1.00  0.00     0.198 A 
ATOM     76  C   UNL     1      13.688   8.371  -4.755  1.00  0.00     0.198 A 
ATOM     77  F   UNL     1      12.590  10.019  -6.029  1.00  0.00    -0.203 F 
ATOM     78  F   UNL     1      12.845   6.932  -1.538  1.00  0.00    -0.200 F 
ATOM     79  C   UNL     1      13.759   7.582  -3.616  1.00  0.00     0.200 A 
ATOM     80  F   UNL     1      14.642   8.281  -5.692  1.00  0.00    -0.200 F 
ATOM     81  F   UNL     1      14.788   6.741  -3.444  1.00  0.00    -0.200 F 
ENDBRANCH  47  71
BRANCH  59  82
ATOM     82  C   UNL     1       9.839  15.367  -0.964  1.00  0.00     0.064 A 
ATOM     83  C   UNL     1      10.981  16.142  -1.209  1.00  0.00     0.173 A 
ATOM     84  C   UNL     1       9.287  15.391   0.325  1.00  0.00     0.173 A 
ATOM     85  F   UNL     1      11.550  16.139  -2.424  1.00  0.00    -0.203 F 
ATOM     86  C   UNL     1      11.562  16.898  -0.195  1.00  0.00     0.198 A 
ATOM     87  C   UNL     1       9.861  16.161   1.333  1.00  0.00     0.198 A 
ATOM     88  F   UNL     1       8.194  14.667   0.606  1.00  0.00    -0.203 F 
ATOM     89  F   UNL     1      12.674  17.605  -0.440  1.00  0.00    -0.200 F 
ATOM     90  C   UNL     1      11.000  16.910   1.074  1.00  0.00     0.200 A 
ATOM     91  F   UNL     1       9.316  16.174   2.557  1.00  0.00    -0.200 F 
ATOM     92  F   UNL     1      11.562  17.635   2.050  1.00  0.00    -0.200 F 
ENDBRANCH  59  82
ENDBRANCH  33  34
ENDBRANCH  26  28
ENDBRANCH  25  26
ENDBRANCH  24  25
ENDBRANCH   1  24
TORSDOF 15
