REMARK SMILES COc1ccc(NC(=O)[C@@H]2[C@@H](C(=O)OCCOC(=O)c3ccc(-c4c5nc(c(-c6c(F)c(F)c(F)c(F)c6F)c6ccc([nH]6)c(-c6c(F)c(F)c(F)c(F)c6F)c6nc(c(-c7c(F)c(F)c(F)c(F)c7F)c7ccc4[nH]7)C=C6)C=C5)cc3)[C@@H]3CC[C@H]2C3=C(C)C)cc1
REMARK SMILES IDX 15 1 14 2 12 3 13 4 11 5 10 6 86 7 83 8 85 9 87 10 84 11
REMARK SMILES IDX 88 12 89 13 90 14 8 15 7 16 9 18 6 19 3 20 4 21 92 22 5 23
REMARK SMILES IDX 91 24 2 25 1 26 16 27 17 28 18 29 19 30 20 31 21 32 82 33
REMARK SMILES IDX 22 34 81 35 23 36 24 37 25 38 75 39 26 40 80 41 74 42 76 43
REMARK SMILES IDX 27 44 79 45 73 46 72 47 28 49 60 50 40 51 59 52 41 53 44 54
REMARK SMILES IDX 58 55 77 56 42 57 43 58 57 60 78 61 45 62 29 63 30 64 38 65
REMARK SMILES IDX 31 66 32 67 36 68 39 69 33 70 34 71 37 72 35 73 61 74 62 75
REMARK SMILES IDX 70 76 63 77 64 78 68 79 71 80 65 81 66 82 69 83 67 84 46 85
REMARK SMILES IDX 47 86 55 87 48 88 49 89 53 90 56 91 50 92 51 93 54 94 52 95
REMARK H PARENT 7 17 76 48 44 59
REMARK Flexibility Score: inf
ROOT
ATOM      1  C   UNL     1      -2.575  -2.081   5.471  1.00  0.00     0.274 C 
ENDROOT
BRANCH   1   2
ATOM      2  O   UNL     1      -1.469  -3.011   5.553  1.00  0.00    -0.462 OA
BRANCH   2   3
ATOM      3  C   UNL     1      -1.822  -4.268   5.167  1.00  0.00     0.310 C 
ATOM      4  O   UNL     1      -2.891  -4.506   4.619  1.00  0.00    -0.252 OA
BRANCH   3   5
ATOM      5  C   UNL     1      -0.798  -5.340   5.553  1.00  0.00     0.119 C 
ATOM      6  C   UNL     1      -0.117  -5.988   4.323  1.00  0.00     0.101 C 
ATOM      7  C   UNL     1      -0.767  -7.415   4.256  1.00  0.00     0.029 C 
ATOM      8  C   UNL     1      -1.593  -6.515   6.165  1.00  0.00     0.030 C 
ATOM      9  C   UNL     1      -0.258  -8.360   5.351  1.00  0.00     0.009 C 
ATOM     10  C   UNL     1      -2.108  -7.164   4.900  1.00  0.00    -0.064 C 
ATOM     11  C   UNL     1      -0.658  -7.634   6.651  1.00  0.00     0.009 C 
ATOM     12  C   UNL     1      -3.365  -7.429   4.502  1.00  0.00    -0.077 C 
ATOM     13  C   UNL     1      -4.580  -7.043   5.308  1.00  0.00     0.039 C 
ATOM     14  C   UNL     1      -3.669  -8.094   3.190  1.00  0.00     0.039 C 
BRANCH   6  15
ATOM     15  C   UNL     1       1.413  -6.063   4.414  1.00  0.00     0.228 C 
ATOM     16  N   UNL     1       2.122  -5.684   3.302  1.00  0.00    -0.326 N 
ATOM     17  H   UNL     1       2.635  -6.385   2.837  1.00  0.00     0.169 HD
ATOM     18  O   UNL     1       2.008  -6.567   5.364  1.00  0.00    -0.274 OA
BRANCH  16  19
ATOM     19  C   UNL     1       2.183  -4.383   2.766  1.00  0.00     0.041 A 
ATOM     20  C   UNL     1       2.499  -1.817   1.702  1.00  0.00     0.119 A 
ATOM     21  C   UNL     1       1.897  -1.989   2.945  1.00  0.00     0.048 A 
ATOM     22  C   UNL     1       3.005  -2.917   1.013  1.00  0.00     0.048 A 
ATOM     23  C   UNL     1       1.712  -3.271   3.466  1.00  0.00     0.030 A 
ATOM     24  C   UNL     1       2.861  -4.198   1.555  1.00  0.00     0.030 A 
BRANCH  20  25
ATOM     25  O   UNL     1       2.609  -0.537   1.237  1.00  0.00    -0.497 OA
ATOM     26  C   UNL     1       2.056  -0.386  -0.070  1.00  0.00     0.278 C 
ENDBRANCH  20  25
ENDBRANCH  16  19
ENDBRANCH   6  15
ENDBRANCH   3   5
ENDBRANCH   2   3
ENDBRANCH   1   2
BRANCH   1  27
ATOM     27  C   UNL     1      -2.722  -1.400   4.106  1.00  0.00     0.275 C 
BRANCH  27  28
ATOM     28  O   UNL     1      -2.703  -2.350   3.023  1.00  0.00    -0.458 OA
BRANCH  28  29
ATOM     29  C   UNL     1      -1.726  -2.160   2.113  1.00  0.00     0.338 C 
ATOM     30  O   UNL     1      -0.954  -1.206   2.076  1.00  0.00    -0.246 OA
BRANCH  29  31
ATOM     31  C   UNL     1      -1.651  -3.235   1.101  1.00  0.00     0.060 A 
ATOM     32  C   UNL     1      -1.784  -4.583   1.424  1.00  0.00     0.016 A 
ATOM     33  C   UNL     1      -1.277  -2.877  -0.197  1.00  0.00     0.016 A 
ATOM     34  C   UNL     1      -1.405  -5.562   0.499  1.00  0.00     0.010 A 
ATOM     35  C   UNL     1      -1.014  -3.857  -1.158  1.00  0.00     0.010 A 
ATOM     36  C   UNL     1      -1.045  -5.215  -0.814  1.00  0.00    -0.014 A 
BRANCH  36  37
ATOM     37  C   UNL     1      -0.793  -6.264  -1.842  1.00  0.00     0.031 A 
ATOM     38  C   UNL     1       0.516  -6.352  -2.583  1.00  0.00     0.074 A 
ATOM     39  C   UNL     1      -1.776  -7.138  -2.134  1.00  0.00     0.049 A 
ATOM     40  N   UNL     1       0.833  -7.097  -3.614  1.00  0.00    -0.248 NA
ATOM     41  C   UNL     1       1.612  -5.494  -2.109  1.00  0.00     0.031 C 
ATOM     42  C   UNL     1      -3.087  -7.178  -1.484  1.00  0.00     0.029 A 
ATOM     43  N   UNL     1      -1.830  -8.160  -3.049  1.00  0.00    -0.354 N 
ATOM     44  C   UNL     1       2.147  -6.777  -3.933  1.00  0.00     0.074 A 
ATOM     45  C   UNL     1       2.575  -5.773  -2.981  1.00  0.00     0.031 C 
ATOM     46  C   UNL     1      -3.797  -8.196  -1.984  1.00  0.00     0.029 A 
ATOM     47  C   UNL     1      -3.036  -8.816  -3.061  1.00  0.00     0.049 A 
ATOM     48  H   UNL     1      -1.078  -8.399  -3.638  1.00  0.00     0.167 HD
ATOM     49  C   UNL     1       2.916  -7.273  -4.934  1.00  0.00     0.037 A 
ATOM     50  C   UNL     1      -3.511  -9.772  -3.880  1.00  0.00     0.037 A 
ATOM     51  C   UNL     1       2.496  -8.292  -5.864  1.00  0.00     0.049 A 
ATOM     52  C   UNL     1      -2.661 -10.263  -5.009  1.00  0.00     0.074 A 
ATOM     53  C   UNL     1       3.218  -8.873  -6.894  1.00  0.00     0.029 A 
ATOM     54  N   UNL     1       1.242  -8.885  -5.877  1.00  0.00    -0.354 N 
ATOM     55  N   UNL     1      -1.441  -9.913  -5.332  1.00  0.00    -0.248 NA
ATOM     56  C   UNL     1      -3.264 -11.258  -5.905  1.00  0.00     0.031 C 
ATOM     57  C   UNL     1       2.390  -9.790  -7.553  1.00  0.00     0.029 A 
ATOM     58  C   UNL     1       1.164  -9.808  -6.910  1.00  0.00     0.049 A 
ATOM     59  H   UNL     1       0.515  -8.681  -5.246  1.00  0.00     0.167 HD
ATOM     60  C   UNL     1      -1.131 -10.634  -6.474  1.00  0.00     0.074 A 
ATOM     61  C   UNL     1      -2.281 -11.463  -6.772  1.00  0.00     0.031 C 
ATOM     62  C   UNL     1       0.004 -10.603  -7.213  1.00  0.00     0.037 A 
BRANCH  49  63
ATOM     63  C   UNL     1       4.296  -6.709  -5.111  1.00  0.00     0.064 A 
ATOM     64  C   UNL     1       5.359  -7.082  -4.278  1.00  0.00     0.173 A 
ATOM     65  C   UNL     1       4.576  -5.860  -6.194  1.00  0.00     0.173 A 
ATOM     66  F   UNL     1       5.142  -7.884  -3.225  1.00  0.00    -0.203 F 
ATOM     67  C   UNL     1       6.653  -6.623  -4.520  1.00  0.00     0.198 A 
ATOM     68  C   UNL     1       5.873  -5.418  -6.444  1.00  0.00     0.198 A 
ATOM     69  F   UNL     1       3.594  -5.479  -7.025  1.00  0.00    -0.203 F 
ATOM     70  F   UNL     1       7.653  -6.980  -3.702  1.00  0.00    -0.200 F 
ATOM     71  C   UNL     1       6.910  -5.800  -5.607  1.00  0.00     0.200 A 
ATOM     72  F   UNL     1       6.120  -4.632  -7.500  1.00  0.00    -0.200 F 
ATOM     73  F   UNL     1       8.158  -5.374  -5.848  1.00  0.00    -0.200 F 
ENDBRANCH  49  63
BRANCH  50  74
ATOM     74  C   UNL     1      -4.893 -10.271  -3.676  1.00  0.00     0.064 A 
ATOM     75  C   UNL     1      -5.128 -11.550  -3.158  1.00  0.00     0.173 A 
ATOM     76  C   UNL     1      -6.002  -9.450  -3.932  1.00  0.00     0.173 A 
ATOM     77  F   UNL     1      -4.099 -12.376  -2.920  1.00  0.00    -0.203 F 
ATOM     78  C   UNL     1      -6.424 -11.986  -2.891  1.00  0.00     0.198 A 
ATOM     79  C   UNL     1      -7.294  -9.877  -3.638  1.00  0.00     0.198 A 
ATOM     80  F   UNL     1      -5.824  -8.216  -4.426  1.00  0.00    -0.203 F 
ATOM     81  F   UNL     1      -6.627 -13.220  -2.409  1.00  0.00    -0.200 F 
ATOM     82  C   UNL     1      -7.504 -11.145  -3.119  1.00  0.00     0.200 A 
ATOM     83  F   UNL     1      -8.331  -9.053  -3.841  1.00  0.00    -0.200 F 
ATOM     84  F   UNL     1      -8.747 -11.556  -2.836  1.00  0.00    -0.200 F 
ENDBRANCH  50  74
BRANCH  62  85
ATOM     85  C   UNL     1       0.042 -11.489  -8.420  1.00  0.00     0.064 A 
ATOM     86  C   UNL     1      -0.661 -11.156  -9.587  1.00  0.00     0.173 A 
ATOM     87  C   UNL     1       0.776 -12.683  -8.408  1.00  0.00     0.173 A 
ATOM     88  F   UNL     1      -1.395 -10.034  -9.636  1.00  0.00    -0.203 F 
ATOM     89  C   UNL     1      -0.650 -12.001 -10.693  1.00  0.00     0.198 A 
ATOM     90  C   UNL     1       0.802 -13.516  -9.523  1.00  0.00     0.198 A 
ATOM     91  F   UNL     1       1.463 -13.043  -7.314  1.00  0.00    -0.203 F 
ATOM     92  F   UNL     1      -1.366 -11.688 -11.781  1.00  0.00    -0.200 F 
ATOM     93  C   UNL     1       0.083 -13.179 -10.661  1.00  0.00     0.200 A 
ATOM     94  F   UNL     1       1.512 -14.652  -9.493  1.00  0.00    -0.200 F 
ATOM     95  F   UNL     1       0.086 -13.996 -11.723  1.00  0.00    -0.200 F 
ENDBRANCH  62  85
ENDBRANCH  36  37
ENDBRANCH  29  31
ENDBRANCH  28  29
ENDBRANCH  27  28
ENDBRANCH   1  27
TORSDOF 14
