REMARK SMILES Cc1ccccc1C(=O)Nc1ccc(OCC(=O)OCCOC(=O)c2ccc(-c3c4nc(c(-c5c(F)c(F)c(F)c(F)c5F)c5ccc([nH]5)c(-c5c(F)c(F)c(F)c(F)c5F)c5nc(c(-c6c(F)c(F)c(F)c(F)c6F)c6ccc3[nH]6)C=C5)C=C4)cc2)c(-c2nc3ccccc3s2)c1
REMARK SMILES IDX 20 1 19 2 17 3 18 4 16 5 15 6 14 7 11 8 12 9 98 10 13 11
REMARK SMILES IDX 88 12 10 13 8 14 9 15 7 17 1 18 2 19 3 20 4 21 6 22 5 23
REMARK SMILES IDX 89 24 90 25 97 26 91 27 96 28 92 29 95 30 93 31 94 32 21 33
REMARK SMILES IDX 22 34 23 35 24 36 25 37 26 38 87 39 27 40 86 41 28 42 29 43
REMARK SMILES IDX 30 44 80 45 31 46 85 47 79 48 81 49 32 50 84 51 78 52 77 53
REMARK SMILES IDX 33 55 65 56 45 57 64 58 46 59 49 60 63 61 82 62 47 63 48 64
REMARK SMILES IDX 62 66 83 67 50 68 34 69 35 70 43 71 36 72 37 73 41 74 44 75
REMARK SMILES IDX 38 76 39 77 42 78 40 79 66 80 67 81 75 82 68 83 69 84 73 85
REMARK SMILES IDX 76 86 70 87 71 88 74 89 72 90 51 91 52 92 60 93 53 94 54 95
REMARK SMILES IDX 58 96 61 97 55 98 56 99 59 100 57 101
REMARK H PARENT 10 16 81 54 49 65
REMARK Flexibility Score: inf
ROOT
ATOM      1  C   UNL     1       2.996  -3.444   2.223  1.00  0.00     0.274 C 
ENDROOT
BRANCH   1   2
ATOM      2  O   UNL     1       3.856  -2.641   1.395  1.00  0.00    -0.460 OA
BRANCH   2   3
ATOM      3  C   UNL     1       5.066  -3.217   1.155  1.00  0.00     0.344 C 
ATOM      4  O   UNL     1       5.461  -4.222   1.743  1.00  0.00    -0.248 OA
BRANCH   3   5
ATOM      5  C   UNL     1       5.926  -2.490   0.102  1.00  0.00     0.352 C 
BRANCH   5   6
ATOM      6  O   UNL     1       5.392  -1.846  -1.051  1.00  0.00    -0.481 OA
BRANCH   6   7
ATOM      7  C   UNL     1       4.865  -0.585  -0.954  1.00  0.00     0.130 A 
ATOM      8  C   UNL     1       3.367   1.735  -0.452  1.00  0.00     0.042 A 
ATOM      9  C   UNL     1       4.487   1.455   0.322  1.00  0.00     0.030 A 
ATOM     10  C   UNL     1       3.124   0.974  -1.586  1.00  0.00     0.041 A 
ATOM     11  C   UNL     1       5.194   0.271   0.108  1.00  0.00     0.049 A 
ATOM     12  C   UNL     1       3.926  -0.146  -1.921  1.00  0.00     0.055 A 
BRANCH   8  13
ATOM     13  N   UNL     1       2.536   2.785  -0.053  1.00  0.00    -0.322 N 
ATOM     14  C   UNL     1       1.162   2.913  -0.065  1.00  0.00     0.255 C 
ATOM     15  O   UNL     1       0.692   4.052   0.024  1.00  0.00    -0.269 OA
ATOM     16  H   UNL     1       3.014   3.571   0.298  1.00  0.00     0.170 HD
BRANCH  14  17
ATOM     17  C   UNL     1       0.200   1.765  -0.001  1.00  0.00     0.043 A 
ATOM     18  C   UNL     1       1.574   0.347   1.637  1.00  0.00     0.045 C 
ATOM     19  C   UNL     1       0.341   0.644   0.836  1.00  0.00    -0.038 A 
ATOM     20  C   UNL     1      -0.735  -0.273   0.930  1.00  0.00     0.004 A 
ATOM     21  C   UNL     1      -1.922  -0.102   0.229  1.00  0.00     0.000 A 
ATOM     22  C   UNL     1      -1.043   1.966  -0.637  1.00  0.00     0.014 A 
ATOM     23  C   UNL     1      -2.088   1.039  -0.535  1.00  0.00     0.001 A 
ENDBRANCH  14  17
ENDBRANCH   8  13
BRANCH  12  24
ATOM     24  C   UNL     1       3.609  -0.769  -3.237  1.00  0.00     0.128 A 
ATOM     25  N   UNL     1       2.507  -0.463  -3.900  1.00  0.00    -0.236 NA
ATOM     26  S   UNL     1       4.657  -1.817  -4.123  1.00  0.00    -0.114 S 
ATOM     27  C   UNL     1       2.317  -1.301  -4.971  1.00  0.00     0.082 A 
ATOM     28  C   UNL     1       3.390  -2.140  -5.262  1.00  0.00     0.055 A 
ATOM     29  C   UNL     1       1.134  -1.399  -5.732  1.00  0.00     0.030 A 
ATOM     30  C   UNL     1       3.312  -3.083  -6.307  1.00  0.00     0.021 A 
ATOM     31  C   UNL     1       1.021  -2.378  -6.721  1.00  0.00     0.002 A 
ATOM     32  C   UNL     1       2.098  -3.213  -7.001  1.00  0.00     0.002 A 
ENDBRANCH  12  24
ENDBRANCH   6   7
ENDBRANCH   5   6
ENDBRANCH   3   5
ENDBRANCH   2   3
ENDBRANCH   1   2
BRANCH   1  33
ATOM     33  C   UNL     1       1.523  -3.069   2.067  1.00  0.00     0.275 C 
BRANCH  33  34
ATOM     34  O   UNL     1       1.151  -2.370   0.845  1.00  0.00    -0.458 OA
BRANCH  34  35
ATOM     35  C   UNL     1       1.523  -2.567  -0.438  1.00  0.00     0.338 C 
ATOM     36  O   UNL     1       1.412  -1.734  -1.323  1.00  0.00    -0.246 OA
BRANCH  35  37
ATOM     37  C   UNL     1       2.007  -3.899  -0.706  1.00  0.00     0.060 A 
ATOM     38  C   UNL     1       3.196  -4.123  -1.409  1.00  0.00     0.016 A 
ATOM     39  C   UNL     1       1.284  -4.907  -0.098  1.00  0.00     0.016 A 
ATOM     40  C   UNL     1       3.695  -5.402  -1.490  1.00  0.00     0.010 A 
ATOM     41  C   UNL     1       1.903  -6.095   0.048  1.00  0.00     0.010 A 
ATOM     42  C   UNL     1       3.002  -6.364  -0.781  1.00  0.00    -0.014 A 
BRANCH  42  43
ATOM     43  C   UNL     1       3.212  -7.777  -0.933  1.00  0.00     0.031 A 
ATOM     44  C   UNL     1       4.401  -8.326  -0.287  1.00  0.00     0.074 A 
ATOM     45  C   UNL     1       2.068  -8.355  -1.371  1.00  0.00     0.049 A 
ATOM     46  N   UNL     1       5.045  -9.368  -0.681  1.00  0.00    -0.248 NA
ATOM     47  C   UNL     1       5.076  -7.644   0.828  1.00  0.00     0.031 C 
ATOM     48  C   UNL     1       1.457  -9.632  -1.075  1.00  0.00     0.029 A 
ATOM     49  N   UNL     1       1.097  -7.726  -2.177  1.00  0.00    -0.354 N 
ATOM     50  C   UNL     1       5.732  -9.767   0.447  1.00  0.00     0.074 A 
ATOM     51  C   UNL     1       5.999  -8.549   1.166  1.00  0.00     0.031 C 
ATOM     52  C   UNL     1       0.417  -9.822  -1.916  1.00  0.00     0.029 A 
ATOM     53  C   UNL     1       0.388  -8.716  -2.861  1.00  0.00     0.049 A 
ATOM     54  H   UNL     1       0.944  -6.755  -2.245  1.00  0.00     0.167 HD
ATOM     55  C   UNL     1       5.559 -11.054   0.879  1.00  0.00     0.037 A 
ATOM     56  C   UNL     1       0.609  -8.794  -4.209  1.00  0.00     0.037 A 
ATOM     57  C   UNL     1       4.600 -11.749  -0.004  1.00  0.00     0.049 A 
ATOM     58  C   UNL     1       1.556  -9.920  -4.528  1.00  0.00     0.074 A 
ATOM     59  C   UNL     1       3.301 -12.200   0.166  1.00  0.00     0.029 A 
ATOM     60  N   UNL     1       4.808 -11.742  -1.380  1.00  0.00    -0.354 N 
ATOM     61  N   UNL     1       2.307 -10.536  -3.659  1.00  0.00    -0.248 NA
ATOM     62  C   UNL     1       1.696 -10.450  -5.867  1.00  0.00     0.031 C 
ATOM     63  C   UNL     1       2.764 -12.523  -1.116  1.00  0.00     0.029 A 
ATOM     64  C   UNL     1       3.719 -12.229  -2.073  1.00  0.00     0.049 A 
ATOM     65  H   UNL     1       5.637 -11.427  -1.809  1.00  0.00     0.167 HD
ATOM     66  C   UNL     1       2.981 -11.567  -4.258  1.00  0.00     0.074 A 
ATOM     67  C   UNL     1       2.554 -11.459  -5.646  1.00  0.00     0.031 C 
ATOM     68  C   UNL     1       3.806 -12.392  -3.528  1.00  0.00     0.037 A 
BRANCH  55  69
ATOM     69  C   UNL     1       5.962 -11.598   2.243  1.00  0.00     0.064 A 
ATOM     70  C   UNL     1       5.445 -12.832   2.702  1.00  0.00     0.173 A 
ATOM     71  C   UNL     1       6.877 -10.995   3.132  1.00  0.00     0.173 A 
ATOM     72  F   UNL     1       4.641 -13.585   1.941  1.00  0.00    -0.203 F 
ATOM     73  C   UNL     1       5.753 -13.371   3.954  1.00  0.00     0.198 A 
ATOM     74  C   UNL     1       7.168 -11.522   4.398  1.00  0.00     0.198 A 
ATOM     75  F   UNL     1       7.580  -9.909   2.795  1.00  0.00    -0.203 F 
ATOM     76  F   UNL     1       5.221 -14.546   4.318  1.00  0.00    -0.200 F 
ATOM     77  C   UNL     1       6.604 -12.710   4.810  1.00  0.00     0.200 A 
ATOM     78  F   UNL     1       8.019 -10.875   5.208  1.00  0.00    -0.200 F 
ATOM     79  F   UNL     1       6.906 -13.230   6.007  1.00  0.00    -0.200 F 
ENDBRANCH  55  69
BRANCH  56  80
ATOM     80  C   UNL     1       0.661  -7.424  -4.831  1.00  0.00     0.064 A 
ATOM     81  C   UNL     1      -0.530  -6.668  -4.780  1.00  0.00     0.173 A 
ATOM     82  C   UNL     1       1.872  -6.725  -4.803  1.00  0.00     0.173 A 
ATOM     83  F   UNL     1      -1.718  -7.286  -4.873  1.00  0.00    -0.203 F 
ATOM     84  C   UNL     1      -0.508  -5.321  -4.431  1.00  0.00     0.198 A 
ATOM     85  C   UNL     1       1.885  -5.389  -4.419  1.00  0.00     0.198 A 
ATOM     86  F   UNL     1       3.040  -7.371  -4.922  1.00  0.00    -0.203 F 
ATOM     87  F   UNL     1      -1.656  -4.661  -4.217  1.00  0.00    -0.200 F 
ATOM     88  C   UNL     1       0.701  -4.708  -4.170  1.00  0.00     0.200 A 
ATOM     89  F   UNL     1       3.065  -4.805  -4.183  1.00  0.00    -0.200 F 
ATOM     90  F   UNL     1       0.718  -3.485  -3.627  1.00  0.00    -0.200 F 
ENDBRANCH  56  80
BRANCH  68  91
ATOM     91  C   UNL     1       4.771 -13.469  -4.029  1.00  0.00     0.064 A 
ATOM     92  C   UNL     1       4.954 -13.849  -5.364  1.00  0.00     0.173 A 
ATOM     93  C   UNL     1       5.624 -14.165  -3.119  1.00  0.00     0.173 A 
ATOM     94  F   UNL     1       4.270 -13.306  -6.367  1.00  0.00    -0.203 F 
ATOM     95  C   UNL     1       5.878 -14.823  -5.756  1.00  0.00     0.198 A 
ATOM     96  C   UNL     1       6.585 -15.091  -3.517  1.00  0.00     0.198 A 
ATOM     97  F   UNL     1       5.576 -13.991  -1.793  1.00  0.00    -0.203 F 
ATOM     98  F   UNL     1       5.964 -15.156  -7.051  1.00  0.00    -0.200 F 
ATOM     99  C   UNL     1       6.705 -15.431  -4.838  1.00  0.00     0.200 A 
ATOM    100  F   UNL     1       7.390 -15.643  -2.598  1.00  0.00    -0.200 F 
ATOM    101  F   UNL     1       7.606 -16.340  -5.226  1.00  0.00    -0.200 F 
ENDBRANCH  68  91
ENDBRANCH  42  43
ENDBRANCH  35  37
ENDBRANCH  34  35
ENDBRANCH  33  34
ENDBRANCH   1  33
TORSDOF 16
