REMARK SMILES CC(C)Cc1ccc([C@H](CF)C(=O)OCCOC(=O)c2ccc(-c3c4nc(c(-c5c(F)c(F)c(F)c(F)c5F)c5ccc([nH]5)c(-c5c(F)c(F)c(F)c(F)c5F)c5nc(c(-c6c(F)c(F)c(F)c(F)c6F)c6ccc3[nH]6)C=C5)C=C4)cc2)cc1
REMARK SMILES IDX 15 1 14 2 12 3 13 4 9 5 8 6 5 7 6 8 84 9 7 10 83 11 4 12
REMARK SMILES IDX 2 13 1 14 3 15 10 16 11 17 16 18 17 19 18 20 19 21 20 22
REMARK SMILES IDX 21 23 82 24 22 25 81 26 23 27 24 28 25 29 75 30 26 31 80 32
REMARK SMILES IDX 74 33 76 34 27 35 79 36 73 37 72 38 28 40 60 41 40 42 59 43
REMARK SMILES IDX 41 44 44 45 58 46 77 47 42 48 43 49 57 51 78 52 45 53 29 54
REMARK SMILES IDX 30 55 38 56 31 57 32 58 36 59 39 60 33 61 34 62 37 63 35 64
REMARK SMILES IDX 61 65 62 66 70 67 63 68 64 69 68 70 71 71 65 72 66 73 69 74
REMARK SMILES IDX 67 75 46 76 47 77 55 78 48 79 49 80 53 81 56 82 50 83 51 84
REMARK SMILES IDX 54 85 52 86
REMARK H PARENT 76 39 44 50
REMARK Flexibility Score: inf
ROOT
ATOM      1  C   UNL     1      -4.811  -4.334  -2.520  1.00  0.00     0.274 C 
ENDROOT
BRANCH   1   2
ATOM      2  O   UNL     1      -4.237  -4.095  -1.219  1.00  0.00    -0.462 OA
BRANCH   2   3
ATOM      3  C   UNL     1      -3.739  -5.191  -0.587  1.00  0.00     0.316 C 
ATOM      4  O   UNL     1      -3.768  -6.328  -1.052  1.00  0.00    -0.251 OA
BRANCH   3   5
ATOM      5  C   UNL     1      -3.198  -4.899   0.807  1.00  0.00     0.160 C 
BRANCH   5   6
ATOM      6  C   UNL     1      -4.248  -5.215   1.851  1.00  0.00    -0.031 A 
ATOM      7  C   UNL     1      -6.311  -5.926   3.642  1.00  0.00    -0.048 A 
ATOM      8  C   UNL     1      -5.626  -6.911   2.923  1.00  0.00     0.004 A 
ATOM      9  C   UNL     1      -5.896  -4.595   3.513  1.00  0.00     0.004 A 
ATOM     10  C   UNL     1      -4.607  -6.560   2.042  1.00  0.00     0.005 A 
ATOM     11  C   UNL     1      -4.894  -4.237   2.609  1.00  0.00     0.005 A 
BRANCH   7  12
ATOM     12  C   UNL     1      -7.449  -6.351   4.541  1.00  0.00     0.038 C 
BRANCH  12  13
ATOM     13  C   UNL     1      -8.561  -5.311   4.789  1.00  0.00    -0.013 C 
ATOM     14  C   UNL     1      -9.269  -4.891   3.497  1.00  0.00     0.008 C 
ATOM     15  C   UNL     1      -9.587  -5.882   5.770  1.00  0.00     0.008 C 
ENDBRANCH  12  13
ENDBRANCH   7  12
ENDBRANCH   5   6
BRANCH   5  16
ATOM     16  C   UNL     1      -2.521  -3.536   0.895  1.00  0.00     0.234 C 
ATOM     17  F   UNL     1      -1.301  -3.622   0.290  1.00  0.00    -0.250 F 
ENDBRANCH   5  16
ENDBRANCH   3   5
ENDBRANCH   2   3
ENDBRANCH   1   2
BRANCH   1  18
ATOM     18  C   UNL     1      -3.796  -4.114  -3.645  1.00  0.00     0.275 C 
BRANCH  18  19
ATOM     19  O   UNL     1      -2.697  -5.039  -3.551  1.00  0.00    -0.458 OA
BRANCH  19  20
ATOM     20  C   UNL     1      -1.556  -4.529  -3.031  1.00  0.00     0.338 C 
ATOM     21  O   UNL     1      -1.341  -3.377  -2.703  1.00  0.00    -0.246 OA
BRANCH  20  22
ATOM     22  C   UNL     1      -0.589  -5.618  -2.826  1.00  0.00     0.060 A 
ATOM     23  C   UNL     1      -0.470  -6.176  -1.552  1.00  0.00     0.016 A 
ATOM     24  C   UNL     1       0.265  -6.019  -3.851  1.00  0.00     0.016 A 
ATOM     25  C   UNL     1       0.498  -7.137  -1.287  1.00  0.00     0.010 A 
ATOM     26  C   UNL     1       1.238  -6.990  -3.589  1.00  0.00     0.010 A 
ATOM     27  C   UNL     1       1.367  -7.545  -2.303  1.00  0.00    -0.014 A 
BRANCH  27  28
ATOM     28  C   UNL     1       2.459  -8.493  -1.988  1.00  0.00     0.031 A 
ATOM     29  C   UNL     1       3.868  -7.989  -1.887  1.00  0.00     0.074 A 
ATOM     30  C   UNL     1       2.183  -9.789  -1.756  1.00  0.00     0.049 A 
ATOM     31  N   UNL     1       4.981  -8.662  -1.744  1.00  0.00    -0.248 NA
ATOM     32  C   UNL     1       4.047  -6.531  -1.953  1.00  0.00     0.031 C 
ATOM     33  C   UNL     1       0.845 -10.379  -1.750  1.00  0.00     0.029 A 
ATOM     34  N   UNL     1       3.017 -10.843  -1.482  1.00  0.00    -0.354 N 
ATOM     35  C   UNL     1       5.995  -7.713  -1.737  1.00  0.00     0.074 A 
ATOM     36  C   UNL     1       5.367  -6.418  -1.892  1.00  0.00     0.031 C 
ATOM     37  C   UNL     1       0.949 -11.692  -1.486  1.00  0.00     0.029 A 
ATOM     38  C   UNL     1       2.361 -12.042  -1.360  1.00  0.00     0.049 A 
ATOM     39  H   UNL     1       3.992 -10.749  -1.383  1.00  0.00     0.167 HD
ATOM     40  C   UNL     1       7.328  -7.911  -1.615  1.00  0.00     0.037 A 
ATOM     41  C   UNL     1       2.849 -13.287  -1.202  1.00  0.00     0.037 A 
ATOM     42  C   UNL     1       7.943  -9.200  -1.435  1.00  0.00     0.049 A 
ATOM     43  C   UNL     1       4.339 -13.486  -1.129  1.00  0.00     0.074 A 
ATOM     44  C   UNL     1       9.286  -9.508  -1.305  1.00  0.00     0.029 A 
ATOM     45  N   UNL     1       7.248 -10.398  -1.353  1.00  0.00    -0.354 N 
ATOM     46  N   UNL     1       5.296 -12.592  -1.169  1.00  0.00    -0.248 NA
ATOM     47  C   UNL     1       4.816 -14.871  -1.005  1.00  0.00     0.031 C 
ATOM     48  C   UNL     1       9.405 -10.896  -1.177  1.00  0.00     0.029 A 
ATOM     49  C   UNL     1       8.135 -11.449  -1.188  1.00  0.00     0.049 A 
ATOM     50  H   UNL     1       6.269 -10.488  -1.404  1.00  0.00     0.167 HD
ATOM     51  C   UNL     1       6.485 -13.299  -1.058  1.00  0.00     0.074 A 
ATOM     52  C   UNL     1       6.128 -14.698  -0.934  1.00  0.00     0.031 C 
ATOM     53  C   UNL     1       7.758 -12.833  -1.062  1.00  0.00     0.037 A 
BRANCH  40  54
ATOM     54  C   UNL     1       8.216  -6.707  -1.712  1.00  0.00     0.064 A 
ATOM     55  C   UNL     1       8.316  -5.777  -0.668  1.00  0.00     0.173 A 
ATOM     56  C   UNL     1       8.996  -6.498  -2.859  1.00  0.00     0.173 A 
ATOM     57  F   UNL     1       7.578  -5.925   0.442  1.00  0.00    -0.203 F 
ATOM     58  C   UNL     1       9.152  -4.667  -0.779  1.00  0.00     0.198 A 
ATOM     59  C   UNL     1       9.848  -5.401  -2.956  1.00  0.00     0.198 A 
ATOM     60  F   UNL     1       8.937  -7.361  -3.884  1.00  0.00    -0.203 F 
ATOM     61  F   UNL     1       9.204  -3.768   0.214  1.00  0.00    -0.200 F 
ATOM     62  C   UNL     1       9.921  -4.484  -1.919  1.00  0.00     0.200 A 
ATOM     63  F   UNL     1      10.596  -5.230  -4.054  1.00  0.00    -0.200 F 
ATOM     64  F   UNL     1      10.727  -3.419  -2.021  1.00  0.00    -0.200 F 
ENDBRANCH  40  54
BRANCH  41  65
ATOM     65  C   UNL     1       1.920 -14.443  -1.136  1.00  0.00     0.064 A 
ATOM     66  C   UNL     1       1.740 -15.158   0.056  1.00  0.00     0.173 A 
ATOM     67  C   UNL     1       1.195 -14.857  -2.263  1.00  0.00     0.173 A 
ATOM     68  F   UNL     1       2.433 -14.817   1.152  1.00  0.00    -0.203 F 
ATOM     69  C   UNL     1       0.877 -16.251   0.115  1.00  0.00     0.198 A 
ATOM     70  C   UNL     1       0.312 -15.933  -2.196  1.00  0.00     0.198 A 
ATOM     71  F   UNL     1       1.336 -14.209  -3.428  1.00  0.00    -0.203 F 
ATOM     72  F   UNL     1       0.752 -16.942   1.256  1.00  0.00    -0.200 F 
ATOM     73  C   UNL     1       0.159 -16.632  -1.009  1.00  0.00     0.200 A 
ATOM     74  F   UNL     1      -0.387 -16.292  -3.281  1.00  0.00    -0.200 F 
ATOM     75  F   UNL     1      -0.675 -17.680  -0.950  1.00  0.00    -0.200 F 
ENDBRANCH  41  65
BRANCH  53  76
ATOM     76  C   UNL     1       8.854 -13.842  -0.900  1.00  0.00     0.064 A 
ATOM     77  C   UNL     1       9.225 -14.696  -1.949  1.00  0.00     0.173 A 
ATOM     78  C   UNL     1       9.566 -13.930   0.305  1.00  0.00     0.173 A 
ATOM     79  F   UNL     1       8.561 -14.659  -3.115  1.00  0.00    -0.203 F 
ATOM     80  C   UNL     1      10.257 -15.616  -1.790  1.00  0.00     0.198 A 
ATOM     81  C   UNL     1      10.614 -14.834   0.453  1.00  0.00     0.198 A 
ATOM     82  F   UNL     1       9.252 -13.131   1.336  1.00  0.00    -0.203 F 
ATOM     83  F   UNL     1      10.569 -16.450  -2.791  1.00  0.00    -0.200 F 
ATOM     84  C   UNL     1      10.954 -15.680  -0.592  1.00  0.00     0.200 A 
ATOM     85  F   UNL     1      11.293 -14.889   1.607  1.00  0.00    -0.200 F 
ATOM     86  F   UNL     1      11.951 -16.563  -0.443  1.00  0.00    -0.200 F 
ENDBRANCH  53  76
ENDBRANCH  27  28
ENDBRANCH  20  22
ENDBRANCH  19  20
ENDBRANCH  18  19
ENDBRANCH   1  18
TORSDOF 15
