REMARK SMILES CCC[C@H](C)NC(=O)C[NH+]1CC(n2cc(C(=O)OCCOC(=O)c3ccc(-c4c5nc(c(-c6c(F)c(F)c(F)c(F)c6F)c6ccc([nH]6)c(-c6c(F)c(F)c(F)c(F)c6F)c6nc(c(-c7c(F)c(F)c(F)c(F)c7F)c7ccc4[nH]7)C=C6)C=C5)cc3)nn2)C1
REMARK SMILES IDX 16 1 17 2 15 3 13 4 14 5 88 6 87 7 12 8 10 9 11 10 89 11
REMARK SMILES IDX 9 13 7 14 6 15 8 17 4 18 5 19 3 20 2 21 1 22 18 23 19 24
REMARK SMILES IDX 20 25 21 26 22 27 23 28 24 29 25 30 86 31 26 32 85 33 27 34
REMARK SMILES IDX 28 35 29 36 79 37 30 38 84 39 78 40 80 41 31 42 83 43 77 44
REMARK SMILES IDX 76 45 32 47 64 48 44 49 63 50 45 51 48 52 62 53 81 54 46 55
REMARK SMILES IDX 47 56 61 58 82 59 49 60 33 61 34 62 42 63 35 64 36 65 40 66
REMARK SMILES IDX 43 67 37 68 38 69 41 70 39 71 65 72 66 73 74 74 67 75 68 76
REMARK SMILES IDX 72 77 75 78 69 79 70 80 73 81 71 82 50 83 51 84 59 85 52 86
REMARK SMILES IDX 53 87 57 88 60 89 54 90 55 91 58 92 56 93
REMARK H PARENT 10 12 6 16 80 46 48 57
REMARK Flexibility Score: inf
ROOT
ATOM      1  C   UNL     1       1.641  -3.458   0.038  1.00  0.00     0.360 C 
ATOM      2  O   UNL     1       0.965  -4.037   0.856  1.00  0.00    -0.244 OA
ENDROOT
BRANCH   1   3
ATOM      3  C   UNL     1       2.199  -2.123   0.237  1.00  0.00     0.190 A 
ATOM      4  N   UNL     1       3.255  -0.238   0.081  1.00  0.00    -0.237 N 
ATOM      5  C   UNL     1       2.978  -1.375  -0.621  1.00  0.00     0.147 A 
ATOM      6  N   UNL     1       2.730  -0.292   1.314  1.00  0.00    -0.066 NA
ATOM      7  N   UNL     1       2.072  -1.438   1.424  1.00  0.00    -0.123 NA
BRANCH   4   8
ATOM      8  C   UNL     1       3.936   0.895  -0.464  1.00  0.00     0.218 C 
ATOM      9  N   UNL     1       3.545   2.902  -0.958  1.00  0.00    -0.323 N 
ATOM     10  C   UNL     1       3.832   2.214   0.326  1.00  0.00     0.296 C 
ATOM     11  C   UNL     1       3.069   1.610  -1.517  1.00  0.00     0.296 C 
ATOM     12  H   UNL     1       4.284   3.467  -1.376  1.00  0.00     0.348 HD
BRANCH   9  13
ATOM     13  C   UNL     1       2.437   3.882  -0.948  1.00  0.00     0.363 C 
BRANCH  13  14
ATOM     14  C   UNL     1       2.022   4.467   0.403  1.00  0.00     0.275 C 
ATOM     15  N   UNL     1       0.911   3.990   1.052  1.00  0.00    -0.349 N 
ATOM     16  H   UNL     1       0.580   4.556   1.786  1.00  0.00     0.163 HD
ATOM     17  O   UNL     1       2.633   5.406   0.917  1.00  0.00    -0.268 OA
BRANCH  15  18
ATOM     18  C   UNL     1       0.145   2.767   0.818  1.00  0.00     0.079 C 
ATOM     19  C   UNL     1       0.378   1.794   1.980  1.00  0.00     0.031 C 
BRANCH  18  20
ATOM     20  C   UNL     1      -1.367   3.031   0.706  1.00  0.00     0.024 C 
BRANCH  20  21
ATOM     21  C   UNL     1      -1.805   4.045  -0.351  1.00  0.00    -0.001 C 
ATOM     22  C   UNL     1      -1.538   3.608  -1.780  1.00  0.00     0.004 C 
ENDBRANCH  20  21
ENDBRANCH  18  20
ENDBRANCH  15  18
ENDBRANCH  13  14
ENDBRANCH   9  13
ENDBRANCH   4   8
ENDBRANCH   1   3
BRANCH   1  23
ATOM     23  O   UNL     1       2.065  -4.013  -1.151  1.00  0.00    -0.457 OA
BRANCH  23  24
ATOM     24  C   UNL     1       1.944  -5.443  -1.248  1.00  0.00     0.275 C 
BRANCH  24  25
ATOM     25  C   UNL     1       3.197  -6.129  -0.718  1.00  0.00     0.275 C 
BRANCH  25  26
ATOM     26  O   UNL     1       3.288  -5.977   0.698  1.00  0.00    -0.458 OA
BRANCH  26  27
ATOM     27  C   UNL     1       4.023  -4.923   1.118  1.00  0.00     0.338 C 
ATOM     28  O   UNL     1       4.464  -4.017   0.429  1.00  0.00    -0.246 OA
BRANCH  27  29
ATOM     29  C   UNL     1       4.418  -5.129   2.513  1.00  0.00     0.060 A 
ATOM     30  C   UNL     1       5.158  -4.107   3.120  1.00  0.00     0.016 A 
ATOM     31  C   UNL     1       4.394  -6.434   3.016  1.00  0.00     0.016 A 
ATOM     32  C   UNL     1       6.065  -4.448   4.099  1.00  0.00     0.010 A 
ATOM     33  C   UNL     1       5.326  -6.781   3.957  1.00  0.00     0.010 A 
ATOM     34  C   UNL     1       6.201  -5.798   4.425  1.00  0.00    -0.014 A 
BRANCH  34  35
ATOM     35  C   UNL     1       7.301  -6.206   5.270  1.00  0.00     0.031 A 
ATOM     36  C   UNL     1       7.021  -6.127   6.723  1.00  0.00     0.074 A 
ATOM     37  C   UNL     1       8.372  -6.813   4.721  1.00  0.00     0.049 A 
ATOM     38  N   UNL     1       7.706  -5.540   7.647  1.00  0.00    -0.248 NA
ATOM     39  C   UNL     1       5.745  -6.698   7.194  1.00  0.00     0.031 C 
ATOM     40  C   UNL     1       8.546  -7.233   3.325  1.00  0.00     0.029 A 
ATOM     41  N   UNL     1       9.473  -7.323   5.330  1.00  0.00    -0.354 N 
ATOM     42  C   UNL     1       7.032  -5.807   8.836  1.00  0.00     0.074 A 
ATOM     43  C   UNL     1       5.756  -6.359   8.479  1.00  0.00     0.031 C 
ATOM     44  C   UNL     1       9.553  -8.133   3.257  1.00  0.00     0.029 A 
ATOM     45  C   UNL     1      10.145  -8.273   4.577  1.00  0.00     0.049 A 
ATOM     46  H   UNL     1       9.768  -7.043   6.226  1.00  0.00     0.167 HD
ATOM     47  C   UNL     1       7.672  -5.796  10.035  1.00  0.00     0.037 A 
ATOM     48  C   UNL     1      11.028  -9.186   5.054  1.00  0.00     0.037 A 
ATOM     49  C   UNL     1       8.880  -5.017   9.979  1.00  0.00     0.049 A 
ATOM     50  C   UNL     1      11.439  -8.742   6.415  1.00  0.00     0.074 A 
ATOM     51  C   UNL     1       9.157  -3.702   9.656  1.00  0.00     0.029 A 
ATOM     52  N   UNL     1      10.086  -5.671   9.927  1.00  0.00    -0.354 N 
ATOM     53  N   UNL     1      12.170  -7.687   6.654  1.00  0.00    -0.248 NA
ATOM     54  C   UNL     1      10.647  -9.218   7.542  1.00  0.00     0.031 C 
ATOM     55  C   UNL     1      10.394  -3.747   8.950  1.00  0.00     0.029 A 
ATOM     56  C   UNL     1      10.816  -5.077   8.930  1.00  0.00     0.049 A 
ATOM     57  H   UNL     1      10.371  -6.422  10.496  1.00  0.00     0.167 HD
ATOM     58  C   UNL     1      11.631  -7.134   7.808  1.00  0.00     0.074 A 
ATOM     59  C   UNL     1      10.750  -8.162   8.353  1.00  0.00     0.031 C 
ATOM     60  C   UNL     1      11.716  -5.795   8.061  1.00  0.00     0.037 A 
BRANCH  47  61
ATOM     61  C   UNL     1       7.378  -6.783  11.138  1.00  0.00     0.064 A 
ATOM     62  C   UNL     1       7.995  -6.610  12.391  1.00  0.00     0.173 A 
ATOM     63  C   UNL     1       6.756  -8.037  10.936  1.00  0.00     0.173 A 
ATOM     64  F   UNL     1       8.635  -5.468  12.685  1.00  0.00    -0.203 F 
ATOM     65  C   UNL     1       8.052  -7.640  13.333  1.00  0.00     0.198 A 
ATOM     66  C   UNL     1       6.761  -9.039  11.903  1.00  0.00     0.198 A 
ATOM     67  F   UNL     1       6.218  -8.393   9.764  1.00  0.00    -0.203 F 
ATOM     68  F   UNL     1       8.765  -7.473  14.455  1.00  0.00    -0.200 F 
ATOM     69  C   UNL     1       7.439  -8.854  13.087  1.00  0.00     0.200 A 
ATOM     70  F   UNL     1       6.174 -10.214  11.635  1.00  0.00    -0.200 F 
ATOM     71  F   UNL     1       7.545  -9.863  13.961  1.00  0.00    -0.200 F 
ENDBRANCH  47  61
BRANCH  48  72
ATOM     72  C   UNL     1      11.261 -10.565   4.556  1.00  0.00     0.064 A 
ATOM     73  C   UNL     1      12.414 -11.281   4.914  1.00  0.00     0.173 A 
ATOM     74  C   UNL     1      10.249 -11.301   3.905  1.00  0.00     0.173 A 
ATOM     75  F   UNL     1      13.403 -10.674   5.585  1.00  0.00    -0.203 F 
ATOM     76  C   UNL     1      12.544 -12.648   4.641  1.00  0.00     0.198 A 
ATOM     77  C   UNL     1      10.386 -12.659   3.619  1.00  0.00     0.198 A 
ATOM     78  F   UNL     1       9.066 -10.742   3.613  1.00  0.00    -0.203 F 
ATOM     79  F   UNL     1      13.636 -13.310   5.046  1.00  0.00    -0.200 F 
ATOM     80  C   UNL     1      11.529 -13.336   3.995  1.00  0.00     0.200 A 
ATOM     81  F   UNL     1       9.380 -13.317   3.025  1.00  0.00    -0.200 F 
ATOM     82  F   UNL     1      11.633 -14.654   3.774  1.00  0.00    -0.200 F 
ENDBRANCH  48  72
BRANCH  60  83
ATOM     83  C   UNL     1      12.606  -4.962   7.184  1.00  0.00     0.064 A 
ATOM     84  C   UNL     1      12.396  -4.791   5.805  1.00  0.00     0.173 A 
ATOM     85  C   UNL     1      13.591  -4.171   7.789  1.00  0.00     0.173 A 
ATOM     86  F   UNL     1      11.402  -5.427   5.175  1.00  0.00    -0.203 F 
ATOM     87  C   UNL     1      13.167  -3.900   5.061  1.00  0.00     0.198 A 
ATOM     88  C   UNL     1      14.334  -3.253   7.051  1.00  0.00     0.198 A 
ATOM     89  F   UNL     1      13.794  -4.246   9.114  1.00  0.00    -0.203 F 
ATOM     90  F   UNL     1      12.949  -3.761   3.744  1.00  0.00    -0.200 F 
ATOM     91  C   UNL     1      14.128  -3.125   5.686  1.00  0.00     0.200 A 
ATOM     92  F   UNL     1      15.226  -2.468   7.669  1.00  0.00    -0.200 F 
ATOM     93  F   UNL     1      14.836  -2.232   4.980  1.00  0.00    -0.200 F 
ENDBRANCH  60  83
ENDBRANCH  34  35
ENDBRANCH  27  29
ENDBRANCH  26  27
ENDBRANCH  25  26
ENDBRANCH  24  25
ENDBRANCH  23  24
ENDBRANCH   1  23
TORSDOF 17
