REMARK SMILES CCC[C@H](C)C[N@H+]1[C@@H]2CC[C@H]1C[C@H](CC(=O)OCCOC(=O)c1ccc(-c3c4nc(c(-c5c(F)c(F)c(F)c(F)c5F)c5ccc([nH]5)c(-c5c(F)c(F)c(F)c(F)c5F)c5nc(c(-c6c(F)c(F)c(F)c(F)c6F)c6ccc3[nH]6)C=C5)C=C4)cc1)C2
REMARK SMILES IDX 17 1 15 2 16 3 14 4 13 5 7 6 8 7 11 8 9 10 86 11 10 12 12 13
REMARK SMILES IDX 6 14 4 15 5 16 3 17 2 18 1 19 18 20 19 21 20 22 21 23 22 24
REMARK SMILES IDX 23 25 24 26 85 27 25 28 84 29 26 30 27 31 28 32 78 33 29 34
REMARK SMILES IDX 83 35 77 36 79 37 30 38 82 39 76 40 75 41 31 43 63 44 43 45
REMARK SMILES IDX 62 46 44 47 47 48 61 49 80 50 45 51 46 52 60 54 81 55 48 56
REMARK SMILES IDX 32 57 33 58 41 59 34 60 35 61 39 62 42 63 36 64 37 65 40 66
REMARK SMILES IDX 38 67 64 68 65 69 73 70 66 71 67 72 71 73 74 74 68 75 69 76
REMARK SMILES IDX 72 77 70 78 49 79 50 80 58 81 51 82 52 83 56 84 59 85 53 86
REMARK SMILES IDX 54 87 57 88 55 89
REMARK H PARENT 7 9 79 42 47 53
REMARK Flexibility Score: inf
ROOT
ATOM      1  O   UNL     1       1.306   4.867  -7.799  1.00  0.00    -0.462 OA
ENDROOT
BRANCH   1   2
ATOM      2  C   UNL     1       0.762   3.744  -8.328  1.00  0.00     0.306 C 
ATOM      3  O   UNL     1       0.269   3.658  -9.446  1.00  0.00    -0.252 OA
BRANCH   2   4
ATOM      4  C   UNL     1       0.790   2.586  -7.356  1.00  0.00     0.126 C 
BRANCH   4   5
ATOM      5  C   UNL     1       2.141   2.342  -6.647  1.00  0.00     0.012 C 
ATOM      6  N   UNL     1       2.505   1.700  -3.784  1.00  0.00    -0.330 N 
ATOM      7  C   UNL     1       2.898   0.690  -4.776  1.00  0.00     0.184 C 
ATOM      8  C   UNL     1       3.122   2.924  -4.314  1.00  0.00     0.184 C 
ATOM      9  H   UNL     1       2.826   1.454  -2.848  1.00  0.00     0.348 HD
ATOM     10  C   UNL     1       4.401   0.963  -4.901  1.00  0.00     0.071 C 
ATOM     11  C   UNL     1       2.190   0.882  -6.128  1.00  0.00     0.069 C 
ATOM     12  C   UNL     1       4.544   2.456  -4.624  1.00  0.00     0.071 C 
ATOM     13  C   UNL     1       2.402   3.422  -5.572  1.00  0.00     0.069 C 
BRANCH   6  14
ATOM     14  C   UNL     1       1.070   1.815  -3.520  1.00  0.00     0.265 C 
BRANCH  14  15
ATOM     15  C   UNL     1       0.639   1.200  -2.171  1.00  0.00     0.041 C 
ATOM     16  C   UNL     1       1.364   1.893  -1.017  1.00  0.00     0.013 C 
BRANCH  15  17
ATOM     17  C   UNL     1      -0.909   1.282  -2.111  1.00  0.00     0.009 C 
BRANCH  17  18
ATOM     18  C   UNL     1      -1.587   1.195  -0.744  1.00  0.00    -0.003 C 
ATOM     19  C   UNL     1      -1.687   2.541  -0.036  1.00  0.00     0.004 C 
ENDBRANCH  17  18
ENDBRANCH  15  17
ENDBRANCH  14  15
ENDBRANCH   6  14
ENDBRANCH   4   5
ENDBRANCH   2   4
ENDBRANCH   1   2
BRANCH   1  20
ATOM     20  C   UNL     1       1.426   6.002  -8.673  1.00  0.00     0.274 C 
BRANCH  20  21
ATOM     21  C   UNL     1       2.825   6.053  -9.288  1.00  0.00     0.275 C 
BRANCH  21  22
ATOM     22  O   UNL     1       3.001   4.974 -10.225  1.00  0.00    -0.458 OA
BRANCH  22  23
ATOM     23  C   UNL     1       3.812   3.969  -9.832  1.00  0.00     0.338 C 
ATOM     24  O   UNL     1       4.475   3.894  -8.807  1.00  0.00    -0.246 OA
BRANCH  23  25
ATOM     25  C   UNL     1       3.716   2.877 -10.809  1.00  0.00     0.060 A 
ATOM     26  C   UNL     1       2.907   1.776 -10.516  1.00  0.00     0.016 A 
ATOM     27  C   UNL     1       4.460   2.920 -11.988  1.00  0.00     0.016 A 
ATOM     28  C   UNL     1       2.829   0.710 -11.409  1.00  0.00     0.010 A 
ATOM     29  C   UNL     1       4.373   1.855 -12.888  1.00  0.00     0.010 A 
ATOM     30  C   UNL     1       3.560   0.743 -12.602  1.00  0.00    -0.014 A 
BRANCH  30  31
ATOM     31  C   UNL     1       3.495  -0.398 -13.545  1.00  0.00     0.031 A 
ATOM     32  C   UNL     1       4.662  -1.331 -13.670  1.00  0.00     0.074 A 
ATOM     33  C   UNL     1       2.390  -0.589 -14.289  1.00  0.00     0.049 A 
ATOM     34  N   UNL     1       4.849  -2.317 -14.511  1.00  0.00    -0.248 NA
ATOM     35  C   UNL     1       5.768  -1.126 -12.724  1.00  0.00     0.031 C 
ATOM     36  C   UNL     1       1.178   0.226 -14.223  1.00  0.00     0.029 A 
ATOM     37  N   UNL     1       2.114  -1.525 -15.253  1.00  0.00    -0.354 N 
ATOM     38  C   UNL     1       6.100  -2.836 -14.209  1.00  0.00     0.074 A 
ATOM     39  C   UNL     1       6.635  -2.049 -13.118  1.00  0.00     0.031 C 
ATOM     40  C   UNL     1       0.288  -0.242 -15.113  1.00  0.00     0.029 A 
ATOM     41  C   UNL     1       0.886  -1.357 -15.843  1.00  0.00     0.049 A 
ATOM     42  H   UNL     1       2.736  -2.248 -15.498  1.00  0.00     0.167 HD
ATOM     43  C   UNL     1       6.740  -3.879 -14.791  1.00  0.00     0.037 A 
ATOM     44  C   UNL     1       0.322  -2.008 -16.878  1.00  0.00     0.037 A 
ATOM     45  C   UNL     1       6.197  -4.666 -15.868  1.00  0.00     0.049 A 
ATOM     46  C   UNL     1       1.081  -3.120 -17.549  1.00  0.00     0.074 A 
ATOM     47  C   UNL     1       6.761  -5.753 -16.512  1.00  0.00     0.029 A 
ATOM     48  N   UNL     1       4.963  -4.446 -16.461  1.00  0.00    -0.354 N 
ATOM     49  N   UNL     1       2.265  -3.604 -17.262  1.00  0.00    -0.248 NA
ATOM     50  C   UNL     1       0.430  -3.768 -18.695  1.00  0.00     0.031 C 
ATOM     51  C   UNL     1       5.885  -6.166 -17.523  1.00  0.00     0.029 A 
ATOM     52  C   UNL     1       4.756  -5.363 -17.479  1.00  0.00     0.049 A 
ATOM     53  H   UNL     1       4.326  -3.742 -16.197  1.00  0.00     0.167 HD
ATOM     54  C   UNL     1       2.493  -4.623 -18.176  1.00  0.00     0.074 A 
ATOM     55  C   UNL     1       1.317  -4.698 -19.019  1.00  0.00     0.031 C 
ATOM     56  C   UNL     1       3.580  -5.422 -18.308  1.00  0.00     0.037 A 
BRANCH  43  57
ATOM     57  C   UNL     1       8.114  -4.210 -14.293  1.00  0.00     0.064 A 
ATOM     58  C   UNL     1       8.320  -4.824 -13.049  1.00  0.00     0.173 A 
ATOM     59  C   UNL     1       9.240  -3.937 -15.085  1.00  0.00     0.173 A 
ATOM     60  F   UNL     1       7.277  -5.093 -12.248  1.00  0.00    -0.203 F 
ATOM     61  C   UNL     1       9.604  -5.132 -12.606  1.00  0.00     0.198 A 
ATOM     62  C   UNL     1      10.520  -4.269 -14.650  1.00  0.00     0.198 A 
ATOM     63  F   UNL     1       9.097  -3.353 -16.284  1.00  0.00    -0.203 F 
ATOM     64  F   UNL     1       9.780  -5.681 -11.396  1.00  0.00    -0.200 F 
ATOM     65  C   UNL     1      10.701  -4.860 -13.409  1.00  0.00     0.200 A 
ATOM     66  F   UNL     1      11.578  -4.014 -15.432  1.00  0.00    -0.200 F 
ATOM     67  F   UNL     1      11.936  -5.162 -12.984  1.00  0.00    -0.200 F 
ENDBRANCH  43  57
BRANCH  44  68
ATOM     68  C   UNL     1      -1.025  -1.607 -17.358  1.00  0.00     0.064 A 
ATOM     69  C   UNL     1      -2.133  -2.445 -17.178  1.00  0.00     0.173 A 
ATOM     70  C   UNL     1      -1.230  -0.382 -18.010  1.00  0.00     0.173 A 
ATOM     71  F   UNL     1      -1.981  -3.639 -16.585  1.00  0.00    -0.203 F 
ATOM     72  C   UNL     1      -3.395  -2.078 -17.643  1.00  0.00     0.198 A 
ATOM     73  C   UNL     1      -2.497  -0.004 -18.450  1.00  0.00     0.198 A 
ATOM     74  F   UNL     1      -0.200   0.453 -18.210  1.00  0.00    -0.203 F 
ATOM     75  F   UNL     1      -4.430  -2.916 -17.495  1.00  0.00    -0.200 F 
ATOM     76  C   UNL     1      -3.576  -0.855 -18.271  1.00  0.00     0.200 A 
ATOM     77  F   UNL     1      -2.670   1.182 -19.049  1.00  0.00    -0.200 F 
ATOM     78  F   UNL     1      -4.791  -0.501 -18.714  1.00  0.00    -0.200 F 
ENDBRANCH  44  68
BRANCH  56  79
ATOM     79  C   UNL     1       3.537  -6.461 -19.390  1.00  0.00     0.064 A 
ATOM     80  C   UNL     1       3.675  -6.117 -20.742  1.00  0.00     0.173 A 
ATOM     81  C   UNL     1       3.391  -7.818 -19.066  1.00  0.00     0.173 A 
ATOM     82  F   UNL     1       3.799  -4.831 -21.102  1.00  0.00    -0.203 F 
ATOM     83  C   UNL     1       3.647  -7.093 -21.734  1.00  0.00     0.198 A 
ATOM     84  C   UNL     1       3.390  -8.794 -20.059  1.00  0.00     0.198 A 
ATOM     85  F   UNL     1       3.261  -8.198 -17.786  1.00  0.00    -0.203 F 
ATOM     86  F   UNL     1       3.737  -6.739 -23.023  1.00  0.00    -0.200 F 
ATOM     87  C   UNL     1       3.511  -8.431 -21.392  1.00  0.00     0.200 A 
ATOM     88  F   UNL     1       3.268 -10.087 -19.726  1.00  0.00    -0.200 F 
ATOM     89  F   UNL     1       3.489  -9.370 -22.348  1.00  0.00    -0.200 F 
ENDBRANCH  56  79
ENDBRANCH  30  31
ENDBRANCH  23  25
ENDBRANCH  22  23
ENDBRANCH  21  22
ENDBRANCH  20  21
ENDBRANCH   1  20
TORSDOF 16
