REMARK SMILES C[C@@H]1CCC[C@@](CCOCCO)(C(=O)OCCOC(=O)c2ccc(-c3c4nc(c(-c5c(F)c(F)c(F)c(F)c5F)c5ccc([nH]5)c(-c5c(F)c(F)c(F)c(F)c5F)c5nc(c(-c6c(F)c(F)c(F)c(F)c6F)c6ccc3[nH]6)C=C5)C=C4)cc2)C1
REMARK SMILES IDX 13 1 14 2 6 3 1 4 2 5 3 6 84 7 4 8 5 9 7 10 8 11 9 12 10 13
REMARK SMILES IDX 11 14 12 15 15 17 16 18 17 19 18 20 19 21 20 22 21 23 22 24
REMARK SMILES IDX 83 25 23 26 82 27 24 28 25 29 26 30 76 31 27 32 81 33 75 34
REMARK SMILES IDX 77 35 28 36 80 37 74 38 73 39 29 41 61 42 41 43 60 44 42 45
REMARK SMILES IDX 45 46 59 47 78 48 43 49 44 50 58 52 79 53 46 54 30 55 31 56
REMARK SMILES IDX 39 57 32 58 33 59 37 60 40 61 34 62 35 63 38 64 36 65 62 66
REMARK SMILES IDX 63 67 71 68 64 69 65 70 69 71 72 72 66 73 67 74 70 75 68 76
REMARK SMILES IDX 47 77 48 78 56 79 49 80 50 81 54 82 57 83 51 84 52 85 55 86
REMARK SMILES IDX 53 87
REMARK H PARENT 12 16 77 40 45 51
REMARK Flexibility Score: inf
ROOT
ATOM      1  C   UNL     1      -1.543  -2.731   0.306  1.00  0.00     0.312 C 
ATOM      2  O   UNL     1      -1.082  -3.755   0.797  1.00  0.00    -0.252 OA
ENDROOT
BRANCH   1   3
ATOM      3  C   UNL     1      -1.172  -1.314   0.817  1.00  0.00     0.070 C 
ATOM      4  C   UNL     1       1.352   0.566   2.264  1.00  0.00     0.007 C 
ATOM      5  C   UNL     1       1.075   0.130   0.825  1.00  0.00    -0.013 C 
ATOM      6  C   UNL     1       0.339   1.217   0.037  1.00  0.00     0.003 C 
ATOM      7  C   UNL     1       0.391  -1.250   0.726  1.00  0.00     0.022 C 
ATOM      8  C   UNL     1      -1.167   1.188   0.255  1.00  0.00     0.001 C 
ATOM      9  C   UNL     1      -1.736  -0.190  -0.079  1.00  0.00     0.019 C 
BRANCH   3  10
ATOM     10  C   UNL     1      -1.623  -1.252   2.320  1.00  0.00     0.047 C 
BRANCH  10  11
ATOM     11  C   UNL     1      -2.957  -0.583   2.698  1.00  0.00     0.161 C 
BRANCH  11  12
ATOM     12  O   UNL     1      -4.068  -1.472   2.771  1.00  0.00    -0.379 OA
BRANCH  12  13
ATOM     13  C   UNL     1      -4.704  -1.778   1.541  1.00  0.00     0.188 C 
BRANCH  13  14
ATOM     14  C   UNL     1      -5.722  -0.762   1.010  1.00  0.00     0.184 C 
BRANCH  14  15
ATOM     15  O   UNL     1      -5.400   0.598   1.260  1.00  0.00    -0.394 OA
ATOM     16  H   UNL     1      -5.380   0.755   2.217  1.00  0.00     0.210 HD
ENDBRANCH  14  15
ENDBRANCH  13  14
ENDBRANCH  12  13
ENDBRANCH  11  12
ENDBRANCH  10  11
ENDBRANCH   3  10
ENDBRANCH   1   3
BRANCH   1  17
ATOM     17  O   UNL     1      -2.434  -2.726  -0.726  1.00  0.00    -0.462 OA
BRANCH  17  18
ATOM     18  C   UNL     1      -3.007  -4.009  -1.078  1.00  0.00     0.274 C 
BRANCH  18  19
ATOM     19  C   UNL     1      -3.239  -4.093  -2.584  1.00  0.00     0.275 C 
BRANCH  19  20
ATOM     20  O   UNL     1      -1.952  -4.210  -3.209  1.00  0.00    -0.458 OA
BRANCH  20  21
ATOM     21  C   UNL     1      -1.529  -3.133  -3.898  1.00  0.00     0.338 C 
ATOM     22  O   UNL     1      -2.179  -2.171  -4.281  1.00  0.00    -0.246 OA
BRANCH  21  23
ATOM     23  C   UNL     1      -0.068  -3.204  -3.955  1.00  0.00     0.060 A 
ATOM     24  C   UNL     1       0.629  -2.939  -2.777  1.00  0.00     0.016 A 
ATOM     25  C   UNL     1       0.610  -3.436  -5.146  1.00  0.00     0.016 A 
ATOM     26  C   UNL     1       2.014  -2.830  -2.788  1.00  0.00     0.010 A 
ATOM     27  C   UNL     1       2.007  -3.397  -5.143  1.00  0.00     0.010 A 
ATOM     28  C   UNL     1       2.720  -3.061  -3.973  1.00  0.00    -0.014 A 
BRANCH  28  29
ATOM     29  C   UNL     1       4.191  -2.856  -4.030  1.00  0.00     0.031 A 
ATOM     30  C   UNL     1       4.742  -1.815  -4.962  1.00  0.00     0.074 A 
ATOM     31  C   UNL     1       5.033  -3.571  -3.259  1.00  0.00     0.049 A 
ATOM     32  N   UNL     1       5.959  -1.662  -5.414  1.00  0.00    -0.248 NA
ATOM     33  C   UNL     1       3.783  -0.817  -5.465  1.00  0.00     0.031 C 
ATOM     34  C   UNL     1       4.640  -4.544  -2.240  1.00  0.00     0.029 A 
ATOM     35  N   UNL     1       6.407  -3.589  -3.224  1.00  0.00    -0.354 N 
ATOM     36  C   UNL     1       5.897  -0.603  -6.309  1.00  0.00     0.074 A 
ATOM     37  C   UNL     1       4.527  -0.135  -6.323  1.00  0.00     0.031 C 
ATOM     38  C   UNL     1       5.744  -5.056  -1.673  1.00  0.00     0.029 A 
ATOM     39  C   UNL     1       6.919  -4.518  -2.351  1.00  0.00     0.049 A 
ATOM     40  H   UNL     1       6.969  -2.994  -3.771  1.00  0.00     0.167 HD
ATOM     41  C   UNL     1       6.895  -0.082  -7.060  1.00  0.00     0.037 A 
ATOM     42  C   UNL     1       8.186  -4.932  -2.163  1.00  0.00     0.037 A 
ATOM     43  C   UNL     1       8.264  -0.520  -6.993  1.00  0.00     0.049 A 
ATOM     44  C   UNL     1       9.280  -4.351  -3.018  1.00  0.00     0.074 A 
ATOM     45  C   UNL     1       9.348  -0.103  -7.744  1.00  0.00     0.029 A 
ATOM     46  N   UNL     1       8.739  -1.460  -6.090  1.00  0.00    -0.354 N 
ATOM     47  N   UNL     1       9.198  -3.449  -3.966  1.00  0.00    -0.248 NA
ATOM     48  C   UNL     1      10.639  -4.866  -2.797  1.00  0.00     0.031 C 
ATOM     49  C   UNL     1      10.480  -0.796  -7.300  1.00  0.00     0.029 A 
ATOM     50  C   UNL     1      10.104  -1.623  -6.253  1.00  0.00     0.049 A 
ATOM     51  H   UNL     1       8.188  -1.940  -5.430  1.00  0.00     0.167 HD
ATOM     52  C   UNL     1      10.487  -3.287  -4.451  1.00  0.00     0.074 A 
ATOM     53  C   UNL     1      11.340  -4.164  -3.676  1.00  0.00     0.031 C 
ATOM     54  C   UNL     1      10.928  -2.495  -5.458  1.00  0.00     0.037 A 
BRANCH  41  55
ATOM     55  C   UNL     1       6.537   0.988  -8.046  1.00  0.00     0.064 A 
ATOM     56  C   UNL     1       6.253   2.300  -7.645  1.00  0.00     0.173 A 
ATOM     57  C   UNL     1       6.503   0.697  -9.418  1.00  0.00     0.173 A 
ATOM     58  F   UNL     1       6.250   2.622  -6.343  1.00  0.00    -0.203 F 
ATOM     59  C   UNL     1       5.933   3.280  -8.582  1.00  0.00     0.198 A 
ATOM     60  C   UNL     1       6.207   1.684 -10.354  1.00  0.00     0.198 A 
ATOM     61  F   UNL     1       6.765  -0.545  -9.853  1.00  0.00    -0.203 F 
ATOM     62  F   UNL     1       5.628   4.519  -8.174  1.00  0.00    -0.200 F 
ATOM     63  C   UNL     1       5.917   2.973  -9.934  1.00  0.00     0.200 A 
ATOM     64  F   UNL     1       6.199   1.387 -11.661  1.00  0.00    -0.200 F 
ATOM     65  F   UNL     1       5.616   3.919 -10.834  1.00  0.00    -0.200 F 
ENDBRANCH  41  55
BRANCH  42  66
ATOM     66  C   UNL     1       8.480  -6.003  -1.175  1.00  0.00     0.064 A 
ATOM     67  C   UNL     1       9.205  -5.730  -0.007  1.00  0.00     0.173 A 
ATOM     68  C   UNL     1       8.050  -7.322  -1.383  1.00  0.00     0.173 A 
ATOM     69  F   UNL     1       9.664  -4.491   0.222  1.00  0.00    -0.203 F 
ATOM     70  C   UNL     1       9.499  -6.739   0.909  1.00  0.00     0.198 A 
ATOM     71  C   UNL     1       8.318  -8.323  -0.452  1.00  0.00     0.198 A 
ATOM     72  F   UNL     1       7.356  -7.637  -2.487  1.00  0.00    -0.203 F 
ATOM     73  F   UNL     1      10.232  -6.461   1.995  1.00  0.00    -0.200 F 
ATOM     74  C   UNL     1       9.048  -8.032   0.690  1.00  0.00     0.200 A 
ATOM     75  F   UNL     1       7.870  -9.568  -0.663  1.00  0.00    -0.200 F 
ATOM     76  F   UNL     1       9.327  -9.000   1.573  1.00  0.00    -0.200 F 
ENDBRANCH  42  66
BRANCH  54  77
ATOM     77  C   UNL     1      12.395  -2.522  -5.754  1.00  0.00     0.064 A 
ATOM     78  C   UNL     1      12.979  -3.589  -6.452  1.00  0.00     0.173 A 
ATOM     79  C   UNL     1      13.217  -1.455  -5.365  1.00  0.00     0.173 A 
ATOM     80  F   UNL     1      12.232  -4.637  -6.830  1.00  0.00    -0.203 F 
ATOM     81  C   UNL     1      14.341  -3.594  -6.735  1.00  0.00     0.198 A 
ATOM     82  C   UNL     1      14.575  -1.455  -5.666  1.00  0.00     0.198 A 
ATOM     83  F   UNL     1      12.701  -0.412  -4.698  1.00  0.00    -0.203 F 
ATOM     84  F   UNL     1      14.888  -4.639  -7.371  1.00  0.00    -0.200 F 
ATOM     85  C   UNL     1      15.137  -2.526  -6.346  1.00  0.00     0.200 A 
ATOM     86  F   UNL     1      15.342  -0.420  -5.296  1.00  0.00    -0.200 F 
ATOM     87  F   UNL     1      16.449  -2.532  -6.620  1.00  0.00    -0.200 F 
ENDBRANCH  54  77
ENDBRANCH  28  29
ENDBRANCH  21  23
ENDBRANCH  20  21
ENDBRANCH  19  20
ENDBRANCH  18  19
ENDBRANCH  17  18
ENDBRANCH   1  17
TORSDOF 17
