REMARK SMILES O=C(CS(=O)(=O)[C@@H]1CCOC2(CCCCC2)C1)OCCOC(=O)c1ccc(-c2c3nc(c(-c4c(F)c(F)c(F)c(F)c4F)c4ccc([nH]4)c(-c4c(F)c(F)c(F)c(F)c4F)c4nc(c(-c5c(F)c(F)c(F)c(F)c5F)c5ccc2[nH]5)C=C4)C=C3)cc1
REMARK SMILES IDX 19 1 18 2 2 3 1 4 3 5 4 6 5 7 6 8 7 9 8 10 17 11 9 12 11 13
REMARK SMILES IDX 10 14 12 15 16 16 13 17 15 18 14 19 20 20 21 21 22 22 23 23
REMARK SMILES IDX 24 24 25 25 86 26 26 27 85 28 27 29 28 30 29 31 79 32 30 33
REMARK SMILES IDX 84 34 78 35 80 36 31 37 83 38 77 39 76 40 32 42 64 43 44 44
REMARK SMILES IDX 63 45 45 46 48 47 62 48 81 49 46 50 47 51 61 53 82 54 49 55
REMARK SMILES IDX 33 56 34 57 42 58 35 59 36 60 40 61 43 62 37 63 38 64 41 65
REMARK SMILES IDX 39 66 65 67 66 68 74 69 67 70 68 71 72 72 75 73 69 74 70 75
REMARK SMILES IDX 73 76 71 77 50 78 51 79 59 80 52 81 53 82 57 83 60 84 54 85
REMARK SMILES IDX 55 86 58 87 56 88
REMARK H PARENT 80 41 48 52
REMARK Flexibility Score: inf
ROOT
ATOM      1  C   UNL     1       5.209   1.421  -0.194  1.00  0.00     0.274 C 
ENDROOT
BRANCH   1   2
ATOM      2  O   UNL     1       3.954   1.268  -0.887  1.00  0.00    -0.461 OA
BRANCH   2   3
ATOM      3  C   UNL     1       3.252   0.121  -1.000  1.00  0.00     0.321 C 
ATOM      4  O   UNL     1       2.233   0.103  -1.686  1.00  0.00    -0.251 OA
BRANCH   3   5
ATOM      5  C   UNL     1       3.639  -1.057  -0.180  1.00  0.00     0.259 C 
BRANCH   5   6
ATOM      6  S   UNL     1       4.217  -2.424  -1.154  1.00  0.00     0.164 S 
ATOM      7  O   UNL     1       4.871  -1.856  -2.321  1.00  0.00    -0.228 OA
ATOM      8  O   UNL     1       5.029  -3.220  -0.243  1.00  0.00    -0.228 OA
BRANCH   6   9
ATOM      9  C   UNL     1       2.897  -3.519  -1.749  1.00  0.00     0.114 C 
ATOM     10  C   UNL     1       1.662  -2.804  -2.262  1.00  0.00     0.048 C 
ATOM     11  C   UNL     1       2.523  -4.722  -0.846  1.00  0.00     0.055 C 
ATOM     12  C   UNL     1       0.696  -2.486  -1.144  1.00  0.00     0.162 C 
ATOM     13  C   UNL     1       1.435  -4.407   0.189  1.00  0.00     0.069 C 
ATOM     14  O   UNL     1       0.379  -3.654  -0.417  1.00  0.00    -0.375 OA
ATOM     15  C   UNL     1       2.056  -3.775   1.433  1.00  0.00     0.035 C 
ATOM     16  C   UNL     1       0.693  -5.643   0.749  1.00  0.00     0.035 C 
ATOM     17  C   UNL     1       0.991  -3.156   2.301  1.00  0.00     0.003 C 
ATOM     18  C   UNL     1      -0.470  -5.195   1.663  1.00  0.00     0.003 C 
ATOM     19  C   UNL     1      -0.095  -4.141   2.705  1.00  0.00     0.000 C 
ENDBRANCH   6   9
ENDBRANCH   5   6
ENDBRANCH   3   5
ENDBRANCH   2   3
ENDBRANCH   1   2
BRANCH   1  20
ATOM     20  C   UNL     1       4.994   2.002   1.206  1.00  0.00     0.275 C 
BRANCH  20  21
ATOM     21  O   UNL     1       4.455   1.023   2.126  1.00  0.00    -0.458 OA
BRANCH  21  22
ATOM     22  C   UNL     1       3.179   1.227   2.543  1.00  0.00     0.338 C 
ATOM     23  O   UNL     1       2.426   2.093   2.127  1.00  0.00    -0.246 OA
BRANCH  22  24
ATOM     24  C   UNL     1       2.753   0.212   3.552  1.00  0.00     0.060 A 
ATOM     25  C   UNL     1       1.380   0.064   3.781  1.00  0.00     0.016 A 
ATOM     26  C   UNL     1       3.652  -0.570   4.294  1.00  0.00     0.016 A 
ATOM     27  C   UNL     1       0.914  -0.857   4.729  1.00  0.00     0.010 A 
ATOM     28  C   UNL     1       3.182  -1.492   5.254  1.00  0.00     0.010 A 
ATOM     29  C   UNL     1       1.808  -1.651   5.479  1.00  0.00    -0.014 A 
BRANCH  29  30
ATOM     30  C   UNL     1       1.238  -2.520   6.555  1.00  0.00     0.031 A 
ATOM     31  C   UNL     1       0.612  -1.834   7.733  1.00  0.00     0.074 A 
ATOM     32  C   UNL     1       1.179  -3.867   6.489  1.00  0.00     0.049 A 
ATOM     33  N   UNL     1      -0.184  -2.306   8.656  1.00  0.00    -0.248 NA
ATOM     34  C   UNL     1       0.963  -0.415   7.896  1.00  0.00     0.031 C 
ATOM     35  C   UNL     1       1.821  -4.702   5.483  1.00  0.00     0.029 A 
ATOM     36  N   UNL     1       0.466  -4.770   7.254  1.00  0.00    -0.354 N 
ATOM     37  C   UNL     1      -0.417  -1.247   9.519  1.00  0.00     0.074 A 
ATOM     38  C   UNL     1       0.299  -0.103   8.995  1.00  0.00     0.031 C 
ATOM     39  C   UNL     1       1.353  -5.960   5.588  1.00  0.00     0.029 A 
ATOM     40  C   UNL     1       0.411  -6.035   6.703  1.00  0.00     0.049 A 
ATOM     41  H   UNL     1       0.038  -4.535   8.110  1.00  0.00     0.167 HD
ATOM     42  C   UNL     1      -1.122  -1.234  10.675  1.00  0.00     0.037 A 
ATOM     43  C   UNL     1      -0.344  -7.106   7.034  1.00  0.00     0.037 A 
ATOM     44  C   UNL     1      -1.763  -2.379  11.256  1.00  0.00     0.049 A 
ATOM     45  C   UNL     1      -1.192  -7.050   8.287  1.00  0.00     0.074 A 
ATOM     46  C   UNL     1      -2.426  -2.476  12.467  1.00  0.00     0.029 A 
ATOM     47  N   UNL     1      -1.798  -3.638  10.678  1.00  0.00    -0.354 N 
ATOM     48  N   UNL     1      -1.448  -6.036   9.075  1.00  0.00    -0.248 NA
ATOM     49  C   UNL     1      -1.816  -8.313   8.721  1.00  0.00     0.031 C 
ATOM     50  C   UNL     1      -2.822  -3.807  12.643  1.00  0.00     0.029 A 
ATOM     51  C   UNL     1      -2.458  -4.523  11.516  1.00  0.00     0.049 A 
ATOM     52  H   UNL     1      -1.412  -3.869   9.803  1.00  0.00     0.167 HD
ATOM     53  C   UNL     1      -2.241  -6.539  10.100  1.00  0.00     0.074 A 
ATOM     54  C   UNL     1      -2.481  -7.934   9.802  1.00  0.00     0.031 C 
ATOM     55  C   UNL     1      -2.699  -5.909  11.210  1.00  0.00     0.037 A 
BRANCH  42  56
ATOM     56  C   UNL     1      -1.123   0.060  11.427  1.00  0.00     0.064 A 
ATOM     57  C   UNL     1      -1.859   1.168  10.986  1.00  0.00     0.173 A 
ATOM     58  C   UNL     1      -0.313   0.209  12.562  1.00  0.00     0.173 A 
ATOM     59  F   UNL     1      -2.617   1.080   9.882  1.00  0.00    -0.203 F 
ATOM     60  C   UNL     1      -1.754   2.395  11.635  1.00  0.00     0.198 A 
ATOM     61  C   UNL     1      -0.232   1.430  13.224  1.00  0.00     0.198 A 
ATOM     62  F   UNL     1       0.420  -0.820  13.011  1.00  0.00    -0.203 F 
ATOM     63  F   UNL     1      -2.407   3.462  11.155  1.00  0.00    -0.200 F 
ATOM     64  C   UNL     1      -0.942   2.524  12.752  1.00  0.00     0.200 A 
ATOM     65  F   UNL     1       0.555   1.554  14.301  1.00  0.00    -0.200 F 
ATOM     66  F   UNL     1      -0.826   3.711  13.363  1.00  0.00    -0.200 F 
ENDBRANCH  42  56
BRANCH  43  67
ATOM     67  C   UNL     1      -0.380  -8.342   6.192  1.00  0.00     0.064 A 
ATOM     68  C   UNL     1      -1.590  -8.779   5.620  1.00  0.00     0.173 A 
ATOM     69  C   UNL     1       0.741  -9.163   6.016  1.00  0.00     0.173 A 
ATOM     70  F   UNL     1      -2.708  -8.055   5.784  1.00  0.00    -0.203 F 
ATOM     71  C   UNL     1      -1.680  -9.995   4.943  1.00  0.00     0.198 A 
ATOM     72  C   UNL     1       0.659 -10.361   5.304  1.00  0.00     0.198 A 
ATOM     73  F   UNL     1       1.920  -8.815   6.552  1.00  0.00    -0.203 F 
ATOM     74  F   UNL     1      -2.865 -10.420   4.482  1.00  0.00    -0.200 F 
ATOM     75  C   UNL     1      -0.553 -10.784   4.782  1.00  0.00     0.200 A 
ATOM     76  F   UNL     1       1.754 -11.118   5.145  1.00  0.00    -0.200 F 
ATOM     77  F   UNL     1      -0.639 -11.959   4.143  1.00  0.00    -0.200 F 
ENDBRANCH  43  67
BRANCH  55  78
ATOM     78  C   UNL     1      -3.502  -6.715  12.192  1.00  0.00     0.064 A 
ATOM     79  C   UNL     1      -2.911  -7.710  12.986  1.00  0.00     0.173 A 
ATOM     80  C   UNL     1      -4.867  -6.451  12.382  1.00  0.00     0.173 A 
ATOM     81  F   UNL     1      -1.611  -8.009  12.838  1.00  0.00    -0.203 F 
ATOM     82  C   UNL     1      -3.661  -8.428  13.914  1.00  0.00     0.198 A 
ATOM     83  C   UNL     1      -5.607  -7.150  13.332  1.00  0.00     0.198 A 
ATOM     84  F   UNL     1      -5.479  -5.504  11.656  1.00  0.00    -0.203 F 
ATOM     85  F   UNL     1      -3.084  -9.402  14.631  1.00  0.00    -0.200 F 
ATOM     86  C   UNL     1      -5.006  -8.142  14.092  1.00  0.00     0.200 A 
ATOM     87  F   UNL     1      -6.904  -6.862  13.512  1.00  0.00    -0.200 F 
ATOM     88  F   UNL     1      -5.725  -8.826  14.993  1.00  0.00    -0.200 F 
ENDBRANCH  55  78
ENDBRANCH  29  30
ENDBRANCH  22  24
ENDBRANCH  21  22
ENDBRANCH  20  21
ENDBRANCH   1  20
TORSDOF 13
