REMARK SMILES COc1cc([C@H]2C[C@@H](C(=O)OCCOC(=O)c3ccc(-c4c5nc(c(-c6c(F)c(F)c(F)c(F)c6F)c6ccc([nH]6)c(-c6c(F)c(F)c(F)c(F)c6F)c6nc(c(-c7c(F)c(F)c(F)c(F)c7F)c7ccc4[nH]7)C=C6)C=C5)cc3)C2)ccc1Br
REMARK SMILES IDX 12 1 11 2 9 3 10 4 8 5 6 6 7 7 80 8 5 9 3 10 4 11 83 12
REMARK SMILES IDX 82 13 84 14 81 15 2 16 1 17 13 18 14 19 15 20 16 21 17 22
REMARK SMILES IDX 18 23 79 24 19 25 78 26 20 27 21 28 22 29 72 30 23 31 77 32
REMARK SMILES IDX 71 33 73 34 24 35 76 36 70 37 69 38 25 40 57 41 37 42 56 43
REMARK SMILES IDX 38 44 41 45 55 46 74 47 39 48 40 49 54 51 75 52 42 53 26 54
REMARK SMILES IDX 27 55 35 56 28 57 29 58 33 59 36 60 30 61 31 62 34 63 32 64
REMARK SMILES IDX 58 65 59 66 67 67 60 68 61 69 65 70 68 71 62 72 63 73 66 74
REMARK SMILES IDX 64 75 43 76 44 77 52 78 45 79 46 80 50 81 53 82 47 83 48 84
REMARK SMILES IDX 51 85 49 86
REMARK H PARENT 73 39 41 50
REMARK Flexibility Score: inf
ROOT
ATOM      1  C   UNL     1       1.713 -10.157  -3.735  1.00  0.00     0.274 C 
ENDROOT
BRANCH   1   2
ATOM      2  O   UNL     1       1.232  -8.887  -3.254  1.00  0.00    -0.462 OA
BRANCH   2   3
ATOM      3  C   UNL     1       0.035  -8.448  -3.745  1.00  0.00     0.309 C 
ATOM      4  O   UNL     1      -0.585  -9.034  -4.633  1.00  0.00    -0.252 OA
BRANCH   3   5
ATOM      5  C   UNL     1      -0.493  -7.189  -3.025  1.00  0.00     0.100 C 
ATOM      6  C   UNL     1      -0.153  -5.279  -2.100  1.00  0.00     0.021 C 
ATOM      7  C   UNL     1      -0.097  -5.798  -3.567  1.00  0.00     0.023 C 
ATOM      8  C   UNL     1       0.119  -6.747  -1.671  1.00  0.00     0.023 C 
BRANCH   6   9
ATOM      9  C   UNL     1       0.864  -4.159  -1.627  1.00  0.00    -0.041 A 
ATOM     10  C   UNL     1       1.350  -2.116  -0.339  1.00  0.00     0.133 A 
ATOM     11  C   UNL     1       0.461  -3.108  -0.776  1.00  0.00     0.051 A 
ATOM     12  C   UNL     1       2.691  -2.171  -0.716  1.00  0.00     0.060 A 
ATOM     13  C   UNL     1       3.122  -3.190  -1.562  1.00  0.00     0.020 A 
ATOM     14  Br  UNL     1       3.989  -0.946  -0.078  1.00  0.00    -0.047 Br
ATOM     15  C   UNL     1       2.220  -4.163  -2.006  1.00  0.00     0.005 A 
BRANCH  10  16
ATOM     16  O   UNL     1       0.847  -1.183   0.528  1.00  0.00    -0.496 OA
ATOM     17  C   UNL     1       0.669   0.086  -0.103  1.00  0.00     0.278 C 
ENDBRANCH  10  16
ENDBRANCH   6   9
ENDBRANCH   3   5
ENDBRANCH   2   3
ENDBRANCH   1   2
BRANCH   1  18
ATOM     18  C   UNL     1       1.565 -11.241  -2.662  1.00  0.00     0.275 C 
BRANCH  18  19
ATOM     19  O   UNL     1       0.181 -11.518  -2.373  1.00  0.00    -0.458 OA
BRANCH  19  20
ATOM     20  C   UNL     1      -0.341 -10.801  -1.350  1.00  0.00     0.338 C 
ATOM     21  O   UNL     1       0.233  -9.992  -0.641  1.00  0.00    -0.246 OA
BRANCH  20  22
ATOM     22  C   UNL     1      -1.795 -11.014  -1.284  1.00  0.00     0.060 A 
ATOM     23  C   UNL     1      -2.617  -9.898  -1.450  1.00  0.00     0.016 A 
ATOM     24  C   UNL     1      -2.346 -12.260  -0.980  1.00  0.00     0.016 A 
ATOM     25  C   UNL     1      -3.996 -10.015  -1.318  1.00  0.00     0.010 A 
ATOM     26  C   UNL     1      -3.735 -12.377  -0.839  1.00  0.00     0.010 A 
ATOM     27  C   UNL     1      -4.565 -11.253  -0.998  1.00  0.00    -0.014 A 
BRANCH  27  28
ATOM     28  C   UNL     1      -6.027 -11.338  -0.773  1.00  0.00     0.031 A 
ATOM     29  C   UNL     1      -6.563 -11.426   0.626  1.00  0.00     0.074 A 
ATOM     30  C   UNL     1      -6.870 -11.280  -1.819  1.00  0.00     0.049 A 
ATOM     31  N   UNL     1      -7.800 -11.558   1.033  1.00  0.00    -0.248 NA
ATOM     32  C   UNL     1      -5.575 -11.353   1.712  1.00  0.00     0.031 C 
ATOM     33  C   UNL     1      -6.468 -11.135  -3.218  1.00  0.00     0.029 A 
ATOM     34  N   UNL     1      -8.241 -11.330  -1.866  1.00  0.00    -0.354 N 
ATOM     35  C   UNL     1      -7.738 -11.604   2.418  1.00  0.00     0.074 A 
ATOM     36  C   UNL     1      -6.341 -11.497   2.784  1.00  0.00     0.031 C 
ATOM     37  C   UNL     1      -7.569 -11.101  -3.987  1.00  0.00     0.029 A 
ATOM     38  C   UNL     1      -8.748 -11.267  -3.140  1.00  0.00     0.049 A 
ATOM     39  H   UNL     1      -8.806 -11.403  -1.063  1.00  0.00     0.167 HD
ATOM     40  C   UNL     1      -8.757 -11.723   3.303  1.00  0.00     0.037 A 
ATOM     41  C   UNL     1     -10.019 -11.360  -3.575  1.00  0.00     0.037 A 
ATOM     42  C   UNL     1     -10.146 -11.810   2.936  1.00  0.00     0.049 A 
ATOM     43  C   UNL     1     -11.127 -11.546  -2.575  1.00  0.00     0.074 A 
ATOM     44  C   UNL     1     -11.252 -11.928   3.759  1.00  0.00     0.029 A 
ATOM     45  N   UNL     1     -10.619 -11.785   1.632  1.00  0.00    -0.354 N 
ATOM     46  N   UNL     1     -11.058 -11.609  -1.267  1.00  0.00    -0.248 NA
ATOM     47  C   UNL     1     -12.488 -11.684  -3.112  1.00  0.00     0.031 C 
ATOM     48  C   UNL     1     -12.392 -12.011   2.951  1.00  0.00     0.029 A 
ATOM     49  C   UNL     1     -12.000 -11.903   1.627  1.00  0.00     0.049 A 
ATOM     50  H   UNL     1     -10.057 -11.696   0.828  1.00  0.00     0.167 HD
ATOM     51  C   UNL     1     -12.363 -11.777  -0.825  1.00  0.00     0.074 A 
ATOM     52  C   UNL     1     -13.206 -11.790  -2.002  1.00  0.00     0.031 C 
ATOM     53  C   UNL     1     -12.821 -11.912   0.444  1.00  0.00     0.037 A 
BRANCH  40  54
ATOM     54  C   UNL     1      -8.402 -11.800   4.758  1.00  0.00     0.064 A 
ATOM     55  C   UNL     1      -7.981 -10.672   5.476  1.00  0.00     0.173 A 
ATOM     56  C   UNL     1      -8.515 -13.016   5.448  1.00  0.00     0.173 A 
ATOM     57  F   UNL     1      -7.843  -9.490   4.857  1.00  0.00    -0.203 F 
ATOM     58  C   UNL     1      -7.664 -10.764   6.829  1.00  0.00     0.198 A 
ATOM     59  C   UNL     1      -8.221 -13.099   6.806  1.00  0.00     0.198 A 
ATOM     60  F   UNL     1      -8.917 -14.124   4.806  1.00  0.00    -0.203 F 
ATOM     61  F   UNL     1      -7.225  -9.683   7.488  1.00  0.00    -0.200 F 
ATOM     62  C   UNL     1      -7.790 -11.975   7.494  1.00  0.00     0.200 A 
ATOM     63  F   UNL     1      -8.351 -14.268   7.448  1.00  0.00    -0.200 F 
ATOM     64  F   UNL     1      -7.489 -12.061   8.797  1.00  0.00    -0.200 F 
ENDBRANCH  40  54
BRANCH  41  65
ATOM     65  C   UNL     1     -10.307 -11.300  -5.031  1.00  0.00     0.064 A 
ATOM     66  C   UNL     1     -10.969 -10.200  -5.592  1.00  0.00     0.173 A 
ATOM     67  C   UNL     1      -9.925 -12.342  -5.888  1.00  0.00     0.173 A 
ATOM     68  F   UNL     1     -11.376  -9.192  -4.808  1.00  0.00    -0.203 F 
ATOM     69  C   UNL     1     -11.247 -10.149  -6.957  1.00  0.00     0.198 A 
ATOM     70  C   UNL     1     -10.181 -12.278  -7.256  1.00  0.00     0.198 A 
ATOM     71  F   UNL     1      -9.293 -13.418  -5.398  1.00  0.00    -0.203 F 
ATOM     72  F   UNL     1     -11.915  -9.104  -7.463  1.00  0.00    -0.200 F 
ATOM     73  C   UNL     1     -10.847 -11.185  -7.788  1.00  0.00     0.200 A 
ATOM     74  F   UNL     1      -9.784 -13.277  -8.057  1.00  0.00    -0.200 F 
ATOM     75  F   UNL     1     -11.110 -11.133  -9.101  1.00  0.00    -0.200 F 
ENDBRANCH  41  65
BRANCH  53  76
ATOM     76  C   UNL     1     -14.302 -12.063   0.623  1.00  0.00     0.064 A 
ATOM     77  C   UNL     1     -14.959 -13.262   0.313  1.00  0.00     0.173 A 
ATOM     78  C   UNL     1     -15.066 -11.008   1.146  1.00  0.00     0.173 A 
ATOM     79  F   UNL     1     -14.273 -14.293  -0.205  1.00  0.00    -0.203 F 
ATOM     80  C   UNL     1     -16.332 -13.393   0.500  1.00  0.00     0.198 A 
ATOM     81  C   UNL     1     -16.434 -11.152   1.354  1.00  0.00     0.198 A 
ATOM     82  F   UNL     1     -14.482  -9.843   1.463  1.00  0.00    -0.203 F 
ATOM     83  F   UNL     1     -16.947 -14.534   0.159  1.00  0.00    -0.200 F 
ATOM     84  C   UNL     1     -17.067 -12.341   1.026  1.00  0.00     0.200 A 
ATOM     85  F   UNL     1     -17.142 -10.137   1.871  1.00  0.00    -0.200 F 
ATOM     86  F   UNL     1     -18.389 -12.471   1.210  1.00  0.00    -0.200 F 
ENDBRANCH  53  76
ENDBRANCH  27  28
ENDBRANCH  20  22
ENDBRANCH  19  20
ENDBRANCH  18  19
ENDBRANCH   1  18
TORSDOF 13
