REMARK SMILES COc1cc([C@@H]2[NH2+][C@H](C(=O)OCCOC(=O)c3ccc(-c4c5nc(c(-c6c(F)c(F)c(F)c(F)c6F)c6ccc([nH]6)c(-c6c(F)c(F)c(F)c(F)c6F)c6nc(c(-c7c(F)c(F)c(F)c(F)c7F)c7ccc4[nH]7)C=C6)C=C5)cc3)CS2)ccc1OCc1ccc(Cl)cc1
REMARK SMILES IDX 12 1 11 2 9 3 10 4 8 5 6 6 7 7 81 8 80 11 5 12 3 13 4 14
REMARK SMILES IDX 84 15 83 16 82 17 2 18 1 19 85 20 86 21 87 22 88 23 93 24
REMARK SMILES IDX 89 25 92 26 90 27 91 28 13 29 14 30 15 31 16 32 17 33 18 34
REMARK SMILES IDX 79 35 19 36 78 37 20 38 21 39 22 40 72 41 23 42 77 43 71 44
REMARK SMILES IDX 73 45 24 46 76 47 70 48 69 49 25 51 57 52 37 53 56 54 38 55
REMARK SMILES IDX 41 56 55 57 74 58 39 59 40 60 54 62 75 63 42 64 26 65 27 66
REMARK SMILES IDX 35 67 28 68 29 69 33 70 36 71 30 72 31 73 34 74 32 75 58 76
REMARK SMILES IDX 59 77 67 78 60 79 61 80 65 81 68 82 62 83 63 84 66 85 64 86
REMARK SMILES IDX 43 87 44 88 52 89 45 90 46 91 50 92 53 93 47 94 48 95 51 96
REMARK SMILES IDX 49 97
REMARK H PARENT 7 9 7 10 73 50 41 61
REMARK Flexibility Score: inf
ROOT
ATOM      1  C   UNL     1       4.308   3.395  -5.058  1.00  0.00     0.274 C 
ENDROOT
BRANCH   1   2
ATOM      2  O   UNL     1       2.921   3.776  -5.133  1.00  0.00    -0.458 OA
BRANCH   2   3
ATOM      3  C   UNL     1       2.621   5.066  -5.413  1.00  0.00     0.365 C 
ATOM      4  O   UNL     1       3.455   5.943  -5.622  1.00  0.00    -0.245 OA
BRANCH   3   5
ATOM      5  C   UNL     1       1.112   5.355  -5.473  1.00  0.00     0.304 C 
ATOM      6  C   UNL     1      -0.284   4.126  -3.938  1.00  0.00     0.274 C 
ATOM      7  N   UNL     1       0.242   4.161  -5.303  1.00  0.00    -0.319 N 
ATOM      8  S   UNL     1      -0.575   5.837  -3.451  1.00  0.00    -0.087 SA
ATOM      9  H   UNL     1      -0.533   4.210  -5.965  1.00  0.00     0.348 HD
ATOM     10  H   UNL     1       0.788   3.317  -5.478  1.00  0.00     0.348 HD
ATOM     11  C   UNL     1       0.742   6.481  -4.507  1.00  0.00     0.153 C 
BRANCH   6  12
ATOM     12  C   UNL     1       0.598   3.316  -3.006  1.00  0.00     0.024 A 
ATOM     13  C   UNL     1       1.189   1.120  -2.080  1.00  0.00     0.161 A 
ATOM     14  C   UNL     1       0.345   1.938  -2.849  1.00  0.00     0.061 A 
ATOM     15  C   UNL     1       2.351   1.659  -1.523  1.00  0.00     0.161 A 
ATOM     16  C   UNL     1       2.608   3.023  -1.676  1.00  0.00     0.051 A 
ATOM     17  C   UNL     1       1.727   3.848  -2.370  1.00  0.00     0.015 A 
BRANCH  13  18
ATOM     18  O   UNL     1       0.913  -0.216  -1.953  1.00  0.00    -0.493 OA
ATOM     19  C   UNL     1      -0.378  -0.451  -1.384  1.00  0.00     0.278 C 
ENDBRANCH  13  18
BRANCH  15  20
ATOM     20  O   UNL     1       3.319   1.021  -0.796  1.00  0.00    -0.485 OA
BRANCH  20  21
ATOM     21  C   UNL     1       2.940  -0.051   0.070  1.00  0.00     0.265 C 
BRANCH  21  22
ATOM     22  C   UNL     1       1.942   0.300   1.160  1.00  0.00    -0.011 A 
ATOM     23  C   UNL     1       1.696   1.624   1.557  1.00  0.00     0.009 A 
ATOM     24  C   UNL     1       1.244  -0.733   1.802  1.00  0.00     0.009 A 
ATOM     25  C   UNL     1       0.706   1.917   2.495  1.00  0.00     0.021 A 
ATOM     26  C   UNL     1       0.269  -0.443   2.760  1.00  0.00     0.021 A 
ATOM     27  C   UNL     1      -0.009   0.882   3.087  1.00  0.00     0.041 A 
ATOM     28  Cl  UNL     1      -1.247   1.242   4.224  1.00  0.00    -0.084 Cl
ENDBRANCH  21  22
ENDBRANCH  20  21
ENDBRANCH  15  20
ENDBRANCH   6  12
ENDBRANCH   3   5
ENDBRANCH   2   3
ENDBRANCH   1   2
BRANCH   1  29
ATOM     29  C   UNL     1       4.556   2.203  -5.979  1.00  0.00     0.275 C 
BRANCH  29  30
ATOM     30  O   UNL     1       4.410   2.621  -7.348  1.00  0.00    -0.458 OA
BRANCH  30  31
ATOM     31  C   UNL     1       3.176   2.441  -7.874  1.00  0.00     0.338 C 
ATOM     32  O   UNL     1       2.227   1.846  -7.401  1.00  0.00    -0.246 OA
BRANCH  31  33
ATOM     33  C   UNL     1       3.093   3.233  -9.106  1.00  0.00     0.060 A 
ATOM     34  C   UNL     1       2.292   4.377  -9.100  1.00  0.00     0.016 A 
ATOM     35  C   UNL     1       3.764   2.832 -10.259  1.00  0.00     0.016 A 
ATOM     36  C   UNL     1       2.156   5.138 -10.256  1.00  0.00     0.010 A 
ATOM     37  C   UNL     1       3.627   3.593 -11.420  1.00  0.00     0.010 A 
ATOM     38  C   UNL     1       2.818   4.745 -11.425  1.00  0.00    -0.014 A 
BRANCH  38  39
ATOM     39  C   UNL     1       2.629   5.508 -12.677  1.00  0.00     0.031 A 
ATOM     40  C   UNL     1       1.776   4.935 -13.767  1.00  0.00     0.074 A 
ATOM     41  C   UNL     1       3.238   6.697 -12.834  1.00  0.00     0.049 A 
ATOM     42  N   UNL     1       1.602   5.357 -14.993  1.00  0.00    -0.248 NA
ATOM     43  C   UNL     1       1.021   3.716 -13.435  1.00  0.00     0.031 C 
ATOM     44  C   UNL     1       4.053   7.366 -11.820  1.00  0.00     0.029 A 
ATOM     45  N   UNL     1       3.281   7.542 -13.913  1.00  0.00    -0.354 N 
ATOM     46  C   UNL     1       0.745   4.442 -15.587  1.00  0.00     0.074 A 
ATOM     47  C   UNL     1       0.435   3.438 -14.591  1.00  0.00     0.031 C 
ATOM     48  C   UNL     1       4.532   8.511 -12.332  1.00  0.00     0.029 A 
ATOM     49  C   UNL     1       4.100   8.627 -13.722  1.00  0.00     0.049 A 
ATOM     50  H   UNL     1       2.774   7.386 -14.742  1.00  0.00     0.167 HD
ATOM     51  C   UNL     1       0.267   4.443 -16.854  1.00  0.00     0.037 A 
ATOM     52  C   UNL     1       4.490   9.580 -14.589  1.00  0.00     0.037 A 
ATOM     53  C   UNL     1       0.569   5.459 -17.827  1.00  0.00     0.049 A 
ATOM     54  C   UNL     1       3.982   9.532 -16.004  1.00  0.00     0.074 A 
ATOM     55  C   UNL     1       0.113   5.572 -19.129  1.00  0.00     0.029 A 
ATOM     56  N   UNL     1       1.410   6.540 -17.602  1.00  0.00    -0.354 N 
ATOM     57  N   UNL     1       3.172   8.665 -16.563  1.00  0.00    -0.248 NA
ATOM     58  C   UNL     1       4.448  10.589 -16.912  1.00  0.00     0.031 C 
ATOM     59  C   UNL     1       0.711   6.697 -19.705  1.00  0.00     0.029 A 
ATOM     60  C   UNL     1       1.505   7.311 -18.749  1.00  0.00     0.049 A 
ATOM     61  H   UNL     1       1.871   6.730 -16.753  1.00  0.00     0.167 HD
ATOM     62  C   UNL     1       3.019   9.078 -17.879  1.00  0.00     0.074 A 
ATOM     63  C   UNL     1       3.806  10.285 -18.031  1.00  0.00     0.031 C 
ATOM     64  C   UNL     1       2.296   8.508 -18.874  1.00  0.00     0.037 A 
BRANCH  51  65
ATOM     65  C   UNL     1      -0.601   3.294 -17.270  1.00  0.00     0.064 A 
ATOM     66  C   UNL     1      -1.922   3.162 -16.819  1.00  0.00     0.173 A 
ATOM     67  C   UNL     1      -0.112   2.329 -18.163  1.00  0.00     0.173 A 
ATOM     68  F   UNL     1      -2.431   4.050 -15.951  1.00  0.00    -0.203 F 
ATOM     69  C   UNL     1      -2.716   2.095 -17.232  1.00  0.00     0.198 A 
ATOM     70  C   UNL     1      -0.915   1.277 -18.593  1.00  0.00     0.198 A 
ATOM     71  F   UNL     1       1.145   2.410 -18.625  1.00  0.00    -0.203 F 
ATOM     72  F   UNL     1      -3.963   1.966 -16.759  1.00  0.00    -0.200 F 
ATOM     73  C   UNL     1      -2.215   1.158 -18.124  1.00  0.00     0.200 A 
ATOM     74  F   UNL     1      -0.432   0.378 -19.462  1.00  0.00    -0.200 F 
ATOM     75  F   UNL     1      -2.982   0.135 -18.526  1.00  0.00    -0.200 F 
ENDBRANCH  51  65
BRANCH  52  76
ATOM     76  C   UNL     1       5.443  10.633 -14.151  1.00  0.00     0.064 A 
ATOM     77  C   UNL     1       5.037  11.968 -14.022  1.00  0.00     0.173 A 
ATOM     78  C   UNL     1       6.779  10.325 -13.856  1.00  0.00     0.173 A 
ATOM     79  F   UNL     1       3.776  12.316 -14.318  1.00  0.00    -0.203 F 
ATOM     80  C   UNL     1       5.936  12.957 -13.627  1.00  0.00     0.198 A 
ATOM     81  C   UNL     1       7.670  11.309 -13.434  1.00  0.00     0.198 A 
ATOM     82  F   UNL     1       7.218   9.062 -13.966  1.00  0.00    -0.203 F 
ATOM     83  F   UNL     1       5.534  14.233 -13.552  1.00  0.00    -0.200 F 
ATOM     84  C   UNL     1       7.249  12.626 -13.327  1.00  0.00     0.200 A 
ATOM     85  F   UNL     1       8.934  10.983 -13.133  1.00  0.00    -0.200 F 
ATOM     86  F   UNL     1       8.111  13.577 -12.942  1.00  0.00    -0.200 F 
ENDBRANCH  52  76
BRANCH  64  87
ATOM     87  C   UNL     1       2.308   9.198 -20.206  1.00  0.00     0.064 A 
ATOM     88  C   UNL     1       3.429   9.147 -21.047  1.00  0.00     0.173 A 
ATOM     89  C   UNL     1       1.172   9.883 -20.661  1.00  0.00     0.173 A 
ATOM     90  F   UNL     1       4.544   8.517 -20.647  1.00  0.00    -0.203 F 
ATOM     91  C   UNL     1       3.419   9.776 -22.288  1.00  0.00     0.198 A 
ATOM     92  C   UNL     1       1.156  10.488 -21.914  1.00  0.00     0.198 A 
ATOM     93  F   UNL     1       0.073   9.955 -19.895  1.00  0.00    -0.203 F 
ATOM     94  F   UNL     1       4.516   9.751 -23.058  1.00  0.00    -0.200 F 
ATOM     95  C   UNL     1       2.281  10.440 -22.723  1.00  0.00     0.200 A 
ATOM     96  F   UNL     1       0.053  11.120 -22.338  1.00  0.00    -0.200 F 
ATOM     97  F   UNL     1       2.272  11.040 -23.922  1.00  0.00    -0.200 F 
ENDBRANCH  64  87
ENDBRANCH  38  39
ENDBRANCH  31  33
ENDBRANCH  30  31
ENDBRANCH  29  30
ENDBRANCH   1  29
TORSDOF 16
