REMARK SMILES [NH3+][C@]1(C(=O)OCCOC(=O)c2ccc(-c3c4nc(c(-c5c(F)c(F)c(F)c(F)c5F)c5ccc([nH]5)c(-c5c(F)c(F)c(F)c(F)c5F)c5nc(c(-c6c(F)c(F)c(F)c(F)c6F)c6ccc3[nH]6)C=C5)C=C4)cc2)CC[C@@H]([NH+]2CCC(C(F)(F)F)CC2)C1
REMARK SMILES IDX 6 1 5 2 3 3 4 4 2 5 74 6 87 7 75 8 76 9 1 10 77 14 78 15
REMARK SMILES IDX 86 16 79 18 85 19 80 20 81 21 82 22 83 23 84 24 7 25 8 26
REMARK SMILES IDX 9 27 10 28 11 29 12 30 73 31 13 32 72 33 14 34 15 35 16 36
REMARK SMILES IDX 66 37 17 38 71 39 65 40 67 41 18 42 70 43 64 44 63 45 19 47
REMARK SMILES IDX 51 48 31 49 50 50 32 51 35 52 49 53 68 54 33 55 34 56 48 58
REMARK SMILES IDX 69 59 36 60 20 61 21 62 29 63 22 64 23 65 27 66 30 67 24 68
REMARK SMILES IDX 25 69 28 70 26 71 52 72 53 73 61 74 54 75 55 76 59 77 62 78
REMARK SMILES IDX 56 79 57 80 60 81 58 82 37 83 38 84 46 85 39 86 40 87 44 88
REMARK SMILES IDX 47 89 41 90 42 91 45 92 43 93
REMARK H PARENT 1 11 1 12 1 13 77 17 67 46 35 57
REMARK Flexibility Score: inf
ROOT
ATOM      1  C   UNL     1       2.317  -1.284  -1.200  1.00  0.00     0.274 C 
ENDROOT
BRANCH   1   2
ATOM      2  O   UNL     1       1.797  -1.073   0.128  1.00  0.00    -0.457 OA
BRANCH   2   3
ATOM      3  C   UNL     1       1.455   0.213   0.435  1.00  0.00     0.368 C 
ATOM      4  O   UNL     1       1.542   1.153  -0.347  1.00  0.00    -0.245 OA
BRANCH   3   5
ATOM      5  C   UNL     1       0.858   0.311   1.862  1.00  0.00     0.198 C 
ATOM      6  C   UNL     1       1.806  -0.270   2.921  1.00  0.00     0.087 C 
ATOM      7  C   UNL     1       0.637   1.791   2.263  1.00  0.00     0.145 C 
ATOM      8  C   UNL     1       1.779   0.722   4.078  1.00  0.00     0.072 C 
ATOM      9  C   UNL     1       1.583   2.101   3.436  1.00  0.00     0.191 C 
BRANCH   5  10
ATOM     10  N   UNL     1      -0.430  -0.420   1.933  1.00  0.00    -0.343 N 
ATOM     11  H   UNL     1      -0.811  -0.347   2.876  1.00  0.00     0.345 HD
ATOM     12  H   UNL     1      -0.276  -1.402   1.704  1.00  0.00     0.345 HD
ATOM     13  H   UNL     1      -1.088  -0.015   1.268  1.00  0.00     0.345 HD
ENDBRANCH   5  10
BRANCH   9  14
ATOM     14  N   UNL     1       2.825   2.848   3.156  1.00  0.00    -0.332 N 
ATOM     15  C   UNL     1       3.874   2.157   2.411  1.00  0.00     0.263 C 
ATOM     16  C   UNL     1       2.566   4.189   2.614  1.00  0.00     0.263 C 
ATOM     17  H   UNL     1       3.230   2.937   4.088  1.00  0.00     0.348 HD
ATOM     18  C   UNL     1       5.178   2.956   2.425  1.00  0.00     0.074 C 
ATOM     19  C   UNL     1       3.830   5.050   2.646  1.00  0.00     0.074 C 
ATOM     20  C   UNL     1       4.980   4.375   1.893  1.00  0.00     0.106 C 
BRANCH  20  21
ATOM     21  C   UNL     1       6.261   5.178   2.011  1.00  0.00     0.392 C 
ATOM     22  F   UNL     1       7.265   4.586   1.324  1.00  0.00    -0.171 F 
ATOM     23  F   UNL     1       6.103   6.420   1.502  1.00  0.00    -0.171 F 
ATOM     24  F   UNL     1       6.663   5.306   3.293  1.00  0.00    -0.171 F 
ENDBRANCH  20  21
ENDBRANCH   9  14
ENDBRANCH   3   5
ENDBRANCH   2   3
ENDBRANCH   1   2
BRANCH   1  25
ATOM     25  C   UNL     1       1.268  -1.914  -2.115  1.00  0.00     0.275 C 
BRANCH  25  26
ATOM     26  O   UNL     1       0.134  -1.044  -2.280  1.00  0.00    -0.458 OA
BRANCH  26  27
ATOM     27  C   UNL     1      -0.939  -1.356  -1.521  1.00  0.00     0.338 C 
ATOM     28  O   UNL     1      -1.053  -2.276  -0.729  1.00  0.00    -0.246 OA
BRANCH  27  29
ATOM     29  C   UNL     1      -2.000  -0.363  -1.725  1.00  0.00     0.060 A 
ATOM     30  C   UNL     1      -1.937   0.847  -1.034  1.00  0.00     0.016 A 
ATOM     31  C   UNL     1      -3.128  -0.696  -2.476  1.00  0.00     0.016 A 
ATOM     32  C   UNL     1      -3.039   1.696  -1.025  1.00  0.00     0.010 A 
ATOM     33  C   UNL     1      -4.201   0.198  -2.532  1.00  0.00     0.010 A 
ATOM     34  C   UNL     1      -4.178   1.388  -1.784  1.00  0.00    -0.014 A 
BRANCH  34  35
ATOM     35  C   UNL     1      -5.347   2.305  -1.790  1.00  0.00     0.031 A 
ATOM     36  C   UNL     1      -6.674   1.850  -1.253  1.00  0.00     0.074 A 
ATOM     37  C   UNL     1      -5.217   3.554  -2.278  1.00  0.00     0.049 A 
ATOM     38  N   UNL     1      -7.844   2.432  -1.336  1.00  0.00    -0.248 NA
ATOM     39  C   UNL     1      -6.692   0.568  -0.532  1.00  0.00     0.031 C 
ATOM     40  C   UNL     1      -3.976   4.140  -2.785  1.00  0.00     0.029 A 
ATOM     41  N   UNL     1      -6.142   4.557  -2.424  1.00  0.00    -0.354 N 
ATOM     42  C   UNL     1      -8.742   1.567  -0.727  1.00  0.00     0.074 A 
ATOM     43  C   UNL     1      -7.983   0.424  -0.265  1.00  0.00     0.031 C 
ATOM     44  C   UNL     1      -4.208   5.408  -3.157  1.00  0.00     0.029 A 
ATOM     45  C   UNL     1      -5.628   5.698  -2.988  1.00  0.00     0.049 A 
ATOM     46  H   UNL     1      -7.083   4.467  -2.150  1.00  0.00     0.167 HD
ATOM     47  C   UNL     1     -10.079   1.714  -0.575  1.00  0.00     0.037 A 
ATOM     48  C   UNL     1      -6.238   6.835  -3.370  1.00  0.00     0.037 A 
ATOM     49  C   UNL     1     -10.825   2.875  -0.982  1.00  0.00     0.049 A 
ATOM     50  C   UNL     1      -7.726   6.957  -3.226  1.00  0.00     0.074 A 
ATOM     51  C   UNL     1     -12.178   3.130  -0.837  1.00  0.00     0.029 A 
ATOM     52  N   UNL     1     -10.273   3.985  -1.602  1.00  0.00    -0.354 N 
ATOM     53  N   UNL     1      -8.577   6.106  -2.710  1.00  0.00    -0.248 NA
ATOM     54  C   UNL     1      -8.343   8.183  -3.752  1.00  0.00     0.031 C 
ATOM     55  C   UNL     1     -12.448   4.387  -1.390  1.00  0.00     0.029 A 
ATOM     56  C   UNL     1     -11.261   4.921  -1.861  1.00  0.00     0.049 A 
ATOM     57  H   UNL     1      -9.320   4.092  -1.826  1.00  0.00     0.167 HD
ATOM     58  C   UNL     1      -9.829   6.683  -2.858  1.00  0.00     0.074 A 
ATOM     59  C   UNL     1      -9.626   7.970  -3.491  1.00  0.00     0.031 C 
ATOM     60  C   UNL     1     -11.039   6.186  -2.509  1.00  0.00     0.037 A 
BRANCH  47  61
ATOM     61  C   UNL     1     -10.836   0.574   0.032  1.00  0.00     0.064 A 
ATOM     62  C   UNL     1     -10.857   0.356   1.416  1.00  0.00     0.173 A 
ATOM     63  C   UNL     1     -11.590  -0.283  -0.784  1.00  0.00     0.173 A 
ATOM     64  F   UNL     1     -10.141   1.143   2.233  1.00  0.00    -0.203 F 
ATOM     65  C   UNL     1     -11.599  -0.688   1.962  1.00  0.00     0.198 A 
ATOM     66  C   UNL     1     -12.342  -1.317  -0.234  1.00  0.00     0.198 A 
ATOM     67  F   UNL     1     -11.601  -0.112  -2.114  1.00  0.00    -0.203 F 
ATOM     68  F   UNL     1     -11.588  -0.896   3.286  1.00  0.00    -0.200 F 
ATOM     69  C   UNL     1     -12.344  -1.520   1.138  1.00  0.00     0.200 A 
ATOM     70  F   UNL     1     -13.065  -2.116  -1.030  1.00  0.00    -0.200 F 
ATOM     71  F   UNL     1     -13.062  -2.521   1.666  1.00  0.00    -0.200 F 
ENDBRANCH  47  61
BRANCH  48  72
ATOM     72  C   UNL     1      -5.437   7.925  -3.977  1.00  0.00     0.064 A 
ATOM     73  C   UNL     1      -5.162   9.096  -3.260  1.00  0.00     0.173 A 
ATOM     74  C   UNL     1      -4.909   7.805  -5.270  1.00  0.00     0.173 A 
ATOM     75  F   UNL     1      -5.667   9.262  -2.029  1.00  0.00    -0.203 F 
ATOM     76  C   UNL     1      -4.383  10.108  -3.815  1.00  0.00     0.198 A 
ATOM     77  C   UNL     1      -4.114   8.809  -5.816  1.00  0.00     0.198 A 
ATOM     78  F   UNL     1      -5.149   6.701  -5.993  1.00  0.00    -0.203 F 
ATOM     79  F   UNL     1      -4.149  11.229  -3.119  1.00  0.00    -0.200 F 
ATOM     80  C   UNL     1      -3.853   9.960  -5.089  1.00  0.00     0.200 A 
ATOM     81  F   UNL     1      -3.595   8.657  -7.042  1.00  0.00    -0.200 F 
ATOM     82  F   UNL     1      -3.094  10.930  -5.618  1.00  0.00    -0.200 F 
ENDBRANCH  48  72
BRANCH  60  83
ATOM     83  C   UNL     1     -12.233   7.032  -2.819  1.00  0.00     0.064 A 
ATOM     84  C   UNL     1     -12.776   7.065  -4.111  1.00  0.00     0.173 A 
ATOM     85  C   UNL     1     -12.857   7.786  -1.816  1.00  0.00     0.173 A 
ATOM     86  F   UNL     1     -12.199   6.371  -5.103  1.00  0.00    -0.203 F 
ATOM     87  C   UNL     1     -13.900   7.836  -4.391  1.00  0.00     0.198 A 
ATOM     88  C   UNL     1     -13.989   8.545  -2.097  1.00  0.00     0.198 A 
ATOM     89  F   UNL     1     -12.369   7.784  -0.567  1.00  0.00    -0.203 F 
ATOM     90  F   UNL     1     -14.390   7.876  -5.638  1.00  0.00    -0.200 F 
ATOM     91  C   UNL     1     -14.508   8.571  -3.383  1.00  0.00     0.200 A 
ATOM     92  F   UNL     1     -14.577   9.255  -1.124  1.00  0.00    -0.200 F 
ATOM     93  F   UNL     1     -15.591   9.313  -3.655  1.00  0.00    -0.200 F 
ENDBRANCH  60  83
ENDBRANCH  34  35
ENDBRANCH  27  29
ENDBRANCH  26  27
ENDBRANCH  25  26
ENDBRANCH   1  25
TORSDOF 14
