REMARK SMILES [NH3+][C@@]1(C(=O)OCCOC(=O)c2ccc(-c3c4nc(c(-c5c(F)c(F)c(F)c(F)c5F)c5ccc([nH]5)c(-c5c(F)c(F)c(F)c(F)c5F)c5nc(c(-c6c(F)c(F)c(F)c(F)c6F)c6ccc3[nH]6)C=C5)C=C4)cc2)CC[C@@H](Sc2ccc(Cl)c(Cl)c2)C1
REMARK SMILES IDX 6 1 5 2 3 3 4 4 2 5 74 6 86 7 75 8 76 9 1 10 77 14 78 15
REMARK SMILES IDX 79 16 85 17 80 18 83 19 81 20 84 21 82 22 7 23 8 24 9 25
REMARK SMILES IDX 10 26 11 27 12 28 73 29 13 30 72 31 14 32 15 33 16 34 66 35
REMARK SMILES IDX 17 36 71 37 65 38 67 39 18 40 70 41 64 42 63 43 19 45 51 46
REMARK SMILES IDX 31 47 50 48 32 49 35 50 49 51 68 52 33 53 34 54 48 56 69 57
REMARK SMILES IDX 36 58 20 59 21 60 29 61 22 62 23 63 27 64 30 65 24 66 25 67
REMARK SMILES IDX 28 68 26 69 52 70 53 71 61 72 54 73 55 74 59 75 62 76 56 77
REMARK SMILES IDX 57 78 60 79 58 80 37 81 38 82 46 83 39 84 40 85 44 86 47 87
REMARK SMILES IDX 41 88 42 89 45 90 43 91
REMARK H PARENT 1 11 1 12 1 13 67 44 35 55
REMARK Flexibility Score: inf
ROOT
ATOM      1  C   UNL     1      -2.756  -0.699   2.599  1.00  0.00     0.274 C 
ENDROOT
BRANCH   1   2
ATOM      2  O   UNL     1      -1.333  -0.932   2.574  1.00  0.00    -0.457 OA
BRANCH   2   3
ATOM      3  C   UNL     1      -0.788  -1.168   1.348  1.00  0.00     0.368 C 
ATOM      4  O   UNL     1      -1.452  -1.285   0.322  1.00  0.00    -0.245 OA
BRANCH   3   5
ATOM      5  C   UNL     1       0.767  -1.311   1.392  1.00  0.00     0.193 C 
ATOM      6  C   UNL     1       1.108  -2.806   1.323  1.00  0.00     0.082 C 
ATOM      7  C   UNL     1       1.447  -0.777   2.670  1.00  0.00     0.095 C 
ATOM      8  C   UNL     1       1.308  -3.220   2.772  1.00  0.00     0.022 C 
ATOM      9  C   UNL     1       1.923  -2.002   3.457  1.00  0.00     0.059 C 
BRANCH   5  10
ATOM     10  N   UNL     1       1.331  -0.617   0.211  1.00  0.00    -0.343 N 
ATOM     11  H   UNL     1       0.883  -0.967  -0.636  1.00  0.00     0.345 HD
ATOM     12  H   UNL     1       2.335  -0.791   0.162  1.00  0.00     0.345 HD
ATOM     13  H   UNL     1       1.164   0.386   0.294  1.00  0.00     0.345 HD
ENDBRANCH   5  10
BRANCH   9  14
ATOM     14  S   UNL     1       3.755  -2.080   3.702  1.00  0.00    -0.122 SA
BRANCH  14  15
ATOM     15  C   UNL     1       4.401  -2.282   2.055  1.00  0.00     0.009 A 
ATOM     16  C   UNL     1       4.736  -3.558   1.593  1.00  0.00     0.017 A 
ATOM     17  C   UNL     1       4.642  -1.176   1.235  1.00  0.00     0.037 A 
ATOM     18  C   UNL     1       5.251  -3.733   0.305  1.00  0.00     0.023 A 
ATOM     19  C   UNL     1       5.142  -1.348  -0.062  1.00  0.00     0.060 A 
ATOM     20  C   UNL     1       5.444  -2.630  -0.531  1.00  0.00     0.059 A 
ATOM     21  Cl  UNL     1       5.333   0.065  -1.038  1.00  0.00    -0.083 Cl
ATOM     22  Cl  UNL     1       6.054  -2.918  -2.120  1.00  0.00    -0.083 Cl
ENDBRANCH  14  15
ENDBRANCH   9  14
ENDBRANCH   3   5
ENDBRANCH   2   3
ENDBRANCH   1   2
BRANCH   1  23
ATOM     23  C   UNL     1      -3.078   0.797   2.653  1.00  0.00     0.275 C 
BRANCH  23  24
ATOM     24  O   UNL     1      -2.753   1.458   1.416  1.00  0.00    -0.458 OA
BRANCH  24  25
ATOM     25  C   UNL     1      -1.548   2.067   1.388  1.00  0.00     0.338 C 
ATOM     26  O   UNL     1      -0.714   2.117   2.277  1.00  0.00    -0.246 OA
BRANCH  25  27
ATOM     27  C   UNL     1      -1.311   2.644   0.059  1.00  0.00     0.060 A 
ATOM     28  C   UNL     1      -0.655   1.867  -0.893  1.00  0.00     0.016 A 
ATOM     29  C   UNL     1      -1.594   3.985  -0.194  1.00  0.00     0.016 A 
ATOM     30  C   UNL     1      -0.196   2.447  -2.071  1.00  0.00     0.010 A 
ATOM     31  C   UNL     1      -1.206   4.546  -1.416  1.00  0.00     0.010 A 
ATOM     32  C   UNL     1      -0.478   3.789  -2.353  1.00  0.00    -0.014 A 
BRANCH  32  33
ATOM     33  C   UNL     1      -0.006   4.405  -3.620  1.00  0.00     0.031 A 
ATOM     34  C   UNL     1       0.954   5.558  -3.587  1.00  0.00     0.074 A 
ATOM     35  C   UNL     1      -0.447   3.938  -4.803  1.00  0.00     0.049 A 
ATOM     36  N   UNL     1       1.306   6.371  -4.550  1.00  0.00    -0.248 NA
ATOM     37  C   UNL     1       1.596   5.844  -2.294  1.00  0.00     0.031 C 
ATOM     38  C   UNL     1      -1.341   2.794  -4.983  1.00  0.00     0.029 A 
ATOM     39  N   UNL     1      -0.206   4.377  -6.082  1.00  0.00    -0.354 N 
ATOM     40  C   UNL     1       2.155   7.302  -3.968  1.00  0.00     0.074 A 
ATOM     41  C   UNL     1       2.286   6.942  -2.572  1.00  0.00     0.031 C 
ATOM     42  C   UNL     1      -1.563   2.612  -6.293  1.00  0.00     0.029 A 
ATOM     43  C   UNL     1      -0.891   3.671  -7.038  1.00  0.00     0.049 A 
ATOM     44  H   UNL     1       0.399   5.125  -6.291  1.00  0.00     0.167 HD
ATOM     45  C   UNL     1       2.756   8.367  -4.548  1.00  0.00     0.037 A 
ATOM     46  C   UNL     1      -1.010   3.881  -8.363  1.00  0.00     0.037 A 
ATOM     47  C   UNL     1       2.676   8.684  -5.950  1.00  0.00     0.049 A 
ATOM     48  C   UNL     1      -0.328   5.062  -8.986  1.00  0.00     0.074 A 
ATOM     49  C   UNL     1       3.270   9.729  -6.636  1.00  0.00     0.029 A 
ATOM     50  N   UNL     1       1.971   7.940  -6.884  1.00  0.00    -0.354 N 
ATOM     51  N   UNL     1       0.411   5.981  -8.417  1.00  0.00    -0.248 NA
ATOM     52  C   UNL     1      -0.518   5.251 -10.431  1.00  0.00     0.031 C 
ATOM     53  C   UNL     1       2.907   9.629  -7.985  1.00  0.00     0.029 A 
ATOM     54  C   UNL     1       2.109   8.507  -8.140  1.00  0.00     0.049 A 
ATOM     55  H   UNL     1       1.450   7.129  -6.684  1.00  0.00     0.167 HD
ATOM     56  C   UNL     1       0.771   6.860  -9.427  1.00  0.00     0.074 A 
ATOM     57  C   UNL     1       0.185   6.354 -10.652  1.00  0.00     0.031 C 
ATOM     58  C   UNL     1       1.512   7.991  -9.344  1.00  0.00     0.037 A 
BRANCH  45  59
ATOM     59  C   UNL     1       3.518   9.299  -3.658  1.00  0.00     0.064 A 
ATOM     60  C   UNL     1       4.800   8.991  -3.182  1.00  0.00     0.173 A 
ATOM     61  C   UNL     1       2.962  10.538  -3.302  1.00  0.00     0.173 A 
ATOM     62  F   UNL     1       5.365   7.812  -3.482  1.00  0.00    -0.203 F 
ATOM     63  C   UNL     1       5.492   9.884  -2.368  1.00  0.00     0.198 A 
ATOM     64  C   UNL     1       3.664  11.435  -2.504  1.00  0.00     0.198 A 
ATOM     65  F   UNL     1       1.739  10.878  -3.735  1.00  0.00    -0.203 F 
ATOM     66  F   UNL     1       6.703   9.557  -1.895  1.00  0.00    -0.200 F 
ATOM     67  C   UNL     1       4.926  11.106  -2.033  1.00  0.00     0.200 A 
ATOM     68  F   UNL     1       3.118  12.617  -2.186  1.00  0.00    -0.200 F 
ATOM     69  F   UNL     1       5.595  11.965  -1.251  1.00  0.00    -0.200 F 
ENDBRANCH  45  59
BRANCH  46  70
ATOM     70  C   UNL     1      -1.860   2.969  -9.165  1.00  0.00     0.064 A 
ATOM     71  C   UNL     1      -1.290   2.020 -10.022  1.00  0.00     0.173 A 
ATOM     72  C   UNL     1      -3.258   2.997  -9.051  1.00  0.00     0.173 A 
ATOM     73  F   UNL     1       0.040   1.973 -10.180  1.00  0.00    -0.203 F 
ATOM     74  C   UNL     1      -2.089   1.127 -10.734  1.00  0.00     0.198 A 
ATOM     75  C   UNL     1      -4.054   2.091  -9.745  1.00  0.00     0.198 A 
ATOM     76  F   UNL     1      -3.847   3.889  -8.241  1.00  0.00    -0.203 F 
ATOM     77  F   UNL     1      -1.524   0.239 -11.563  1.00  0.00    -0.200 F 
ATOM     78  C   UNL     1      -3.469   1.157 -10.587  1.00  0.00     0.200 A 
ATOM     79  F   UNL     1      -5.385   2.115  -9.592  1.00  0.00    -0.200 F 
ATOM     80  F   UNL     1      -4.235   0.287 -11.260  1.00  0.00    -0.200 F 
ENDBRANCH  46  70
BRANCH  58  81
ATOM     81  C   UNL     1       1.732   8.755 -10.611  1.00  0.00     0.064 A 
ATOM     82  C   UNL     1       0.746   9.610 -11.121  1.00  0.00     0.173 A 
ATOM     83  C   UNL     1       2.953   8.667 -11.294  1.00  0.00     0.173 A 
ATOM     84  F   UNL     1      -0.443   9.711 -10.507  1.00  0.00    -0.203 F 
ATOM     85  C   UNL     1       0.972  10.347 -12.280  1.00  0.00     0.198 A 
ATOM     86  C   UNL     1       3.181   9.416 -12.444  1.00  0.00     0.198 A 
ATOM     87  F   UNL     1       3.925   7.862 -10.840  1.00  0.00    -0.203 F 
ATOM     88  F   UNL     1       0.009  11.142 -12.765  1.00  0.00    -0.200 F 
ATOM     89  C   UNL     1       2.191  10.254 -12.937  1.00  0.00     0.200 A 
ATOM     90  F   UNL     1       4.359   9.329 -13.077  1.00  0.00    -0.200 F 
ATOM     91  F   UNL     1       2.408  10.967 -14.050  1.00  0.00    -0.200 F 
ENDBRANCH  58  81
ENDBRANCH  32  33
ENDBRANCH  25  27
ENDBRANCH  24  25
ENDBRANCH  23  24
ENDBRANCH   1  23
TORSDOF 14
