REMARK SMILES O=C(OCCOC(=O)c1ccc(-c2c3nc(c(-c4c(F)c(F)c(F)c(F)c4F)c4ccc([nH]4)c(-c4c(F)c(F)c(F)c(F)c4F)c4nc(c(-c5c(F)c(F)c(F)c(F)c5F)c5ccc2[nH]5)C=C4)C=C3)cc1)C1=Cc2cc(Cl)cc(C#Cc3ccccc3)c2O[C@@H]1C(F)(F)F
REMARK SMILES IDX 4 1 3 2 2 3 1 4 72 5 73 6 90 7 74 8 89 9 75 10 88 11 76 12
REMARK SMILES IDX 79 13 77 14 78 15 91 16 92 17 93 18 94 19 80 20 81 21 82 22
REMARK SMILES IDX 83 23 87 24 84 25 86 26 85 27 5 28 6 29 7 30 8 31 9 32 10 33
REMARK SMILES IDX 71 34 11 35 70 36 12 37 13 38 14 39 64 40 15 41 69 42 63 43
REMARK SMILES IDX 65 44 16 45 68 46 62 47 61 48 17 50 49 51 29 52 48 53 30 54
REMARK SMILES IDX 33 55 47 56 66 57 31 58 32 59 46 61 67 62 34 63 18 64 19 65
REMARK SMILES IDX 27 66 20 67 21 68 25 69 28 70 22 71 23 72 26 73 24 74 50 75
REMARK SMILES IDX 51 76 59 77 52 78 53 79 57 80 60 81 54 82 55 83 58 84 56 85
REMARK SMILES IDX 35 86 36 87 44 88 37 89 38 90 42 91 45 92 39 93 40 94 43 95
REMARK SMILES IDX 41 96
REMARK H PARENT 65 49 33 60
REMARK Flexibility Score: inf
ROOT
ATOM      1  C   UNL     1       4.028   1.367  -0.139  1.00  0.00     0.275 C 
ENDROOT
BRANCH   1   2
ATOM      2  O   UNL     1       3.288   2.166  -1.264  1.00  0.00    -0.459 OA
BRANCH   2   3
ATOM      3  C   UNL     1       3.539   1.717  -2.498  1.00  0.00     0.338 C 
ATOM      4  O   UNL     1       3.077   2.026  -3.564  1.00  0.00    -0.246 OA
BRANCH   3   5
ATOM      5  C   UNL     1       4.275   0.562  -2.057  1.00  0.00     0.087 C 
ATOM      6  C   UNL     1       5.641   0.948  -1.648  1.00  0.00     0.027 C 
ATOM      7  C   UNL     1       2.919  -0.151  -0.876  1.00  0.00     0.316 C 
ATOM      8  C   UNL     1       6.199   0.930   0.072  1.00  0.00     0.020 A 
ATOM      9  O   UNL     1       3.486  -0.125   0.968  1.00  0.00    -0.474 OA
ATOM     10  C   UNL     1       7.446   1.429   0.335  1.00  0.00     0.032 A 
ATOM     11  C   UNL     1       5.141   0.509   1.393  1.00  0.00     0.143 A 
ATOM     12  C   UNL     1       7.752   1.552   1.695  1.00  0.00     0.043 A 
ATOM     13  C   UNL     1       5.531   0.702   2.693  1.00  0.00     0.069 A 
ATOM     14  Cl  UNL     1       9.311   2.201   2.088  1.00  0.00    -0.084 Cl
ATOM     15  C   UNL     1       6.859   1.220   2.791  1.00  0.00     0.041 A 
BRANCH   7  16
ATOM     16  C   UNL     1       2.376  -1.290  -1.807  1.00  0.00     0.430 C 
ATOM     17  F   UNL     1       1.172  -1.732  -1.426  1.00  0.00    -0.167 F 
ATOM     18  F   UNL     1       2.160  -0.751  -3.047  1.00  0.00    -0.167 F 
ATOM     19  F   UNL     1       3.210  -2.316  -2.066  1.00  0.00    -0.167 F 
ENDBRANCH   7  16
BRANCH  13  20
ATOM     20  C   UNL     1       4.792   0.582   3.889  1.00  0.00    -0.058 C 
ATOM     21  C   UNL     1       4.394   0.634   5.037  1.00  0.00    -0.062 C 
BRANCH  21  22
ATOM     22  C   UNL     1       4.082   0.747   6.422  1.00  0.00     0.025 A 
ATOM     23  C   UNL     1       3.993   2.001   7.038  1.00  0.00     0.017 A 
ATOM     24  C   UNL     1       3.901  -0.410   7.183  1.00  0.00     0.017 A 
ATOM     25  C   UNL     1       3.692   2.094   8.400  1.00  0.00     0.001 A 
ATOM     26  C   UNL     1       3.602  -0.316   8.543  1.00  0.00     0.001 A 
ATOM     27  C   UNL     1       3.490   0.935   9.149  1.00  0.00     0.000 A 
ENDBRANCH  21  22
ENDBRANCH  13  20
ENDBRANCH   3   5
ENDBRANCH   2   3
ENDBRANCH   1   2
BRANCH   1  28
ATOM     28  C   UNL     1       4.775  -0.669  -0.306  1.00  0.00     0.275 C 
BRANCH  28  29
ATOM     29  O   UNL     1       3.922  -2.087   0.068  1.00  0.00    -0.458 OA
BRANCH  29  30
ATOM     30  C   UNL     1       3.089  -2.673   0.981  1.00  0.00     0.338 C 
ATOM     31  O   UNL     1       2.656  -2.253   2.034  1.00  0.00    -0.246 OA
BRANCH  30  32
ATOM     32  C   UNL     1       2.522  -3.852   0.263  1.00  0.00     0.060 A 
ATOM     33  C   UNL     1       1.174  -3.824  -0.131  1.00  0.00     0.016 A 
ATOM     34  C   UNL     1       3.403  -4.755  -0.328  1.00  0.00     0.016 A 
ATOM     35  C   UNL     1       0.782  -4.498  -1.299  1.00  0.00     0.010 A 
ATOM     36  C   UNL     1       2.995  -5.468  -1.452  1.00  0.00     0.010 A 
ATOM     37  C   UNL     1       1.711  -5.283  -1.995  1.00  0.00    -0.014 A 
BRANCH  37  38
ATOM     38  C   UNL     1       1.333  -6.129  -3.153  1.00  0.00     0.031 A 
ATOM     39  C   UNL     1       0.812  -7.488  -2.816  1.00  0.00     0.074 A 
ATOM     40  C   UNL     1       1.617  -5.798  -4.429  1.00  0.00     0.049 A 
ATOM     41  N   UNL     1       0.682  -8.547  -3.567  1.00  0.00    -0.248 NA
ATOM     42  C   UNL     1       0.456  -7.690  -1.403  1.00  0.00     0.031 C 
ATOM     43  C   UNL     1       2.135  -4.510  -4.886  1.00  0.00     0.029 A 
ATOM     44  N   UNL     1       1.551  -6.554  -5.578  1.00  0.00    -0.354 N 
ATOM     45  C   UNL     1       0.271  -9.550  -2.705  1.00  0.00     0.074 A 
ATOM     46  C   UNL     1       0.220  -8.987  -1.376  1.00  0.00     0.031 C 
ATOM     47  C   UNL     1       2.368  -4.575  -6.212  1.00  0.00     0.029 A 
ATOM     48  C   UNL     1       2.049  -5.919  -6.693  1.00  0.00     0.049 A 
ATOM     49  H   UNL     1       1.181  -7.466  -5.600  1.00  0.00     0.167 HD
ATOM     50  C   UNL     1      -0.038 -10.834  -2.991  1.00  0.00     0.037 A 
ATOM     51  C   UNL     1       2.246  -6.389  -7.944  1.00  0.00     0.037 A 
ATOM     52  C   UNL     1       0.043 -11.396  -4.306  1.00  0.00     0.049 A 
ATOM     53  C   UNL     1       1.903  -7.833  -8.249  1.00  0.00     0.074 A 
ATOM     54  C   UNL     1      -0.258 -12.678  -4.718  1.00  0.00     0.029 A 
ATOM     55  N   UNL     1       0.476 -10.697  -5.425  1.00  0.00    -0.354 N 
ATOM     56  N   UNL     1       1.454  -8.767  -7.445  1.00  0.00    -0.248 NA
ATOM     57  C   UNL     1       2.097  -8.290  -9.636  1.00  0.00     0.031 C 
ATOM     58  C   UNL     1       0.033 -12.769  -6.083  1.00  0.00     0.029 A 
ATOM     59  C   UNL     1       0.459 -11.526  -6.530  1.00  0.00     0.049 A 
ATOM     60  H   UNL     1       0.754  -9.752  -5.430  1.00  0.00     0.167 HD
ATOM     61  C   UNL     1       1.274  -9.901  -8.228  1.00  0.00     0.074 A 
ATOM     62  C   UNL     1       1.666  -9.543  -9.575  1.00  0.00     0.031 C 
ATOM     63  C   UNL     1       0.821 -11.128  -7.869  1.00  0.00     0.037 A 
BRANCH  50  64
ATOM     64  C   UNL     1      -0.434 -11.687  -1.824  1.00  0.00     0.064 A 
ATOM     65  C   UNL     1      -1.614 -11.435  -1.102  1.00  0.00     0.173 A 
ATOM     66  C   UNL     1       0.437 -12.672  -1.341  1.00  0.00     0.173 A 
ATOM     67  F   UNL     1      -2.460 -10.475  -1.506  1.00  0.00    -0.203 F 
ATOM     68  C   UNL     1      -1.865 -12.084   0.102  1.00  0.00     0.198 A 
ATOM     69  C   UNL     1       0.160 -13.350  -0.157  1.00  0.00     0.198 A 
ATOM     70  F   UNL     1       1.579 -12.945  -1.989  1.00  0.00    -0.203 F 
ATOM     71  F   UNL     1      -2.933 -11.739   0.835  1.00  0.00    -0.200 F 
ATOM     72  C   UNL     1      -0.978 -13.039   0.574  1.00  0.00     0.200 A 
ATOM     73  F   UNL     1       1.015 -14.275   0.298  1.00  0.00    -0.200 F 
ATOM     74  F   UNL     1      -1.204 -13.639   1.750  1.00  0.00    -0.200 F 
ENDBRANCH  50  64
BRANCH  51  75
ATOM     75  C   UNL     1       2.787  -5.505  -9.017  1.00  0.00     0.064 A 
ATOM     76  C   UNL     1       1.978  -5.101 -10.091  1.00  0.00     0.173 A 
ATOM     77  C   UNL     1       4.124  -5.082  -9.024  1.00  0.00     0.173 A 
ATOM     78  F   UNL     1       0.702  -5.509 -10.155  1.00  0.00    -0.203 F 
ATOM     79  C   UNL     1       2.487  -4.328 -11.135  1.00  0.00     0.198 A 
ATOM     80  C   UNL     1       4.627  -4.287 -10.056  1.00  0.00     0.198 A 
ATOM     81  F   UNL     1       4.949  -5.447  -8.032  1.00  0.00    -0.203 F 
ATOM     82  F   UNL     1       1.703  -4.004 -12.172  1.00  0.00    -0.200 F 
ATOM     83  C   UNL     1       3.811  -3.917 -11.114  1.00  0.00     0.200 A 
ATOM     84  F   UNL     1       5.908  -3.892 -10.033  1.00  0.00    -0.200 F 
ATOM     85  F   UNL     1       4.302  -3.178 -12.119  1.00  0.00    -0.200 F 
ENDBRANCH  51  75
BRANCH  63  86
ATOM     86  C   UNL     1       0.649 -12.164  -8.941  1.00  0.00     0.064 A 
ATOM     87  C   UNL     1       1.742 -12.834  -9.507  1.00  0.00     0.173 A 
ATOM     88  C   UNL     1      -0.642 -12.580  -9.306  1.00  0.00     0.173 A 
ATOM     89  F   UNL     1       2.994 -12.467  -9.197  1.00  0.00    -0.203 F 
ATOM     90  C   UNL     1       1.548 -13.886 -10.399  1.00  0.00     0.198 A 
ATOM     91  C   UNL     1      -0.831 -13.650 -10.175  1.00  0.00     0.198 A 
ATOM     92  F   UNL     1      -1.720 -11.976  -8.783  1.00  0.00    -0.203 F 
ATOM     93  F   UNL     1       2.606 -14.505 -10.941  1.00  0.00    -0.200 F 
ATOM     94  C   UNL     1       0.264 -14.302 -10.720  1.00  0.00     0.200 A 
ATOM     95  F   UNL     1      -2.072 -14.063 -10.467  1.00  0.00    -0.200 F 
ATOM     96  F   UNL     1       0.082 -15.337 -11.552  1.00  0.00    -0.200 F 
ENDBRANCH  63  86
ENDBRANCH  37  38
ENDBRANCH  30  32
ENDBRANCH  29  30
ENDBRANCH  28  29
ENDBRANCH   1  28
TORSDOF 14
