REMARK SMILES COC(=O)c1cccc(NC(=O)[C@@H]2[C@@H]3CC[C@@H](C3)[C@@H]2C(=O)OCCOC(=O)c2ccc(-c3c4nc(c(-c5c(F)c(F)c(F)c(F)c5F)c5ccc([nH]5)c(-c5c(F)c(F)c(F)c(F)c5F)c5nc(c(-c6c(F)c(F)c(F)c(F)c6F)c6ccc3[nH]6)C=C5)C=C4)cc2)c1
REMARK SMILES IDX 23 1 22 2 20 3 21 4 19 5 13 6 14 7 15 8 18 9 17 10 16 11
REMARK SMILES IDX 11 12 10 13 12 15 9 16 5 17 6 18 91 19 7 20 8 21 3 22 4 23
REMARK SMILES IDX 2 24 1 25 24 26 25 27 26 28 27 29 28 30 29 31 90 32 30 33
REMARK SMILES IDX 89 34 31 35 32 36 33 37 83 38 34 39 88 40 82 41 84 42 35 43
REMARK SMILES IDX 87 44 81 45 80 46 36 48 68 49 48 50 67 51 49 52 52 53 66 54
REMARK SMILES IDX 85 55 50 56 51 57 65 59 86 60 53 61 37 62 38 63 46 64 39 65
REMARK SMILES IDX 40 66 44 67 47 68 41 69 42 70 45 71 43 72 69 73 70 74 78 75
REMARK SMILES IDX 71 76 72 77 76 78 79 79 73 80 74 81 77 82 75 83 54 84 55 85
REMARK SMILES IDX 63 86 56 87 57 88 61 89 64 90 58 91 59 92 62 93 60 94
REMARK H PARENT 10 14 84 47 52 58
REMARK Flexibility Score: inf
ROOT
ATOM      1  C   UNL     1       1.249  -5.631   4.707  1.00  0.00     0.274 C 
ENDROOT
BRANCH   1   2
ATOM      2  O   UNL     1       0.058  -5.641   3.885  1.00  0.00    -0.462 OA
BRANCH   2   3
ATOM      3  C   UNL     1      -0.408  -6.890   3.592  1.00  0.00     0.310 C 
ATOM      4  O   UNL     1       0.001  -7.901   4.145  1.00  0.00    -0.252 OA
BRANCH   3   5
ATOM      5  C   UNL     1      -1.325  -6.881   2.381  1.00  0.00     0.115 C 
ATOM      6  C   UNL     1      -2.870  -6.918   2.480  1.00  0.00     0.096 C 
ATOM      7  C   UNL     1      -3.215  -8.195   1.648  1.00  0.00     0.003 C 
ATOM      8  C   UNL     1      -2.728  -9.495   2.320  1.00  0.00     0.005 C 
ATOM      9  C   UNL     1      -2.217  -8.057   0.493  1.00  0.00     0.009 C 
ATOM     10  C   UNL     1      -1.006  -8.085   1.427  1.00  0.00     0.004 C 
ATOM     11  C   UNL     1      -1.222  -9.466   2.077  1.00  0.00     0.005 C 
BRANCH   6  12
ATOM     12  C   UNL     1      -3.618  -6.854   3.798  1.00  0.00     0.228 C 
ATOM     13  N   UNL     1      -3.679  -5.771   4.615  1.00  0.00    -0.326 N 
ATOM     14  H   UNL     1      -3.928  -6.018   5.535  1.00  0.00     0.169 HD
ATOM     15  O   UNL     1      -4.308  -7.814   4.164  1.00  0.00    -0.274 OA
BRANCH  13  16
ATOM     16  C   UNL     1      -3.477  -4.388   4.479  1.00  0.00     0.042 A 
ATOM     17  C   UNL     1      -3.758  -2.203   5.541  1.00  0.00     0.062 A 
ATOM     18  C   UNL     1      -3.423  -1.575   4.341  1.00  0.00     0.016 A 
ATOM     19  C   UNL     1      -3.786  -3.603   5.609  1.00  0.00     0.041 A 
ATOM     20  C   UNL     1      -3.088  -2.344   3.231  1.00  0.00     0.003 A 
ATOM     21  C   UNL     1      -3.110  -3.742   3.302  1.00  0.00     0.026 A 
BRANCH  17  22
ATOM     22  C   UNL     1      -4.113  -1.335   6.692  1.00  0.00     0.337 C 
ATOM     23  O   UNL     1      -4.643  -0.250   6.569  1.00  0.00    -0.246 OA
BRANCH  22  24
ATOM     24  O   UNL     1      -3.675  -1.893   7.849  1.00  0.00    -0.465 OA
ATOM     25  C   UNL     1      -3.777  -1.021   8.978  1.00  0.00     0.282 C 
ENDBRANCH  22  24
ENDBRANCH  17  22
ENDBRANCH  13  16
ENDBRANCH   6  12
ENDBRANCH   3   5
ENDBRANCH   2   3
ENDBRANCH   1   2
BRANCH   1  26
ATOM     26  C   UNL     1       0.943  -5.423   6.189  1.00  0.00     0.275 C 
BRANCH  26  27
ATOM     27  O   UNL     1       0.030  -6.431   6.652  1.00  0.00    -0.458 OA
BRANCH  27  28
ATOM     28  C   UNL     1      -1.088  -5.979   7.261  1.00  0.00     0.338 C 
ATOM     29  O   UNL     1      -1.340  -4.824   7.567  1.00  0.00    -0.246 OA
BRANCH  28  30
ATOM     30  C   UNL     1      -2.057  -7.076   7.479  1.00  0.00     0.060 A 
ATOM     31  C   UNL     1      -2.189  -8.107   6.556  1.00  0.00     0.016 A 
ATOM     32  C   UNL     1      -2.971  -6.984   8.530  1.00  0.00     0.016 A 
ATOM     33  C   UNL     1      -3.291  -8.956   6.609  1.00  0.00     0.010 A 
ATOM     34  C   UNL     1      -4.017  -7.913   8.640  1.00  0.00     0.010 A 
ATOM     35  C   UNL     1      -4.221  -8.888   7.651  1.00  0.00    -0.014 A 
BRANCH  35  36
ATOM     36  C   UNL     1      -5.406  -9.799   7.670  1.00  0.00     0.031 A 
ATOM     37  C   UNL     1      -6.802  -9.245   7.815  1.00  0.00     0.074 A 
ATOM     38  C   UNL     1      -5.258 -11.132   7.512  1.00  0.00     0.049 A 
ATOM     39  N   UNL     1      -7.917  -9.868   8.113  1.00  0.00    -0.248 NA
ATOM     40  C   UNL     1      -6.967  -7.798   7.609  1.00  0.00     0.031 C 
ATOM     41  C   UNL     1      -3.995 -11.825   7.259  1.00  0.00     0.029 A 
ATOM     42  N   UNL     1      -6.188 -12.145   7.526  1.00  0.00    -0.354 N 
ATOM     43  C   UNL     1      -8.895  -8.884   8.197  1.00  0.00     0.074 A 
ATOM     44  C   UNL     1      -8.247  -7.622   7.908  1.00  0.00     0.031 C 
ATOM     45  C   UNL     1      -4.234 -13.130   7.076  1.00  0.00     0.029 A 
ATOM     46  C   UNL     1      -5.641 -13.392   7.346  1.00  0.00     0.049 A 
ATOM     47  H   UNL     1      -7.152 -11.992   7.653  1.00  0.00     0.167 HD
ATOM     48  C   UNL     1     -10.209  -9.026   8.499  1.00  0.00     0.037 A 
ATOM     49  C   UNL     1      -6.179 -14.620   7.460  1.00  0.00     0.037 A 
ATOM     50  C   UNL     1     -10.864 -10.292   8.712  1.00  0.00     0.049 A 
ATOM     51  C   UNL     1      -7.615 -14.755   7.873  1.00  0.00     0.074 A 
ATOM     52  C   UNL     1     -12.189 -10.538   9.031  1.00  0.00     0.029 A 
ATOM     53  N   UNL     1     -10.247 -11.530   8.602  1.00  0.00    -0.354 N 
ATOM     54  N   UNL     1      -8.504 -13.818   8.088  1.00  0.00    -0.248 NA
ATOM     55  C   UNL     1      -8.110 -16.119   8.100  1.00  0.00     0.031 C 
ATOM     56  C   UNL     1     -12.364 -11.921   9.153  1.00  0.00     0.029 A 
ATOM     57  C   UNL     1     -11.160 -12.540   8.864  1.00  0.00     0.049 A 
ATOM     58  H   UNL     1      -9.300 -11.670   8.371  1.00  0.00     0.167 HD
ATOM     59  C   UNL     1      -9.664 -14.475   8.471  1.00  0.00     0.074 A 
ATOM     60  C   UNL     1      -9.372 -15.894   8.435  1.00  0.00     0.031 C 
ATOM     61  C   UNL     1     -10.859 -13.948   8.830  1.00  0.00     0.037 A 
BRANCH  48  62
ATOM     62  C   UNL     1     -11.029  -7.779   8.673  1.00  0.00     0.064 A 
ATOM     63  C   UNL     1     -11.438  -6.991   7.589  1.00  0.00     0.173 A 
ATOM     64  C   UNL     1     -11.463  -7.405   9.956  1.00  0.00     0.173 A 
ATOM     65  F   UNL     1     -11.041  -7.296   6.345  1.00  0.00    -0.203 F 
ATOM     66  C   UNL     1     -12.238  -5.866   7.784  1.00  0.00     0.198 A 
ATOM     67  C   UNL     1     -12.285  -6.297  10.144  1.00  0.00     0.198 A 
ATOM     68  F   UNL     1     -11.107  -8.129  11.028  1.00  0.00    -0.203 F 
ATOM     69  F   UNL     1     -12.589  -5.106   6.737  1.00  0.00    -0.200 F 
ATOM     70  C   UNL     1     -12.667  -5.525   9.058  1.00  0.00     0.200 A 
ATOM     71  F   UNL     1     -12.710  -5.980  11.375  1.00  0.00    -0.200 F 
ATOM     72  F   UNL     1     -13.447  -4.451   9.241  1.00  0.00    -0.200 F 
ENDBRANCH  48  62
BRANCH  49  73
ATOM     73  C   UNL     1      -5.320 -15.818   7.268  1.00  0.00     0.064 A 
ATOM     74  C   UNL     1      -5.520 -16.687   6.188  1.00  0.00     0.173 A 
ATOM     75  C   UNL     1      -4.264 -16.104   8.149  1.00  0.00     0.173 A 
ATOM     76  F   UNL     1      -6.535 -16.477   5.338  1.00  0.00    -0.203 F 
ATOM     77  C   UNL     1      -4.694 -17.793   5.995  1.00  0.00     0.198 A 
ATOM     78  C   UNL     1      -3.417 -17.186   7.934  1.00  0.00     0.198 A 
ATOM     79  F   UNL     1      -4.035 -15.308   9.204  1.00  0.00    -0.203 F 
ATOM     80  F   UNL     1      -4.928 -18.631   4.975  1.00  0.00    -0.200 F 
ATOM     81  C   UNL     1      -3.636 -18.034   6.859  1.00  0.00     0.200 A 
ATOM     82  F   UNL     1      -2.386 -17.402   8.761  1.00  0.00    -0.200 F 
ATOM     83  F   UNL     1      -2.830 -19.086   6.660  1.00  0.00    -0.200 F 
ENDBRANCH  49  73
BRANCH  61  84
ATOM     84  C   UNL     1     -11.948 -14.915   9.186  1.00  0.00     0.064 A 
ATOM     85  C   UNL     1     -11.929 -15.630  10.392  1.00  0.00     0.173 A 
ATOM     86  C   UNL     1     -13.029 -15.121   8.315  1.00  0.00     0.173 A 
ATOM     87  F   UNL     1     -10.906 -15.482  11.248  1.00  0.00    -0.203 F 
ATOM     88  C   UNL     1     -12.938 -16.538  10.700  1.00  0.00     0.198 A 
ATOM     89  C   UNL     1     -14.050 -16.009   8.639  1.00  0.00     0.198 A 
ATOM     90  F   UNL     1     -13.095 -14.458   7.151  1.00  0.00    -0.203 F 
ATOM     91  F   UNL     1     -12.873 -17.250  11.834  1.00  0.00    -0.200 F 
ATOM     92  C   UNL     1     -13.999 -16.723   9.827  1.00  0.00     0.200 A 
ATOM     93  F   UNL     1     -15.079 -16.180   7.798  1.00  0.00    -0.200 F 
ATOM     94  F   UNL     1     -14.969 -17.599  10.125  1.00  0.00    -0.200 F 
ENDBRANCH  61  84
ENDBRANCH  35  36
ENDBRANCH  28  30
ENDBRANCH  27  28
ENDBRANCH  26  27
ENDBRANCH   1  26
TORSDOF 15
