REMARK SMILES C[C@@H](CO)C[NH2+]CC(C)(C)C(=O)OCCOC(=O)c1ccc(-c2c3nc(c(-c4c(F)c(F)c(F)c(F)c4F)c4ccc([nH]4)c(-c4c(F)c(F)c(F)c(F)c4F)c4nc(c(-c5c(F)c(F)c(F)c(F)c5F)c5ccc2[nH]5)C=C4)C=C3)cc1
REMARK SMILES IDX 11 1 12 2 8 3 9 4 10 5 7 6 6 7 5 10 2 11 1 12 3 13 4 14
REMARK SMILES IDX 13 16 14 17 15 18 16 19 17 20 18 21 19 22 20 23 81 24 21 25
REMARK SMILES IDX 80 26 22 27 23 28 24 29 74 30 25 31 79 32 73 33 75 34 26 35
REMARK SMILES IDX 78 36 72 37 71 38 27 40 59 41 39 42 58 43 40 44 43 45 57 46
REMARK SMILES IDX 76 47 41 48 42 49 56 51 77 52 44 53 28 54 29 55 37 56 30 57
REMARK SMILES IDX 31 58 35 59 38 60 32 61 33 62 36 63 34 64 60 65 61 66 69 67
REMARK SMILES IDX 62 68 63 69 67 70 70 71 64 72 65 73 68 74 66 75 45 76 46 77
REMARK SMILES IDX 54 78 47 79 48 80 52 81 55 82 49 83 50 84 53 85 51 86
REMARK H PARENT 6 8 6 9 4 15 75 39 43 50
REMARK Flexibility Score: inf
ROOT
ATOM      1  C   UNL     1      -3.062   0.339   1.390  1.00  0.00     0.317 C 
ATOM      2  O   UNL     1      -2.362  -0.520   1.904  1.00  0.00    -0.251 OA
ENDROOT
BRANCH   1   3
ATOM      3  C   UNL     1      -3.316   0.438  -0.120  1.00  0.00     0.111 C 
ATOM      4  C   UNL     1      -2.948   1.824  -0.661  1.00  0.00     0.029 C 
ATOM      5  C   UNL     1      -4.830   0.201  -0.304  1.00  0.00     0.029 C 
BRANCH   3   6
ATOM      6  C   UNL     1      -2.537  -0.657  -0.953  1.00  0.00     0.278 C 
BRANCH   6   7
ATOM      7  N   UNL     1      -1.054  -0.667  -1.080  1.00  0.00    -0.345 N 
ATOM      8  H   UNL     1      -0.776  -1.475  -1.637  1.00  0.00     0.346 HD
ATOM      9  H   UNL     1      -0.767   0.203  -1.529  1.00  0.00     0.346 HD
BRANCH   7  10
ATOM     10  C   UNL     1      -0.399  -0.744   0.227  1.00  0.00     0.266 C 
BRANCH  10  11
ATOM     11  C   UNL     1       1.120  -0.914   0.326  1.00  0.00     0.067 C 
ATOM     12  C   UNL     1       1.861   0.193  -0.415  1.00  0.00     0.016 C 
BRANCH  11  13
ATOM     13  C   UNL     1       1.503  -0.934   1.827  1.00  0.00     0.165 C 
BRANCH  13  14
ATOM     14  O   UNL     1       1.094   0.243   2.519  1.00  0.00    -0.396 OA
ATOM     15  H   UNL     1       1.536   1.015   2.134  1.00  0.00     0.210 HD
ENDBRANCH  13  14
ENDBRANCH  11  13
ENDBRANCH  10  11
ENDBRANCH   7  10
ENDBRANCH   6   7
ENDBRANCH   3   6
ENDBRANCH   1   3
BRANCH   1  16
ATOM     16  O   UNL     1      -3.689   1.274   2.150  1.00  0.00    -0.461 OA
BRANCH  16  17
ATOM     17  C   UNL     1      -3.237   1.296   3.528  1.00  0.00     0.274 C 
BRANCH  17  18
ATOM     18  C   UNL     1      -3.817   0.201   4.456  1.00  0.00     0.275 C 
BRANCH  18  19
ATOM     19  O   UNL     1      -3.278  -1.127   4.235  1.00  0.00    -0.458 OA
BRANCH  19  20
ATOM     20  C   UNL     1      -4.083  -1.994   3.566  1.00  0.00     0.338 C 
ATOM     21  O   UNL     1      -5.253  -1.808   3.267  1.00  0.00    -0.246 OA
BRANCH  20  22
ATOM     22  C   UNL     1      -3.309  -3.137   3.010  1.00  0.00     0.060 A 
ATOM     23  C   UNL     1      -3.284  -3.251   1.616  1.00  0.00     0.016 A 
ATOM     24  C   UNL     1      -2.654  -4.097   3.779  1.00  0.00     0.016 A 
ATOM     25  C   UNL     1      -2.539  -4.240   0.976  1.00  0.00     0.010 A 
ATOM     26  C   UNL     1      -1.959  -5.144   3.137  1.00  0.00     0.010 A 
ATOM     27  C   UNL     1      -1.880  -5.211   1.731  1.00  0.00    -0.014 A 
BRANCH  27  28
ATOM     28  C   UNL     1      -1.196  -6.333   1.034  1.00  0.00     0.031 A 
ATOM     29  C   UNL     1      -1.948  -7.604   0.766  1.00  0.00     0.074 A 
ATOM     30  C   UNL     1       0.064  -6.208   0.576  1.00  0.00     0.049 A 
ATOM     31  N   UNL     1      -1.518  -8.740   0.276  1.00  0.00    -0.248 NA
ATOM     32  C   UNL     1      -3.384  -7.585   1.077  1.00  0.00     0.031 C 
ATOM     33  C   UNL     1       0.866  -4.990   0.641  1.00  0.00     0.029 A 
ATOM     34  N   UNL     1       0.891  -7.122  -0.037  1.00  0.00    -0.354 N 
ATOM     35  C   UNL     1      -2.624  -9.577   0.236  1.00  0.00     0.074 A 
ATOM     36  C   UNL     1      -3.745  -8.818   0.751  1.00  0.00     0.031 C 
ATOM     37  C   UNL     1       2.079  -5.237   0.114  1.00  0.00     0.029 A 
ATOM     38  C   UNL     1       2.157  -6.645  -0.274  1.00  0.00     0.049 A 
ATOM     39  H   UNL     1       0.602  -8.031  -0.281  1.00  0.00     0.167 HD
ATOM     40  C   UNL     1      -2.695 -10.864  -0.181  1.00  0.00     0.037 A 
ATOM     41  C   UNL     1       3.264  -7.283  -0.709  1.00  0.00     0.037 A 
ATOM     42  C   UNL     1      -1.579 -11.622  -0.687  1.00  0.00     0.049 A 
ATOM     43  C   UNL     1       3.195  -8.757  -1.030  1.00  0.00     0.074 A 
ATOM     44  C   UNL     1      -1.552 -12.939  -1.113  1.00  0.00     0.029 A 
ATOM     45  N   UNL     1      -0.288 -11.133  -0.827  1.00  0.00    -0.354 N 
ATOM     46  N   UNL     1       2.159  -9.560  -1.027  1.00  0.00    -0.248 NA
ATOM     47  C   UNL     1       4.457  -9.417  -1.401  1.00  0.00     0.031 C 
ATOM     48  C   UNL     1      -0.234 -13.266  -1.449  1.00  0.00     0.029 A 
ATOM     49  C   UNL     1       0.550 -12.134  -1.296  1.00  0.00     0.049 A 
ATOM     50  H   UNL     1      -0.008 -10.211  -0.623  1.00  0.00     0.167 HD
ATOM     51  C   UNL     1       2.636 -10.806  -1.415  1.00  0.00     0.074 A 
ATOM     52  C   UNL     1       4.052 -10.651  -1.666  1.00  0.00     0.031 C 
ATOM     53  C   UNL     1       1.960 -11.975  -1.547  1.00  0.00     0.037 A 
BRANCH  40  54
ATOM     54  C   UNL     1      -4.017 -11.561  -0.044  1.00  0.00     0.064 A 
ATOM     55  C   UNL     1      -5.109 -11.255  -0.869  1.00  0.00     0.173 A 
ATOM     56  C   UNL     1      -4.182 -12.570   0.917  1.00  0.00     0.173 A 
ATOM     57  F   UNL     1      -5.008 -10.289  -1.794  1.00  0.00    -0.203 F 
ATOM     58  C   UNL     1      -6.327 -11.915  -0.716  1.00  0.00     0.198 A 
ATOM     59  C   UNL     1      -5.390 -13.249   1.046  1.00  0.00     0.198 A 
ATOM     60  F   UNL     1      -3.167 -12.905   1.728  1.00  0.00    -0.203 F 
ATOM     61  F   UNL     1      -7.373 -11.573  -1.481  1.00  0.00    -0.200 F 
ATOM     62  C   UNL     1      -6.464 -12.915   0.235  1.00  0.00     0.200 A 
ATOM     63  F   UNL     1      -5.515 -14.224   1.956  1.00  0.00    -0.200 F 
ATOM     64  F   UNL     1      -7.635 -13.552   0.377  1.00  0.00    -0.200 F 
ENDBRANCH  40  54
BRANCH  41  65
ATOM     65  C   UNL     1       4.562  -6.558  -0.802  1.00  0.00     0.064 A 
ATOM     66  C   UNL     1       5.209  -6.376  -2.033  1.00  0.00     0.173 A 
ATOM     67  C   UNL     1       5.210  -6.080   0.348  1.00  0.00     0.173 A 
ATOM     68  F   UNL     1       4.653  -6.848  -3.158  1.00  0.00    -0.203 F 
ATOM     69  C   UNL     1       6.460  -5.764  -2.107  1.00  0.00     0.198 A 
ATOM     70  C   UNL     1       6.444  -5.438   0.269  1.00  0.00     0.198 A 
ATOM     71  F   UNL     1       4.646  -6.240   1.554  1.00  0.00    -0.203 F 
ATOM     72  F   UNL     1       7.083  -5.659  -3.288  1.00  0.00    -0.200 F 
ATOM     73  C   UNL     1       7.073  -5.290  -0.957  1.00  0.00     0.200 A 
ATOM     74  F   UNL     1       7.028  -4.973   1.382  1.00  0.00    -0.200 F 
ATOM     75  F   UNL     1       8.275  -4.702  -1.028  1.00  0.00    -0.200 F 
ENDBRANCH  41  65
BRANCH  53  76
ATOM     76  C   UNL     1       2.733 -13.178  -2.011  1.00  0.00     0.064 A 
ATOM     77  C   UNL     1       3.678 -13.812  -1.189  1.00  0.00     0.173 A 
ATOM     78  C   UNL     1       2.494 -13.734  -3.278  1.00  0.00     0.173 A 
ATOM     79  F   UNL     1       3.956 -13.315   0.026  1.00  0.00    -0.203 F 
ATOM     80  C   UNL     1       4.370 -14.938  -1.627  1.00  0.00     0.198 A 
ATOM     81  C   UNL     1       3.164 -14.880  -3.700  1.00  0.00     0.198 A 
ATOM     82  F   UNL     1       1.597 -13.174  -4.104  1.00  0.00    -0.203 F 
ATOM     83  F   UNL     1       5.303 -15.496  -0.842  1.00  0.00    -0.200 F 
ATOM     84  C   UNL     1       4.107 -15.476  -2.877  1.00  0.00     0.200 A 
ATOM     85  F   UNL     1       2.896 -15.407  -4.902  1.00  0.00    -0.200 F 
ATOM     86  F   UNL     1       4.767 -16.567  -3.292  1.00  0.00    -0.200 F 
ENDBRANCH  53  76
ENDBRANCH  27  28
ENDBRANCH  20  22
ENDBRANCH  19  20
ENDBRANCH  18  19
ENDBRANCH  17  18
ENDBRANCH  16  17
ENDBRANCH   1  16
TORSDOF 17
