REMARK SMILES O=C(OCCOC(=O)[C@]1(CCc2cccnc2)CCC[NH2+]C1)c1ccc(-c2c3nc(c(-c4c(F)c(F)c(F)c(F)c4F)c4ccc([nH]4)c(-c4c(F)c(F)c(F)c(F)c4F)c4nc(c(-c5c(F)c(F)c(F)c(F)c5F)c5ccc2[nH]5)C=C4)C=C3)cc1
REMARK SMILES IDX 5 1 4 2 3 3 2 4 1 5 23 6 24 7 85 8 25 9 84 10 26 11 27 12
REMARK SMILES IDX 28 13 78 14 29 15 83 16 77 17 79 18 30 19 82 20 76 21 75 22
REMARK SMILES IDX 31 24 63 25 43 26 62 27 44 28 47 29 61 30 80 31 45 32 46 33
REMARK SMILES IDX 60 35 81 36 48 37 32 38 33 39 41 40 34 41 35 42 39 43 42 44
REMARK SMILES IDX 36 45 37 46 40 47 38 48 64 49 65 50 73 51 66 52 67 53 71 54
REMARK SMILES IDX 74 55 68 56 69 57 72 58 70 59 49 60 50 61 58 62 51 63 52 64
REMARK SMILES IDX 56 65 59 66 53 67 54 68 57 69 55 70 6 71 7 72 8 73 9 74
REMARK SMILES IDX 18 75 22 76 19 77 21 78 20 79 10 82 11 83 12 84 13 85 17 86
REMARK SMILES IDX 14 87 16 88 15 89
REMARK H PARENT 79 23 47 34 21 80 21 81
REMARK Flexibility Score: inf
ROOT
ATOM      1  C   UNL     1       3.526   1.623   0.524  1.00  0.00     0.274 C 
ENDROOT
BRANCH   1   2
ATOM      2  C   UNL     1       4.341   1.471  -0.760  1.00  0.00     0.275 C 
BRANCH   2   3
ATOM      3  O   UNL     1       3.890   0.478  -1.686  1.00  0.00    -0.458 OA
BRANCH   3   4
ATOM      4  C   UNL     1       3.676  -0.823  -1.422  1.00  0.00     0.338 C 
ATOM      5  O   UNL     1       2.740  -1.394  -1.989  1.00  0.00    -0.246 OA
BRANCH   4   6
ATOM      6  C   UNL     1       4.546  -1.627  -0.500  1.00  0.00     0.060 A 
ATOM      7  C   UNL     1       5.646  -1.183   0.241  1.00  0.00     0.016 A 
ATOM      8  C   UNL     1       4.158  -2.964  -0.337  1.00  0.00     0.016 A 
ATOM      9  C   UNL     1       6.268  -2.014   1.186  1.00  0.00     0.010 A 
ATOM     10  C   UNL     1       4.714  -3.764   0.658  1.00  0.00     0.010 A 
ATOM     11  C   UNL     1       5.788  -3.303   1.423  1.00  0.00    -0.014 A 
BRANCH  11  12
ATOM     12  C   UNL     1       6.468  -4.229   2.361  1.00  0.00     0.031 A 
ATOM     13  C   UNL     1       7.062  -5.489   1.808  1.00  0.00     0.074 A 
ATOM     14  C   UNL     1       6.487  -3.995   3.688  1.00  0.00     0.049 A 
ATOM     15  N   UNL     1       7.613  -6.492   2.438  1.00  0.00    -0.248 NA
ATOM     16  C   UNL     1       6.946  -5.686   0.352  1.00  0.00     0.031 C 
ATOM     17  C   UNL     1       5.824  -2.876   4.348  1.00  0.00     0.029 A 
ATOM     18  N   UNL     1       7.066  -4.684   4.722  1.00  0.00    -0.354 N 
ATOM     19  C   UNL     1       7.870  -7.439   1.459  1.00  0.00     0.074 A 
ATOM     20  C   UNL     1       7.292  -6.954   0.228  1.00  0.00     0.031 C 
ATOM     21  C   UNL     1       6.046  -2.934   5.672  1.00  0.00     0.029 A 
ATOM     22  C   UNL     1       6.879  -4.097   5.954  1.00  0.00     0.049 A 
ATOM     23  H   UNL     1       7.568  -5.521   4.596  1.00  0.00     0.167 HD
ATOM     24  C   UNL     1       8.600  -8.573   1.554  1.00  0.00     0.037 A 
ATOM     25  C   UNL     1       7.360  -4.455   7.160  1.00  0.00     0.037 A 
ATOM     26  C   UNL     1       9.241  -8.995   2.764  1.00  0.00     0.049 A 
ATOM     27  C   UNL     1       8.267  -5.658   7.226  1.00  0.00     0.074 A 
ATOM     28  C   UNL     1      10.065 -10.081   2.980  1.00  0.00     0.029 A 
ATOM     29  N   UNL     1       9.144  -8.312   3.970  1.00  0.00    -0.354 N 
ATOM     30  N   UNL     1       8.591  -6.499   6.273  1.00  0.00    -0.248 NA
ATOM     31  C   UNL     1       8.901  -5.946   8.520  1.00  0.00     0.031 C 
ATOM     32  C   UNL     1      10.474 -10.052   4.319  1.00  0.00     0.029 A 
ATOM     33  C   UNL     1       9.918  -8.937   4.929  1.00  0.00     0.049 A 
ATOM     34  H   UNL     1       8.604  -7.503   4.119  1.00  0.00     0.167 HD
ATOM     35  C   UNL     1       9.483  -7.397   6.840  1.00  0.00     0.074 A 
ATOM     36  C   UNL     1       9.669  -6.982   8.216  1.00  0.00     0.031 C 
ATOM     37  C   UNL     1      10.089  -8.475   6.283  1.00  0.00     0.037 A 
BRANCH  24  38
ATOM     38  C   UNL     1       8.781  -9.354   0.287  1.00  0.00     0.064 A 
ATOM     39  C   UNL     1       9.512  -8.823  -0.791  1.00  0.00     0.173 A 
ATOM     40  C   UNL     1       8.156 -10.595   0.106  1.00  0.00     0.173 A 
ATOM     41  F   UNL     1      10.106  -7.625  -0.677  1.00  0.00    -0.203 F 
ATOM     42  C   UNL     1       9.552  -9.470  -2.021  1.00  0.00     0.198 A 
ATOM     43  C   UNL     1       8.232 -11.259  -1.117  1.00  0.00     0.198 A 
ATOM     44  F   UNL     1       7.446 -11.147   1.100  1.00  0.00    -0.203 F 
ATOM     45  F   UNL     1      10.168  -8.890  -3.061  1.00  0.00    -0.200 F 
ATOM     46  C   UNL     1       8.912 -10.688  -2.183  1.00  0.00     0.200 A 
ATOM     47  F   UNL     1       7.619 -12.441  -1.274  1.00  0.00    -0.200 F 
ATOM     48  F   UNL     1       8.934 -11.303  -3.374  1.00  0.00    -0.200 F 
ENDBRANCH  24  38
BRANCH  25  49
ATOM     49  C   UNL     1       7.075  -3.642   8.374  1.00  0.00     0.064 A 
ATOM     50  C   UNL     1       8.086  -2.889   8.991  1.00  0.00     0.173 A 
ATOM     51  C   UNL     1       5.804  -3.621   8.966  1.00  0.00     0.173 A 
ATOM     52  F   UNL     1       9.323  -2.882   8.472  1.00  0.00    -0.203 F 
ATOM     53  C   UNL     1       7.851  -2.185  10.172  1.00  0.00     0.198 A 
ATOM     54  C   UNL     1       5.562  -2.895  10.133  1.00  0.00     0.198 A 
ATOM     55  F   UNL     1       4.794  -4.307   8.412  1.00  0.00    -0.203 F 
ATOM     56  F   UNL     1       8.854  -1.527  10.768  1.00  0.00    -0.200 F 
ATOM     57  C   UNL     1       6.589  -2.188  10.742  1.00  0.00     0.200 A 
ATOM     58  F   UNL     1       4.336  -2.888  10.674  1.00  0.00    -0.200 F 
ATOM     59  F   UNL     1       6.364  -1.520  11.882  1.00  0.00    -0.200 F 
ENDBRANCH  25  49
BRANCH  37  60
ATOM     60  C   UNL     1      11.025  -9.250   7.156  1.00  0.00     0.064 A 
ATOM     61  C   UNL     1      10.548 -10.092   8.169  1.00  0.00     0.173 A 
ATOM     62  C   UNL     1      12.410  -9.182   6.946  1.00  0.00     0.173 A 
ATOM     63  F   UNL     1       9.231 -10.173   8.415  1.00  0.00    -0.203 F 
ATOM     64  C   UNL     1      11.428 -10.826   8.957  1.00  0.00     0.198 A 
ATOM     65  C   UNL     1      13.285  -9.937   7.718  1.00  0.00     0.198 A 
ATOM     66  F   UNL     1      12.910  -8.391   5.984  1.00  0.00    -0.203 F 
ATOM     67  F   UNL     1      10.954 -11.594   9.948  1.00  0.00    -0.200 F 
ATOM     68  C   UNL     1      12.794 -10.754   8.726  1.00  0.00     0.200 A 
ATOM     69  F   UNL     1      14.603  -9.876   7.488  1.00  0.00    -0.200 F 
ATOM     70  F   UNL     1      13.639 -11.468   9.481  1.00  0.00    -0.200 F 
ENDBRANCH  37  60
ENDBRANCH  11  12
ENDBRANCH   4   6
ENDBRANCH   3   4
ENDBRANCH   2   3
ENDBRANCH   1   2
BRANCH   1  71
ATOM     71  O   UNL     1       3.118   0.402   1.186  1.00  0.00    -0.461 OA
BRANCH  71  72
ATOM     72  C   UNL     1       1.821   0.408   1.616  1.00  0.00     0.317 C 
ATOM     73  O   UNL     1       1.028   1.299   1.318  1.00  0.00    -0.251 OA
BRANCH  72  74
ATOM     74  C   UNL     1       1.459  -0.681   2.647  1.00  0.00     0.117 C 
ATOM     75  C   UNL     1       2.171  -2.049   2.547  1.00  0.00     0.030 C 
ATOM     76  C   UNL     1      -0.079  -0.920   2.532  1.00  0.00     0.279 C 
ATOM     77  C   UNL     1       1.544  -3.079   1.599  1.00  0.00     0.063 C 
ATOM     78  N   UNL     1      -0.480  -1.740   1.387  1.00  0.00    -0.345 N 
ATOM     79  C   UNL     1       0.029  -3.093   1.544  1.00  0.00     0.260 C 
ATOM     80  H   UNL     1      -1.498  -1.766   1.329  1.00  0.00     0.346 HD
ATOM     81  H   UNL     1      -0.097  -1.335   0.533  1.00  0.00     0.346 HD
BRANCH  74  82
ATOM     82  C   UNL     1       1.715  -0.054   4.062  1.00  0.00     0.029 C 
BRANCH  82  83
ATOM     83  C   UNL     1       3.176   0.092   4.532  1.00  0.00     0.038 C 
BRANCH  83  84
ATOM     84  C   UNL     1       3.959   1.297   4.092  1.00  0.00    -0.030 A 
ATOM     85  C   UNL     1       3.427   2.588   4.109  1.00  0.00     0.007 A 
ATOM     86  C   UNL     1       5.305   1.179   3.741  1.00  0.00     0.114 A 
ATOM     87  C   UNL     1       4.224   3.675   3.756  1.00  0.00     0.020 A 
ATOM     88  N   UNL     1       6.099   2.213   3.377  1.00  0.00    -0.264 NA
ATOM     89  C   UNL     1       5.542   3.442   3.403  1.00  0.00     0.111 A 
ENDBRANCH  83  84
ENDBRANCH  82  83
ENDBRANCH  74  82
ENDBRANCH  72  74
ENDBRANCH  71  72
ENDBRANCH   1  71
TORSDOF 14
