REMARK SMILES COc1cc(/C=C2/SC(=S)N(c3ccc(C)cc3C)C2=O)ccc1O[C@@H](C)C(=O)OCCOC(=O)c1ccc(-c2c3nc(c(-c4c(F)c(F)c(F)c(F)c4F)c4ccc([nH]4)c(-c4c(F)c(F)c(F)c(F)c4F)c4nc(c(-c5c(F)c(F)c(F)c(F)c5F)c5ccc2[nH]5)C=C4)C=C3)cc1
REMARK SMILES IDX 31 1 30 2 28 3 29 4 26 5 27 6 25 7 24 8 3 9 4 10 5 11 23 12
REMARK SMILES IDX 22 13 2 14 1 15 6 16 7 17 8 18 20 19 9 20 11 21 21 22 10 23
REMARK SMILES IDX 12 24 13 25 18 26 14 27 17 28 19 29 15 30 16 31 32 32 33 33
REMARK SMILES IDX 34 34 35 35 36 36 37 37 98 38 38 39 97 40 39 41 40 42 41 43
REMARK SMILES IDX 91 44 42 45 96 46 90 47 92 48 43 49 95 50 89 51 88 52 44 54
REMARK SMILES IDX 76 55 56 56 75 57 57 58 60 59 74 60 93 61 58 62 59 63 73 65
REMARK SMILES IDX 94 66 61 67 45 68 46 69 54 70 47 71 48 72 52 73 55 74 49 75
REMARK SMILES IDX 50 76 53 77 51 78 77 79 78 80 86 81 79 82 80 83 84 84 87 85
REMARK SMILES IDX 81 86 82 87 85 88 83 89 62 90 63 91 71 92 64 93 65 94 69 95
REMARK SMILES IDX 72 96 66 97 67 98 70 99 68 100
REMARK H PARENT 92 53 60 64
REMARK Flexibility Score: inf
ROOT
ATOM      1  C   UNL     1       1.120   0.552   3.396  1.00  0.00     0.274 C 
ENDROOT
BRANCH   1   2
ATOM      2  O   UNL     1       1.787  -0.124   2.313  1.00  0.00    -0.459 OA
BRANCH   2   3
ATOM      3  C   UNL     1       1.756   0.476   1.092  1.00  0.00     0.347 C 
ATOM      4  O   UNL     1       1.335   1.610   0.885  1.00  0.00    -0.248 OA
BRANCH   3   5
ATOM      5  C   UNL     1       2.412  -0.417   0.005  1.00  0.00     0.279 C 
ATOM      6  C   UNL     1       2.101   0.073  -1.411  1.00  0.00     0.066 C 
BRANCH   5   7
ATOM      7  O   UNL     1       2.440  -1.825  -0.047  1.00  0.00    -0.475 OA
BRANCH   7   8
ATOM      8  C   UNL     1       1.492  -2.634   0.489  1.00  0.00     0.162 A 
ATOM      9  C   UNL     1       0.188  -2.341   0.892  1.00  0.00     0.161 A 
ATOM     10  C   UNL     1      -0.574  -3.309   1.560  1.00  0.00     0.058 A 
ATOM     11  C   UNL     1      -0.055  -4.589   1.786  1.00  0.00    -0.020 A 
ATOM     12  C   UNL     1       1.964  -3.945   0.639  1.00  0.00     0.051 A 
ATOM     13  C   UNL     1       1.199  -4.920   1.273  1.00  0.00     0.012 A 
BRANCH   9  14
ATOM     14  O   UNL     1      -0.341  -1.085   0.810  1.00  0.00    -0.493 OA
ATOM     15  C   UNL     1      -1.186  -0.897  -0.319  1.00  0.00     0.278 C 
ENDBRANCH   9  14
BRANCH  11  16
ATOM     16  C   UNL     1      -0.780  -5.546   2.625  1.00  0.00     0.029 C 
ATOM     17  C   UNL     1      -0.395  -5.912   3.859  1.00  0.00     0.081 C 
ATOM     18  S   UNL     1      -1.256  -7.078   4.791  1.00  0.00    -0.054 SA
ATOM     19  C   UNL     1       0.798  -5.432   4.625  1.00  0.00     0.270 C 
ATOM     20  C   UNL     1      -0.117  -6.994   6.137  1.00  0.00     0.152 C 
ATOM     21  N   UNL     1       0.936  -6.159   5.803  1.00  0.00    -0.261 N 
ATOM     22  O   UNL     1       1.521  -4.520   4.246  1.00  0.00    -0.268 OA
ATOM     23  S   UNL     1      -0.440  -7.776   7.581  1.00  0.00    -0.051 S 
BRANCH  21  24
ATOM     24  C   UNL     1       2.084  -5.947   6.624  1.00  0.00     0.054 A 
ATOM     25  C   UNL     1       2.373  -4.642   7.056  1.00  0.00     0.027 A 
ATOM     26  C   UNL     1       2.972  -6.990   6.961  1.00  0.00    -0.027 A 
ATOM     27  C   UNL     1       3.486  -4.376   7.857  1.00  0.00     0.005 A 
ATOM     28  C   UNL     1       4.077  -6.707   7.789  1.00  0.00     0.009 A 
ATOM     29  C   UNL     1       2.861  -8.396   6.434  1.00  0.00     0.046 C 
ATOM     30  C   UNL     1       4.340  -5.409   8.241  1.00  0.00    -0.051 A 
ATOM     31  C   UNL     1       5.539  -5.114   9.093  1.00  0.00     0.044 C 
ENDBRANCH  21  24
ENDBRANCH  11  16
ENDBRANCH   7   8
ENDBRANCH   5   7
ENDBRANCH   3   5
ENDBRANCH   2   3
ENDBRANCH   1   2
BRANCH   1  32
ATOM     32  C   UNL     1       2.011   0.536   4.636  1.00  0.00     0.275 C 
BRANCH  32  33
ATOM     33  O   UNL     1       3.174   1.346   4.394  1.00  0.00    -0.458 OA
BRANCH  33  34
ATOM     34  C   UNL     1       4.209   0.684   3.837  1.00  0.00     0.338 C 
ATOM     35  O   UNL     1       4.348  -0.523   3.682  1.00  0.00    -0.246 OA
BRANCH  34  36
ATOM     36  C   UNL     1       5.129   1.659   3.259  1.00  0.00     0.060 A 
ATOM     37  C   UNL     1       5.155   1.791   1.869  1.00  0.00     0.016 A 
ATOM     38  C   UNL     1       6.018   2.364   4.065  1.00  0.00     0.016 A 
ATOM     39  C   UNL     1       6.107   2.595   1.262  1.00  0.00     0.010 A 
ATOM     40  C   UNL     1       6.963   3.191   3.458  1.00  0.00     0.010 A 
ATOM     41  C   UNL     1       7.027   3.286   2.055  1.00  0.00    -0.014 A 
BRANCH  41  42
ATOM     42  C   UNL     1       8.128   4.035   1.417  1.00  0.00     0.031 A 
ATOM     43  C   UNL     1       9.518   3.482   1.491  1.00  0.00     0.074 A 
ATOM     44  C   UNL     1       7.872   5.184   0.769  1.00  0.00     0.049 A 
ATOM     45  N   UNL     1      10.653   4.043   1.165  1.00  0.00    -0.248 NA
ATOM     46  C   UNL     1       9.648   2.110   2.009  1.00  0.00     0.031 C 
ATOM     47  C   UNL     1       6.544   5.763   0.568  1.00  0.00     0.029 A 
ATOM     48  N   UNL     1       8.723   6.073   0.168  1.00  0.00    -0.354 N 
ATOM     49  C   UNL     1      11.633   3.111   1.474  1.00  0.00     0.074 A 
ATOM     50  C   UNL     1      10.963   1.949   2.017  1.00  0.00     0.031 C 
ATOM     51  C   UNL     1       6.669   6.915  -0.110  1.00  0.00     0.029 A 
ATOM     52  C   UNL     1       8.087   7.182  -0.331  1.00  0.00     0.049 A 
ATOM     53  H   UNL     1       9.695   5.931   0.100  1.00  0.00     0.167 HD
ATOM     54  C   UNL     1      12.973   3.225   1.320  1.00  0.00     0.037 A 
ATOM     55  C   UNL     1       8.603   8.304  -0.865  1.00  0.00     0.037 A 
ATOM     56  C   UNL     1      13.616   4.383   0.758  1.00  0.00     0.049 A 
ATOM     57  C   UNL     1      10.098   8.436  -0.965  1.00  0.00     0.074 A 
ATOM     58  C   UNL     1      14.965   4.619   0.567  1.00  0.00     0.029 A 
ATOM     59  N   UNL     1      12.942   5.502   0.288  1.00  0.00    -0.354 N 
ATOM     60  N   UNL     1      11.028   7.578  -0.621  1.00  0.00    -0.248 NA
ATOM     61  C   UNL     1      10.614   9.697  -1.512  1.00  0.00     0.031 C 
ATOM     62  C   UNL     1      15.109   5.895   0.010  1.00  0.00     0.029 A 
ATOM     63  C   UNL     1      13.848   6.437  -0.184  1.00  0.00     0.049 A 
ATOM     64  H   UNL     1      11.964   5.615   0.289  1.00  0.00     0.167 HD
ATOM     65  C   UNL     1      12.238   8.183  -0.928  1.00  0.00     0.074 A 
ATOM     66  C   UNL     1      11.922   9.478  -1.497  1.00  0.00     0.031 C 
ATOM     67  C   UNL     1      13.498   7.713  -0.755  1.00  0.00     0.037 A 
BRANCH  54  68
ATOM     68  C   UNL     1      13.822   2.088   1.804  1.00  0.00     0.064 A 
ATOM     69  C   UNL     1      13.873   0.861   1.128  1.00  0.00     0.173 A 
ATOM     70  C   UNL     1      14.600   2.232   2.963  1.00  0.00     0.173 A 
ATOM     71  F   UNL     1      13.132   0.665   0.027  1.00  0.00    -0.203 F 
ATOM     72  C   UNL     1      14.651  -0.190   1.609  1.00  0.00     0.198 A 
ATOM     73  C   UNL     1      15.397   1.189   3.427  1.00  0.00     0.198 A 
ATOM     74  F   UNL     1      14.587   3.386   3.648  1.00  0.00    -0.203 F 
ATOM     75  F   UNL     1      14.646  -1.371   0.975  1.00  0.00    -0.200 F 
ATOM     76  C   UNL     1      15.416  -0.024   2.755  1.00  0.00     0.200 A 
ATOM     77  F   UNL     1      16.141   1.354   4.529  1.00  0.00    -0.200 F 
ATOM     78  F   UNL     1      16.163  -1.036   3.216  1.00  0.00    -0.200 F 
ENDBRANCH  54  68
BRANCH  55  79
ATOM     79  C   UNL     1       7.699   9.393  -1.315  1.00  0.00     0.064 A 
ATOM     80  C   UNL     1       7.556   9.691  -2.676  1.00  0.00     0.173 A 
ATOM     81  C   UNL     1       6.952  10.148  -0.398  1.00  0.00     0.173 A 
ATOM     82  F   UNL     1       8.267   9.012  -3.589  1.00  0.00    -0.203 F 
ATOM     83  C   UNL     1       6.706  10.710  -3.104  1.00  0.00     0.198 A 
ATOM     84  C   UNL     1       6.083  11.148  -0.828  1.00  0.00     0.198 A 
ATOM     85  F   UNL     1       7.054   9.902   0.916  1.00  0.00    -0.203 F 
ATOM     86  F   UNL     1       6.614  10.999  -4.409  1.00  0.00    -0.200 F 
ATOM     87  C   UNL     1       5.965  11.432  -2.180  1.00  0.00     0.200 A 
ATOM     88  F   UNL     1       5.360  11.835   0.067  1.00  0.00    -0.200 F 
ATOM     89  F   UNL     1       5.142  12.405  -2.593  1.00  0.00    -0.200 F 
ENDBRANCH  55  79
BRANCH  67  90
ATOM     90  C   UNL     1      14.620   8.589  -1.225  1.00  0.00     0.064 A 
ATOM     91  C   UNL     1      15.009   9.729  -0.508  1.00  0.00     0.173 A 
ATOM     92  C   UNL     1      15.337   8.258  -2.384  1.00  0.00     0.173 A 
ATOM     93  F   UNL     1      14.341  10.093   0.597  1.00  0.00    -0.203 F 
ATOM     94  C   UNL     1      16.067  10.519  -0.948  1.00  0.00     0.198 A 
ATOM     95  C   UNL     1      16.410   9.036  -2.806  1.00  0.00     0.198 A 
ATOM     96  F   UNL     1      15.003   7.173  -3.099  1.00  0.00    -0.203 F 
ATOM     97  F   UNL     1      16.398  11.628  -0.272  1.00  0.00    -0.200 F 
ATOM     98  C   UNL     1      16.770  10.169  -2.092  1.00  0.00     0.200 A 
ATOM     99  F   UNL     1      17.094   8.691  -3.905  1.00  0.00    -0.200 F 
ATOM    100  F   UNL     1      17.792  10.928  -2.510  1.00  0.00    -0.200 F 
ENDBRANCH  67  90
ENDBRANCH  41  42
ENDBRANCH  34  36
ENDBRANCH  33  34
ENDBRANCH  32  33
ENDBRANCH   1  32
TORSDOF 16
