REMARK SMILES O=C(C[C@H]1C(=O)Nc2ccccc21)OCCOC(=O)c1ccc(-c2c3nc(c(-c4c(F)c(F)c(F)c(F)c4F)c4ccc([nH]4)c(-c4c(F)c(F)c(F)c(F)c4F)c4nc(c(-c5c(F)c(F)c(F)c(F)c5F)c5ccc2[nH]5)C=C4)C=C3)cc1
REMARK SMILES IDX 16 1 15 2 14 3 2 4 1 5 3 6 4 7 5 8 13 9 6 10 7 11 8 12 12 13
REMARK SMILES IDX 9 15 11 16 10 17 17 18 18 19 19 20 20 21 21 22 82 23 22 24
REMARK SMILES IDX 81 25 23 26 24 27 25 28 75 29 26 30 80 31 74 32 76 33 27 34
REMARK SMILES IDX 79 35 73 36 72 37 28 39 60 40 40 41 59 42 41 43 44 44 58 45
REMARK SMILES IDX 77 46 42 47 43 48 57 50 78 51 45 52 29 53 30 54 38 55 31 56
REMARK SMILES IDX 32 57 36 58 39 59 33 60 34 61 37 62 35 63 61 64 62 65 70 66
REMARK SMILES IDX 63 67 64 68 68 69 71 70 65 71 66 72 69 73 67 74 46 75 47 76
REMARK SMILES IDX 55 77 48 78 49 79 53 80 56 81 50 82 51 83 54 84 52 85
REMARK H PARENT 7 14 76 38 44 49
REMARK Flexibility Score: inf
ROOT
ATOM      1  C   UNL     1       2.255   1.536  -1.421  1.00  0.00     0.275 C 
ENDROOT
BRANCH   1   2
ATOM      2  C   UNL     1       3.477   1.212  -0.560  1.00  0.00     0.274 C 
BRANCH   2   3
ATOM      3  O   UNL     1       4.564   0.707  -1.363  1.00  0.00    -0.462 OA
BRANCH   3   4
ATOM      4  C   UNL     1       4.832  -0.599  -1.591  1.00  0.00     0.307 C 
ATOM      5  O   UNL     1       5.701  -0.922  -2.398  1.00  0.00    -0.252 OA
BRANCH   4   6
ATOM      6  C   UNL     1       4.064  -1.648  -0.834  1.00  0.00     0.141 C 
BRANCH   6   7
ATOM      7  C   UNL     1       4.538  -1.938   0.584  1.00  0.00     0.122 C 
ATOM      8  C   UNL     1       4.345  -3.451   0.823  1.00  0.00     0.232 C 
ATOM      9  C   UNL     1       6.007  -1.777   0.855  1.00  0.00    -0.011 A 
ATOM     10  O   UNL     1       3.293  -4.065   0.754  1.00  0.00    -0.274 OA
ATOM     11  N   UNL     1       5.590  -3.999   1.088  1.00  0.00    -0.325 N 
ATOM     12  C   UNL     1       6.572  -3.024   1.109  1.00  0.00     0.045 A 
ATOM     13  C   UNL     1       6.783  -0.632   0.901  1.00  0.00     0.007 A 
ATOM     14  H   UNL     1       5.754  -4.957   1.242  1.00  0.00     0.169 HD
ATOM     15  C   UNL     1       7.916  -3.192   1.358  1.00  0.00     0.026 A 
ATOM     16  C   UNL     1       8.149  -0.775   1.153  1.00  0.00     0.000 A 
ATOM     17  C   UNL     1       8.713  -2.045   1.370  1.00  0.00     0.002 A 
ENDBRANCH   6   7
ENDBRANCH   4   6
ENDBRANCH   3   4
ENDBRANCH   2   3
ENDBRANCH   1   2
BRANCH   1  18
ATOM     18  O   UNL     1       1.669   0.315  -1.906  1.00  0.00    -0.458 OA
BRANCH  18  19
ATOM     19  C   UNL     1       2.021  -0.040  -3.166  1.00  0.00     0.338 C 
ATOM     20  O   UNL     1       2.644   0.636  -3.966  1.00  0.00    -0.246 OA
BRANCH  19  21
ATOM     21  C   UNL     1       1.683  -1.465  -3.389  1.00  0.00     0.060 A 
ATOM     22  C   UNL     1       2.542  -2.221  -4.196  1.00  0.00     0.016 A 
ATOM     23  C   UNL     1       0.549  -2.058  -2.821  1.00  0.00     0.016 A 
ATOM     24  C   UNL     1       2.229  -3.546  -4.500  1.00  0.00     0.010 A 
ATOM     25  C   UNL     1       0.239  -3.388  -3.122  1.00  0.00     0.010 A 
ATOM     26  C   UNL     1       1.049  -4.119  -4.006  1.00  0.00    -0.014 A 
BRANCH  26  27
ATOM     27  C   UNL     1       0.555  -5.383  -4.603  1.00  0.00     0.031 A 
ATOM     28  C   UNL     1      -0.438  -5.294  -5.731  1.00  0.00     0.074 A 
ATOM     29  C   UNL     1       1.003  -6.582  -4.193  1.00  0.00     0.049 A 
ATOM     30  N   UNL     1      -0.958  -6.245  -6.465  1.00  0.00    -0.248 NA
ATOM     31  C   UNL     1      -0.912  -3.943  -6.076  1.00  0.00     0.031 C 
ATOM     32  C   UNL     1       1.963  -6.807  -3.116  1.00  0.00     0.029 A 
ATOM     33  N   UNL     1       0.703  -7.843  -4.649  1.00  0.00    -0.354 N 
ATOM     34  C   UNL     1      -1.809  -5.608  -7.358  1.00  0.00     0.074 A 
ATOM     35  C   UNL     1      -1.776  -4.197  -7.046  1.00  0.00     0.031 C 
ATOM     36  C   UNL     1       2.179  -8.129  -2.996  1.00  0.00     0.029 A 
ATOM     37  C   UNL     1       1.366  -8.842  -3.982  1.00  0.00     0.049 A 
ATOM     38  H   UNL     1       0.071  -8.013  -5.384  1.00  0.00     0.167 HD
ATOM     39  C   UNL     1      -2.539  -6.146  -8.363  1.00  0.00     0.037 A 
ATOM     40  C   UNL     1       1.323 -10.177  -4.157  1.00  0.00     0.037 A 
ATOM     41  C   UNL     1      -2.578  -7.548  -8.676  1.00  0.00     0.049 A 
ATOM     42  C   UNL     1       0.469 -10.756  -5.259  1.00  0.00     0.074 A 
ATOM     43  C   UNL     1      -3.271  -8.188  -9.688  1.00  0.00     0.029 A 
ATOM     44  N   UNL     1      -1.899  -8.529  -7.970  1.00  0.00    -0.354 N 
ATOM     45  N   UNL     1      -0.278 -10.142  -6.143  1.00  0.00    -0.248 NA
ATOM     46  C   UNL     1       0.470 -12.221  -5.394  1.00  0.00     0.031 C 
ATOM     47  C   UNL     1      -3.046  -9.564  -9.568  1.00  0.00     0.029 A 
ATOM     48  C   UNL     1      -2.172  -9.774  -8.512  1.00  0.00     0.049 A 
ATOM     49  H   UNL     1      -1.310  -8.365  -7.198  1.00  0.00     0.167 HD
ATOM     50  C   UNL     1      -0.797 -11.136  -6.964  1.00  0.00     0.074 A 
ATOM     51  C   UNL     1      -0.277 -12.395  -6.475  1.00  0.00     0.031 C 
ATOM     52  C   UNL     1      -1.626 -11.016  -8.031  1.00  0.00     0.037 A 
BRANCH  39  53
ATOM     53  C   UNL     1      -3.366  -5.205  -9.187  1.00  0.00     0.064 A 
ATOM     54  C   UNL     1      -2.776  -4.310 -10.093  1.00  0.00     0.173 A 
ATOM     55  C   UNL     1      -4.763  -5.203  -9.077  1.00  0.00     0.173 A 
ATOM     56  F   UNL     1      -1.441  -4.260 -10.221  1.00  0.00    -0.203 F 
ATOM     57  C   UNL     1      -3.554  -3.428 -10.838  1.00  0.00     0.198 A 
ATOM     58  C   UNL     1      -5.541  -4.340  -9.843  1.00  0.00     0.198 A 
ATOM     59  F   UNL     1      -5.376  -6.039  -8.225  1.00  0.00    -0.203 F 
ATOM     60  F   UNL     1      -2.967  -2.547 -11.659  1.00  0.00    -0.200 F 
ATOM     61  C   UNL     1      -4.936  -3.448 -10.717  1.00  0.00     0.200 A 
ATOM     62  F   UNL     1      -6.876  -4.364  -9.731  1.00  0.00    -0.200 F 
ATOM     63  F   UNL     1      -5.684  -2.599 -11.434  1.00  0.00    -0.200 F 
ENDBRANCH  39  53
BRANCH  40  64
ATOM     64  C   UNL     1       2.136 -11.071  -3.293  1.00  0.00     0.064 A 
ATOM     65  C   UNL     1       3.233 -11.773  -3.812  1.00  0.00     0.173 A 
ATOM     66  C   UNL     1       1.811 -11.273  -1.944  1.00  0.00     0.173 A 
ATOM     67  F   UNL     1       3.565 -11.635  -5.104  1.00  0.00    -0.203 F 
ATOM     68  C   UNL     1       3.958 -12.663  -3.022  1.00  0.00     0.198 A 
ATOM     69  C   UNL     1       2.553 -12.143  -1.148  1.00  0.00     0.198 A 
ATOM     70  F   UNL     1       0.767 -10.630  -1.401  1.00  0.00    -0.203 F 
ATOM     71  F   UNL     1       4.967 -13.363  -3.558  1.00  0.00    -0.200 F 
ATOM     72  C   UNL     1       3.619 -12.845  -1.690  1.00  0.00     0.200 A 
ATOM     73  F   UNL     1       2.226 -12.313   0.140  1.00  0.00    -0.200 F 
ATOM     74  F   UNL     1       4.312 -13.705  -0.932  1.00  0.00    -0.200 F 
ENDBRANCH  40  64
BRANCH  52  75
ATOM     75  C   UNL     1      -1.974 -12.268  -8.784  1.00  0.00     0.064 A 
ATOM     76  C   UNL     1      -2.834 -13.239  -8.250  1.00  0.00     0.173 A 
ATOM     77  C   UNL     1      -1.470 -12.476 -10.077  1.00  0.00     0.173 A 
ATOM     78  F   UNL     1      -3.333 -13.092  -7.014  1.00  0.00    -0.203 F 
ATOM     79  C   UNL     1      -3.152 -14.386  -8.972  1.00  0.00     0.198 A 
ATOM     80  C   UNL     1      -1.815 -13.610 -10.808  1.00  0.00     0.198 A 
ATOM     81  F   UNL     1      -0.652 -11.573 -10.638  1.00  0.00    -0.203 F 
ATOM     82  F   UNL     1      -3.937 -15.324  -8.423  1.00  0.00    -0.200 F 
ATOM     83  C   UNL     1      -2.649 -14.568 -10.252  1.00  0.00     0.200 A 
ATOM     84  F   UNL     1      -1.339 -13.776 -12.050  1.00  0.00    -0.200 F 
ATOM     85  F   UNL     1      -2.962 -15.670 -10.947  1.00  0.00    -0.200 F 
ENDBRANCH  52  75
ENDBRANCH  26  27
ENDBRANCH  19  21
ENDBRANCH  18  19
ENDBRANCH   1  18
TORSDOF 12
