REMARK SMILES CCCc1cc(OC(F)(F)F)cc2c1O[C@@H](C(F)(F)F)C(C(=O)OCCOC(=O)c1ccc(-c3c4nc(c(-c5c(F)c(F)c(F)c(F)c5F)c5ccc([nH]5)c(-c5c(F)c(F)c(F)c(F)c5F)c5nc(c(-c6c(F)c(F)c(F)c(F)c6F)c6ccc3[nH]6)C=C5)C=C4)cc1)=C2
REMARK SMILES IDX 25 1 24 2 22 3 23 4 21 5 4 6 5 7 14 8 6 9 13 10 15 11 12 12
REMARK SMILES IDX 93 13 16 14 3 15 2 16 1 17 7 18 8 19 9 20 10 21 11 22 17 23
REMARK SMILES IDX 18 24 19 25 20 26 26 27 27 28 28 29 29 30 30 31 31 32 92 33
REMARK SMILES IDX 32 34 91 35 33 36 34 37 35 38 85 39 36 40 90 41 84 42 86 43
REMARK SMILES IDX 37 44 89 45 83 46 82 47 38 49 70 50 50 51 69 52 51 53 54 54
REMARK SMILES IDX 68 55 87 56 52 57 53 58 67 60 88 61 55 62 39 63 40 64 48 65
REMARK SMILES IDX 41 66 42 67 46 68 49 69 43 70 44 71 47 72 45 73 71 74 72 75
REMARK SMILES IDX 80 76 73 77 74 78 78 79 81 80 75 81 76 82 79 83 77 84 56 85
REMARK SMILES IDX 57 86 65 87 58 88 59 89 63 90 66 91 60 92 61 93 64 94 62 95
REMARK H PARENT 86 48 54 59
REMARK Flexibility Score: inf
ROOT
ATOM      1  C   UNL     1       1.592  -6.695  -2.542  1.00  0.00     0.275 C 
ENDROOT
BRANCH   1   2
ATOM      2  O   UNL     1       1.446  -5.285  -2.809  1.00  0.00    -0.459 OA
BRANCH   2   3
ATOM      3  C   UNL     1       0.584  -4.625  -2.003  1.00  0.00     0.338 C 
ATOM      4  O   UNL     1      -0.096  -5.100  -1.109  1.00  0.00    -0.246 OA
BRANCH   3   5
ATOM      5  C   UNL     1       0.600  -3.187  -2.303  1.00  0.00     0.087 C 
ATOM      6  C   UNL     1       0.315   0.960  -2.780  1.00  0.00    -0.002 A 
ATOM      7  C   UNL     1      -0.139   1.470  -4.012  1.00  0.00     0.054 A 
ATOM      8  C   UNL     1       0.373  -0.432  -2.615  1.00  0.00     0.131 A 
ATOM      9  C   UNL     1      -0.510   0.616  -5.055  1.00  0.00     0.130 A 
ATOM     10  C   UNL     1       0.009  -1.300  -3.653  1.00  0.00     0.021 A 
ATOM     11  O   UNL     1       0.756  -0.897  -1.391  1.00  0.00    -0.475 OA
ATOM     12  C   UNL     1      -0.420  -0.768  -4.872  1.00  0.00     0.058 A 
ATOM     13  C   UNL     1       0.034  -2.746  -3.434  1.00  0.00     0.027 C 
ATOM     14  C   UNL     1       1.236  -2.257  -1.307  1.00  0.00     0.316 C 
BRANCH   6  15
ATOM     15  C   UNL     1       0.816   1.925  -1.722  1.00  0.00     0.039 C 
BRANCH  15  16
ATOM     16  C   UNL     1      -0.033   2.089  -0.455  1.00  0.00     0.001 C 
ATOM     17  C   UNL     1       0.305   1.117   0.669  1.00  0.00     0.004 C 
ENDBRANCH  15  16
ENDBRANCH   6  15
BRANCH   9  18
ATOM     18  O   UNL     1      -0.954   0.993  -6.291  1.00  0.00    -0.406 OA
BRANCH  18  19
ATOM     19  C   UNL     1      -1.258   2.363  -6.497  1.00  0.00     0.573 C 
ATOM     20  F   UNL     1      -2.171   2.801  -5.604  1.00  0.00    -0.132 F 
ATOM     21  F   UNL     1      -0.146   3.124  -6.418  1.00  0.00    -0.132 F 
ATOM     22  F   UNL     1      -1.779   2.509  -7.736  1.00  0.00    -0.132 F 
ENDBRANCH  18  19
ENDBRANCH   9  18
BRANCH  14  23
ATOM     23  C   UNL     1       1.195  -2.691   0.168  1.00  0.00     0.430 C 
ATOM     24  F   UNL     1       1.858  -3.856   0.361  1.00  0.00    -0.167 F 
ATOM     25  F   UNL     1       1.824  -1.774   0.951  1.00  0.00    -0.167 F 
ATOM     26  F   UNL     1      -0.059  -2.827   0.643  1.00  0.00    -0.167 F 
ENDBRANCH  14  23
ENDBRANCH   3   5
ENDBRANCH   2   3
ENDBRANCH   1   2
BRANCH   1  27
ATOM     27  C   UNL     1       3.065  -7.105  -2.590  1.00  0.00     0.275 C 
BRANCH  27  28
ATOM     28  O   UNL     1       3.822  -6.397  -1.587  1.00  0.00    -0.458 OA
BRANCH  28  29
ATOM     29  C   UNL     1       4.454  -5.288  -2.039  1.00  0.00     0.338 C 
ATOM     30  O   UNL     1       4.508  -4.895  -3.194  1.00  0.00    -0.246 OA
BRANCH  29  31
ATOM     31  C   UNL     1       4.952  -4.477  -0.911  1.00  0.00     0.060 A 
ATOM     32  C   UNL     1       4.763  -3.095  -1.007  1.00  0.00     0.016 A 
ATOM     33  C   UNL     1       5.624  -5.016   0.190  1.00  0.00     0.016 A 
ATOM     34  C   UNL     1       5.190  -2.249   0.009  1.00  0.00     0.010 A 
ATOM     35  C   UNL     1       6.118  -4.157   1.184  1.00  0.00     0.010 A 
ATOM     36  C   UNL     1       5.906  -2.770   1.093  1.00  0.00    -0.014 A 
BRANCH  36  37
ATOM     37  C   UNL     1       6.578  -1.811   2.002  1.00  0.00     0.031 A 
ATOM     38  C   UNL     1       7.900  -1.234   1.579  1.00  0.00     0.074 A 
ATOM     39  C   UNL     1       5.979  -1.375   3.123  1.00  0.00     0.049 A 
ATOM     40  N   UNL     1       8.630  -0.313   2.156  1.00  0.00    -0.248 NA
ATOM     41  C   UNL     1       8.462  -1.748   0.320  1.00  0.00     0.031 C 
ATOM     42  C   UNL     1       4.662  -1.792   3.596  1.00  0.00     0.029 A 
ATOM     43  N   UNL     1       6.403  -0.463   4.058  1.00  0.00    -0.354 N 
ATOM     44  C   UNL     1       9.720  -0.121   1.319  1.00  0.00     0.074 A 
ATOM     45  C   UNL     1       9.572  -1.035   0.207  1.00  0.00     0.031 C 
ATOM     46  C   UNL     1       4.388  -1.144   4.742  1.00  0.00     0.029 A 
ATOM     47  C   UNL     1       5.516  -0.281   5.090  1.00  0.00     0.049 A 
ATOM     48  H   UNL     1       7.262   0.014   3.995  1.00  0.00     0.167 HD
ATOM     49  C   UNL     1      10.754   0.742   1.462  1.00  0.00     0.037 A 
ATOM     50  C   UNL     1       5.615   0.489   6.191  1.00  0.00     0.037 A 
ATOM     51  C   UNL     1      10.931   1.618   2.587  1.00  0.00     0.049 A 
ATOM     52  C   UNL     1       6.834   1.357   6.384  1.00  0.00     0.074 A 
ATOM     53  C   UNL     1      11.975   2.488   2.850  1.00  0.00     0.029 A 
ATOM     54  N   UNL     1      10.045   1.724   3.648  1.00  0.00    -0.354 N 
ATOM     55  N   UNL     1       7.860   1.537   5.588  1.00  0.00    -0.248 NA
ATOM     56  C   UNL     1       6.903   2.135   7.630  1.00  0.00     0.031 C 
ATOM     57  C   UNL     1      11.742   3.088   4.092  1.00  0.00     0.029 A 
ATOM     58  C   UNL     1      10.527   2.632   4.578  1.00  0.00     0.049 A 
ATOM     59  H   UNL     1       9.198   1.229   3.729  1.00  0.00     0.167 HD
ATOM     60  C   UNL     1       8.673   2.473   6.215  1.00  0.00     0.074 A 
ATOM     61  C   UNL     1       8.019   2.829   7.456  1.00  0.00     0.031 C 
ATOM     62  C   UNL     1       9.854   2.994   5.798  1.00  0.00     0.037 A 
BRANCH  49  63
ATOM     63  C   UNL     1      11.798   0.736   0.387  1.00  0.00     0.064 A 
ATOM     64  C   UNL     1      11.553   1.295  -0.876  1.00  0.00     0.173 A 
ATOM     65  C   UNL     1      13.057   0.166   0.623  1.00  0.00     0.173 A 
ATOM     66  F   UNL     1      10.356   1.833  -1.157  1.00  0.00    -0.203 F 
ATOM     67  C   UNL     1      12.526   1.263  -1.872  1.00  0.00     0.198 A 
ATOM     68  C   UNL     1      14.035   0.157  -0.367  1.00  0.00     0.198 A 
ATOM     69  F   UNL     1      13.337  -0.384   1.814  1.00  0.00    -0.203 F 
ATOM     70  F   UNL     1      12.256   1.761  -3.087  1.00  0.00    -0.200 F 
ATOM     71  C   UNL     1      13.766   0.698  -1.615  1.00  0.00     0.200 A 
ATOM     72  F   UNL     1      15.235  -0.384  -0.116  1.00  0.00    -0.200 F 
ATOM     73  F   UNL     1      14.701   0.666  -2.575  1.00  0.00    -0.200 F 
ENDBRANCH  49  63
BRANCH  50  74
ATOM     74  C   UNL     1       4.537   0.470   7.216  1.00  0.00     0.064 A 
ATOM     75  C   UNL     1       3.742   1.599   7.458  1.00  0.00     0.173 A 
ATOM     76  C   UNL     1       4.318  -0.665   8.011  1.00  0.00     0.173 A 
ATOM     77  F   UNL     1       3.935   2.720   6.747  1.00  0.00    -0.203 F 
ATOM     78  C   UNL     1       2.785   1.601   8.472  1.00  0.00     0.198 A 
ATOM     79  C   UNL     1       3.342  -0.671   9.005  1.00  0.00     0.198 A 
ATOM     80  F   UNL     1       5.059  -1.767   7.827  1.00  0.00    -0.203 F 
ATOM     81  F   UNL     1       2.080   2.712   8.722  1.00  0.00    -0.200 F 
ATOM     82  C   UNL     1       2.584   0.465   9.242  1.00  0.00     0.200 A 
ATOM     83  F   UNL     1       3.149  -1.771   9.745  1.00  0.00    -0.200 F 
ATOM     84  F   UNL     1       1.671   0.471  10.223  1.00  0.00    -0.200 F 
ENDBRANCH  50  74
BRANCH  62  85
ATOM     85  C   UNL     1      10.490   4.047   6.660  1.00  0.00     0.064 A 
ATOM     86  C   UNL     1      11.087   3.737   7.890  1.00  0.00     0.173 A 
ATOM     87  C   UNL     1      10.540   5.380   6.223  1.00  0.00     0.173 A 
ATOM     88  F   UNL     1      11.056   2.481   8.358  1.00  0.00    -0.203 F 
ATOM     89  C   UNL     1      11.685   4.728   8.665  1.00  0.00     0.198 A 
ATOM     90  C   UNL     1      11.165   6.363   6.986  1.00  0.00     0.198 A 
ATOM     91  F   UNL     1       9.992   5.728   5.048  1.00  0.00    -0.203 F 
ATOM     92  F   UNL     1      12.208   4.418   9.859  1.00  0.00    -0.200 F 
ATOM     93  C   UNL     1      11.730   6.038   8.209  1.00  0.00     0.200 A 
ATOM     94  F   UNL     1      11.219   7.624   6.537  1.00  0.00    -0.200 F 
ATOM     95  F   UNL     1      12.312   6.988   8.953  1.00  0.00    -0.200 F 
ENDBRANCH  62  85
ENDBRANCH  36  37
ENDBRANCH  29  31
ENDBRANCH  28  29
ENDBRANCH  27  28
ENDBRANCH   1  27
TORSDOF 16
