REMARK SMILES Cc1cc(C(=O)OCCOC(=O)c2ccc(-c3c4nc(c(-c5c(F)c(F)c(F)c(F)c5F)c5ccc([nH]5)c(-c5c(F)c(F)c(F)c(F)c5F)c5nc(c(-c6c(F)c(F)c(F)c(F)c6F)c6ccc3[nH]6)C=C5)C=C4)cc2)c([N+](=O)[O-])cc1[N+](=O)[O-]
REMARK SMILES IDX 9 1 8 2 7 3 5 4 6 5 4 6 1 7 2 8 3 9 81 10 80 11 76 12 82 13
REMARK SMILES IDX 83 14 84 15 77 16 78 17 79 18 10 19 11 20 12 21 13 22 14 23
REMARK SMILES IDX 75 24 15 25 74 26 16 27 17 28 18 29 68 30 19 31 73 32 67 33
REMARK SMILES IDX 69 34 20 35 72 36 66 37 65 38 21 40 53 41 33 42 52 43 34 44
REMARK SMILES IDX 37 45 51 46 70 47 35 48 36 49 50 51 71 52 38 53 22 54 23 55
REMARK SMILES IDX 31 56 24 57 25 58 29 59 32 60 26 61 27 62 30 63 28 64 54 65
REMARK SMILES IDX 55 66 63 67 56 68 57 69 61 70 64 71 58 72 59 73 62 74 60 75
REMARK SMILES IDX 39 76 40 77 48 78 41 79 42 80 46 81 49 82 43 83 44 84 47 85
REMARK SMILES IDX 45 86
REMARK H PARENT 69 39 37 50
REMARK Flexibility Score: inf
ROOT
ATOM      1  C   UNL     1      -3.770  -4.047  -2.859  1.00  0.00     0.275 C 
ENDROOT
BRANCH   1   2
ATOM      2  C   UNL     1      -3.970  -2.722  -2.109  1.00  0.00     0.275 C 
BRANCH   2   3
ATOM      3  O   UNL     1      -2.836  -1.836  -2.133  1.00  0.00    -0.458 OA
BRANCH   3   4
ATOM      4  C   UNL     1      -2.792  -1.049  -1.031  1.00  0.00     0.345 C 
ATOM      5  O   UNL     1      -3.537  -1.120  -0.065  1.00  0.00    -0.246 OA
BRANCH   4   6
ATOM      6  C   UNL     1      -1.779   0.017  -1.051  1.00  0.00     0.138 A 
ATOM      7  C   UNL     1       1.984   0.174  -0.552  1.00  0.00     0.052 C 
ATOM      8  C   UNL     1       0.567   0.678  -0.698  1.00  0.00     0.028 A 
ATOM      9  C   UNL     1      -0.409  -0.280  -1.079  1.00  0.00     0.033 A 
ATOM     10  C   UNL     1       0.131   1.981  -0.354  1.00  0.00     0.279 A 
ATOM     11  C   UNL     1      -1.241   2.298  -0.386  1.00  0.00     0.172 A 
ATOM     12  C   UNL     1      -2.177   1.310  -0.709  1.00  0.00     0.290 A 
BRANCH  10  13
ATOM     13  N   UNL     1       1.044   3.067   0.075  1.00  0.00     0.063 N 
ATOM     14  O   UNL     1       0.566   4.208   0.150  1.00  0.00    -0.258 OA
ATOM     15  O   UNL     1       2.216   2.792   0.349  1.00  0.00    -0.258 OA
ENDBRANCH  10  13
BRANCH  12  16
ATOM     16  N   UNL     1      -3.594   1.654  -0.654  1.00  0.00     0.063 N 
ATOM     17  O   UNL     1      -4.313   1.247  -1.576  1.00  0.00    -0.258 OA
ATOM     18  O   UNL     1      -3.963   2.367   0.288  1.00  0.00    -0.258 OA
ENDBRANCH  12  16
ENDBRANCH   4   6
ENDBRANCH   3   4
ENDBRANCH   2   3
ENDBRANCH   1   2
BRANCH   1  19
ATOM     19  O   UNL     1      -2.482  -4.725  -2.856  1.00  0.00    -0.458 OA
BRANCH  19  20
ATOM     20  C   UNL     1      -1.424  -4.433  -2.071  1.00  0.00     0.338 C 
ATOM     21  O   UNL     1      -0.281  -4.324  -2.509  1.00  0.00    -0.246 OA
BRANCH  20  22
ATOM     22  C   UNL     1      -1.700  -4.263  -0.639  1.00  0.00     0.060 A 
ATOM     23  C   UNL     1      -0.831  -3.471   0.134  1.00  0.00     0.016 A 
ATOM     24  C   UNL     1      -2.877  -4.777  -0.106  1.00  0.00     0.016 A 
ATOM     25  C   UNL     1      -1.198  -3.086   1.413  1.00  0.00     0.010 A 
ATOM     26  C   UNL     1      -3.316  -4.279   1.089  1.00  0.00     0.010 A 
ATOM     27  C   UNL     1      -2.450  -3.490   1.863  1.00  0.00    -0.014 A 
BRANCH  27  28
ATOM     28  C   UNL     1      -2.817  -3.493   3.263  1.00  0.00     0.031 A 
ATOM     29  C   UNL     1      -3.424  -2.314   3.890  1.00  0.00     0.074 A 
ATOM     30  C   UNL     1      -2.689  -4.745   3.761  1.00  0.00     0.049 A 
ATOM     31  N   UNL     1      -3.421  -2.086   5.153  1.00  0.00    -0.248 NA
ATOM     32  C   UNL     1      -4.040  -1.224   3.139  1.00  0.00     0.031 C 
ATOM     33  C   UNL     1      -3.204  -5.388   4.950  1.00  0.00     0.029 A 
ATOM     34  N   UNL     1      -1.860  -5.735   3.184  1.00  0.00    -0.354 N 
ATOM     35  C   UNL     1      -4.340  -1.078   5.390  1.00  0.00     0.074 A 
ATOM     36  C   UNL     1      -4.532  -0.450   4.113  1.00  0.00     0.031 C 
ATOM     37  C   UNL     1      -2.445  -6.477   5.201  1.00  0.00     0.029 A 
ATOM     38  C   UNL     1      -1.341  -6.476   4.242  1.00  0.00     0.049 A 
ATOM     39  H   UNL     1      -1.685  -5.872   2.225  1.00  0.00     0.167 HD
ATOM     40  C   UNL     1      -4.979  -1.067   6.598  1.00  0.00     0.037 A 
ATOM     41  C   UNL     1      -0.019  -6.290   4.532  1.00  0.00     0.037 A 
ATOM     42  C   UNL     1      -4.437  -2.158   7.410  1.00  0.00     0.049 A 
ATOM     43  C   UNL     1       0.093  -5.586   5.861  1.00  0.00     0.074 A 
ATOM     44  C   UNL     1      -4.870  -3.461   7.594  1.00  0.00     0.029 A 
ATOM     45  N   UNL     1      -3.097  -2.126   7.779  1.00  0.00    -0.354 N 
ATOM     46  N   UNL     1      -0.730  -4.659   6.280  1.00  0.00    -0.248 NA
ATOM     47  C   UNL     1       1.061  -6.000   6.866  1.00  0.00     0.031 C 
ATOM     48  C   UNL     1      -3.741  -4.236   7.978  1.00  0.00     0.029 A 
ATOM     49  C   UNL     1      -2.632  -3.405   8.022  1.00  0.00     0.049 A 
ATOM     50  H   UNL     1      -2.555  -1.307   7.857  1.00  0.00     0.167 HD
ATOM     51  C   UNL     1      -0.487  -4.431   7.609  1.00  0.00     0.074 A 
ATOM     52  C   UNL     1       0.657  -5.274   7.919  1.00  0.00     0.031 C 
ATOM     53  C   UNL     1      -1.248  -3.625   8.407  1.00  0.00     0.037 A 
BRANCH  40  54
ATOM     54  C   UNL     1      -6.265  -0.344   6.966  1.00  0.00     0.064 A 
ATOM     55  C   UNL     1      -6.988  -0.743   8.118  1.00  0.00     0.173 A 
ATOM     56  C   UNL     1      -6.873   0.700   6.240  1.00  0.00     0.173 A 
ATOM     57  F   UNL     1      -6.512  -1.676   8.954  1.00  0.00    -0.203 F 
ATOM     58  C   UNL     1      -8.229  -0.200   8.467  1.00  0.00     0.198 A 
ATOM     59  C   UNL     1      -8.123   1.236   6.583  1.00  0.00     0.198 A 
ATOM     60  F   UNL     1      -6.278   1.274   5.193  1.00  0.00    -0.203 F 
ATOM     61  F   UNL     1      -8.865  -0.643   9.561  1.00  0.00    -0.200 F 
ATOM     62  C   UNL     1      -8.805   0.781   7.691  1.00  0.00     0.200 A 
ATOM     63  F   UNL     1      -8.659   2.207   5.828  1.00  0.00    -0.200 F 
ATOM     64  F   UNL     1      -9.997   1.298   8.019  1.00  0.00    -0.200 F 
ENDBRANCH  40  54
BRANCH  41  65
ATOM     65  C   UNL     1       0.855  -6.071   3.326  1.00  0.00     0.064 A 
ATOM     66  C   UNL     1       0.781  -7.007   2.264  1.00  0.00     0.173 A 
ATOM     67  C   UNL     1       1.538  -4.879   3.054  1.00  0.00     0.173 A 
ATOM     68  F   UNL     1       0.155  -8.181   2.450  1.00  0.00    -0.203 F 
ATOM     69  C   UNL     1       1.254  -6.721   0.982  1.00  0.00     0.198 A 
ATOM     70  C   UNL     1       2.038  -4.605   1.770  1.00  0.00     0.198 A 
ATOM     71  F   UNL     1       1.662  -3.934   3.995  1.00  0.00    -0.203 F 
ATOM     72  F   UNL     1       1.046  -7.590  -0.018  1.00  0.00    -0.200 F 
ATOM     73  C   UNL     1       1.871  -5.512   0.732  1.00  0.00     0.200 A 
ATOM     74  F   UNL     1       2.602  -3.415   1.510  1.00  0.00    -0.200 F 
ATOM     75  F   UNL     1       2.258  -5.195  -0.512  1.00  0.00    -0.200 F 
ENDBRANCH  41  65
BRANCH  53  76
ATOM     76  C   UNL     1      -0.767  -3.039   9.708  1.00  0.00     0.064 A 
ATOM     77  C   UNL     1       0.592  -2.829   9.993  1.00  0.00     0.173 A 
ATOM     78  C   UNL     1      -1.679  -2.495  10.644  1.00  0.00     0.173 A 
ATOM     79  F   UNL     1       1.552  -3.152   9.115  1.00  0.00    -0.203 F 
ATOM     80  C   UNL     1       1.010  -2.217  11.172  1.00  0.00     0.198 A 
ATOM     81  C   UNL     1      -1.257  -1.804  11.775  1.00  0.00     0.198 A 
ATOM     82  F   UNL     1      -3.007  -2.580  10.474  1.00  0.00    -0.203 F 
ATOM     83  F   UNL     1       2.321  -2.112  11.430  1.00  0.00    -0.200 F 
ATOM     84  C   UNL     1       0.088  -1.693  12.055  1.00  0.00     0.200 A 
ATOM     85  F   UNL     1      -2.163  -1.229  12.579  1.00  0.00    -0.200 F 
ATOM     86  F   UNL     1       0.496  -1.058  13.161  1.00  0.00    -0.200 F 
ENDBRANCH  53  76
ENDBRANCH  27  28
ENDBRANCH  20  22
ENDBRANCH  19  20
ENDBRANCH   1  19
TORSDOF 13
