REMARK SMILES C[C@H](NC(=O)c1cc(S(=O)(=O)N(C)C)cs1)C(=O)OCCOC(=O)c1ccc(-c2c3nc(c(-c4c(F)c(F)c(F)c(F)c4F)c4ccc([nH]4)c(-c4c(F)c(F)c(F)c(F)c4F)c4nc(c(-c5c(F)c(F)c(F)c(F)c5F)c5ccc2[nH]5)C=C4)C=C3)cc1
REMARK SMILES IDX 20 1 19 2 17 3 18 4 2 5 1 6 3 7 4 8 5 10 6 11 7 12 16 13
REMARK SMILES IDX 8 14 15 15 9 16 10 17 11 18 12 19 13 20 14 21 21 22 22 23
REMARK SMILES IDX 23 24 24 25 25 26 26 27 87 28 27 29 86 30 28 31 29 32 30 33
REMARK SMILES IDX 80 34 31 35 85 36 79 37 81 38 32 39 84 40 78 41 77 42 33 44
REMARK SMILES IDX 65 45 45 46 64 47 46 48 49 49 63 50 82 51 47 52 48 53 62 55
REMARK SMILES IDX 83 56 50 57 34 58 35 59 43 60 36 61 37 62 41 63 44 64 38 65
REMARK SMILES IDX 39 66 42 67 40 68 66 69 67 70 75 71 68 72 69 73 73 74 76 75
REMARK SMILES IDX 70 76 71 77 74 78 72 79 51 80 52 81 60 82 53 83 54 84 58 85
REMARK SMILES IDX 61 86 55 87 56 88 59 89 57 90
REMARK H PARENT 3 9 81 43 49 54
REMARK Flexibility Score: inf
ROOT
ATOM      1  C   UNL     1      -3.130   0.788  -0.544  1.00  0.00     0.274 C 
ENDROOT
BRANCH   1   2
ATOM      2  O   UNL     1      -1.700   0.910  -0.661  1.00  0.00    -0.461 OA
BRANCH   2   3
ATOM      3  C   UNL     1      -1.142   2.006  -0.079  1.00  0.00     0.328 C 
ATOM      4  O   UNL     1      -1.771   2.924   0.434  1.00  0.00    -0.250 OA
BRANCH   3   5
ATOM      5  C   UNL     1       0.387   2.022  -0.209  1.00  0.00     0.189 C 
ATOM      6  C   UNL     1       0.754   3.002  -1.319  1.00  0.00     0.043 C 
BRANCH   5   7
ATOM      7  N   UNL     1       0.978   0.699  -0.440  1.00  0.00    -0.338 N 
ATOM      8  C   UNL     1       2.301   0.316  -0.407  1.00  0.00     0.262 C 
ATOM      9  H   UNL     1       0.337  -0.018  -0.650  1.00  0.00     0.164 HD
ATOM     10  O   UNL     1       2.590  -0.822  -0.772  1.00  0.00    -0.268 OA
BRANCH   8  11
ATOM     11  C   UNL     1       3.281   1.280   0.057  1.00  0.00     0.093 A 
ATOM     12  C   UNL     1       3.283   2.037   1.213  1.00  0.00     0.047 A 
ATOM     13  S   UNL     1       4.673   1.594  -0.894  1.00  0.00    -0.137 S 
ATOM     14  C   UNL     1       4.338   2.992   1.229  1.00  0.00     0.094 A 
ATOM     15  C   UNL     1       5.173   2.866   0.140  1.00  0.00     0.087 A 
BRANCH  14  16
ATOM     16  S   UNL     1       4.484   4.238   2.423  1.00  0.00     0.243 S 
ATOM     17  O   UNL     1       5.880   4.226   2.800  1.00  0.00    -0.207 OA
ATOM     18  O   UNL     1       3.867   5.372   1.773  1.00  0.00    -0.207 OA
BRANCH  16  19
ATOM     19  N   UNL     1       3.539   3.817   3.788  1.00  0.00    -0.204 NA
ATOM     20  C   UNL     1       4.095   2.712   4.603  1.00  0.00     0.124 C 
ATOM     21  C   UNL     1       3.192   4.985   4.630  1.00  0.00     0.124 C 
ENDBRANCH  16  19
ENDBRANCH  14  16
ENDBRANCH   8  11
ENDBRANCH   5   7
ENDBRANCH   3   5
ENDBRANCH   2   3
ENDBRANCH   1   2
BRANCH   1  22
ATOM     22  C   UNL     1      -3.506  -0.367   0.387  1.00  0.00     0.275 C 
BRANCH  22  23
ATOM     23  O   UNL     1      -3.054  -0.142   1.737  1.00  0.00    -0.458 OA
BRANCH  23  24
ATOM     24  C   UNL     1      -1.789  -0.555   1.986  1.00  0.00     0.338 C 
ATOM     25  O   UNL     1      -1.022  -1.084   1.198  1.00  0.00    -0.246 OA
BRANCH  24  26
ATOM     26  C   UNL     1      -1.374  -0.156   3.343  1.00  0.00     0.060 A 
ATOM     27  C   UNL     1      -0.104   0.412   3.488  1.00  0.00     0.016 A 
ATOM     28  C   UNL     1      -2.171  -0.401   4.465  1.00  0.00     0.016 A 
ATOM     29  C   UNL     1       0.380   0.725   4.755  1.00  0.00     0.010 A 
ATOM     30  C   UNL     1      -1.679  -0.092   5.739  1.00  0.00     0.010 A 
ATOM     31  C   UNL     1      -0.395   0.457   5.892  1.00  0.00    -0.014 A 
BRANCH  31  32
ATOM     32  C   UNL     1       0.179   0.694   7.238  1.00  0.00     0.031 A 
ATOM     33  C   UNL     1       0.722  -0.459   8.034  1.00  0.00     0.074 A 
ATOM     34  C   UNL     1       0.247   1.944   7.731  1.00  0.00     0.049 A 
ATOM     35  N   UNL     1       1.252  -0.461   9.231  1.00  0.00    -0.248 NA
ATOM     36  C   UNL     1       0.667  -1.782   7.396  1.00  0.00     0.031 C 
ATOM     37  C   UNL     1      -0.221   3.146   7.045  1.00  0.00     0.029 A 
ATOM     38  N   UNL     1       0.736   2.406   8.927  1.00  0.00    -0.354 N 
ATOM     39  C   UNL     1       1.583  -1.783   9.495  1.00  0.00     0.074 A 
ATOM     40  C   UNL     1       1.182  -2.558   8.339  1.00  0.00     0.031 C 
ATOM     41  C   UNL     1      -0.004   4.211   7.835  1.00  0.00     0.029 A 
ATOM     42  C   UNL     1       0.593   3.761   9.091  1.00  0.00     0.049 A 
ATOM     43  H   UNL     1       1.149   1.821   9.603  1.00  0.00     0.167 HD
ATOM     44  C   UNL     1       2.175  -2.302  10.597  1.00  0.00     0.037 A 
ATOM     45  C   UNL     1       0.892   4.545  10.143  1.00  0.00     0.037 A 
ATOM     46  C   UNL     1       2.581  -1.535  11.745  1.00  0.00     0.049 A 
ATOM     47  C   UNL     1       1.507   3.937  11.374  1.00  0.00     0.074 A 
ATOM     48  C   UNL     1       3.207  -1.974  12.900  1.00  0.00     0.029 A 
ATOM     49  N   UNL     1       2.399  -0.168  11.884  1.00  0.00    -0.354 N 
ATOM     50  N   UNL     1       1.834   2.689  11.604  1.00  0.00    -0.248 NA
ATOM     51  C   UNL     1       1.795   4.848  12.492  1.00  0.00     0.031 C 
ATOM     52  C   UNL     1       3.373  -0.876  13.752  1.00  0.00     0.029 A 
ATOM     53  C   UNL     1       2.884   0.251  13.113  1.00  0.00     0.049 A 
ATOM     54  H   UNL     1       1.986   0.418  11.210  1.00  0.00     0.167 HD
ATOM     55  C   UNL     1       2.378   2.666  12.882  1.00  0.00     0.074 A 
ATOM     56  C   UNL     1       2.353   4.029  13.372  1.00  0.00     0.031 C 
ATOM     57  C   UNL     1       2.854   1.611  13.585  1.00  0.00     0.037 A 
BRANCH  44  58
ATOM     58  C   UNL     1       2.404  -3.783  10.625  1.00  0.00     0.064 A 
ATOM     59  C   UNL     1       3.432  -4.379   9.881  1.00  0.00     0.173 A 
ATOM     60  C   UNL     1       1.613  -4.609  11.438  1.00  0.00     0.173 A 
ATOM     61  F   UNL     1       4.205  -3.631   9.079  1.00  0.00    -0.203 F 
ATOM     62  C   UNL     1       3.650  -5.753   9.937  1.00  0.00     0.198 A 
ATOM     63  C   UNL     1       1.847  -5.979  11.507  1.00  0.00     0.198 A 
ATOM     64  F   UNL     1       0.620  -4.084  12.170  1.00  0.00    -0.203 F 
ATOM     65  F   UNL     1       4.617  -6.308   9.193  1.00  0.00    -0.200 F 
ATOM     66  C   UNL     1       2.862  -6.551  10.754  1.00  0.00     0.200 A 
ATOM     67  F   UNL     1       1.090  -6.748  12.302  1.00  0.00    -0.200 F 
ATOM     68  F   UNL     1       3.077  -7.872  10.810  1.00  0.00    -0.200 F 
ENDBRANCH  44  58
BRANCH  45  69
ATOM     69  C   UNL     1       0.604   6.000  10.082  1.00  0.00     0.064 A 
ATOM     70  C   UNL     1       1.641   6.936   9.974  1.00  0.00     0.173 A 
ATOM     71  C   UNL     1      -0.712   6.481  10.137  1.00  0.00     0.173 A 
ATOM     72  F   UNL     1       2.916   6.521   9.940  1.00  0.00    -0.203 F 
ATOM     73  C   UNL     1       1.372   8.302   9.936  1.00  0.00     0.198 A 
ATOM     74  C   UNL     1      -0.980   7.846  10.074  1.00  0.00     0.198 A 
ATOM     75  F   UNL     1      -1.736   5.622  10.241  1.00  0.00    -0.203 F 
ATOM     76  F   UNL     1       2.383   9.179   9.868  1.00  0.00    -0.200 F 
ATOM     77  C   UNL     1       0.062   8.756   9.980  1.00  0.00     0.200 A 
ATOM     78  F   UNL     1      -2.248   8.279  10.107  1.00  0.00    -0.200 F 
ATOM     79  F   UNL     1      -0.196  10.070   9.938  1.00  0.00    -0.200 F 
ENDBRANCH  45  69
BRANCH  57  80
ATOM     80  C   UNL     1       3.406   1.889  14.952  1.00  0.00     0.064 A 
ATOM     81  C   UNL     1       2.564   2.152  16.041  1.00  0.00     0.173 A 
ATOM     82  C   UNL     1       4.789   1.853  15.181  1.00  0.00     0.173 A 
ATOM     83  F   UNL     1       1.235   2.212  15.867  1.00  0.00    -0.203 F 
ATOM     84  C   UNL     1       3.089   2.390  17.309  1.00  0.00     0.198 A 
ATOM     85  C   UNL     1       5.309   2.069  16.454  1.00  0.00     0.198 A 
ATOM     86  F   UNL     1       5.635   1.601  14.171  1.00  0.00    -0.203 F 
ATOM     87  F   UNL     1       2.268   2.677  18.329  1.00  0.00    -0.200 F 
ATOM     88  C   UNL     1       4.460   2.342  17.515  1.00  0.00     0.200 A 
ATOM     89  F   UNL     1       6.634   2.016  16.653  1.00  0.00    -0.200 F 
ATOM     90  F   UNL     1       4.963   2.567  18.737  1.00  0.00    -0.200 F 
ENDBRANCH  57  80
ENDBRANCH  31  32
ENDBRANCH  24  26
ENDBRANCH  23  24
ENDBRANCH  22  23
ENDBRANCH   1  22
TORSDOF 15
