REMARK SMILES Cc1cc(NC[C@H](C)[NH+](C)C)cc(C(=O)OCCOC(=O)c2ccc(-c3c4nc(c(-c5c(F)c(F)c(F)c(F)c5F)c5ccc([nH]5)c(-c5c(F)c(F)c(F)c(F)c5F)c5nc(c(-c6c(F)c(F)c(F)c(F)c6F)c6ccc3[nH]6)C=C5)C=C4)cc2)c1N
REMARK SMILES IDX 17 1 16 2 14 3 15 4 13 5 1 6 2 7 3 8 85 9 4 10 12 11 86 12
REMARK SMILES IDX 5 15 6 17 7 18 8 19 9 20 10 21 11 22 18 24 19 25 20 26 21 27
REMARK SMILES IDX 22 28 23 29 84 30 24 31 83 32 25 33 26 34 27 35 77 36 28 37
REMARK SMILES IDX 82 38 76 39 78 40 29 41 81 42 75 43 74 44 30 46 62 47 42 48
REMARK SMILES IDX 61 49 43 50 46 51 60 52 79 53 44 54 45 55 59 57 80 58 47 59
REMARK SMILES IDX 31 60 32 61 40 62 33 63 34 64 38 65 41 66 35 67 36 68 39 69
REMARK SMILES IDX 37 70 63 71 64 72 72 73 65 74 66 75 70 76 73 77 67 78 68 79
REMARK SMILES IDX 71 80 69 81 48 82 49 83 57 84 50 85 51 86 55 87 58 88 52 89
REMARK SMILES IDX 53 90 56 91 54 92
REMARK H PARENT 86 13 86 14 5 16 9 23 78 45 46 56
REMARK Flexibility Score: inf
ROOT
ATOM      1  C   UNL     1      -5.076   7.958  -1.068  1.00  0.00     0.275 C 
ENDROOT
BRANCH   1   2
ATOM      2  O   UNL     1      -5.350   7.090   0.051  1.00  0.00    -0.458 OA
BRANCH   2   3
ATOM      3  C   UNL     1      -4.709   7.374   1.219  1.00  0.00     0.340 C 
ATOM      4  O   UNL     1      -3.945   8.299   1.417  1.00  0.00    -0.246 OA
BRANCH   3   5
ATOM      5  C   UNL     1      -5.114   6.398   2.270  1.00  0.00     0.085 A 
ATOM      6  C   UNL     1      -6.096   6.249   5.950  1.00  0.00     0.047 C 
ATOM      7  C   UNL     1      -5.732   5.855   4.543  1.00  0.00    -0.025 A 
ATOM      8  C   UNL     1      -5.916   4.520   4.143  1.00  0.00     0.031 A 
ATOM      9  C   UNL     1      -5.211   6.784   3.624  1.00  0.00     0.049 A 
ATOM     10  C   UNL     1      -5.646   4.093   2.840  1.00  0.00     0.035 A 
ATOM     11  C   UNL     1      -5.327   5.065   1.895  1.00  0.00     0.043 A 
BRANCH   9  12
ATOM     12  N   UNL     1      -4.926   8.085   4.039  1.00  0.00    -0.398 N 
ATOM     13  H   UNL     1      -5.002   8.326   4.990  1.00  0.00     0.156 HD
ATOM     14  H   UNL     1      -4.649   8.762   3.380  1.00  0.00     0.156 HD
ENDBRANCH   9  12
BRANCH  10  15
ATOM     15  N   UNL     1      -5.749   2.750   2.535  1.00  0.00    -0.379 N 
ATOM     16  H   UNL     1      -6.088   2.135   3.225  1.00  0.00     0.160 HD
BRANCH  15  17
ATOM     17  C   UNL     1      -5.378   2.205   1.235  1.00  0.00     0.177 C 
BRANCH  17  18
ATOM     18  C   UNL     1      -5.344   0.649   1.231  1.00  0.00     0.199 C 
ATOM     19  C   UNL     1      -4.502   0.182   0.031  1.00  0.00     0.077 C 
BRANCH  18  20
ATOM     20  N   UNL     1      -6.639  -0.074   1.267  1.00  0.00    -0.336 N 
ATOM     21  C   UNL     1      -7.372   0.125   2.516  1.00  0.00     0.332 C 
ATOM     22  C   UNL     1      -7.518   0.202   0.131  1.00  0.00     0.332 C 
ATOM     23  H   UNL     1      -6.362  -1.054   1.202  1.00  0.00     0.347 HD
ENDBRANCH  18  20
ENDBRANCH  17  18
ENDBRANCH  15  17
ENDBRANCH  10  15
ENDBRANCH   3   5
ENDBRANCH   2   3
ENDBRANCH   1   2
BRANCH   1  24
ATOM     24  C   UNL     1      -6.263   8.881  -1.337  1.00  0.00     0.275 C 
BRANCH  24  25
ATOM     25  O   UNL     1      -6.426   9.771  -0.220  1.00  0.00    -0.458 OA
BRANCH  25  26
ATOM     26  C   UNL     1      -7.673   9.871   0.294  1.00  0.00     0.338 C 
ATOM     27  O   UNL     1      -8.702   9.392  -0.157  1.00  0.00    -0.246 OA
BRANCH  26  28
ATOM     28  C   UNL     1      -7.626  10.645   1.550  1.00  0.00     0.060 A 
ATOM     29  C   UNL     1      -6.654  10.348   2.496  1.00  0.00     0.016 A 
ATOM     30  C   UNL     1      -8.619  11.573   1.857  1.00  0.00     0.016 A 
ATOM     31  C   UNL     1      -6.728  10.887   3.779  1.00  0.00     0.010 A 
ATOM     32  C   UNL     1      -8.620  12.204   3.111  1.00  0.00     0.010 A 
ATOM     33  C   UNL     1      -7.699  11.838   4.112  1.00  0.00    -0.014 A 
BRANCH  33  34
ATOM     34  C   UNL     1      -7.797  12.375   5.509  1.00  0.00     0.031 A 
ATOM     35  C   UNL     1      -9.117  12.335   6.243  1.00  0.00     0.074 A 
ATOM     36  C   UNL     1      -6.718  12.860   6.162  1.00  0.00     0.049 A 
ATOM     37  N   UNL     1      -9.485  12.965   7.332  1.00  0.00    -0.248 NA
ATOM     38  C   UNL     1     -10.169  11.484   5.665  1.00  0.00     0.031 C 
ATOM     39  C   UNL     1      -5.352  12.906   5.639  1.00  0.00     0.029 A 
ATOM     40  N   UNL     1      -6.598  13.397   7.426  1.00  0.00    -0.354 N 
ATOM     41  C   UNL     1     -10.829  12.658   7.515  1.00  0.00     0.074 A 
ATOM     42  C   UNL     1     -11.210  11.775   6.434  1.00  0.00     0.031 C 
ATOM     43  C   UNL     1      -4.528  13.374   6.587  1.00  0.00     0.029 A 
ATOM     44  C   UNL     1      -5.319  13.793   7.738  1.00  0.00     0.049 A 
ATOM     45  H   UNL     1      -7.357  13.488   8.046  1.00  0.00     0.167 HD
ATOM     46  C   UNL     1     -11.668  13.083   8.491  1.00  0.00     0.037 A 
ATOM     47  C   UNL     1      -4.835  14.478   8.794  1.00  0.00     0.037 A 
ATOM     48  C   UNL     1     -11.264  13.887   9.617  1.00  0.00     0.049 A 
ATOM     49  C   UNL     1      -5.787  14.962   9.853  1.00  0.00     0.074 A 
ATOM     50  C   UNL     1     -12.040  14.372  10.656  1.00  0.00     0.029 A 
ATOM     51  N   UNL     1      -9.963  14.297   9.868  1.00  0.00    -0.354 N 
ATOM     52  N   UNL     1      -7.079  14.774   9.952  1.00  0.00    -0.248 NA
ATOM     53  C   UNL     1      -5.216  15.786  10.929  1.00  0.00     0.031 C 
ATOM     54  C   UNL     1     -11.215  15.100  11.520  1.00  0.00     0.029 A 
ATOM     55  C   UNL     1      -9.917  15.030  11.044  1.00  0.00     0.049 A 
ATOM     56  H   UNL     1      -9.188  14.097   9.295  1.00  0.00     0.167 HD
ATOM     57  C   UNL     1      -7.476  15.449  11.098  1.00  0.00     0.074 A 
ATOM     58  C   UNL     1      -6.282  16.027  11.679  1.00  0.00     0.031 C 
ATOM     59  C   UNL     1      -8.720  15.590  11.615  1.00  0.00     0.037 A 
BRANCH  46  60
ATOM     60  C   UNL     1     -13.122  12.724   8.373  1.00  0.00     0.064 A 
ATOM     61  C   UNL     1     -13.595  11.424   8.597  1.00  0.00     0.173 A 
ATOM     62  C   UNL     1     -14.066  13.722   8.080  1.00  0.00     0.173 A 
ATOM     63  F   UNL     1     -12.735  10.430   8.868  1.00  0.00    -0.203 F 
ATOM     64  C   UNL     1     -14.954  11.131   8.510  1.00  0.00     0.198 A 
ATOM     65  C   UNL     1     -15.427  13.433   8.025  1.00  0.00     0.198 A 
ATOM     66  F   UNL     1     -13.670  14.986   7.867  1.00  0.00    -0.203 F 
ATOM     67  F   UNL     1     -15.380   9.872   8.687  1.00  0.00    -0.200 F 
ATOM     68  C   UNL     1     -15.870  12.136   8.233  1.00  0.00     0.200 A 
ATOM     69  F   UNL     1     -16.310  14.410   7.774  1.00  0.00    -0.200 F 
ATOM     70  F   UNL     1     -17.178  11.854   8.164  1.00  0.00    -0.200 F 
ENDBRANCH  46  60
BRANCH  47  71
ATOM     71  C   UNL     1      -3.388  14.824   8.859  1.00  0.00     0.064 A 
ATOM     72  C   UNL     1      -2.559  14.300   9.861  1.00  0.00     0.173 A 
ATOM     73  C   UNL     1      -2.804  15.695   7.925  1.00  0.00     0.173 A 
ATOM     74  F   UNL     1      -3.073  13.492  10.800  1.00  0.00    -0.203 F 
ATOM     75  C   UNL     1      -1.208  14.639   9.930  1.00  0.00     0.198 A 
ATOM     76  C   UNL     1      -1.447  16.000   7.970  1.00  0.00     0.198 A 
ATOM     77  F   UNL     1      -3.552  16.234   6.950  1.00  0.00    -0.203 F 
ATOM     78  F   UNL     1      -0.450  14.163  10.927  1.00  0.00    -0.200 F 
ATOM     79  C   UNL     1      -0.651  15.479   8.977  1.00  0.00     0.200 A 
ATOM     80  F   UNL     1      -0.911  16.798   7.036  1.00  0.00    -0.200 F 
ATOM     81  F   UNL     1       0.650  15.793   9.036  1.00  0.00    -0.200 F 
ENDBRANCH  47  71
BRANCH  59  82
ATOM     82  C   UNL     1      -8.847  16.367  12.892  1.00  0.00     0.064 A 
ATOM     83  C   UNL     1      -8.706  17.762  12.920  1.00  0.00     0.173 A 
ATOM     84  C   UNL     1      -9.134  15.709  14.097  1.00  0.00     0.173 A 
ATOM     85  F   UNL     1      -8.414  18.434  11.797  1.00  0.00    -0.203 F 
ATOM     86  C   UNL     1      -8.821  18.468  14.115  1.00  0.00     0.198 A 
ATOM     87  C   UNL     1      -9.276  16.421  15.285  1.00  0.00     0.198 A 
ATOM     88  F   UNL     1      -9.282  14.376  14.122  1.00  0.00    -0.203 F 
ATOM     89  F   UNL     1      -8.633  19.795  14.128  1.00  0.00    -0.200 F 
ATOM     90  C   UNL     1      -9.111  17.798  15.294  1.00  0.00     0.200 A 
ATOM     91  F   UNL     1      -9.566  15.773  16.422  1.00  0.00    -0.200 F 
ATOM     92  F   UNL     1      -9.223  18.479  16.443  1.00  0.00    -0.200 F 
ENDBRANCH  59  82
ENDBRANCH  33  34
ENDBRANCH  26  28
ENDBRANCH  25  26
ENDBRANCH  24  25
ENDBRANCH   1  24
TORSDOF 16
