REMARK SMILES C=Cc1cc(Cl)cc2c1O[C@H](C(F)(F)F)C(C(=O)OCCOC(=O)c1ccc(-c3c4nc(c(-c5c(F)c(F)c(F)c(F)c5F)c5ccc([nH]5)c(-c5c(F)c(F)c(F)c(F)c5F)c5nc(c(-c6c(F)c(F)c(F)c(F)c6F)c6ccc3[nH]6)C=C5)C=C4)cc1)=C2
REMARK SMILES IDX 21 1 20 2 19 3 17 4 18 5 16 6 3 7 4 8 9 9 5 10 8 11 10 12
REMARK SMILES IDX 6 13 7 14 88 15 11 16 2 17 1 18 12 19 13 20 14 21 15 22
REMARK SMILES IDX 22 23 23 24 24 25 25 26 26 27 87 28 27 29 86 30 28 31 29 32
REMARK SMILES IDX 30 33 80 34 31 35 85 36 79 37 81 38 32 39 84 40 78 41 77 42
REMARK SMILES IDX 33 44 65 45 45 46 64 47 46 48 49 49 63 50 82 51 47 52 48 53
REMARK SMILES IDX 62 55 83 56 50 57 34 58 35 59 43 60 36 61 37 62 41 63 44 64
REMARK SMILES IDX 38 65 39 66 42 67 40 68 66 69 67 70 75 71 68 72 69 73 73 74
REMARK SMILES IDX 76 75 70 76 71 77 74 78 72 79 51 80 52 81 60 82 53 83 54 84
REMARK SMILES IDX 58 85 61 86 55 87 56 88 59 89 57 90
REMARK H PARENT 81 43 49 54
REMARK Flexibility Score: inf
ROOT
ATOM      1  C   UNL     1      -5.054   3.352  -7.408  1.00  0.00     0.275 C 
ENDROOT
BRANCH   1   2
ATOM      2  C   UNL     1      -4.075   4.278  -6.683  1.00  0.00     0.275 C 
BRANCH   2   3
ATOM      3  O   UNL     1      -3.375   3.594  -5.619  1.00  0.00    -0.459 OA
BRANCH   3   4
ATOM      4  C   UNL     1      -3.799   3.868  -4.363  1.00  0.00     0.338 C 
ATOM      5  O   UNL     1      -4.724   4.602  -4.051  1.00  0.00    -0.246 OA
BRANCH   4   6
ATOM      6  C   UNL     1      -3.018   3.097  -3.372  1.00  0.00     0.087 C 
ATOM      7  C   UNL     1      -0.855   1.050  -0.404  1.00  0.00     0.018 A 
ATOM      8  C   UNL     1      -1.567   0.478   0.665  1.00  0.00     0.032 A 
ATOM      9  C   UNL     1      -1.563   1.724  -1.418  1.00  0.00     0.135 A 
ATOM     10  C   UNL     1      -2.957   0.541   0.703  1.00  0.00     0.042 A 
ATOM     11  C   UNL     1      -2.956   1.807  -1.348  1.00  0.00     0.019 A 
ATOM     12  O   UNL     1      -0.850   2.253  -2.462  1.00  0.00    -0.475 OA
ATOM     13  Cl  UNL     1      -3.818  -0.183   2.005  1.00  0.00    -0.084 Cl
ATOM     14  C   UNL     1      -3.656   1.200  -0.299  1.00  0.00     0.032 A 
ATOM     15  C   UNL     1      -3.688   2.540  -2.358  1.00  0.00     0.027 C 
ATOM     16  C   UNL     1      -1.520   3.070  -3.465  1.00  0.00     0.316 C 
BRANCH   7  17
ATOM     17  C   UNL     1       0.616   1.008  -0.416  1.00  0.00     0.004 C 
ATOM     18  C   UNL     1       1.341  -0.051  -0.035  1.00  0.00     0.009 C 
ENDBRANCH   7  17
BRANCH  16  19
ATOM     19  C   UNL     1      -0.946   4.495  -3.390  1.00  0.00     0.430 C 
ATOM     20  F   UNL     1       0.407   4.490  -3.433  1.00  0.00    -0.167 F 
ATOM     21  F   UNL     1      -1.365   5.257  -4.429  1.00  0.00    -0.167 F 
ATOM     22  F   UNL     1      -1.315   5.129  -2.253  1.00  0.00    -0.167 F 
ENDBRANCH  16  19
ENDBRANCH   4   6
ENDBRANCH   3   4
ENDBRANCH   2   3
ENDBRANCH   1   2
BRANCH   1  23
ATOM     23  O   UNL     1      -6.154   3.004  -6.547  1.00  0.00    -0.458 OA
BRANCH  23  24
ATOM     24  C   UNL     1      -6.159   1.731  -6.095  1.00  0.00     0.338 C 
ATOM     25  O   UNL     1      -5.362   0.844  -6.350  1.00  0.00    -0.246 OA
BRANCH  24  26
ATOM     26  C   UNL     1      -7.234   1.566  -5.108  1.00  0.00     0.060 A 
ATOM     27  C   UNL     1      -8.396   0.860  -5.392  1.00  0.00     0.016 A 
ATOM     28  C   UNL     1      -6.987   2.004  -3.813  1.00  0.00     0.016 A 
ATOM     29  C   UNL     1      -9.309   0.612  -4.358  1.00  0.00     0.010 A 
ATOM     30  C   UNL     1      -7.827   1.647  -2.764  1.00  0.00     0.010 A 
ATOM     31  C   UNL     1      -9.020   0.969  -3.022  1.00  0.00    -0.014 A 
BRANCH  31  32
ATOM     32  C   UNL     1      -9.948   0.625  -1.905  1.00  0.00     0.031 A 
ATOM     33  C   UNL     1     -10.500   1.688  -0.984  1.00  0.00     0.074 A 
ATOM     34  C   UNL     1     -10.271  -0.667  -1.687  1.00  0.00     0.049 A 
ATOM     35  N   UNL     1     -11.350   1.563   0.007  1.00  0.00    -0.248 NA
ATOM     36  C   UNL     1     -10.006   3.063  -1.164  1.00  0.00     0.031 C 
ATOM     37  C   UNL     1      -9.717  -1.810  -2.414  1.00  0.00     0.029 A 
ATOM     38  N   UNL     1     -11.159  -1.237  -0.806  1.00  0.00    -0.354 N 
ATOM     39  C   UNL     1     -11.469   2.828   0.571  1.00  0.00     0.074 A 
ATOM     40  C   UNL     1     -10.551   3.692  -0.133  1.00  0.00     0.031 C 
ATOM     41  C   UNL     1     -10.339  -2.930  -2.015  1.00  0.00     0.029 A 
ATOM     42  C   UNL     1     -11.311  -2.592  -0.980  1.00  0.00     0.049 A 
ATOM     43  H   UNL     1     -11.639  -0.724  -0.116  1.00  0.00     0.167 HD
ATOM     44  C   UNL     1     -12.303   3.247   1.554  1.00  0.00     0.037 A 
ATOM     45  C   UNL     1     -12.159  -3.460  -0.396  1.00  0.00     0.037 A 
ATOM     46  C   UNL     1     -13.268   2.406   2.208  1.00  0.00     0.049 A 
ATOM     47  C   UNL     1     -13.133  -2.959   0.634  1.00  0.00     0.074 A 
ATOM     48  C   UNL     1     -14.222   2.757   3.147  1.00  0.00     0.029 A 
ATOM     49  N   UNL     1     -13.412   1.046   1.979  1.00  0.00    -0.354 N 
ATOM     50  N   UNL     1     -13.300  -1.741   1.087  1.00  0.00    -0.248 NA
ATOM     51  C   UNL     1     -14.040  -3.951   1.229  1.00  0.00     0.031 C 
ATOM     52  C   UNL     1     -14.927   1.604   3.506  1.00  0.00     0.029 A 
ATOM     53  C   UNL     1     -14.435   0.542   2.764  1.00  0.00     0.049 A 
ATOM     54  H   UNL     1     -12.867   0.518   1.351  1.00  0.00     0.167 HD
ATOM     55  C   UNL     1     -14.335  -1.817   2.009  1.00  0.00     0.074 A 
ATOM     56  C   UNL     1     -14.775  -3.196   2.034  1.00  0.00     0.031 C 
ATOM     57  C   UNL     1     -14.865  -0.831   2.772  1.00  0.00     0.037 A 
BRANCH  44  58
ATOM     58  C   UNL     1     -12.252   4.697   1.947  1.00  0.00     0.064 A 
ATOM     59  C   UNL     1     -12.719   5.702   1.086  1.00  0.00     0.173 A 
ATOM     60  C   UNL     1     -11.799   5.082   3.218  1.00  0.00     0.173 A 
ATOM     61  F   UNL     1     -13.158   5.387  -0.142  1.00  0.00    -0.203 F 
ATOM     62  C   UNL     1     -12.709   7.040   1.470  1.00  0.00     0.198 A 
ATOM     63  C   UNL     1     -11.819   6.419   3.611  1.00  0.00     0.198 A 
ATOM     64  F   UNL     1     -11.354   4.162   4.087  1.00  0.00    -0.203 F 
ATOM     65  F   UNL     1     -13.121   7.984   0.613  1.00  0.00    -0.200 F 
ATOM     66  C   UNL     1     -12.268   7.396   2.735  1.00  0.00     0.200 A 
ATOM     67  F   UNL     1     -11.409   6.761   4.840  1.00  0.00    -0.200 F 
ATOM     68  F   UNL     1     -12.273   8.683   3.110  1.00  0.00    -0.200 F 
ENDBRANCH  44  58
BRANCH  45  69
ATOM     69  C   UNL     1     -12.180  -4.878  -0.842  1.00  0.00     0.064 A 
ATOM     70  C   UNL     1     -13.246  -5.366  -1.611  1.00  0.00     0.173 A 
ATOM     71  C   UNL     1     -11.132  -5.759  -0.544  1.00  0.00     0.173 A 
ATOM     72  F   UNL     1     -14.280  -4.564  -1.907  1.00  0.00    -0.203 F 
ATOM     73  C   UNL     1     -13.267  -6.685  -2.058  1.00  0.00     0.198 A 
ATOM     74  C   UNL     1     -11.141  -7.071  -1.014  1.00  0.00     0.198 A 
ATOM     75  F   UNL     1     -10.086  -5.338   0.181  1.00  0.00    -0.203 F 
ATOM     76  F   UNL     1     -14.312  -7.133  -2.767  1.00  0.00    -0.200 F 
ATOM     77  C   UNL     1     -12.210  -7.534  -1.766  1.00  0.00     0.200 A 
ATOM     78  F   UNL     1     -10.112  -7.886  -0.743  1.00  0.00    -0.200 F 
ATOM     79  F   UNL     1     -12.224  -8.799  -2.208  1.00  0.00    -0.200 F 
ENDBRANCH  45  69
BRANCH  57  80
ATOM     80  C   UNL     1     -15.985  -1.196   3.699  1.00  0.00     0.064 A 
ATOM     81  C   UNL     1     -15.746  -1.908   4.883  1.00  0.00     0.173 A 
ATOM     82  C   UNL     1     -17.293  -0.759   3.443  1.00  0.00     0.173 A 
ATOM     83  F   UNL     1     -14.514  -2.357   5.163  1.00  0.00    -0.203 F 
ATOM     84  C   UNL     1     -16.780  -2.177   5.775  1.00  0.00     0.198 A 
ATOM     85  C   UNL     1     -18.320  -1.008   4.350  1.00  0.00     0.198 A 
ATOM     86  F   UNL     1     -17.569  -0.067   2.328  1.00  0.00    -0.203 F 
ATOM     87  F   UNL     1     -16.536  -2.881   6.888  1.00  0.00    -0.200 F 
ATOM     88  C   UNL     1     -18.063  -1.718   5.513  1.00  0.00     0.200 A 
ATOM     89  F   UNL     1     -19.555  -0.552   4.102  1.00  0.00    -0.200 F 
ATOM     90  F   UNL     1     -19.053  -1.963   6.382  1.00  0.00    -0.200 F 
ENDBRANCH  57  80
ENDBRANCH  31  32
ENDBRANCH  24  26
ENDBRANCH  23  24
ENDBRANCH   1  23
TORSDOF 13
