REMARK SMILES O=C(OCCOC(=O)[C@@H]1C=C[C@H](NS(=O)(=O)c2ccc(Cl)cc2)C1)c1ccc(-c2c3nc(c(-c4c(F)c(F)c(F)c(F)c4F)c4ccc([nH]4)c(-c4c(F)c(F)c(F)c(F)c4F)c4nc(c(-c5c(F)c(F)c(F)c(F)c5F)c5ccc2[nH]5)C=C4)C=C3)cc1
REMARK SMILES IDX 5 1 4 2 3 3 2 4 1 5 25 6 26 7 87 8 27 9 86 10 28 11 29 12
REMARK SMILES IDX 30 13 80 14 31 15 85 16 79 17 81 18 32 19 84 20 78 21 77 22
REMARK SMILES IDX 33 24 65 25 45 26 64 27 46 28 49 29 63 30 82 31 47 32 48 33
REMARK SMILES IDX 62 35 83 36 50 37 34 38 35 39 43 40 36 41 37 42 41 43 44 44
REMARK SMILES IDX 38 45 39 46 42 47 40 48 66 49 67 50 75 51 68 52 69 53 73 54
REMARK SMILES IDX 76 55 70 56 71 57 74 58 72 59 51 60 52 61 60 62 53 63 54 64
REMARK SMILES IDX 58 65 61 66 55 67 56 68 59 69 57 70 6 71 7 72 8 73 9 74
REMARK SMILES IDX 10 75 24 76 11 77 12 78 13 79 14 81 15 82 16 83 17 84 18 85
REMARK SMILES IDX 23 86 19 87 22 88 20 89 21 90
REMARK H PARENT 81 23 49 34 13 80
REMARK Flexibility Score: inf
ROOT
ATOM      1  C   UNL     1      -0.347   1.160   4.613  1.00  0.00     0.274 C 
ENDROOT
BRANCH   1   2
ATOM      2  C   UNL     1      -1.446   1.184   3.551  1.00  0.00     0.275 C 
BRANCH   2   3
ATOM      3  O   UNL     1      -1.487  -0.034   2.778  1.00  0.00    -0.458 OA
BRANCH   3   4
ATOM      4  C   UNL     1      -1.087  -0.199   1.492  1.00  0.00     0.338 C 
ATOM      5  O   UNL     1      -1.639  -1.033   0.778  1.00  0.00    -0.246 OA
BRANCH   4   6
ATOM      6  C   UNL     1       0.186   0.400   0.997  1.00  0.00     0.060 A 
ATOM      7  C   UNL     1       0.542   1.743   1.119  1.00  0.00     0.016 A 
ATOM      8  C   UNL     1       1.065  -0.463   0.314  1.00  0.00     0.016 A 
ATOM      9  C   UNL     1       1.778   2.195   0.647  1.00  0.00     0.010 A 
ATOM     10  C   UNL     1       2.314  -0.022  -0.138  1.00  0.00     0.010 A 
ATOM     11  C   UNL     1       2.673   1.319   0.020  1.00  0.00    -0.014 A 
BRANCH  11  12
ATOM     12  C   UNL     1       3.900   1.877  -0.594  1.00  0.00     0.031 A 
ATOM     13  C   UNL     1       3.897   2.159  -2.068  1.00  0.00     0.074 A 
ATOM     14  C   UNL     1       4.951   2.228   0.169  1.00  0.00     0.049 A 
ATOM     15  N   UNL     1       4.754   2.842  -2.781  1.00  0.00    -0.248 NA
ATOM     16  C   UNL     1       2.769   1.612  -2.840  1.00  0.00     0.031 C 
ATOM     17  C   UNL     1       5.068   1.992   1.607  1.00  0.00     0.029 A 
ATOM     18  N   UNL     1       6.112   2.882  -0.158  1.00  0.00    -0.354 N 
ATOM     19  C   UNL     1       4.242   2.849  -4.071  1.00  0.00     0.074 A 
ATOM     20  C   UNL     1       3.045   2.039  -4.062  1.00  0.00     0.031 C 
ATOM     21  C   UNL     1       6.231   2.509   2.043  1.00  0.00     0.029 A 
ATOM     22  C   UNL     1       6.934   3.120   0.917  1.00  0.00     0.049 A 
ATOM     23  H   UNL     1       6.335   3.156  -1.077  1.00  0.00     0.167 HD
ATOM     24  C   UNL     1       4.708   3.502  -5.160  1.00  0.00     0.037 A 
ATOM     25  C   UNL     1       8.108   3.778   0.983  1.00  0.00     0.037 A 
ATOM     26  C   UNL     1       5.924   4.266  -5.180  1.00  0.00     0.049 A 
ATOM     27  C   UNL     1       8.640   4.444  -0.262  1.00  0.00     0.074 A 
ATOM     28  C   UNL     1       6.515   4.927  -6.241  1.00  0.00     0.029 A 
ATOM     29  N   UNL     1       6.744   4.457  -4.078  1.00  0.00    -0.354 N 
ATOM     30  N   UNL     1       8.111   4.504  -1.460  1.00  0.00    -0.248 NA
ATOM     31  C   UNL     1       9.921   5.154  -0.138  1.00  0.00     0.031 C 
ATOM     32  C   UNL     1       7.713   5.492  -5.787  1.00  0.00     0.029 A 
ATOM     33  C   UNL     1       7.846   5.215  -4.435  1.00  0.00     0.049 A 
ATOM     34  H   UNL     1       6.569   4.105  -3.175  1.00  0.00     0.167 HD
ATOM     35  C   UNL     1       8.978   5.274  -2.224  1.00  0.00     0.074 A 
ATOM     36  C   UNL     1      10.056   5.681  -1.347  1.00  0.00     0.031 C 
ATOM     37  C   UNL     1       8.898   5.612  -3.535  1.00  0.00     0.037 A 
BRANCH  24  38
ATOM     38  C   UNL     1       3.883   3.406  -6.406  1.00  0.00     0.064 A 
ATOM     39  C   UNL     1       2.661   4.089  -6.516  1.00  0.00     0.173 A 
ATOM     40  C   UNL     1       4.293   2.612  -7.484  1.00  0.00     0.173 A 
ATOM     41  F   UNL     1       2.215   4.843  -5.499  1.00  0.00    -0.203 F 
ATOM     42  C   UNL     1       1.866   3.956  -7.651  1.00  0.00     0.198 A 
ATOM     43  C   UNL     1       3.506   2.498  -8.627  1.00  0.00     0.198 A 
ATOM     44  F   UNL     1       5.449   1.935  -7.423  1.00  0.00    -0.203 F 
ATOM     45  F   UNL     1       0.679   4.575  -7.712  1.00  0.00    -0.200 F 
ATOM     46  C   UNL     1       2.290   3.163  -8.706  1.00  0.00     0.200 A 
ATOM     47  F   UNL     1       3.916   1.732  -9.648  1.00  0.00    -0.200 F 
ATOM     48  F   UNL     1       1.520   3.028  -9.794  1.00  0.00    -0.200 F 
ENDBRANCH  24  38
BRANCH  25  49
ATOM     49  C   UNL     1       8.850   3.872   2.269  1.00  0.00     0.064 A 
ATOM     50  C   UNL     1       9.007   5.096   2.934  1.00  0.00     0.173 A 
ATOM     51  C   UNL     1       9.457   2.742   2.837  1.00  0.00     0.173 A 
ATOM     52  F   UNL     1       8.461   6.210   2.423  1.00  0.00    -0.203 F 
ATOM     53  C   UNL     1       9.766   5.193   4.100  1.00  0.00     0.198 A 
ATOM     54  C   UNL     1      10.193   2.834   4.017  1.00  0.00     0.198 A 
ATOM     55  F   UNL     1       9.334   1.545   2.246  1.00  0.00    -0.203 F 
ATOM     56  F   UNL     1       9.943   6.385   4.685  1.00  0.00    -0.200 F 
ATOM     57  C   UNL     1      10.357   4.061   4.641  1.00  0.00     0.200 A 
ATOM     58  F   UNL     1      10.750   1.735   4.544  1.00  0.00    -0.200 F 
ATOM     59  F   UNL     1      11.091   4.155   5.758  1.00  0.00    -0.200 F 
ENDBRANCH  25  49
BRANCH  37  60
ATOM     60  C   UNL     1       9.993   6.473  -4.089  1.00  0.00     0.064 A 
ATOM     61  C   UNL     1      11.277   5.961  -4.324  1.00  0.00     0.173 A 
ATOM     62  C   UNL     1       9.743   7.811  -4.429  1.00  0.00     0.173 A 
ATOM     63  F   UNL     1      11.567   4.691  -4.002  1.00  0.00    -0.203 F 
ATOM     64  C   UNL     1      12.280   6.765  -4.859  1.00  0.00     0.198 A 
ATOM     65  C   UNL     1      10.741   8.604  -4.988  1.00  0.00     0.198 A 
ATOM     66  F   UNL     1       8.529   8.344  -4.229  1.00  0.00    -0.203 F 
ATOM     67  F   UNL     1      13.512   6.268  -5.035  1.00  0.00    -0.200 F 
ATOM     68  C   UNL     1      12.009   8.083  -5.196  1.00  0.00     0.200 A 
ATOM     69  F   UNL     1      10.475   9.873  -5.325  1.00  0.00    -0.200 F 
ATOM     70  F   UNL     1      12.974   8.853  -5.717  1.00  0.00    -0.200 F 
ENDBRANCH  37  60
ENDBRANCH  11  12
ENDBRANCH   4   6
ENDBRANCH   3   4
ENDBRANCH   2   3
ENDBRANCH   1   2
BRANCH   1  71
ATOM     71  O   UNL     1       0.888   0.728   4.028  1.00  0.00    -0.462 OA
BRANCH  71  72
ATOM     72  C   UNL     1       1.396  -0.454   4.484  1.00  0.00     0.312 C 
ATOM     73  O   UNL     1       1.043  -1.042   5.498  1.00  0.00    -0.252 OA
BRANCH  72  74
ATOM     74  C   UNL     1       2.442  -0.963   3.509  1.00  0.00     0.123 C 
ATOM     75  C   UNL     1       1.995  -2.267   2.926  1.00  0.00    -0.015 C 
ATOM     76  C   UNL     1       3.768  -1.312   4.189  1.00  0.00     0.043 C 
ATOM     77  C   UNL     1       2.746  -3.284   3.353  1.00  0.00    -0.011 C 
ATOM     78  C   UNL     1       3.792  -2.845   4.310  1.00  0.00     0.093 C 
BRANCH  78  79
ATOM     79  N   UNL     1       3.405  -3.214   5.662  1.00  0.00    -0.204 NA
ATOM     80  H   UNL     1       2.397  -3.073   5.728  1.00  0.00     0.142 HD
BRANCH  79  81
ATOM     81  S   UNL     1       3.716  -4.760   6.227  1.00  0.00     0.241 S 
ATOM     82  O   UNL     1       3.199  -4.824   7.574  1.00  0.00    -0.207 OA
ATOM     83  O   UNL     1       3.314  -5.701   5.205  1.00  0.00    -0.207 OA
BRANCH  81  84
ATOM     84  C   UNL     1       5.488  -4.834   6.348  1.00  0.00     0.082 A 
ATOM     85  C   UNL     1       6.254  -3.669   6.469  1.00  0.00     0.023 A 
ATOM     86  C   UNL     1       6.104  -6.082   6.206  1.00  0.00     0.023 A 
ATOM     87  C   UNL     1       7.647  -3.757   6.422  1.00  0.00     0.022 A 
ATOM     88  C   UNL     1       7.497  -6.165   6.181  1.00  0.00     0.022 A 
ATOM     89  C   UNL     1       8.261  -5.002   6.278  1.00  0.00     0.041 A 
ATOM     90  Cl  UNL     1       9.977  -5.102   6.205  1.00  0.00    -0.084 Cl
ENDBRANCH  81  84
ENDBRANCH  79  81
ENDBRANCH  78  79
ENDBRANCH  72  74
ENDBRANCH  71  72
ENDBRANCH   1  71
TORSDOF 14
