REMARK SMILES O=C(C[C@H]1C[C@H]2CC[C@@H](C1)N2C(=O)NCCC1CC1)OCCOC(=O)c1ccc(-c2c3nc(c(-c4c(F)c(F)c(F)c(F)c4F)c4ccc([nH]4)c(-c4c(F)c(F)c(F)c(F)c4F)c4nc(c(-c5c(F)c(F)c(F)c(F)c5F)c5ccc2[nH]5)C=C4)C=C3)cc1
REMARK SMILES IDX 20 1 2 2 1 3 3 4 4 5 5 6 10 7 6 8 9 9 7 10 11 11 8 12 12 13
REMARK SMILES IDX 13 14 14 15 15 17 16 18 17 19 18 20 19 21 21 22 22 23 23 24
REMARK SMILES IDX 24 25 25 26 26 27 27 28 88 29 28 30 87 31 29 32 30 33 31 34
REMARK SMILES IDX 81 35 32 36 86 37 80 38 82 39 33 40 85 41 79 42 78 43 34 45
REMARK SMILES IDX 66 46 46 47 65 48 47 49 50 50 64 51 83 52 48 53 49 54 63 56
REMARK SMILES IDX 84 57 51 58 35 59 36 60 44 61 37 62 38 63 42 64 45 65 39 66
REMARK SMILES IDX 40 67 43 68 41 69 67 70 68 71 76 72 69 73 70 74 74 75 77 76
REMARK SMILES IDX 71 77 72 78 75 79 73 80 52 81 53 82 61 83 54 84 55 85 59 86
REMARK SMILES IDX 62 87 56 88 57 89 60 90 58 91
REMARK H PARENT 14 16 82 44 50 55
REMARK Flexibility Score: inf
ROOT
ATOM      1  O   UNL     1       3.152  -0.910  -0.642  1.00  0.00    -0.462 OA
ENDROOT
BRANCH   1   2
ATOM      2  C   UNL     1       2.487   0.246  -0.415  1.00  0.00     0.306 C 
ATOM      3  O   UNL     1       1.266   0.289  -0.538  1.00  0.00    -0.252 OA
BRANCH   2   4
ATOM      4  C   UNL     1       3.259   1.461   0.043  1.00  0.00     0.126 C 
BRANCH   4   5
ATOM      5  C   UNL     1       3.663   1.517   1.530  1.00  0.00     0.004 C 
ATOM      6  C   UNL     1       2.993   2.697   2.308  1.00  0.00     0.029 C 
ATOM      7  C   UNL     1       3.599   0.171   2.303  1.00  0.00     0.029 C 
ATOM      8  C   UNL     1       1.865   2.258   3.264  1.00  0.00     0.087 C 
ATOM      9  C   UNL     1       2.374   0.009   3.224  1.00  0.00     0.087 C 
ATOM     10  C   UNL     1       0.719   1.614   2.475  1.00  0.00     0.027 C 
ATOM     11  N   UNL     1       2.390   1.168   4.079  1.00  0.00    -0.319 N 
ATOM     12  C   UNL     1       1.006   0.117   2.561  1.00  0.00     0.027 C 
BRANCH  11  13
ATOM     13  C   UNL     1       2.917   1.370   5.309  1.00  0.00     0.317 C 
ATOM     14  O   UNL     1       2.778   2.447   5.896  1.00  0.00    -0.249 OA
ATOM     15  N   UNL     1       3.628   0.425   5.960  1.00  0.00    -0.338 N 
ATOM     16  H   UNL     1       3.779   0.663   6.903  1.00  0.00     0.165 HD
BRANCH  15  17
ATOM     17  C   UNL     1       4.229  -0.861   5.620  1.00  0.00     0.118 C 
BRANCH  17  18
ATOM     18  C   UNL     1       5.756  -0.812   5.693  1.00  0.00     0.025 C 
BRANCH  18  19
ATOM     19  C   UNL     1       6.270  -1.083   7.077  1.00  0.00    -0.009 C 
ATOM     20  C   UNL     1       7.127  -2.298   7.333  1.00  0.00     0.004 C 
ATOM     21  C   UNL     1       7.740  -0.926   7.363  1.00  0.00     0.004 C 
ENDBRANCH  18  19
ENDBRANCH  17  18
ENDBRANCH  15  17
ENDBRANCH  11  13
ENDBRANCH   4   5
ENDBRANCH   2   4
ENDBRANCH   1   2
BRANCH   1  22
ATOM     22  C   UNL     1       4.535  -0.971  -1.056  1.00  0.00     0.274 C 
BRANCH  22  23
ATOM     23  C   UNL     1       4.627  -0.862  -2.578  1.00  0.00     0.275 C 
BRANCH  23  24
ATOM     24  O   UNL     1       4.173   0.442  -2.984  1.00  0.00    -0.458 OA
BRANCH  24  25
ATOM     25  C   UNL     1       2.914   0.498  -3.497  1.00  0.00     0.338 C 
ATOM     26  O   UNL     1       2.212  -0.435  -3.822  1.00  0.00    -0.246 OA
BRANCH  25  27
ATOM     27  C   UNL     1       2.450   1.903  -3.407  1.00  0.00     0.060 A 
ATOM     28  C   UNL     1       1.139   2.146  -2.977  1.00  0.00     0.016 A 
ATOM     29  C   UNL     1       3.306   2.971  -3.691  1.00  0.00     0.016 A 
ATOM     30  C   UNL     1       0.681   3.455  -2.824  1.00  0.00     0.010 A 
ATOM     31  C   UNL     1       2.838   4.281  -3.571  1.00  0.00     0.010 A 
ATOM     32  C   UNL     1       1.519   4.527  -3.155  1.00  0.00    -0.014 A 
BRANCH  32  33
ATOM     33  C   UNL     1       0.965   5.894  -3.271  1.00  0.00     0.031 A 
ATOM     34  C   UNL     1       0.359   6.298  -4.585  1.00  0.00     0.074 A 
ATOM     35  C   UNL     1       1.024   6.767  -2.251  1.00  0.00     0.049 A 
ATOM     36  N   UNL     1      -0.127   7.453  -4.957  1.00  0.00    -0.248 NA
ATOM     37  C   UNL     1       0.298   5.254  -5.623  1.00  0.00     0.031 C 
ATOM     38  C   UNL     1       1.557   6.485  -0.920  1.00  0.00     0.029 A 
ATOM     39  N   UNL     1       0.641   8.085  -2.189  1.00  0.00    -0.354 N 
ATOM     40  C   UNL     1      -0.560   7.272  -6.263  1.00  0.00     0.074 A 
ATOM     41  C   UNL     1      -0.257   5.907  -6.631  1.00  0.00     0.031 C 
ATOM     42  C   UNL     1       1.492   7.607  -0.179  1.00  0.00     0.029 A 
ATOM     43  C   UNL     1       0.935   8.688  -0.992  1.00  0.00     0.049 A 
ATOM     44  H   UNL     1       0.197   8.552  -2.934  1.00  0.00     0.167 HD
ATOM     45  C   UNL     1      -1.162   8.164  -7.082  1.00  0.00     0.037 A 
ATOM     46  C   UNL     1       0.791   9.973  -0.613  1.00  0.00     0.037 A 
ATOM     47  C   UNL     1      -1.442   9.528  -6.729  1.00  0.00     0.049 A 
ATOM     48  C   UNL     1       0.202  10.971  -1.581  1.00  0.00     0.074 A 
ATOM     49  C   UNL     1      -2.059  10.506  -7.488  1.00  0.00     0.029 A 
ATOM     50  N   UNL     1      -1.105  10.110  -5.518  1.00  0.00    -0.354 N 
ATOM     51  N   UNL     1      -0.249  10.782  -2.797  1.00  0.00    -0.248 NA
ATOM     52  C   UNL     1       0.106  12.365  -1.120  1.00  0.00     0.031 C 
ATOM     53  C   UNL     1      -2.053  11.695  -6.753  1.00  0.00     0.029 A 
ATOM     54  C   UNL     1      -1.474  11.445  -5.519  1.00  0.00     0.049 A 
ATOM     55  H   UNL     1      -0.669   9.645  -4.768  1.00  0.00     0.167 HD
ATOM     56  C   UNL     1      -0.709  12.019  -3.232  1.00  0.00     0.074 A 
ATOM     57  C   UNL     1      -0.492  12.952  -2.147  1.00  0.00     0.031 C 
ATOM     58  C   UNL     1      -1.261  12.355  -4.424  1.00  0.00     0.037 A 
BRANCH  45  59
ATOM     59  C   UNL     1      -1.535   7.694  -8.453  1.00  0.00     0.064 A 
ATOM     60  C   UNL     1      -2.629   6.842  -8.661  1.00  0.00     0.173 A 
ATOM     61  C   UNL     1      -0.811   8.126  -9.573  1.00  0.00     0.173 A 
ATOM     62  F   UNL     1      -3.339   6.387  -7.617  1.00  0.00    -0.203 F 
ATOM     63  C   UNL     1      -2.977   6.428  -9.944  1.00  0.00     0.198 A 
ATOM     64  C   UNL     1      -1.175   7.728 -10.856  1.00  0.00     0.198 A 
ATOM     65  F   UNL     1       0.246   8.938  -9.423  1.00  0.00    -0.203 F 
ATOM     66  F   UNL     1      -4.005   5.586 -10.119  1.00  0.00    -0.200 F 
ATOM     67  C   UNL     1      -2.255   6.878 -11.040  1.00  0.00     0.200 A 
ATOM     68  F   UNL     1      -0.481   8.167 -11.914  1.00  0.00    -0.200 F 
ATOM     69  F   UNL     1      -2.596   6.485 -12.275  1.00  0.00    -0.200 F 
ENDBRANCH  45  59
BRANCH  46  70
ATOM     70  C   UNL     1       1.233  10.415   0.736  1.00  0.00     0.064 A 
ATOM     71  C   UNL     1       0.305  10.842   1.697  1.00  0.00     0.173 A 
ATOM     72  C   UNL     1       2.594  10.480   1.069  1.00  0.00     0.173 A 
ATOM     73  F   UNL     1      -1.005  10.829   1.413  1.00  0.00    -0.203 F 
ATOM     74  C   UNL     1       0.723  11.345   2.928  1.00  0.00     0.198 A 
ATOM     75  C   UNL     1       3.009  10.958   2.311  1.00  0.00     0.198 A 
ATOM     76  F   UNL     1       3.522  10.092   0.182  1.00  0.00    -0.203 F 
ATOM     77  F   UNL     1      -0.181  11.806   3.803  1.00  0.00    -0.200 F 
ATOM     78  C   UNL     1       2.075  11.400   3.235  1.00  0.00     0.200 A 
ATOM     79  F   UNL     1       4.316  11.007   2.603  1.00  0.00    -0.200 F 
ATOM     80  F   UNL     1       2.477  11.897   4.412  1.00  0.00    -0.200 F 
ENDBRANCH  46  70
BRANCH  58  81
ATOM     81  C   UNL     1      -1.701  13.777  -4.610  1.00  0.00     0.064 A 
ATOM     82  C   UNL     1      -0.776  14.815  -4.790  1.00  0.00     0.173 A 
ATOM     83  C   UNL     1      -3.067  14.096  -4.665  1.00  0.00     0.173 A 
ATOM     84  F   UNL     1       0.541  14.563  -4.733  1.00  0.00    -0.203 F 
ATOM     85  C   UNL     1      -1.201  16.124  -5.000  1.00  0.00     0.198 A 
ATOM     86  C   UNL     1      -3.489  15.401  -4.902  1.00  0.00     0.198 A 
ATOM     87  F   UNL     1      -3.992  13.138  -4.507  1.00  0.00    -0.203 F 
ATOM     88  F   UNL     1      -0.300  17.107  -5.131  1.00  0.00    -0.200 F 
ATOM     89  C   UNL     1      -2.556  16.415  -5.064  1.00  0.00     0.200 A 
ATOM     90  F   UNL     1      -4.798  15.678  -4.979  1.00  0.00    -0.200 F 
ATOM     91  F   UNL     1      -2.963  17.674  -5.277  1.00  0.00    -0.200 F 
ENDBRANCH  58  81
ENDBRANCH  32  33
ENDBRANCH  25  27
ENDBRANCH  24  25
ENDBRANCH  23  24
ENDBRANCH  22  23
ENDBRANCH   1  22
TORSDOF 16
