REMARK SMILES Cc1nn([C@H]2CCS(=O)(=O)C2)c(C)c1/C=C(\CC(=O)OCCOC(=O)c1ccc(-c2c3nc(c(-c4c(F)c(F)c(F)c(F)c4F)c4ccc([nH]4)c(-c4c(F)c(F)c(F)c(F)c4F)c4nc(c(-c5c(F)c(F)c(F)c(F)c5F)c5ccc2[nH]5)C=C4)C=C3)cc1)c1nc2ccccc2s1
REMARK SMILES IDX 21 1 20 2 18 3 19 4 17 5 16 6 15 7 14 8 1 9 2 10 3 11 4 12
REMARK SMILES IDX 12 13 13 14 5 15 6 16 11 17 7 18 8 19 9 20 10 21 89 22 90 23
REMARK SMILES IDX 97 24 91 25 96 26 92 27 95 28 93 29 94 30 22 31 23 32 24 33
REMARK SMILES IDX 25 34 26 35 27 36 88 37 28 38 87 39 29 40 30 41 31 42 81 43
REMARK SMILES IDX 32 44 86 45 80 46 82 47 33 48 85 49 79 50 78 51 34 53 66 54
REMARK SMILES IDX 46 55 65 56 47 57 50 58 64 59 83 60 48 61 49 62 63 64 84 65
REMARK SMILES IDX 51 66 35 67 36 68 44 69 37 70 38 71 42 72 45 73 39 74 40 75
REMARK SMILES IDX 43 76 41 77 67 78 68 79 76 80 69 81 70 82 74 83 77 84 71 85
REMARK SMILES IDX 72 86 75 87 73 88 52 89 53 90 61 91 54 92 55 93 59 94 62 95
REMARK SMILES IDX 56 96 57 97 60 98 58 99
REMARK H PARENT 82 52 50 63
REMARK Flexibility Score: inf
ROOT
ATOM      1  C   UNL     1       1.590   0.280  11.058  1.00  0.00     0.274 C 
ENDROOT
BRANCH   1   2
ATOM      2  O   UNL     1       1.537  -0.582   9.898  1.00  0.00    -0.462 OA
BRANCH   2   3
ATOM      3  C   UNL     1       2.018   0.002   8.781  1.00  0.00     0.310 C 
ATOM      4  O   UNL     1       2.246   1.212   8.685  1.00  0.00    -0.252 OA
BRANCH   3   5
ATOM      5  C   UNL     1       2.314  -0.882   7.586  1.00  0.00     0.161 C 
BRANCH   5   6
ATOM      6  C   UNL     1       2.152  -2.381   7.354  1.00  0.00    -0.000 C 
ATOM      7  C   UNL     1       1.260  -2.876   6.455  1.00  0.00     0.019 C 
BRANCH   7   8
ATOM      8  C   UNL     1       0.312  -2.082   5.745  1.00  0.00     0.019 A 
ATOM      9  C   UNL     1      -1.851  -3.503   5.935  1.00  0.00     0.069 C 
ATOM     10  C   UNL     1      -1.082  -2.268   5.646  1.00  0.00     0.067 A 
ATOM     11  N   UNL     1      -1.680  -1.126   5.265  1.00  0.00    -0.177 NA
ATOM     12  N   UNL     1      -0.647  -0.286   5.046  1.00  0.00    -0.265 N 
ATOM     13  C   UNL     1       0.559  -0.948   4.990  1.00  0.00     0.043 A 
ATOM     14  C   UNL     1       1.802  -0.373   4.399  1.00  0.00     0.067 C 
BRANCH  12  15
ATOM     15  C   UNL     1      -0.827   1.148   4.954  1.00  0.00     0.123 C 
ATOM     16  C   UNL     1      -2.260   1.689   5.111  1.00  0.00     0.044 C 
ATOM     17  C   UNL     1      -0.053   1.924   6.028  1.00  0.00     0.164 C 
ATOM     18  C   UNL     1      -2.136   3.212   5.030  1.00  0.00     0.139 C 
ATOM     19  S   UNL     1      -0.523   3.601   5.696  1.00  0.00     0.152 S 
ATOM     20  O   UNL     1       0.314   4.082   4.617  1.00  0.00    -0.229 OA
ATOM     21  O   UNL     1      -0.669   4.320   6.945  1.00  0.00    -0.229 OA
ENDBRANCH  12  15
ENDBRANCH   7   8
BRANCH   6  22
ATOM     22  C   UNL     1       3.135  -3.315   7.834  1.00  0.00     0.121 A 
ATOM     23  N   UNL     1       3.237  -3.813   9.048  1.00  0.00    -0.236 NA
ATOM     24  S   UNL     1       4.441  -3.771   6.779  1.00  0.00    -0.114 S 
ATOM     25  C   UNL     1       4.548  -4.209   9.274  1.00  0.00     0.082 A 
ATOM     26  C   UNL     1       5.366  -4.253   8.145  1.00  0.00     0.055 A 
ATOM     27  C   UNL     1       5.121  -4.487  10.531  1.00  0.00     0.030 A 
ATOM     28  C   UNL     1       6.728  -4.589   8.217  1.00  0.00     0.021 A 
ATOM     29  C   UNL     1       6.492  -4.747  10.624  1.00  0.00     0.002 A 
ATOM     30  C   UNL     1       7.285  -4.796   9.482  1.00  0.00     0.002 A 
ENDBRANCH   6  22
ENDBRANCH   5   6
ENDBRANCH   3   5
ENDBRANCH   2   3
ENDBRANCH   1   2
BRANCH   1  31
ATOM     31  C   UNL     1       2.923   0.173  11.805  1.00  0.00     0.275 C 
BRANCH  31  32
ATOM     32  O   UNL     1       4.047   0.681  11.070  1.00  0.00    -0.458 OA
BRANCH  32  33
ATOM     33  C   UNL     1       4.569  -0.236  10.232  1.00  0.00     0.338 C 
ATOM     34  O   UNL     1       4.043  -1.270   9.862  1.00  0.00    -0.246 OA
BRANCH  33  35
ATOM     35  C   UNL     1       5.987  -0.059   9.986  1.00  0.00     0.060 A 
ATOM     36  C   UNL     1       6.519  -0.787   8.912  1.00  0.00     0.016 A 
ATOM     37  C   UNL     1       6.747   0.336  11.085  1.00  0.00     0.016 A 
ATOM     38  C   UNL     1       7.790  -1.292   9.034  1.00  0.00     0.010 A 
ATOM     39  C   UNL     1       8.000  -0.204  11.222  1.00  0.00     0.010 A 
ATOM     40  C   UNL     1       8.478  -1.063  10.228  1.00  0.00    -0.014 A 
BRANCH  40  41
ATOM     41  C   UNL     1       9.831  -1.574  10.339  1.00  0.00     0.031 A 
ATOM     42  C   UNL     1      10.768  -0.793   9.492  1.00  0.00     0.074 A 
ATOM     43  C   UNL     1      10.147  -2.510  11.255  1.00  0.00     0.049 A 
ATOM     44  N   UNL     1      11.608  -1.206   8.604  1.00  0.00    -0.248 NA
ATOM     45  C   UNL     1      10.616   0.679   9.530  1.00  0.00     0.031 C 
ATOM     46  C   UNL     1       9.255  -3.048  12.287  1.00  0.00     0.029 A 
ATOM     47  N   UNL     1      11.343  -3.086  11.561  1.00  0.00    -0.354 N 
ATOM     48  C   UNL     1      12.230  -0.049   8.135  1.00  0.00     0.074 A 
ATOM     49  C   UNL     1      11.420   1.059   8.542  1.00  0.00     0.031 C 
ATOM     50  C   UNL     1       9.984  -3.704  13.213  1.00  0.00     0.029 A 
ATOM     51  C   UNL     1      11.383  -3.658  12.828  1.00  0.00     0.049 A 
ATOM     52  H   UNL     1      12.108  -3.096  10.942  1.00  0.00     0.167 HD
ATOM     53  C   UNL     1      13.542  -0.069   7.785  1.00  0.00     0.037 A 
ATOM     54  C   UNL     1      12.489  -3.942  13.565  1.00  0.00     0.037 A 
ATOM     55  C   UNL     1      13.932  -1.393   7.372  1.00  0.00     0.049 A 
ATOM     56  C   UNL     1      13.662  -3.860  12.656  1.00  0.00     0.074 A 
ATOM     57  C   UNL     1      13.498  -2.260   6.388  1.00  0.00     0.029 A 
ATOM     58  N   UNL     1      14.664  -2.151   8.250  1.00  0.00    -0.354 N 
ATOM     59  N   UNL     1      13.920  -4.710  11.702  1.00  0.00    -0.248 NA
ATOM     60  C   UNL     1      14.314  -2.564  12.527  1.00  0.00     0.031 C 
ATOM     61  C   UNL     1      13.622  -3.562   6.953  1.00  0.00     0.029 A 
ATOM     62  C   UNL     1      14.179  -3.430   8.225  1.00  0.00     0.049 A 
ATOM     63  H   UNL     1      15.411  -1.829   8.805  1.00  0.00     0.167 HD
ATOM     64  C   UNL     1      14.395  -3.930  10.656  1.00  0.00     0.074 A 
ATOM     65  C   UNL     1      14.704  -2.635  11.252  1.00  0.00     0.031 C 
ATOM     66  C   UNL     1      14.214  -4.320   9.361  1.00  0.00     0.037 A 
BRANCH  53  67
ATOM     67  C   UNL     1      14.533   0.978   8.267  1.00  0.00     0.064 A 
ATOM     68  C   UNL     1      15.876   0.857   7.863  1.00  0.00     0.173 A 
ATOM     69  C   UNL     1      14.308   1.895   9.324  1.00  0.00     0.173 A 
ATOM     70  F   UNL     1      16.217   0.021   6.871  1.00  0.00    -0.203 F 
ATOM     71  C   UNL     1      16.914   1.508   8.535  1.00  0.00     0.198 A 
ATOM     72  C   UNL     1      15.342   2.580   9.958  1.00  0.00     0.198 A 
ATOM     73  F   UNL     1      13.108   2.105   9.871  1.00  0.00    -0.203 F 
ATOM     74  F   UNL     1      18.184   1.245   8.202  1.00  0.00    -0.200 F 
ATOM     75  C   UNL     1      16.647   2.358   9.591  1.00  0.00     0.200 A 
ATOM     76  F   UNL     1      15.056   3.392  10.987  1.00  0.00    -0.200 F 
ATOM     77  F   UNL     1      17.644   2.926  10.282  1.00  0.00    -0.200 F 
ENDBRANCH  53  67
BRANCH  54  78
ATOM     78  C   UNL     1      12.631  -3.954  15.047  1.00  0.00     0.064 A 
ATOM     79  C   UNL     1      13.751  -4.537  15.665  1.00  0.00     0.173 A 
ATOM     80  C   UNL     1      11.791  -3.196  15.888  1.00  0.00     0.173 A 
ATOM     81  F   UNL     1      14.639  -5.229  14.937  1.00  0.00    -0.203 F 
ATOM     82  C   UNL     1      14.012  -4.366  17.031  1.00  0.00     0.198 A 
ATOM     83  C   UNL     1      12.038  -3.046  17.253  1.00  0.00     0.198 A 
ATOM     84  F   UNL     1      10.757  -2.501  15.394  1.00  0.00    -0.203 F 
ATOM     85  F   UNL     1      15.124  -4.886  17.570  1.00  0.00    -0.200 F 
ATOM     86  C   UNL     1      13.156  -3.620  17.823  1.00  0.00     0.200 A 
ATOM     87  F   UNL     1      11.214  -2.293  17.996  1.00  0.00    -0.200 F 
ATOM     88  F   UNL     1      13.428  -3.417  19.119  1.00  0.00    -0.200 F 
ENDBRANCH  54  78
BRANCH  66  89
ATOM     89  C   UNL     1      13.804  -5.743   9.115  1.00  0.00     0.064 A 
ATOM     90  C   UNL     1      12.589  -6.301   9.544  1.00  0.00     0.173 A 
ATOM     91  C   UNL     1      14.622  -6.525   8.288  1.00  0.00     0.173 A 
ATOM     92  F   UNL     1      11.708  -5.581  10.252  1.00  0.00    -0.203 F 
ATOM     93  C   UNL     1      12.234  -7.603   9.195  1.00  0.00     0.198 A 
ATOM     94  C   UNL     1      14.246  -7.808   7.907  1.00  0.00     0.198 A 
ATOM     95  F   UNL     1      15.769  -6.020   7.805  1.00  0.00    -0.203 F 
ATOM     96  F   UNL     1      11.075  -8.122   9.627  1.00  0.00    -0.200 F 
ATOM     97  C   UNL     1      13.059  -8.351   8.370  1.00  0.00     0.200 A 
ATOM     98  F   UNL     1      15.021  -8.506   7.066  1.00  0.00    -0.200 F 
ATOM     99  F   UNL     1      12.696  -9.586   7.996  1.00  0.00    -0.200 F 
ENDBRANCH  66  89
ENDBRANCH  40  41
ENDBRANCH  33  35
ENDBRANCH  32  33
ENDBRANCH  31  32
ENDBRANCH   1  31
TORSDOF 15
