REMARK SMILES CCNC(=O)c1ccc(NC(=O)CC2(C(=O)OCCOC(=O)c3ccc(-c4c5nc(c(-c6c(F)c(F)c(F)c(F)c6F)c6ccc([nH]6)c(-c6c(F)c(F)c(F)c(F)c6F)c6nc(c(-c7c(F)c(F)c(F)c(F)c7F)c7ccc4[nH]7)C=C6)C=C5)cc3)CCCC2)cc1
REMARK SMILES IDX 17 1 15 2 16 3 14 4 86 5 89 6 87 7 88 8 13 9 11 10 10 11
REMARK SMILES IDX 12 13 9 14 6 15 7 16 91 17 8 18 90 19 4 20 3 21 5 23 2 24
REMARK SMILES IDX 1 25 18 26 19 27 20 28 21 29 22 30 23 31 24 32 85 33 25 34
REMARK SMILES IDX 84 35 26 36 27 37 28 38 78 39 29 40 83 41 77 42 79 43 30 44
REMARK SMILES IDX 82 45 76 46 75 47 31 49 63 50 43 51 62 52 44 53 47 54 61 55
REMARK SMILES IDX 80 56 45 57 46 58 60 60 81 61 48 62 32 63 33 64 41 65 34 66
REMARK SMILES IDX 35 67 39 68 42 69 36 70 37 71 40 72 38 73 64 74 65 75 73 76
REMARK SMILES IDX 66 77 67 78 71 79 74 80 68 81 69 82 72 83 70 84 49 85 50 86
REMARK SMILES IDX 58 87 51 88 52 89 56 90 59 91 53 92 54 93 57 94 55 95
REMARK H PARENT 10 12 3 22 79 48 47 59
REMARK Flexibility Score: inf
ROOT
ATOM      1  O   UNL     1      -3.238   2.783  -5.527  1.00  0.00    -0.462 OA
ENDROOT
BRANCH   1   2
ATOM      2  C   UNL     1      -4.437   2.151  -5.660  1.00  0.00     0.312 C 
ATOM      3  O   UNL     1      -4.560   1.024  -6.134  1.00  0.00    -0.252 OA
BRANCH   2   4
ATOM      4  C   UNL     1      -5.656   2.944  -5.110  1.00  0.00     0.077 C 
ATOM      5  C   UNL     1      -6.588   3.119  -6.334  1.00  0.00     0.019 C 
ATOM      6  C   UNL     1      -5.457   4.414  -4.704  1.00  0.00     0.019 C 
ATOM      7  C   UNL     1      -5.974   4.299  -7.080  1.00  0.00     0.001 C 
ATOM      8  C   UNL     1      -5.518   5.247  -5.984  1.00  0.00     0.001 C 
BRANCH   4   9
ATOM      9  C   UNL     1      -6.282   2.052  -4.004  1.00  0.00     0.119 C 
BRANCH   9  10
ATOM     10  C   UNL     1      -6.679   2.540  -2.608  1.00  0.00     0.225 C 
ATOM     11  N   UNL     1      -5.848   2.696  -1.533  1.00  0.00    -0.326 N 
ATOM     12  H   UNL     1      -6.345   2.724  -0.683  1.00  0.00     0.169 HD
ATOM     13  O   UNL     1      -7.887   2.693  -2.371  1.00  0.00    -0.275 OA
BRANCH  11  14
ATOM     14  C   UNL     1      -4.462   2.827  -1.338  1.00  0.00     0.041 A 
ATOM     15  C   UNL     1      -1.705   3.321  -0.910  1.00  0.00     0.039 A 
ATOM     16  C   UNL     1      -2.229   3.254  -2.189  1.00  0.00     0.016 A 
ATOM     17  C   UNL     1      -2.567   3.184   0.178  1.00  0.00     0.016 A 
ATOM     18  C   UNL     1      -3.570   2.939  -2.378  1.00  0.00     0.027 A 
ATOM     19  C   UNL     1      -3.945   2.958  -0.040  1.00  0.00     0.027 A 
BRANCH  15  20
ATOM     20  C   UNL     1      -0.247   3.546  -0.827  1.00  0.00     0.251 C 
ATOM     21  N   UNL     1       0.558   2.669  -0.153  1.00  0.00    -0.352 N 
ATOM     22  H   UNL     1       1.520   2.876  -0.183  1.00  0.00     0.163 HD
ATOM     23  O   UNL     1       0.249   4.482  -1.450  1.00  0.00    -0.269 OA
BRANCH  21  24
ATOM     24  C   UNL     1       0.206   1.481   0.598  1.00  0.00     0.112 C 
ATOM     25  C   UNL     1       1.139   0.321   0.300  1.00  0.00     0.027 C 
ENDBRANCH  21  24
ENDBRANCH  15  20
ENDBRANCH  11  14
ENDBRANCH   9  10
ENDBRANCH   4   9
ENDBRANCH   2   4
ENDBRANCH   1   2
BRANCH   1  26
ATOM     26  C   UNL     1      -2.087   2.023  -5.971  1.00  0.00     0.274 C 
BRANCH  26  27
ATOM     27  C   UNL     1      -1.439   1.165  -4.870  1.00  0.00     0.275 C 
BRANCH  27  28
ATOM     28  O   UNL     1      -2.430   0.442  -4.122  1.00  0.00    -0.458 OA
BRANCH  28  29
ATOM     29  C   UNL     1      -2.032  -0.050  -2.919  1.00  0.00     0.338 C 
ATOM     30  O   UNL     1      -0.900  -0.004  -2.464  1.00  0.00    -0.246 OA
BRANCH  29  31
ATOM     31  C   UNL     1      -3.198  -0.595  -2.168  1.00  0.00     0.060 A 
ATOM     32  C   UNL     1      -4.439  -0.762  -2.784  1.00  0.00     0.016 A 
ATOM     33  C   UNL     1      -3.063  -0.944  -0.819  1.00  0.00     0.016 A 
ATOM     34  C   UNL     1      -5.543  -1.213  -2.057  1.00  0.00     0.010 A 
ATOM     35  C   UNL     1      -4.144  -1.501  -0.117  1.00  0.00     0.010 A 
ATOM     36  C   UNL     1      -5.392  -1.666  -0.739  1.00  0.00    -0.014 A 
BRANCH  36  37
ATOM     37  C   UNL     1      -6.465  -2.484  -0.101  1.00  0.00     0.031 A 
ATOM     38  C   UNL     1      -7.102  -2.102   1.205  1.00  0.00     0.074 A 
ATOM     39  C   UNL     1      -6.815  -3.648  -0.689  1.00  0.00     0.049 A 
ATOM     40  N   UNL     1      -7.914  -2.799   1.963  1.00  0.00    -0.248 NA
ATOM     41  C   UNL     1      -6.777  -0.773   1.739  1.00  0.00     0.031 C 
ATOM     42  C   UNL     1      -6.273  -4.151  -1.954  1.00  0.00     0.029 A 
ATOM     43  N   UNL     1      -7.701  -4.623  -0.304  1.00  0.00    -0.354 N 
ATOM     44  C   UNL     1      -8.162  -2.017   3.084  1.00  0.00     0.074 A 
ATOM     45  C   UNL     1      -7.416  -0.786   2.903  1.00  0.00     0.031 C 
ATOM     46  C   UNL     1      -6.865  -5.311  -2.262  1.00  0.00     0.029 A 
ATOM     47  C   UNL     1      -7.758  -5.685  -1.175  1.00  0.00     0.049 A 
ATOM     48  H   UNL     1      -8.243  -4.568   0.515  1.00  0.00     0.167 HD
ATOM     49  C   UNL     1      -8.934  -2.307   4.162  1.00  0.00     0.037 A 
ATOM     50  C   UNL     1      -8.418  -6.854  -1.100  1.00  0.00     0.037 A 
ATOM     51  C   UNL     1      -9.706  -3.517   4.320  1.00  0.00     0.049 A 
ATOM     52  C   UNL     1      -9.252  -7.152   0.108  1.00  0.00     0.074 A 
ATOM     53  C   UNL     1     -10.551  -3.873   5.359  1.00  0.00     0.029 A 
ATOM     54  N   UNL     1      -9.732  -4.568   3.414  1.00  0.00    -0.354 N 
ATOM     55  N   UNL     1      -9.468  -6.409   1.164  1.00  0.00    -0.248 NA
ATOM     56  C   UNL     1      -9.923  -8.458   0.139  1.00  0.00     0.031 C 
ATOM     57  C   UNL     1     -11.052  -5.155   5.104  1.00  0.00     0.029 A 
ATOM     58  C   UNL     1     -10.562  -5.579   3.881  1.00  0.00     0.049 A 
ATOM     59  H   UNL     1      -9.235  -4.593   2.565  1.00  0.00     0.167 HD
ATOM     60  C   UNL     1     -10.319  -7.144   1.976  1.00  0.00     0.074 A 
ATOM     61  C   UNL     1     -10.586  -8.388   1.284  1.00  0.00     0.031 C 
ATOM     62  C   UNL     1     -10.830  -6.812   3.186  1.00  0.00     0.037 A 
BRANCH  49  63
ATOM     63  C   UNL     1      -8.960  -1.314   5.292  1.00  0.00     0.064 A 
ATOM     64  C   UNL     1      -9.624  -0.084   5.188  1.00  0.00     0.173 A 
ATOM     65  C   UNL     1      -8.355  -1.629   6.520  1.00  0.00     0.173 A 
ATOM     66  F   UNL     1     -10.212   0.271   4.036  1.00  0.00    -0.203 F 
ATOM     67  C   UNL     1      -9.658   0.805   6.261  1.00  0.00     0.198 A 
ATOM     68  C   UNL     1      -8.416  -0.751   7.599  1.00  0.00     0.198 A 
ATOM     69  F   UNL     1      -7.716  -2.798   6.678  1.00  0.00    -0.203 F 
ATOM     70  F   UNL     1     -10.260   1.995   6.124  1.00  0.00    -0.200 F 
ATOM     71  C   UNL     1      -9.061   0.468   7.466  1.00  0.00     0.200 A 
ATOM     72  F   UNL     1      -7.850  -1.086   8.767  1.00  0.00    -0.200 F 
ATOM     73  F   UNL     1      -9.100   1.322   8.499  1.00  0.00    -0.200 F 
ENDBRANCH  49  63
BRANCH  50  74
ATOM     74  C   UNL     1      -8.301  -7.831  -2.212  1.00  0.00     0.064 A 
ATOM     75  C   UNL     1      -9.383  -8.071  -3.068  1.00  0.00     0.173 A 
ATOM     76  C   UNL     1      -7.101  -8.513  -2.465  1.00  0.00     0.173 A 
ATOM     77  F   UNL     1     -10.556  -7.457  -2.852  1.00  0.00    -0.203 F 
ATOM     78  C   UNL     1      -9.271  -8.959  -4.135  1.00  0.00     0.198 A 
ATOM     79  C   UNL     1      -6.981  -9.378  -3.549  1.00  0.00     0.198 A 
ATOM     80  F   UNL     1      -6.035  -8.311  -1.676  1.00  0.00    -0.203 F 
ATOM     81  F   UNL     1     -10.330  -9.194  -4.921  1.00  0.00    -0.200 F 
ATOM     82  C   UNL     1      -8.068  -9.604  -4.380  1.00  0.00     0.200 A 
ATOM     83  F   UNL     1      -5.812  -9.984  -3.793  1.00  0.00    -0.200 F 
ATOM     84  F   UNL     1      -7.956 -10.447  -5.416  1.00  0.00    -0.200 F 
ENDBRANCH  50  74
BRANCH  62  85
ATOM     85  C   UNL     1     -11.774  -7.794   3.815  1.00  0.00     0.064 A 
ATOM     86  C   UNL     1     -11.325  -9.007   4.358  1.00  0.00     0.173 A 
ATOM     87  C   UNL     1     -13.148  -7.517   3.871  1.00  0.00     0.173 A 
ATOM     88  F   UNL     1     -10.024  -9.328   4.308  1.00  0.00    -0.203 F 
ATOM     89  C   UNL     1     -12.222  -9.920   4.907  1.00  0.00     0.198 A 
ATOM     90  C   UNL     1     -14.038  -8.419   4.446  1.00  0.00     0.198 A 
ATOM     91  F   UNL     1     -13.627  -6.370   3.366  1.00  0.00    -0.203 F 
ATOM     92  F   UNL     1     -11.779 -11.097   5.370  1.00  0.00    -0.200 F 
ATOM     93  C   UNL     1     -13.576  -9.623   4.955  1.00  0.00     0.200 A 
ATOM     94  F   UNL     1     -15.345  -8.128   4.497  1.00  0.00    -0.200 F 
ATOM     95  F   UNL     1     -14.438 -10.504   5.481  1.00  0.00    -0.200 F 
ENDBRANCH  62  85
ENDBRANCH  36  37
ENDBRANCH  29  31
ENDBRANCH  28  29
ENDBRANCH  27  28
ENDBRANCH  26  27
ENDBRANCH   1  26
TORSDOF 16
