REMARK SMILES CC[C@H]1CCCCN1S(=O)(=O)CC(=O)OCCOC(=O)c1ccc(-c2c3nc(c(-c4c(F)c(F)c(F)c(F)c4F)c4ccc([nH]4)c(-c4c(F)c(F)c(F)c(F)c4F)c4nc(c(-c5c(F)c(F)c(F)c(F)c5F)c5ccc2[nH]5)C=C4)C=C3)cc1
REMARK SMILES IDX 16 1 15 2 13 3 14 4 12 5 9 6 10 7 11 8 8 9 3 10 4 11 5 12
REMARK SMILES IDX 7 13 6 14 2 15 1 16 17 17 18 18 19 19 20 20 21 21 22 22
REMARK SMILES IDX 83 23 23 24 82 25 24 26 25 27 26 28 76 29 27 30 81 31 75 32
REMARK SMILES IDX 77 33 28 34 80 35 74 36 73 37 29 39 61 40 41 41 60 42 42 43
REMARK SMILES IDX 45 44 59 45 78 46 43 47 44 48 58 50 79 51 46 52 30 53 31 54
REMARK SMILES IDX 39 55 32 56 33 57 37 58 40 59 34 60 35 61 38 62 36 63 62 64
REMARK SMILES IDX 63 65 71 66 64 67 65 68 69 69 72 70 66 71 67 72 70 73 68 74
REMARK SMILES IDX 47 75 48 76 56 77 49 78 50 79 54 80 57 81 51 82 52 83 55 84
REMARK SMILES IDX 53 85
REMARK H PARENT 77 38 45 49
REMARK Flexibility Score: inf
ROOT
ATOM      1  C   UNL     1      -3.325   0.801   2.284  1.00  0.00     0.274 C 
ENDROOT
BRANCH   1   2
ATOM      2  O   UNL     1      -1.894   0.591   2.312  1.00  0.00    -0.461 OA
BRANCH   2   3
ATOM      3  C   UNL     1      -1.300   0.854   3.494  1.00  0.00     0.322 C 
ATOM      4  O   UNL     1      -1.923   1.165   4.512  1.00  0.00    -0.251 OA
BRANCH   3   5
ATOM      5  C   UNL     1       0.177   0.846   3.538  1.00  0.00     0.276 C 
BRANCH   5   6
ATOM      6  S   UNL     1       1.090   0.144   2.210  1.00  0.00     0.225 S 
ATOM      7  O   UNL     1       2.483   0.304   2.588  1.00  0.00    -0.212 OA
ATOM      8  O   UNL     1       0.619   0.702   0.961  1.00  0.00    -0.212 OA
BRANCH   6   9
ATOM      9  N   UNL     1       0.793  -1.533   2.199  1.00  0.00    -0.198 NA
ATOM     10  C   UNL     1       1.263  -2.246   0.941  1.00  0.00     0.072 C 
ATOM     11  C   UNL     1       0.694  -3.672   0.890  1.00  0.00     0.020 C 
ATOM     12  C   UNL     1       0.895  -4.476   2.168  1.00  0.00     0.003 C 
ATOM     13  C   UNL     1       1.095  -2.287   3.438  1.00  0.00     0.102 C 
ATOM     14  C   UNL     1       0.465  -3.675   3.383  1.00  0.00     0.017 C 
BRANCH  10  15
ATOM     15  C   UNL     1       2.780  -2.155   0.639  1.00  0.00     0.017 C 
ATOM     16  C   UNL     1       3.742  -3.093   1.356  1.00  0.00     0.005 C 
ENDBRANCH  10  15
ENDBRANCH   6   9
ENDBRANCH   5   6
ENDBRANCH   3   5
ENDBRANCH   2   3
ENDBRANCH   1   2
BRANCH   1  17
ATOM     17  C   UNL     1      -4.095  -0.490   2.550  1.00  0.00     0.275 C 
BRANCH  17  18
ATOM     18  O   UNL     1      -3.649  -1.090   3.780  1.00  0.00    -0.458 OA
BRANCH  18  19
ATOM     19  C   UNL     1      -3.369  -2.410   3.711  1.00  0.00     0.338 C 
ATOM     20  O   UNL     1      -3.525  -3.147   2.753  1.00  0.00    -0.246 OA
BRANCH  19  21
ATOM     21  C   UNL     1      -2.803  -2.894   4.988  1.00  0.00     0.060 A 
ATOM     22  C   UNL     1      -1.812  -2.177   5.661  1.00  0.00     0.016 A 
ATOM     23  C   UNL     1      -3.148  -4.176   5.421  1.00  0.00     0.016 A 
ATOM     24  C   UNL     1      -1.099  -2.782   6.699  1.00  0.00     0.010 A 
ATOM     25  C   UNL     1      -2.493  -4.746   6.516  1.00  0.00     0.010 A 
ATOM     26  C   UNL     1      -1.429  -4.075   7.138  1.00  0.00    -0.014 A 
BRANCH  26  27
ATOM     27  C   UNL     1      -0.646  -4.732   8.222  1.00  0.00     0.031 A 
ATOM     28  C   UNL     1       0.109  -6.012   7.963  1.00  0.00     0.074 A 
ATOM     29  C   UNL     1      -0.595  -4.173   9.447  1.00  0.00     0.049 A 
ATOM     30  N   UNL     1       0.760  -6.776   8.806  1.00  0.00    -0.248 NA
ATOM     31  C   UNL     1       0.134  -6.503   6.575  1.00  0.00     0.031 C 
ATOM     32  C   UNL     1      -1.263  -2.932   9.839  1.00  0.00     0.029 A 
ATOM     33  N   UNL     1       0.057  -4.573  10.588  1.00  0.00    -0.354 N 
ATOM     34  C   UNL     1       1.241  -7.847   8.063  1.00  0.00     0.074 A 
ATOM     35  C   UNL     1       0.804  -7.641   6.698  1.00  0.00     0.031 C 
ATOM     36  C   UNL     1      -0.957  -2.651  11.114  1.00  0.00     0.029 A 
ATOM     37  C   UNL     1      -0.125  -3.723  11.651  1.00  0.00     0.049 A 
ATOM     38  H   UNL     1       0.602  -5.392  10.639  1.00  0.00     0.167 HD
ATOM     39  C   UNL     1       1.979  -8.905   8.477  1.00  0.00     0.037 A 
ATOM     40  C   UNL     1       0.307  -3.805  12.923  1.00  0.00     0.037 A 
ATOM     41  C   UNL     1       2.438  -9.107   9.827  1.00  0.00     0.049 A 
ATOM     42  C   UNL     1       1.126  -4.987  13.354  1.00  0.00     0.074 A 
ATOM     43  C   UNL     1       3.164 -10.167  10.345  1.00  0.00     0.029 A 
ATOM     44  N   UNL     1       2.231  -8.220  10.872  1.00  0.00    -0.354 N 
ATOM     45  N   UNL     1       1.523  -6.018  12.650  1.00  0.00    -0.248 NA
ATOM     46  C   UNL     1       1.545  -5.023  14.762  1.00  0.00     0.031 C 
ATOM     47  C   UNL     1       3.384  -9.929  11.706  1.00  0.00     0.029 A 
ATOM     48  C   UNL     1       2.819  -8.707  12.029  1.00  0.00     0.049 A 
ATOM     49  H   UNL     1       1.738  -7.371  10.802  1.00  0.00     0.167 HD
ATOM     50  C   UNL     1       2.235  -6.824  13.527  1.00  0.00     0.074 A 
ATOM     51  C   UNL     1       2.245  -6.148  14.807  1.00  0.00     0.031 C 
ATOM     52  C   UNL     1       2.817  -8.025  13.295  1.00  0.00     0.037 A 
BRANCH  39  53
ATOM     53  C   UNL     1       2.336  -9.946   7.459  1.00  0.00     0.064 A 
ATOM     54  C   UNL     1       3.357  -9.733   6.522  1.00  0.00     0.173 A 
ATOM     55  C   UNL     1       1.697 -11.195   7.466  1.00  0.00     0.173 A 
ATOM     56  F   UNL     1       3.986  -8.550   6.468  1.00  0.00    -0.203 F 
ATOM     57  C   UNL     1       3.721 -10.733   5.623  1.00  0.00     0.198 A 
ATOM     58  C   UNL     1       2.077 -12.199   6.579  1.00  0.00     0.198 A 
ATOM     59  F   UNL     1       0.717 -11.448   8.347  1.00  0.00    -0.203 F 
ATOM     60  F   UNL     1       4.683 -10.501   4.720  1.00  0.00    -0.200 F 
ATOM     61  C   UNL     1       3.087 -11.966   5.657  1.00  0.00     0.200 A 
ATOM     62  F   UNL     1       1.469 -13.393   6.619  1.00  0.00    -0.200 F 
ATOM     63  F   UNL     1       3.447 -12.931   4.799  1.00  0.00    -0.200 F 
ENDBRANCH  39  53
BRANCH  40  64
ATOM     64  C   UNL     1      -0.046  -2.736  13.890  1.00  0.00     0.064 A 
ATOM     65  C   UNL     1       0.924  -1.843  14.361  1.00  0.00     0.173 A 
ATOM     66  C   UNL     1      -1.359  -2.587  14.360  1.00  0.00     0.173 A 
ATOM     67  F   UNL     1       2.198  -1.964  13.957  1.00  0.00    -0.203 F 
ATOM     68  C   UNL     1       0.597  -0.845  15.276  1.00  0.00     0.198 A 
ATOM     69  C   UNL     1      -1.690  -1.574  15.254  1.00  0.00     0.198 A 
ATOM     70  F   UNL     1      -2.322  -3.419  13.936  1.00  0.00    -0.203 F 
ATOM     71  F   UNL     1       1.551  -0.027  15.742  1.00  0.00    -0.200 F 
ATOM     72  C   UNL     1      -0.711  -0.707  15.717  1.00  0.00     0.200 A 
ATOM     73  F   UNL     1      -2.957  -1.436  15.668  1.00  0.00    -0.200 F 
ATOM     74  F   UNL     1      -1.026   0.256  16.593  1.00  0.00    -0.200 F 
ENDBRANCH  40  64
BRANCH  52  75
ATOM     75  C   UNL     1       3.516  -8.673  14.450  1.00  0.00     0.064 A 
ATOM     76  C   UNL     1       2.795  -9.287  15.485  1.00  0.00     0.173 A 
ATOM     77  C   UNL     1       4.916  -8.684  14.523  1.00  0.00     0.173 A 
ATOM     78  F   UNL     1       1.453  -9.285  15.465  1.00  0.00    -0.203 F 
ATOM     79  C   UNL     1       3.452  -9.866  16.567  1.00  0.00     0.198 A 
ATOM     80  C   UNL     1       5.570  -9.281  15.597  1.00  0.00     0.198 A 
ATOM     81  F   UNL     1       5.648  -8.111  13.556  1.00  0.00    -0.203 F 
ATOM     82  F   UNL     1       2.743 -10.406  17.567  1.00  0.00    -0.200 F 
ATOM     83  C   UNL     1       4.838  -9.865  16.621  1.00  0.00     0.200 A 
ATOM     84  F   UNL     1       6.909  -9.284  15.647  1.00  0.00    -0.200 F 
ATOM     85  F   UNL     1       5.468 -10.415  17.667  1.00  0.00    -0.200 F 
ENDBRANCH  52  75
ENDBRANCH  26  27
ENDBRANCH  19  21
ENDBRANCH  18  19
ENDBRANCH  17  18
ENDBRANCH   1  17
TORSDOF 14
