REMARK SMILES CC1(C)CCC[C@@]1(CC(=O)OCCOC(=O)c1ccc(-c2c3nc(c(-c4c(F)c(F)c(F)c(F)c4F)c4ccc([nH]4)c(-c4c(F)c(F)c(F)c(F)c4F)c4nc(c(-c5c(F)c(F)c(F)c(F)c5F)c5ccc2[nH]5)C=C4)C=C3)cc1)[NH+]1CCCCC1
REMARK SMILES IDX 12 1 11 2 9 3 10 4 8 5 7 6 1 7 2 8 3 9 4 10 5 11 6 12 80 13
REMARK SMILES IDX 81 14 85 15 82 17 84 18 83 19 13 20 14 21 15 22 16 23 17 24
REMARK SMILES IDX 18 25 79 26 19 27 78 28 20 29 21 30 22 31 72 32 23 33 77 34
REMARK SMILES IDX 71 35 73 36 24 37 76 38 70 39 69 40 25 42 57 43 37 44 56 45
REMARK SMILES IDX 38 46 41 47 55 48 74 49 39 50 40 51 54 53 75 54 42 55 26 56
REMARK SMILES IDX 27 57 35 58 28 59 29 60 33 61 36 62 30 63 31 64 34 65 32 66
REMARK SMILES IDX 58 67 59 68 67 69 60 70 61 71 65 72 68 73 62 74 63 75 66 76
REMARK SMILES IDX 64 77 43 78 44 79 52 80 45 81 46 82 50 83 53 84 47 85 48 86
REMARK SMILES IDX 51 87 49 88
REMARK H PARENT 80 16 73 41 41 52
REMARK Flexibility Score: inf
ROOT
ATOM      1  C   UNL     1      -2.469   3.513  -2.535  1.00  0.00     0.274 C 
ENDROOT
BRANCH   1   2
ATOM      2  O   UNL     1      -1.739   2.833  -1.494  1.00  0.00    -0.462 OA
BRANCH   2   3
ATOM      3  C   UNL     1      -0.410   2.649  -1.706  1.00  0.00     0.312 C 
ATOM      4  O   UNL     1       0.193   3.002  -2.712  1.00  0.00    -0.252 OA
BRANCH   3   5
ATOM      5  C   UNL     1       0.291   2.078  -0.496  1.00  0.00     0.191 C 
BRANCH   5   6
ATOM      6  C   UNL     1      -0.267   0.767   0.173  1.00  0.00     0.113 C 
ATOM      7  C   UNL     1       2.055  -0.416   0.622  1.00  0.00     0.018 C 
ATOM      8  C   UNL     1       0.750  -0.428  -0.190  1.00  0.00     0.020 C 
ATOM      9  C   UNL     1       1.169  -0.440  -1.698  1.00  0.00     0.018 C 
ATOM     10  C   UNL     1      -0.068  -1.717   0.019  1.00  0.00     0.013 C 
ATOM     11  C   UNL     1      -1.501  -1.347  -0.341  1.00  0.00     0.007 C 
ATOM     12  C   UNL     1      -1.563   0.180  -0.454  1.00  0.00     0.070 C 
BRANCH   6  13
ATOM     13  N   UNL     1      -0.472   1.086   1.630  1.00  0.00    -0.329 N 
ATOM     14  C   UNL     1      -0.602   0.074   2.675  1.00  0.00     0.262 C 
ATOM     15  C   UNL     1      -1.276   2.278   1.974  1.00  0.00     0.262 C 
ATOM     16  H   UNL     1       0.528   1.285   1.670  1.00  0.00     0.348 HD
ATOM     17  C   UNL     1      -2.038  -0.275   3.067  1.00  0.00     0.062 C 
ATOM     18  C   UNL     1      -2.716   2.034   2.428  1.00  0.00     0.062 C 
ATOM     19  C   UNL     1      -2.806   0.963   3.499  1.00  0.00     0.012 C 
ENDBRANCH   6  13
ENDBRANCH   5   6
ENDBRANCH   3   5
ENDBRANCH   2   3
ENDBRANCH   1   2
BRANCH   1  20
ATOM     20  C   UNL     1      -3.302   4.622  -1.904  1.00  0.00     0.275 C 
BRANCH  20  21
ATOM     21  O   UNL     1      -2.440   5.418  -1.070  1.00  0.00    -0.458 OA
BRANCH  21  22
ATOM     22  C   UNL     1      -2.787   5.471   0.236  1.00  0.00     0.338 C 
ATOM     23  O   UNL     1      -3.820   5.074   0.748  1.00  0.00    -0.246 OA
BRANCH  22  24
ATOM     24  C   UNL     1      -1.698   6.087   1.018  1.00  0.00     0.060 A 
ATOM     25  C   UNL     1      -0.368   5.706   0.822  1.00  0.00     0.016 A 
ATOM     26  C   UNL     1      -2.027   6.984   2.033  1.00  0.00     0.016 A 
ATOM     27  C   UNL     1       0.626   6.176   1.680  1.00  0.00     0.010 A 
ATOM     28  C   UNL     1      -1.018   7.526   2.830  1.00  0.00     0.010 A 
ATOM     29  C   UNL     1       0.317   7.117   2.674  1.00  0.00    -0.014 A 
BRANCH  29  30
ATOM     30  C   UNL     1       1.376   7.718   3.528  1.00  0.00     0.031 A 
ATOM     31  C   UNL     1       1.325   7.574   5.024  1.00  0.00     0.074 A 
ATOM     32  C   UNL     1       2.351   8.454   2.960  1.00  0.00     0.049 A 
ATOM     33  N   UNL     1       2.010   8.212   5.941  1.00  0.00    -0.248 NA
ATOM     34  C   UNL     1       0.369   6.594   5.562  1.00  0.00     0.031 C 
ATOM     35  C   UNL     1       2.527   8.662   1.522  1.00  0.00     0.029 A 
ATOM     36  N   UNL     1       3.367   9.183   3.528  1.00  0.00    -0.354 N 
ATOM     37  C   UNL     1       1.537   7.746   7.161  1.00  0.00     0.074 A 
ATOM     38  C   UNL     1       0.508   6.770   6.870  1.00  0.00     0.031 C 
ATOM     39  C   UNL     1       3.591   9.452   1.319  1.00  0.00     0.029 A 
ATOM     40  C   UNL     1       4.124   9.869   2.611  1.00  0.00     0.049 A 
ATOM     41  H   UNL     1       3.536   9.211   4.497  1.00  0.00     0.167 HD
ATOM     42  C   UNL     1       1.928   8.105   8.407  1.00  0.00     0.037 A 
ATOM     43  C   UNL     1       5.106  10.773   2.784  1.00  0.00     0.037 A 
ATOM     44  C   UNL     1       2.980   9.047   8.693  1.00  0.00     0.049 A 
ATOM     45  C   UNL     1       5.507  11.167   4.176  1.00  0.00     0.074 A 
ATOM     46  C   UNL     1       3.460   9.459   9.925  1.00  0.00     0.029 A 
ATOM     47  N   UNL     1       3.723   9.716   7.732  1.00  0.00    -0.354 N 
ATOM     48  N   UNL     1       5.026  10.753   5.321  1.00  0.00    -0.248 NA
ATOM     49  C   UNL     1       6.576  12.167   4.297  1.00  0.00     0.031 C 
ATOM     50  C   UNL     1       4.476  10.397   9.710  1.00  0.00     0.029 A 
ATOM     51  C   UNL     1       4.652  10.543   8.344  1.00  0.00     0.049 A 
ATOM     52  H   UNL     1       3.608   9.617   6.760  1.00  0.00     0.167 HD
ATOM     53  C   UNL     1       5.733  11.435   6.299  1.00  0.00     0.074 A 
ATOM     54  C   UNL     1       6.693  12.275   5.613  1.00  0.00     0.031 C 
ATOM     55  C   UNL     1       5.595  11.376   7.645  1.00  0.00     0.037 A 
BRANCH  42  56
ATOM     56  C   UNL     1       1.206   7.493   9.570  1.00  0.00     0.064 A 
ATOM     57  C   UNL     1       1.440   6.170   9.971  1.00  0.00     0.173 A 
ATOM     58  C   UNL     1       0.318   8.265  10.337  1.00  0.00     0.173 A 
ATOM     59  F   UNL     1       2.271   5.389   9.264  1.00  0.00    -0.203 F 
ATOM     60  C   UNL     1       0.805   5.639  11.090  1.00  0.00     0.198 A 
ATOM     61  C   UNL     1      -0.299   7.737  11.467  1.00  0.00     0.198 A 
ATOM     62  F   UNL     1       0.064   9.538   9.998  1.00  0.00    -0.203 F 
ATOM     63  F   UNL     1       1.024   4.364  11.441  1.00  0.00    -0.200 F 
ATOM     64  C   UNL     1      -0.057   6.424  11.842  1.00  0.00     0.200 A 
ATOM     65  F   UNL     1      -1.123   8.501  12.198  1.00  0.00    -0.200 F 
ATOM     66  F   UNL     1      -0.657   5.914  12.927  1.00  0.00    -0.200 F 
ENDBRANCH  42  56
BRANCH  43  67
ATOM     67  C   UNL     1       5.750  11.391   1.598  1.00  0.00     0.064 A 
ATOM     68  C   UNL     1       7.062  11.060   1.240  1.00  0.00     0.173 A 
ATOM     69  C   UNL     1       5.057  12.302   0.787  1.00  0.00     0.173 A 
ATOM     70  F   UNL     1       7.770  10.212   2.000  1.00  0.00    -0.203 F 
ATOM     71  C   UNL     1       7.662  11.623   0.115  1.00  0.00     0.198 A 
ATOM     72  C   UNL     1       5.648  12.843  -0.351  1.00  0.00     0.198 A 
ATOM     73  F   UNL     1       3.797  12.648   1.090  1.00  0.00    -0.203 F 
ATOM     74  F   UNL     1       8.929  11.315  -0.190  1.00  0.00    -0.200 F 
ATOM     75  C   UNL     1       6.951  12.506  -0.684  1.00  0.00     0.200 A 
ATOM     76  F   UNL     1       4.953  13.685  -1.128  1.00  0.00    -0.200 F 
ATOM     77  F   UNL     1       7.524  13.037  -1.773  1.00  0.00    -0.200 F 
ENDBRANCH  43  67
BRANCH  55  78
ATOM     78  C   UNL     1       6.516  12.232   8.459  1.00  0.00     0.064 A 
ATOM     79  C   UNL     1       6.321  13.616   8.565  1.00  0.00     0.173 A 
ATOM     80  C   UNL     1       7.594  11.661   9.150  1.00  0.00     0.173 A 
ATOM     81  F   UNL     1       5.313  14.208   7.907  1.00  0.00    -0.203 F 
ATOM     82  C   UNL     1       7.188  14.403   9.318  1.00  0.00     0.198 A 
ATOM     83  C   UNL     1       8.447  12.448   9.919  1.00  0.00     0.198 A 
ATOM     84  F   UNL     1       7.820  10.341   9.079  1.00  0.00    -0.203 F 
ATOM     85  F   UNL     1       7.009  15.730   9.373  1.00  0.00    -0.200 F 
ATOM     86  C   UNL     1       8.247  13.818   9.997  1.00  0.00     0.200 A 
ATOM     87  F   UNL     1       9.466  11.882  10.578  1.00  0.00    -0.200 F 
ATOM     88  F   UNL     1       9.082  14.578  10.719  1.00  0.00    -0.200 F 
ENDBRANCH  55  78
ENDBRANCH  29  30
ENDBRANCH  22  24
ENDBRANCH  21  22
ENDBRANCH  20  21
ENDBRANCH   1  20
TORSDOF 13
