REMARK SMILES [NH3+][C@H](Cc1cc(Br)c(O)c(Br)c1)C(=O)OCCOC(=O)c1ccc(-c2c3nc(c(-c4c(F)c(F)c(F)c(F)c4F)c4ccc([nH]4)c(-c4c(F)c(F)c(F)c(F)c4F)c4nc(c(-c5c(F)c(F)c(F)c(F)c5F)c5ccc2[nH]5)C=C4)C=C3)cc1
REMARK SMILES IDX 16 1 15 2 13 3 14 4 2 5 1 6 3 10 4 11 5 12 12 13 6 14 10 15
REMARK SMILES IDX 7 16 8 17 11 18 9 19 17 21 18 22 19 23 20 24 21 25 22 26
REMARK SMILES IDX 83 27 23 28 82 29 24 30 25 31 26 32 76 33 27 34 81 35 75 36
REMARK SMILES IDX 77 37 28 38 80 39 74 40 73 41 29 43 61 44 41 45 60 46 42 47
REMARK SMILES IDX 45 48 59 49 78 50 43 51 44 52 58 54 79 55 46 56 30 57 31 58
REMARK SMILES IDX 39 59 32 60 33 61 37 62 40 63 34 64 35 65 38 66 36 67 62 68
REMARK SMILES IDX 63 69 71 70 64 71 65 72 69 73 72 74 66 75 67 76 70 77 68 78
REMARK SMILES IDX 47 79 48 80 56 81 49 82 50 83 54 84 57 85 51 86 52 87 55 88
REMARK SMILES IDX 53 89
REMARK H PARENT 1 7 1 8 1 9 9 20 77 42 45 53
REMARK Flexibility Score: inf
ROOT
ATOM      1  C   UNL     1      -3.118   1.056   0.869  1.00  0.00     0.274 C 
ENDROOT
BRANCH   1   2
ATOM      2  O   UNL     1      -1.717   1.129   0.540  1.00  0.00    -0.458 OA
BRANCH   2   3
ATOM      3  C   UNL     1      -0.820   1.314   1.538  1.00  0.00     0.365 C 
ATOM      4  O   UNL     1      -1.124   1.417   2.722  1.00  0.00    -0.245 OA
BRANCH   3   5
ATOM      5  C   UNL     1       0.642   1.392   1.030  1.00  0.00     0.296 C 
BRANCH   5   6
ATOM      6  N   UNL     1       1.199   2.756   1.181  1.00  0.00    -0.346 N 
ATOM      7  H   UNL     1       0.955   3.123   2.102  1.00  0.00     0.345 HD
ATOM      8  H   UNL     1       0.811   3.364   0.460  1.00  0.00     0.345 HD
ATOM      9  H   UNL     1       2.214   2.722   1.087  1.00  0.00     0.345 HD
ENDBRANCH   5   6
BRANCH   5  10
ATOM     10  C   UNL     1       0.959   0.747  -0.340  1.00  0.00     0.113 C 
BRANCH  10  11
ATOM     11  C   UNL     1       0.232   1.149  -1.608  1.00  0.00    -0.039 A 
ATOM     12  C   UNL     1      -0.540   2.310  -1.741  1.00  0.00     0.023 A 
ATOM     13  C   UNL     1       0.294   0.267  -2.703  1.00  0.00     0.023 A 
ATOM     14  C   UNL     1      -1.314   2.523  -2.885  1.00  0.00     0.061 A 
ATOM     15  C   UNL     1      -0.457   0.497  -3.861  1.00  0.00     0.061 A 
ATOM     16  Br  UNL     1      -2.449   4.042  -2.938  1.00  0.00    -0.047 Br
ATOM     17  C   UNL     1      -1.286   1.614  -3.943  1.00  0.00     0.143 A 
ATOM     18  Br  UNL     1      -0.346  -0.764  -5.273  1.00  0.00    -0.047 Br
BRANCH  17  19
ATOM     19  O   UNL     1      -2.078   1.794  -5.045  1.00  0.00    -0.506 OA
ATOM     20  H   UNL     1      -2.637   2.544  -5.103  1.00  0.00     0.293 HD
ENDBRANCH  17  19
ENDBRANCH  10  11
ENDBRANCH   5  10
ENDBRANCH   3   5
ENDBRANCH   2   3
ENDBRANCH   1   2
BRANCH   1  21
ATOM     21  C   UNL     1      -3.663  -0.341   0.562  1.00  0.00     0.275 C 
BRANCH  21  22
ATOM     22  O   UNL     1      -3.165  -1.294   1.518  1.00  0.00    -0.458 OA
BRANCH  22  23
ATOM     23  C   UNL     1      -1.981  -1.858   1.193  1.00  0.00     0.338 C 
ATOM     24  O   UNL     1      -1.368  -1.748   0.141  1.00  0.00    -0.246 OA
BRANCH  23  25
ATOM     25  C   UNL     1      -1.397  -2.488   2.384  1.00  0.00     0.060 A 
ATOM     26  C   UNL     1      -0.091  -2.123   2.721  1.00  0.00     0.016 A 
ATOM     27  C   UNL     1      -2.087  -3.439   3.138  1.00  0.00     0.016 A 
ATOM     28  C   UNL     1       0.539  -2.712   3.808  1.00  0.00     0.010 A 
ATOM     29  C   UNL     1      -1.452  -4.036   4.231  1.00  0.00     0.010 A 
ATOM     30  C   UNL     1      -0.131  -3.684   4.562  1.00  0.00    -0.014 A 
BRANCH  30  31
ATOM     31  C   UNL     1       0.603  -4.365   5.652  1.00  0.00     0.031 A 
ATOM     32  C   UNL     1       1.127  -5.754   5.438  1.00  0.00     0.074 A 
ATOM     33  C   UNL     1       0.862  -3.703   6.793  1.00  0.00     0.049 A 
ATOM     34  N   UNL     1       1.815  -6.516   6.250  1.00  0.00    -0.248 NA
ATOM     35  C   UNL     1       0.843  -6.369   4.131  1.00  0.00     0.031 C 
ATOM     36  C   UNL     1       0.430  -2.338   7.091  1.00  0.00     0.029 A 
ATOM     37  N   UNL     1       1.562  -4.086   7.909  1.00  0.00    -0.354 N 
ATOM     38  C   UNL     1       2.046  -7.696   5.556  1.00  0.00     0.074 A 
ATOM     39  C   UNL     1       1.396  -7.566   4.270  1.00  0.00     0.031 C 
ATOM     40  C   UNL     1       0.880  -1.993   8.308  1.00  0.00     0.029 A 
ATOM     41  C   UNL     1       1.602  -3.123   8.886  1.00  0.00     0.049 A 
ATOM     42  H   UNL     1       1.994  -4.965   8.000  1.00  0.00     0.167 HD
ATOM     43  C   UNL     1       2.748  -8.783   5.956  1.00  0.00     0.037 A 
ATOM     44  C   UNL     1       2.148  -3.159  10.116  1.00  0.00     0.037 A 
ATOM     45  C   UNL     1       3.388  -8.905   7.240  1.00  0.00     0.049 A 
ATOM     46  C   UNL     1       2.886  -4.397  10.550  1.00  0.00     0.074 A 
ATOM     47  C   UNL     1       4.106  -9.972   7.751  1.00  0.00     0.029 A 
ATOM     48  N   UNL     1       3.385  -7.920   8.218  1.00  0.00    -0.354 N 
ATOM     49  N   UNL     1       3.096  -5.511   9.889  1.00  0.00    -0.248 NA
ATOM     50  C   UNL     1       3.468  -4.381  11.898  1.00  0.00     0.031 C 
ATOM     51  C   UNL     1       4.506  -9.647   9.053  1.00  0.00     0.029 A 
ATOM     52  C   UNL     1       4.080  -8.359   9.334  1.00  0.00     0.049 A 
ATOM     53  H   UNL     1       2.954  -7.040   8.131  1.00  0.00     0.167 HD
ATOM     54  C   UNL     1       3.845  -6.320  10.732  1.00  0.00     0.074 A 
ATOM     55  C   UNL     1       4.078  -5.557  11.941  1.00  0.00     0.031 C 
ATOM     56  C   UNL     1       4.294  -7.583  10.530  1.00  0.00     0.037 A 
BRANCH  43  57
ATOM     57  C   UNL     1       2.842  -9.933   4.997  1.00  0.00     0.064 A 
ATOM     58  C   UNL     1       3.627  -9.860   3.836  1.00  0.00     0.173 A 
ATOM     59  C   UNL     1       2.161 -11.132   5.253  1.00  0.00     0.173 A 
ATOM     60  F   UNL     1       4.285  -8.730   3.536  1.00  0.00    -0.203 F 
ATOM     61  C   UNL     1       3.708 -10.937   2.956  1.00  0.00     0.198 A 
ATOM     62  C   UNL     1       2.265 -12.216   4.385  1.00  0.00     0.198 A 
ATOM     63  F   UNL     1       1.397 -11.255   6.348  1.00  0.00    -0.203 F 
ATOM     64  F   UNL     1       4.429 -10.828   1.831  1.00  0.00    -0.200 F 
ATOM     65  C   UNL     1       3.034 -12.116   3.235  1.00  0.00     0.200 A 
ATOM     66  F   UNL     1       1.620 -13.358   4.660  1.00  0.00    -0.200 F 
ATOM     67  F   UNL     1       3.117 -13.153   2.390  1.00  0.00    -0.200 F 
ENDBRANCH  43  57
BRANCH  44  68
ATOM     68  C   UNL     1       2.005  -1.993  11.027  1.00  0.00     0.064 A 
ATOM     69  C   UNL     1       3.111  -1.218  11.399  1.00  0.00     0.173 A 
ATOM     70  C   UNL     1       0.753  -1.641  11.556  1.00  0.00     0.173 A 
ATOM     71  F   UNL     1       4.332  -1.528  10.940  1.00  0.00    -0.203 F 
ATOM     72  C   UNL     1       2.974  -0.147  12.282  1.00  0.00     0.198 A 
ATOM     73  C   UNL     1       0.614  -0.552  12.413  1.00  0.00     0.198 A 
ATOM     74  F   UNL     1      -0.337  -2.352  11.232  1.00  0.00    -0.203 F 
ATOM     75  F   UNL     1       4.056   0.546  12.662  1.00  0.00    -0.200 F 
ATOM     76  C   UNL     1       1.726   0.188  12.783  1.00  0.00     0.200 A 
ATOM     77  F   UNL     1      -0.597  -0.225  12.885  1.00  0.00    -0.200 F 
ATOM     78  F   UNL     1       1.596   1.218  13.630  1.00  0.00    -0.200 F 
ENDBRANCH  44  68
BRANCH  56  79
ATOM     79  C   UNL     1       5.096  -8.204  11.637  1.00  0.00     0.064 A 
ATOM     80  C   UNL     1       4.500  -8.595  12.845  1.00  0.00     0.173 A 
ATOM     81  C   UNL     1       6.474  -8.417  11.484  1.00  0.00     0.173 A 
ATOM     82  F   UNL     1       3.188  -8.398  13.046  1.00  0.00    -0.203 F 
ATOM     83  C   UNL     1       5.261  -9.141  13.875  1.00  0.00     0.198 A 
ATOM     84  C   UNL     1       7.227  -8.993  12.504  1.00  0.00     0.198 A 
ATOM     85  F   UNL     1       7.091  -8.069  10.345  1.00  0.00    -0.203 F 
ATOM     86  F   UNL     1       4.681  -9.451  15.043  1.00  0.00    -0.200 F 
ATOM     87  C   UNL     1       6.622  -9.344  13.702  1.00  0.00     0.200 A 
ATOM     88  F   UNL     1       8.539  -9.200  12.331  1.00  0.00    -0.200 F 
ATOM     89  F   UNL     1       7.354  -9.868  14.695  1.00  0.00    -0.200 F 
ENDBRANCH  56  79
ENDBRANCH  30  31
ENDBRANCH  23  25
ENDBRANCH  22  23
ENDBRANCH  21  22
ENDBRANCH   1  21
TORSDOF 15
