REMARK SMILES CC(C)c1cc(O)cc(C(C)C)c1O[C@@H]1O[C@@H](C(=O)OCCOC(=O)c2ccc(-c3c4nc(c(-c5c(F)c(F)c(F)c(F)c5F)c5ccc([nH]5)c(-c5c(F)c(F)c(F)c(F)c5F)c5nc(c(-c6c(F)c(F)c(F)c(F)c6F)c6ccc3[nH]6)C=C5)C=C4)cc2)[C@@H](O)[C@H](O)[C@@H]1O
REMARK SMILES IDX 21 1 20 2 18 3 19 4 17 5 15 6 16 7 93 8 91 9 89 10 14 11
REMARK SMILES IDX 13 12 4 13 5 14 6 15 9 16 8 17 2 18 1 19 3 20 7 21 10 23
REMARK SMILES IDX 11 24 12 25 94 26 92 28 90 30 22 32 23 33 24 34 25 35 26 36
REMARK SMILES IDX 27 37 88 38 28 39 87 40 29 41 30 42 31 43 81 44 32 45 86 46
REMARK SMILES IDX 80 47 82 48 33 49 85 50 79 51 78 52 34 54 66 55 46 56 65 57
REMARK SMILES IDX 47 58 50 59 64 60 83 61 48 62 49 63 63 65 84 66 51 67 35 68
REMARK SMILES IDX 36 69 44 70 37 71 38 72 42 73 45 74 39 75 40 76 43 77 41 78
REMARK SMILES IDX 67 79 68 80 76 81 69 82 70 83 74 84 77 85 71 86 72 87 75 88
REMARK SMILES IDX 73 89 52 90 53 91 61 92 54 93 55 94 59 95 62 96 56 97 57 98
REMARK SMILES IDX 60 99 58 100
REMARK H PARENT 7 22 94 27 92 29 90 31 82 53 50 64
REMARK Flexibility Score: inf
ROOT
ATOM      1  C   UNL     1      -3.723   1.995  -0.825  1.00  0.00     0.274 C 
ENDROOT
BRANCH   1   2
ATOM      2  O   UNL     1      -2.309   2.103  -0.567  1.00  0.00    -0.460 OA
BRANCH   2   3
ATOM      3  C   UNL     1      -1.584   0.965  -0.760  1.00  0.00     0.338 C 
ATOM      4  O   UNL     1      -2.076  -0.128  -1.012  1.00  0.00    -0.249 OA
BRANCH   3   5
ATOM      5  C   UNL     1      -0.066   1.230  -0.664  1.00  0.00     0.263 C 
ATOM      6  C   UNL     1       0.551  -0.858   0.356  1.00  0.00     0.339 C 
ATOM      7  O   UNL     1       0.708   0.027  -0.754  1.00  0.00    -0.322 OA
ATOM      8  C   UNL     1       0.575  -0.228   1.782  1.00  0.00     0.214 C 
ATOM      9  C   UNL     1      -0.033   1.188   1.832  1.00  0.00     0.181 C 
ATOM     10  C   UNL     1       0.336   2.013   0.590  1.00  0.00     0.186 C 
BRANCH   6  11
ATOM     11  O   UNL     1       1.351  -2.039   0.273  1.00  0.00    -0.461 OA
BRANCH  11  12
ATOM     12  C   UNL     1       2.665  -2.253   0.007  1.00  0.00     0.130 A 
ATOM     13  C   UNL     1       2.976  -3.651  -0.072  1.00  0.00     0.001 A 
ATOM     14  C   UNL     1       4.331  -4.051  -0.153  1.00  0.00     0.054 A 
ATOM     15  C   UNL     1       5.344  -3.121  -0.254  1.00  0.00     0.116 A 
ATOM     16  C   UNL     1       3.716  -1.303  -0.117  1.00  0.00     0.001 A 
ATOM     17  C   UNL     1       5.042  -1.776  -0.267  1.00  0.00     0.054 A 
BRANCH  13  18
ATOM     18  C   UNL     1       1.964  -4.820  -0.073  1.00  0.00     0.017 C 
ATOM     19  C   UNL     1       0.467  -4.530   0.083  1.00  0.00     0.012 C 
ATOM     20  C   UNL     1       2.123  -5.680  -1.347  1.00  0.00     0.012 C 
ENDBRANCH  13  18
BRANCH  15  21
ATOM     21  O   UNL     1       6.651  -3.484  -0.354  1.00  0.00    -0.508 OA
ATOM     22  H   UNL     1       6.888  -4.391  -0.348  1.00  0.00     0.293 HD
ENDBRANCH  15  21
BRANCH  16  23
ATOM     23  C   UNL     1       3.583   0.212  -0.140  1.00  0.00     0.017 C 
ATOM     24  C   UNL     1       4.511   0.948   0.839  1.00  0.00     0.012 C 
ATOM     25  C   UNL     1       3.739   0.768  -1.558  1.00  0.00     0.012 C 
ENDBRANCH  16  23
ENDBRANCH  11  12
ENDBRANCH   6  11
BRANCH   8  26
ATOM     26  O   UNL     1       1.895  -0.153   2.353  1.00  0.00    -0.384 OA
ATOM     27  H   UNL     1       2.439   0.457   1.830  1.00  0.00     0.211 HD
ENDBRANCH   8  26
BRANCH   9  28
ATOM     28  O   UNL     1       0.418   1.851   3.022  1.00  0.00    -0.387 OA
ATOM     29  H   UNL     1       1.385   1.928   3.002  1.00  0.00     0.211 HD
ENDBRANCH   9  28
BRANCH  10  30
ATOM     30  O   UNL     1      -0.207   3.336   0.616  1.00  0.00    -0.387 OA
ATOM     31  H   UNL     1      -1.176   3.288   0.626  1.00  0.00     0.211 HD
ENDBRANCH  10  30
ENDBRANCH   3   5
ENDBRANCH   2   3
ENDBRANCH   1   2
BRANCH   1  32
ATOM     32  C   UNL     1      -4.063   2.417  -2.259  1.00  0.00     0.275 C 
BRANCH  32  33
ATOM     33  O   UNL     1      -3.545   1.497  -3.241  1.00  0.00    -0.458 OA
BRANCH  33  34
ATOM     34  C   UNL     1      -2.282   1.747  -3.660  1.00  0.00     0.338 C 
ATOM     35  O   UNL     1      -1.561   2.667  -3.296  1.00  0.00    -0.246 OA
BRANCH  34  36
ATOM     36  C   UNL     1      -1.802   0.661  -4.531  1.00  0.00     0.060 A 
ATOM     37  C   UNL     1      -0.551   0.093  -4.258  1.00  0.00     0.016 A 
ATOM     38  C   UNL     1      -2.533   0.254  -5.647  1.00  0.00     0.016 A 
ATOM     39  C   UNL     1      -0.022  -0.877  -5.104  1.00  0.00     0.010 A 
ATOM     40  C   UNL     1      -1.999  -0.718  -6.499  1.00  0.00     0.010 A 
ATOM     41  C   UNL     1      -0.735  -1.278  -6.239  1.00  0.00    -0.014 A 
BRANCH  41  42
ATOM     42  C   UNL     1      -0.131  -2.238  -7.192  1.00  0.00     0.031 A 
ATOM     43  C   UNL     1       0.414  -1.742  -8.499  1.00  0.00     0.074 A 
ATOM     44  C   UNL     1      -0.065  -3.545  -6.881  1.00  0.00     0.049 A 
ATOM     45  N   UNL     1       0.894  -2.421  -9.510  1.00  0.00    -0.248 NA
ATOM     46  C   UNL     1       0.416  -0.284  -8.696  1.00  0.00     0.031 C 
ATOM     47  C   UNL     1      -0.514  -4.135  -5.621  1.00  0.00     0.029 A 
ATOM     48  N   UNL     1       0.397  -4.612  -7.608  1.00  0.00    -0.354 N 
ATOM     49  C   UNL     1       1.241  -1.477 -10.467  1.00  0.00     0.074 A 
ATOM     50  C   UNL     1       0.897  -0.179  -9.927  1.00  0.00     0.031 C 
ATOM     51  C   UNL     1      -0.313  -5.463  -5.666  1.00  0.00     0.029 A 
ATOM     52  C   UNL     1       0.235  -5.818  -6.973  1.00  0.00     0.049 A 
ATOM     53  H   UNL     1       0.805  -4.522  -8.500  1.00  0.00     0.167 HD
ATOM     54  C   UNL     1       1.799  -1.680 -11.685  1.00  0.00     0.037 A 
ATOM     55  C   UNL     1       0.474  -7.068  -7.411  1.00  0.00     0.037 A 
ATOM     56  C   UNL     1       2.150  -2.973 -12.211  1.00  0.00     0.049 A 
ATOM     57  C   UNL     1       1.027  -7.270  -8.797  1.00  0.00     0.074 A 
ATOM     58  C   UNL     1       2.736  -3.281 -13.427  1.00  0.00     0.029 A 
ATOM     59  N   UNL     1       1.942  -4.176 -11.552  1.00  0.00    -0.354 N 
ATOM     60  N   UNL     1       1.357  -6.375  -9.697  1.00  0.00    -0.248 NA
ATOM     61  C   UNL     1       1.239  -8.659  -9.230  1.00  0.00     0.031 C 
ATOM     62  C   UNL     1       2.838  -4.673 -13.523  1.00  0.00     0.029 A 
ATOM     63  C   UNL     1       2.365  -5.230 -12.346  1.00  0.00     0.049 A 
ATOM     64  H   UNL     1       1.552  -4.267 -10.652  1.00  0.00     0.167 HD
ATOM     65  C   UNL     1       1.839  -7.087 -10.787  1.00  0.00     0.074 A 
ATOM     66  C   UNL     1       1.770  -8.489 -10.432  1.00  0.00     0.031 C 
ATOM     67  C   UNL     1       2.298  -6.621 -11.974  1.00  0.00     0.037 A 
BRANCH  54  68
ATOM     68  C   UNL     1       2.037  -0.475 -12.547  1.00  0.00     0.064 A 
ATOM     69  C   UNL     1       3.048   0.453 -12.260  1.00  0.00     0.173 A 
ATOM     70  C   UNL     1       1.263  -0.267 -13.699  1.00  0.00     0.173 A 
ATOM     71  F   UNL     1       3.807   0.307 -11.164  1.00  0.00    -0.203 F 
ATOM     72  C   UNL     1       3.260   1.558 -13.081  1.00  0.00     0.198 A 
ATOM     73  C   UNL     1       1.495   0.824 -14.533  1.00  0.00     0.198 A 
ATOM     74  F   UNL     1       0.285  -1.127 -14.022  1.00  0.00    -0.203 F 
ATOM     75  F   UNL     1       4.203   2.456 -12.764  1.00  0.00    -0.200 F 
ATOM     76  C   UNL     1       2.488   1.739 -14.219  1.00  0.00     0.200 A 
ATOM     77  F   UNL     1       0.756   0.990 -15.638  1.00  0.00    -0.200 F 
ATOM     78  F   UNL     1       2.698   2.800 -15.012  1.00  0.00    -0.200 F 
ENDBRANCH  54  68
BRANCH  55  79
ATOM     79  C   UNL     1       0.174  -8.230  -6.536  1.00  0.00     0.064 A 
ATOM     80  C   UNL     1       1.202  -9.026  -6.014  1.00  0.00     0.173 A 
ATOM     81  C   UNL     1      -1.148  -8.577  -6.216  1.00  0.00     0.173 A 
ATOM     82  F   UNL     1       2.480  -8.750  -6.313  1.00  0.00    -0.203 F 
ATOM     83  C   UNL     1       0.920 -10.135  -5.219  1.00  0.00     0.198 A 
ATOM     84  C   UNL     1      -1.427  -9.668  -5.397  1.00  0.00     0.198 A 
ATOM     85  F   UNL     1      -2.168  -7.849  -6.692  1.00  0.00    -0.203 F 
ATOM     86  F   UNL     1       1.919 -10.906  -4.770  1.00  0.00    -0.200 F 
ATOM     87  C   UNL     1      -0.394 -10.451  -4.906  1.00  0.00     0.200 A 
ATOM     88  F   UNL     1      -2.697  -9.964  -5.088  1.00  0.00    -0.200 F 
ATOM     89  F   UNL     1      -0.664 -11.516  -4.138  1.00  0.00    -0.200 F 
ENDBRANCH  55  79
BRANCH  67  90
ATOM     90  C   UNL     1       2.800  -7.633 -12.963  1.00  0.00     0.064 A 
ATOM     91  C   UNL     1       1.926  -8.481 -13.658  1.00  0.00     0.173 A 
ATOM     92  C   UNL     1       4.171  -7.727 -13.246  1.00  0.00     0.173 A 
ATOM     93  F   UNL     1       0.608  -8.441 -13.411  1.00  0.00    -0.203 F 
ATOM     94  C   UNL     1       2.408  -9.404 -14.582  1.00  0.00     0.198 A 
ATOM     95  C   UNL     1       4.647  -8.630 -14.193  1.00  0.00     0.198 A 
ATOM     96  F   UNL     1       5.049  -6.934 -12.614  1.00  0.00    -0.203 F 
ATOM     97  F   UNL     1       1.560 -10.237 -15.200  1.00  0.00    -0.200 F 
ATOM     98  C   UNL     1       3.767  -9.472 -14.855  1.00  0.00     0.200 A 
ATOM     99  F   UNL     1       5.958  -8.686 -14.464  1.00  0.00    -0.200 F 
ATOM    100  F   UNL     1       4.228 -10.356 -15.750  1.00  0.00    -0.200 F 
ENDBRANCH  67  90
ENDBRANCH  41  42
ENDBRANCH  34  36
ENDBRANCH  33  34
ENDBRANCH  32  33
ENDBRANCH   1  32
TORSDOF 19
