REMARK SMILES Cc1ccnc(C(=O)c2[nH]c3ccc(OC(F)(F)F)cc3c2CC(=O)OCCOC(=O)c2ccc(-c3c4nc(c(-c5c(F)c(F)c(F)c(F)c5F)c5ccc([nH]5)c(-c5c(F)c(F)c(F)c(F)c5F)c5nc(c(-c6c(F)c(F)c(F)c(F)c6F)c6ccc3[nH]6)C=C5)C=C4)cc2)c1
REMARK SMILES IDX 27 1 26 2 24 3 25 4 23 5 22 6 9 7 10 8 11 9 21 11 12 12
REMARK SMILES IDX 20 13 13 14 14 15 7 16 8 17 6 18 1 19 2 20 3 21 95 22 4 23
REMARK SMILES IDX 5 24 15 25 16 26 17 27 18 28 19 29 28 30 29 31 30 32 31 33
REMARK SMILES IDX 32 34 33 35 94 36 34 37 93 38 35 39 36 40 37 41 87 42 38 43
REMARK SMILES IDX 92 44 86 45 88 46 39 47 91 48 85 49 84 50 40 52 72 53 52 54
REMARK SMILES IDX 71 55 53 56 56 57 70 58 89 59 54 60 55 61 69 63 90 64 57 65
REMARK SMILES IDX 41 66 42 67 50 68 43 69 44 70 48 71 51 72 45 73 46 74 49 75
REMARK SMILES IDX 47 76 73 77 74 78 82 79 75 80 76 81 80 82 83 83 77 84 78 85
REMARK SMILES IDX 81 86 79 87 58 88 59 89 67 90 60 91 61 92 65 93 68 94 62 95
REMARK SMILES IDX 63 96 66 97 64 98
REMARK H PARENT 10 10 88 51 56 62
REMARK Flexibility Score: inf
ROOT
ATOM      1  C   UNL     1       5.172  -5.375   0.617  1.00  0.00     0.274 C 
ENDROOT
BRANCH   1   2
ATOM      2  O   UNL     1       3.734  -5.260   0.515  1.00  0.00    -0.462 OA
BRANCH   2   3
ATOM      3  C   UNL     1       3.073  -5.027   1.674  1.00  0.00     0.310 C 
ATOM      4  O   UNL     1       3.614  -5.013   2.780  1.00  0.00    -0.252 OA
BRANCH   3   5
ATOM      5  C   UNL     1       1.617  -4.640   1.533  1.00  0.00     0.161 C 
BRANCH   5   6
ATOM      6  C   UNL     1       0.862  -4.980   0.287  1.00  0.00     0.000 A 
ATOM      7  C   UNL     1       0.711  -4.220  -0.874  1.00  0.00     0.093 A 
ATOM      8  N   UNL     1      -0.109  -4.930  -1.717  1.00  0.00    -0.352 N 
ATOM      9  C   UNL     1      -0.651  -6.010  -1.078  1.00  0.00     0.046 A 
ATOM     10  H   UNL     1      -0.284  -4.693  -2.656  1.00  0.00     0.167 HD
ATOM     11  C   UNL     1      -0.006  -6.122   0.148  1.00  0.00     0.008 A 
ATOM     12  C   UNL     1      -1.649  -6.888  -1.501  1.00  0.00     0.030 A 
ATOM     13  C   UNL     1      -0.346  -7.216   0.975  1.00  0.00     0.057 A 
ATOM     14  C   UNL     1      -1.990  -7.943  -0.649  1.00  0.00     0.049 A 
ATOM     15  C   UNL     1      -1.337  -8.127   0.569  1.00  0.00     0.130 A 
BRANCH   7  16
ATOM     16  C   UNL     1       1.247  -2.947  -1.333  1.00  0.00     0.227 C 
ATOM     17  O   UNL     1       1.973  -2.907  -2.326  1.00  0.00    -0.285 OA
BRANCH  16  18
ATOM     18  C   UNL     1       0.670  -1.656  -0.796  1.00  0.00     0.113 A 
ATOM     19  C   UNL     1      -2.620  -0.259   0.493  1.00  0.00     0.044 C 
ATOM     20  C   UNL     1      -1.207  -0.370   0.000  1.00  0.00    -0.047 A 
ATOM     21  C   UNL     1      -0.499   0.788  -0.324  1.00  0.00     0.023 A 
ATOM     22  C   UNL     1      -0.603  -1.615  -0.223  1.00  0.00     0.036 A 
ATOM     23  C   UNL     1       0.768   0.658  -0.861  1.00  0.00     0.112 A 
ATOM     24  N   UNL     1       1.362  -0.526  -1.105  1.00  0.00    -0.253 NA
ENDBRANCH  16  18
ENDBRANCH   7  16
BRANCH  15  25
ATOM     25  O   UNL     1      -1.570  -9.138   1.460  1.00  0.00    -0.406 OA
BRANCH  25  26
ATOM     26  C   UNL     1      -2.563 -10.093   1.125  1.00  0.00     0.573 C 
ATOM     27  F   UNL     1      -3.779  -9.513   1.028  1.00  0.00    -0.132 F 
ATOM     28  F   UNL     1      -2.271 -10.724  -0.033  1.00  0.00    -0.132 F 
ATOM     29  F   UNL     1      -2.620 -11.023   2.104  1.00  0.00    -0.132 F 
ENDBRANCH  25  26
ENDBRANCH  15  25
ENDBRANCH   5   6
ENDBRANCH   3   5
ENDBRANCH   2   3
ENDBRANCH   1   2
BRANCH   1  30
ATOM     30  C   UNL     1       5.893  -4.088   0.183  1.00  0.00     0.275 C 
BRANCH  30  31
ATOM     31  O   UNL     1       5.676  -2.984   1.089  1.00  0.00    -0.458 OA
BRANCH  31  32
ATOM     32  C   UNL     1       4.555  -2.287   0.815  1.00  0.00     0.338 C 
ATOM     33  O   UNL     1       3.737  -2.537  -0.055  1.00  0.00    -0.246 OA
BRANCH  32  34
ATOM     34  C   UNL     1       4.281  -1.216   1.772  1.00  0.00     0.060 A 
ATOM     35  C   UNL     1       3.240  -1.432   2.674  1.00  0.00     0.016 A 
ATOM     36  C   UNL     1       4.823   0.058   1.601  1.00  0.00     0.016 A 
ATOM     37  C   UNL     1       2.674  -0.361   3.348  1.00  0.00     0.010 A 
ATOM     38  C   UNL     1       4.303   1.126   2.343  1.00  0.00     0.010 A 
ATOM     39  C   UNL     1       3.205   0.927   3.197  1.00  0.00    -0.014 A 
BRANCH  39  40
ATOM     40  C   UNL     1       2.602   2.025   3.989  1.00  0.00     0.031 A 
ATOM     41  C   UNL     1       1.768   3.091   3.342  1.00  0.00     0.074 A 
ATOM     42  C   UNL     1       2.733   1.984   5.328  1.00  0.00     0.049 A 
ATOM     43  N   UNL     1       1.081   4.054   3.904  1.00  0.00    -0.248 NA
ATOM     44  C   UNL     1       1.678   3.069   1.875  1.00  0.00     0.031 C 
ATOM     45  C   UNL     1       3.493   0.972   6.065  1.00  0.00     0.029 A 
ATOM     46  N   UNL     1       2.211   2.789   6.305  1.00  0.00    -0.354 N 
ATOM     47  C   UNL     1       0.462   4.737   2.866  1.00  0.00     0.074 A 
ATOM     48  C   UNL     1       0.880   4.101   1.634  1.00  0.00     0.031 C 
ATOM     49  C   UNL     1       3.360   1.196   7.380  1.00  0.00     0.029 A 
ATOM     50  C   UNL     1       2.552   2.395   7.574  1.00  0.00     0.049 A 
ATOM     51  H   UNL     1       1.647   3.573   6.116  1.00  0.00     0.167 HD
ATOM     52  C   UNL     1      -0.384   5.792   2.940  1.00  0.00     0.037 A 
ATOM     53  C   UNL     1       2.263   2.949   8.764  1.00  0.00     0.037 A 
ATOM     54  C   UNL     1      -0.764   6.448   4.165  1.00  0.00     0.049 A 
ATOM     55  C   UNL     1       1.413   4.184   8.805  1.00  0.00     0.074 A 
ATOM     56  C   UNL     1      -1.597   7.541   4.341  1.00  0.00     0.029 A 
ATOM     57  N   UNL     1      -0.320   6.080   5.427  1.00  0.00    -0.354 N 
ATOM     58  N   UNL     1       0.823   4.812   7.818  1.00  0.00    -0.248 NA
ATOM     59  C   UNL     1       1.199   4.792  10.123  1.00  0.00     0.031 C 
ATOM     60  C   UNL     1      -1.624   7.857   5.705  1.00  0.00     0.029 A 
ATOM     61  C   UNL     1      -0.837   6.941   6.382  1.00  0.00     0.049 A 
ATOM     62  H   UNL     1       0.275   5.318   5.616  1.00  0.00     0.167 HD
ATOM     63  C   UNL     1       0.165   5.888   8.393  1.00  0.00     0.074 A 
ATOM     64  C   UNL     1       0.407   5.811   9.820  1.00  0.00     0.031 C 
ATOM     65  C   UNL     1      -0.568   6.857   7.794  1.00  0.00     0.037 A 
BRANCH  52  66
ATOM     66  C   UNL     1      -0.952   6.318   1.657  1.00  0.00     0.064 A 
ATOM     67  C   UNL     1      -1.998   5.654   1.000  1.00  0.00     0.173 A 
ATOM     68  C   UNL     1      -0.493   7.526   1.112  1.00  0.00     0.173 A 
ATOM     69  F   UNL     1      -2.458   4.485   1.471  1.00  0.00    -0.203 F 
ATOM     70  C   UNL     1      -2.564   6.182  -0.159  1.00  0.00     0.198 A 
ATOM     71  C   UNL     1      -1.070   8.057  -0.039  1.00  0.00     0.198 A 
ATOM     72  F   UNL     1       0.508   8.196   1.703  1.00  0.00    -0.203 F 
ATOM     73  F   UNL     1      -3.550   5.521  -0.781  1.00  0.00    -0.200 F 
ATOM     74  C   UNL     1      -2.104   7.385  -0.673  1.00  0.00     0.200 A 
ATOM     75  F   UNL     1      -0.626   9.221  -0.534  1.00  0.00    -0.200 F 
ATOM     76  F   UNL     1      -2.655   7.894  -1.784  1.00  0.00    -0.200 F 
ENDBRANCH  52  66
BRANCH  53  77
ATOM     77  C   UNL     1       2.813   2.349  10.004  1.00  0.00     0.064 A 
ATOM     78  C   UNL     1       1.982   1.703  10.927  1.00  0.00     0.173 A 
ATOM     79  C   UNL     1       4.188   2.400  10.279  1.00  0.00     0.173 A 
ATOM     80  F   UNL     1       0.659   1.649  10.715  1.00  0.00    -0.203 F 
ATOM     81  C   UNL     1       2.507   1.133  12.085  1.00  0.00     0.198 A 
ATOM     82  C   UNL     1       4.714   1.808  11.423  1.00  0.00     0.198 A 
ATOM     83  F   UNL     1       5.022   3.008   9.423  1.00  0.00    -0.203 F 
ATOM     84  F   UNL     1       1.689   0.549  12.970  1.00  0.00    -0.200 F 
ATOM     85  C   UNL     1       3.872   1.180  12.328  1.00  0.00     0.200 A 
ATOM     86  F   UNL     1       6.034   1.844  11.646  1.00  0.00    -0.200 F 
ATOM     87  F   UNL     1       4.376   0.625  13.439  1.00  0.00    -0.200 F 
ENDBRANCH  53  77
BRANCH  65  88
ATOM     88  C   UNL     1      -1.150   7.907   8.690  1.00  0.00     0.064 A 
ATOM     89  C   UNL     1      -0.346   8.912   9.248  1.00  0.00     0.173 A 
ATOM     90  C   UNL     1      -2.517   7.905   9.000  1.00  0.00     0.173 A 
ATOM     91  F   UNL     1       0.971   8.939   8.996  1.00  0.00    -0.203 F 
ATOM     92  C   UNL     1      -0.887   9.862  10.109  1.00  0.00     0.198 A 
ATOM     93  C   UNL     1      -3.058   8.871   9.843  1.00  0.00     0.198 A 
ATOM     94  F   UNL     1      -3.325   6.965   8.489  1.00  0.00    -0.203 F 
ATOM     95  F   UNL     1      -0.092  10.783  10.672  1.00  0.00    -0.200 F 
ATOM     96  C   UNL     1      -2.242   9.843  10.403  1.00  0.00     0.200 A 
ATOM     97  F   UNL     1      -4.369   8.855  10.123  1.00  0.00    -0.200 F 
ATOM     98  F   UNL     1      -2.760  10.754  11.238  1.00  0.00    -0.200 F 
ENDBRANCH  65  88
ENDBRANCH  39  40
ENDBRANCH  32  34
ENDBRANCH  31  32
ENDBRANCH  30  31
ENDBRANCH   1  30
TORSDOF 16
