REMARK SMILES COc1ccc(-c2ccc(S(=O)(=O)NC(C)(C)C)cc2)c(C(=O)OCCOC(=O)c2ccc(-c3c4nc(c(-c5c(F)c(F)c(F)c(F)c5F)c5ccc([nH]5)c(-c5c(F)c(F)c(F)c(F)c5F)c5nc(c(-c6c(F)c(F)c(F)c(F)c6F)c6ccc3[nH]6)C=C5)C=C4)cc2)c1
REMARK SMILES IDX 25 1 24 2 22 3 23 4 21 5 3 6 4 7 93 8 5 9 6 10 2 11 1 12
REMARK SMILES IDX 7 13 8 14 20 15 9 16 19 17 10 18 11 19 12 20 13 21 14 22
REMARK SMILES IDX 15 24 16 25 17 26 18 27 26 28 27 29 28 30 29 31 30 32 31 33
REMARK SMILES IDX 92 34 32 35 91 36 33 37 34 38 35 39 85 40 36 41 90 42 84 43
REMARK SMILES IDX 86 44 37 45 89 46 83 47 82 48 38 50 70 51 50 52 69 53 51 54
REMARK SMILES IDX 54 55 68 56 87 57 52 58 53 59 67 61 88 62 55 63 39 64 40 65
REMARK SMILES IDX 48 66 41 67 42 68 46 69 49 70 43 71 44 72 47 73 45 74 71 75
REMARK SMILES IDX 72 76 80 77 73 78 74 79 78 80 81 81 75 82 76 83 79 84 77 85
REMARK SMILES IDX 56 86 57 87 65 88 58 89 59 90 63 91 66 92 60 93 61 94 64 95
REMARK SMILES IDX 62 96
REMARK H PARENT 14 23 86 49 54 60
REMARK Flexibility Score: inf
ROOT
ATOM      1  C   UNL     1       6.003  -2.651   1.889  1.00  0.00     0.275 C 
ENDROOT
BRANCH   1   2
ATOM      2  O   UNL     1       4.693  -2.088   2.119  1.00  0.00    -0.458 OA
BRANCH   2   3
ATOM      3  C   UNL     1       3.716  -2.976   2.443  1.00  0.00     0.339 C 
ATOM      4  O   UNL     1       3.839  -4.187   2.517  1.00  0.00    -0.246 OA
BRANCH   3   5
ATOM      5  C   UNL     1       2.426  -2.272   2.655  1.00  0.00     0.071 A 
ATOM      6  C   UNL     1       0.787  -0.732   1.743  1.00  0.00     0.119 A 
ATOM      7  C   UNL     1      -0.043  -1.002   2.832  1.00  0.00     0.047 A 
ATOM      8  C   UNL     1       2.026  -1.359   1.661  1.00  0.00     0.062 A 
ATOM      9  C   UNL     1       0.355  -1.897   3.833  1.00  0.00     0.013 A 
ATOM     10  C   UNL     1       1.593  -2.550   3.765  1.00  0.00    -0.004 A 
BRANCH   6  11
ATOM     11  O   UNL     1       0.293   0.169   0.840  1.00  0.00    -0.497 OA
ATOM     12  C   UNL     1       0.883   0.148  -0.456  1.00  0.00     0.278 C 
ENDBRANCH   6  11
BRANCH  10  13
ATOM     13  C   UNL     1       2.036  -3.360   4.906  1.00  0.00    -0.017 A 
ATOM     14  C   UNL     1       2.125  -5.131   4.863  1.00  0.00     0.010 A 
ATOM     15  C   UNL     1       2.818  -2.520   6.296  1.00  0.00     0.010 A 
ATOM     16  C   UNL     1       2.955  -6.110   6.118  1.00  0.00     0.022 A 
ATOM     17  C   UNL     1       3.807  -3.640   7.657  1.00  0.00     0.022 A 
ATOM     18  C   UNL     1       3.786  -5.409   7.509  1.00  0.00     0.082 A 
BRANCH  18  19
ATOM     19  S   UNL     1       4.189  -6.393   8.935  1.00  0.00     0.241 S 
ATOM     20  O   UNL     1       2.961  -6.745   9.600  1.00  0.00    -0.207 OA
ATOM     21  O   UNL     1       5.080  -7.418   8.432  1.00  0.00    -0.207 OA
BRANCH  19  22
ATOM     22  N   UNL     1       5.170  -5.479   9.973  1.00  0.00    -0.206 NA
ATOM     23  H   UNL     1       5.608  -4.791   9.361  1.00  0.00     0.141 HD
BRANCH  22  24
ATOM     24  C   UNL     1       4.806  -4.693  11.209  1.00  0.00     0.025 C 
ATOM     25  C   UNL     1       3.763  -5.337  12.120  1.00  0.00     0.028 C 
ATOM     26  C   UNL     1       6.121  -4.508  12.001  1.00  0.00     0.028 C 
ATOM     27  C   UNL     1       4.343  -3.283  10.884  1.00  0.00     0.028 C 
ENDBRANCH  22  24
ENDBRANCH  19  22
ENDBRANCH  18  19
ENDBRANCH  10  13
ENDBRANCH   3   5
ENDBRANCH   2   3
ENDBRANCH   1   2
BRANCH   1  28
ATOM     28  C   UNL     1       6.930  -2.392   3.075  1.00  0.00     0.275 C 
BRANCH  28  29
ATOM     29  O   UNL     1       6.366  -2.963   4.271  1.00  0.00    -0.458 OA
BRANCH  29  30
ATOM     30  C   UNL     1       5.756  -2.050   5.052  1.00  0.00     0.338 C 
ATOM     31  O   UNL     1       5.751  -0.837   4.902  1.00  0.00    -0.246 OA
BRANCH  30  32
ATOM     32  C   UNL     1       4.949  -2.648   6.118  1.00  0.00     0.060 A 
ATOM     33  C   UNL     1       3.857  -4.037   5.809  1.00  0.00     0.016 A 
ATOM     34  C   UNL     1       4.504  -1.524   7.395  1.00  0.00     0.016 A 
ATOM     35  C   UNL     1       2.159  -4.175   6.901  1.00  0.00     0.010 A 
ATOM     36  C   UNL     1       3.030  -1.702   8.386  1.00  0.00     0.010 A 
ATOM     37  C   UNL     1       1.818  -3.003   8.217  1.00  0.00    -0.014 A 
BRANCH  37  38
ATOM     38  C   UNL     1       0.852  -3.415   9.389  1.00  0.00     0.031 A 
ATOM     39  C   UNL     1       0.757  -2.564  10.653  1.00  0.00     0.074 A 
ATOM     40  C   UNL     1       0.239  -4.628   9.507  1.00  0.00     0.049 A 
ATOM     41  N   UNL     1       0.515  -2.910  11.900  1.00  0.00    -0.248 NA
ATOM     42  C   UNL     1       1.011  -1.131  10.498  1.00  0.00     0.031 C 
ATOM     43  C   UNL     1      -0.015  -5.623   8.475  1.00  0.00     0.029 A 
ATOM     44  N   UNL     1      -0.180  -5.305  10.652  1.00  0.00    -0.354 N 
ATOM     45  C   UNL     1       0.669  -1.752  12.656  1.00  0.00     0.074 A 
ATOM     46  C   UNL     1       1.210  -0.756  11.754  1.00  0.00     0.031 C 
ATOM     47  C   UNL     1      -0.218  -6.830   9.019  1.00  0.00     0.029 A 
ATOM     48  C   UNL     1      -0.308  -6.672  10.458  1.00  0.00     0.049 A 
ATOM     49  H   UNL     1      -0.366  -4.859  11.509  1.00  0.00     0.167 HD
ATOM     50  C   UNL     1       0.281  -1.476  13.931  1.00  0.00     0.037 A 
ATOM     51  C   UNL     1      -0.526  -7.708  11.293  1.00  0.00     0.037 A 
ATOM     52  C   UNL     1      -0.446  -2.385  14.783  1.00  0.00     0.049 A 
ATOM     53  C   UNL     1      -0.951  -7.435  12.698  1.00  0.00     0.074 A 
ATOM     54  C   UNL     1      -1.065  -2.125  15.996  1.00  0.00     0.029 A 
ATOM     55  N   UNL     1      -0.683  -3.721  14.502  1.00  0.00    -0.354 N 
ATOM     56  N   UNL     1      -0.899  -6.315  13.368  1.00  0.00    -0.248 NA
ATOM     57  C   UNL     1      -1.594  -8.543  13.420  1.00  0.00     0.031 C 
ATOM     58  C   UNL     1      -1.645  -3.309  16.466  1.00  0.00     0.029 A 
ATOM     59  C   UNL     1      -1.429  -4.297  15.523  1.00  0.00     0.049 A 
ATOM     60  H   UNL     1      -0.370  -4.192  13.697  1.00  0.00     0.167 HD
ATOM     61  C   UNL     1      -1.584  -6.552  14.549  1.00  0.00     0.074 A 
ATOM     62  C   UNL     1      -2.009  -7.935  14.522  1.00  0.00     0.031 C 
ATOM     63  C   UNL     1      -1.870  -5.668  15.533  1.00  0.00     0.037 A 
BRANCH  50  64
ATOM     64  C   UNL     1       0.541  -0.082  14.459  1.00  0.00     0.064 A 
ATOM     65  C   UNL     1      -0.041   1.055  13.871  1.00  0.00     0.173 A 
ATOM     66  C   UNL     1       1.355   0.121  15.585  1.00  0.00     0.173 A 
ATOM     67  F   UNL     1      -0.850   0.930  12.808  1.00  0.00    -0.203 F 
ATOM     68  C   UNL     1       0.255   2.337  14.326  1.00  0.00     0.198 A 
ATOM     69  C   UNL     1       1.602   1.403  16.075  1.00  0.00     0.198 A 
ATOM     70  F   UNL     1       1.909  -0.923  16.220  1.00  0.00    -0.203 F 
ATOM     71  F   UNL     1      -0.231   3.404  13.676  1.00  0.00    -0.200 F 
ATOM     72  C   UNL     1       1.072   2.511  15.431  1.00  0.00     0.200 A 
ATOM     73  F   UNL     1       2.362   1.569  17.166  1.00  0.00    -0.200 F 
ATOM     74  F   UNL     1       1.353   3.745  15.870  1.00  0.00    -0.200 F 
ENDBRANCH  50  64
BRANCH  51  75
ATOM     75  C   UNL     1      -0.519  -9.102  10.769  1.00  0.00     0.064 A 
ATOM     76  C   UNL     1      -1.707  -9.734  10.374  1.00  0.00     0.173 A 
ATOM     77  C   UNL     1       0.677  -9.823  10.640  1.00  0.00     0.173 A 
ATOM     78  F   UNL     1      -2.879  -9.094  10.505  1.00  0.00    -0.203 F 
ATOM     79  C   UNL     1      -1.702 -11.035   9.877  1.00  0.00     0.198 A 
ATOM     80  C   UNL     1       0.683 -11.119  10.124  1.00  0.00     0.198 A 
ATOM     81  F   UNL     1       1.837  -9.279  11.035  1.00  0.00    -0.203 F 
ATOM     82  F   UNL     1      -2.857 -11.625   9.538  1.00  0.00    -0.200 F 
ATOM     83  C   UNL     1      -0.506 -11.724   9.745  1.00  0.00     0.200 A 
ATOM     84  F   UNL     1       1.838 -11.789  10.003  1.00  0.00    -0.200 F 
ATOM     85  F   UNL     1      -0.503 -12.976   9.265  1.00  0.00    -0.200 F 
ENDBRANCH  51  75
BRANCH  63  86
ATOM     86  C   UNL     1      -2.759  -6.141  16.644  1.00  0.00     0.064 A 
ATOM     87  C   UNL     1      -2.338  -7.094  17.583  1.00  0.00     0.173 A 
ATOM     88  C   UNL     1      -4.065  -5.639  16.761  1.00  0.00     0.173 A 
ATOM     89  F   UNL     1      -1.107  -7.623  17.503  1.00  0.00    -0.203 F 
ATOM     90  C   UNL     1      -3.202  -7.554  18.574  1.00  0.00     0.198 A 
ATOM     91  C   UNL     1      -4.915  -6.076  17.773  1.00  0.00     0.198 A 
ATOM     92  F   UNL     1      -4.522  -4.729  15.888  1.00  0.00    -0.203 F 
ATOM     93  F   UNL     1      -2.800  -8.513  19.419  1.00  0.00    -0.200 F 
ATOM     94  C   UNL     1      -4.487  -7.040  18.672  1.00  0.00     0.200 A 
ATOM     95  F   UNL     1      -6.152  -5.571  17.872  1.00  0.00    -0.200 F 
ATOM     96  F   UNL     1      -5.317  -7.484  19.626  1.00  0.00    -0.200 F 
ENDBRANCH  63  86
ENDBRANCH  37  38
ENDBRANCH  30  32
ENDBRANCH  29  30
ENDBRANCH  28  29
ENDBRANCH   1  28
TORSDOF 16
