REMARK SMILES CCOc1cc2nccc(Nc3ccc(C(=O)OCCOC(=O)c4ccc(-c5c6nc(c(-c7c(F)c(F)c(F)c(F)c7F)c7ccc([nH]7)c(-c7c(F)c(F)c(F)c(F)c7F)c7nc(c(-c8c(F)c(F)c(F)c(F)c8F)c8ccc5[nH]8)C=C7)C=C6)cc4)cc3)c2cc1OCC
REMARK SMILES IDX 19 1 18 2 16 3 17 4 15 5 12 6 13 7 88 8 14 9 87 10 11 11
REMARK SMILES IDX 10 13 4 14 5 15 91 16 6 17 90 18 7 19 89 20 8 21 9 22 3 23
REMARK SMILES IDX 2 24 1 25 92 26 93 27 94 28 20 29 21 30 22 31 23 32 24 33
REMARK SMILES IDX 25 34 86 35 26 36 85 37 27 38 28 39 29 40 79 41 30 42 84 43
REMARK SMILES IDX 78 44 80 45 31 46 83 47 77 48 76 49 32 51 64 52 44 53 63 54
REMARK SMILES IDX 45 55 48 56 62 57 81 58 46 59 47 60 61 62 82 63 49 64 33 65
REMARK SMILES IDX 34 66 42 67 35 68 36 69 40 70 43 71 37 72 38 73 41 74 39 75
REMARK SMILES IDX 65 76 66 77 74 78 67 79 68 80 72 81 75 82 69 83 70 84 73 85
REMARK SMILES IDX 71 86 50 87 51 88 59 89 52 90 53 91 57 92 60 93 54 94 55 95
REMARK SMILES IDX 58 96 56 97
REMARK H PARENT 11 12 80 50 48 61
REMARK Flexibility Score: inf
ROOT
ATOM      1  C   UNL     1      15.056   1.478  -3.655  1.00  0.00     0.275 C 
ENDROOT
BRANCH   1   2
ATOM      2  O   UNL     1      13.677   1.548  -3.238  1.00  0.00    -0.458 OA
BRANCH   2   3
ATOM      3  C   UNL     1      12.848   0.689  -3.871  1.00  0.00     0.338 C 
ATOM      4  O   UNL     1      13.155  -0.105  -4.750  1.00  0.00    -0.246 OA
BRANCH   3   5
ATOM      5  C   UNL     1      11.475   0.756  -3.332  1.00  0.00     0.060 A 
ATOM      6  C   UNL     1       8.748   0.752  -2.699  1.00  0.00     0.038 A 
ATOM      7  C   UNL     1       9.439  -0.451  -2.828  1.00  0.00     0.027 A 
ATOM      8  C   UNL     1       9.447   1.958  -2.822  1.00  0.00     0.027 A 
ATOM      9  C   UNL     1      10.778  -0.445  -3.173  1.00  0.00     0.018 A 
ATOM     10  C   UNL     1      10.817   1.966  -3.116  1.00  0.00     0.018 A 
BRANCH   6  11
ATOM     11  N   UNL     1       7.358   0.670  -2.574  1.00  0.00    -0.355 N 
ATOM     12  H   UNL     1       7.050   0.126  -1.813  1.00  0.00     0.167 HD
BRANCH  11  13
ATOM     13  C   UNL     1       6.317   1.232  -3.350  1.00  0.00     0.050 A 
ATOM     14  C   UNL     1       2.279   0.470  -2.330  1.00  0.00     0.163 A 
ATOM     15  C   UNL     1       2.608   1.298  -3.413  1.00  0.00     0.079 A 
ATOM     16  C   UNL     1       3.299  -0.084  -1.564  1.00  0.00     0.161 A 
ATOM     17  C   UNL     1       3.936   1.569  -3.760  1.00  0.00     0.076 A 
ATOM     18  C   UNL     1       4.619   0.191  -1.886  1.00  0.00     0.063 A 
ATOM     19  N   UNL     1       4.205   2.332  -4.835  1.00  0.00    -0.256 NA
ATOM     20  C   UNL     1       4.967   1.000  -2.982  1.00  0.00     0.028 A 
ATOM     21  C   UNL     1       5.500   2.533  -5.170  1.00  0.00     0.114 A 
ATOM     22  C   UNL     1       6.572   2.019  -4.468  1.00  0.00     0.047 A 
BRANCH  14  23
ATOM     23  O   UNL     1       0.991   0.072  -2.102  1.00  0.00    -0.490 OA
BRANCH  23  24
ATOM     24  C   UNL     1       0.094   1.128  -1.741  1.00  0.00     0.226 C 
ATOM     25  C   UNL     1      -0.906   0.556  -0.742  1.00  0.00     0.049 C 
ENDBRANCH  23  24
ENDBRANCH  14  23
BRANCH  16  26
ATOM     26  O   UNL     1       3.180  -0.935  -0.502  1.00  0.00    -0.490 OA
BRANCH  26  27
ATOM     27  C   UNL     1       2.249  -0.572   0.511  1.00  0.00     0.226 C 
ATOM     28  C   UNL     1       2.422   0.846   1.046  1.00  0.00     0.049 C 
ENDBRANCH  26  27
ENDBRANCH  16  26
ENDBRANCH  11  13
ENDBRANCH   6  11
ENDBRANCH   3   5
ENDBRANCH   2   3
ENDBRANCH   1   2
BRANCH   1  29
ATOM     29  C   UNL     1      15.898   0.636  -2.693  1.00  0.00     0.275 C 
BRANCH  29  30
ATOM     30  O   UNL     1      15.558  -0.762  -2.781  1.00  0.00    -0.458 OA
BRANCH  30  31
ATOM     31  C   UNL     1      14.787  -1.225  -1.773  1.00  0.00     0.338 C 
ATOM     32  O   UNL     1      14.366  -0.602  -0.813  1.00  0.00    -0.246 OA
BRANCH  31  33
ATOM     33  C   UNL     1      14.413  -2.628  -2.001  1.00  0.00     0.060 A 
ATOM     34  C   UNL     1      13.354  -2.882  -2.859  1.00  0.00     0.016 A 
ATOM     35  C   UNL     1      14.918  -3.651  -1.205  1.00  0.00     0.016 A 
ATOM     36  C   UNL     1      12.670  -4.090  -2.795  1.00  0.00     0.010 A 
ATOM     37  C   UNL     1      14.336  -4.926  -1.274  1.00  0.00     0.010 A 
ATOM     38  C   UNL     1      13.168  -5.150  -2.029  1.00  0.00    -0.014 A 
BRANCH  38  39
ATOM     39  C   UNL     1      12.468  -6.471  -2.025  1.00  0.00     0.031 A 
ATOM     40  C   UNL     1      12.072  -7.131  -0.727  1.00  0.00     0.074 A 
ATOM     41  C   UNL     1      12.174  -7.087  -3.191  1.00  0.00     0.049 A 
ATOM     42  N   UNL     1      11.634  -8.348  -0.512  1.00  0.00    -0.248 NA
ATOM     43  C   UNL     1      12.202  -6.324   0.496  1.00  0.00     0.031 C 
ATOM     44  C   UNL     1      12.453  -6.554  -4.527  1.00  0.00     0.029 A 
ATOM     45  N   UNL     1      11.571  -8.296  -3.445  1.00  0.00    -0.354 N 
ATOM     46  C   UNL     1      11.495  -8.469   0.866  1.00  0.00     0.074 A 
ATOM     47  C   UNL     1      11.906  -7.206   1.440  1.00  0.00     0.031 C 
ATOM     48  C   UNL     1      11.981  -7.399  -5.452  1.00  0.00     0.029 A 
ATOM     49  C   UNL     1      11.478  -8.591  -4.785  1.00  0.00     0.049 A 
ATOM     50  H   UNL     1      11.238  -8.893  -2.737  1.00  0.00     0.167 HD
ATOM     51  C   UNL     1      11.065  -9.536   1.583  1.00  0.00     0.037 A 
ATOM     52  C   UNL     1      11.093  -9.716  -5.418  1.00  0.00     0.037 A 
ATOM     53  C   UNL     1      10.610 -10.774   1.000  1.00  0.00     0.049 A 
ATOM     54  C   UNL     1      10.677 -10.903  -4.599  1.00  0.00     0.074 A 
ATOM     55  C   UNL     1      10.131 -11.905   1.638  1.00  0.00     0.029 A 
ATOM     56  N   UNL     1      10.570 -11.040  -0.362  1.00  0.00    -0.354 N 
ATOM     57  N   UNL     1      10.587 -11.020  -3.297  1.00  0.00    -0.248 NA
ATOM     58  C   UNL     1      10.325 -12.122  -5.338  1.00  0.00     0.031 C 
ATOM     59  C   UNL     1       9.857 -12.875   0.668  1.00  0.00     0.029 A 
ATOM     60  C   UNL     1      10.101 -12.327  -0.581  1.00  0.00     0.049 A 
ATOM     61  H   UNL     1      10.836 -10.408  -1.069  1.00  0.00     0.167 HD
ATOM     62  C   UNL     1      10.150 -12.315  -3.060  1.00  0.00     0.074 A 
ATOM     63  C   UNL     1       9.971 -12.938  -4.356  1.00  0.00     0.031 C 
ATOM     64  C   UNL     1       9.922 -12.933  -1.876  1.00  0.00     0.037 A 
BRANCH  51  65
ATOM     65  C   UNL     1      11.099  -9.435   3.084  1.00  0.00     0.064 A 
ATOM     66  C   UNL     1      10.232  -8.597   3.800  1.00  0.00     0.173 A 
ATOM     67  C   UNL     1      11.994 -10.228   3.822  1.00  0.00     0.173 A 
ATOM     68  F   UNL     1       9.361  -7.811   3.147  1.00  0.00    -0.203 F 
ATOM     69  C   UNL     1      10.281  -8.530   5.191  1.00  0.00     0.198 A 
ATOM     70  C   UNL     1      12.017 -10.185   5.214  1.00  0.00     0.198 A 
ATOM     71  F   UNL     1      12.841 -11.057   3.193  1.00  0.00    -0.203 F 
ATOM     72  F   UNL     1       9.478  -7.682   5.849  1.00  0.00    -0.200 F 
ATOM     73  C   UNL     1      11.167  -9.329   5.897  1.00  0.00     0.200 A 
ATOM     74  F   UNL     1      12.863 -10.972   5.894  1.00  0.00    -0.200 F 
ATOM     75  F   UNL     1      11.207  -9.270   7.236  1.00  0.00    -0.200 F 
ENDBRANCH  51  65
BRANCH  52  76
ATOM     76  C   UNL     1      11.139  -9.785  -6.904  1.00  0.00     0.064 A 
ATOM     77  C   UNL     1       9.965  -9.911  -7.658  1.00  0.00     0.173 A 
ATOM     78  C   UNL     1      12.356  -9.723  -7.601  1.00  0.00     0.173 A 
ATOM     79  F   UNL     1       8.778 -10.000  -7.039  1.00  0.00    -0.203 F 
ATOM     80  C   UNL     1      10.007  -9.989  -9.049  1.00  0.00     0.198 A 
ATOM     81  C   UNL     1      12.394  -9.761  -8.993  1.00  0.00     0.198 A 
ATOM     82  F   UNL     1      13.511  -9.601  -6.930  1.00  0.00    -0.203 F 
ATOM     83  F   UNL     1       8.873 -10.160  -9.742  1.00  0.00    -0.200 F 
ATOM     84  C   UNL     1      11.220  -9.904  -9.715  1.00  0.00     0.200 A 
ATOM     85  F   UNL     1      13.567  -9.658  -9.632  1.00  0.00    -0.200 F 
ATOM     86  F   UNL     1      11.259  -9.968 -11.053  1.00  0.00    -0.200 F 
ENDBRANCH  52  76
BRANCH  64  87
ATOM     87  C   UNL     1       9.412 -14.344  -1.929  1.00  0.00     0.064 A 
ATOM     88  C   UNL     1      10.224 -15.409  -2.345  1.00  0.00     0.173 A 
ATOM     89  C   UNL     1       8.097 -14.636  -1.536  1.00  0.00     0.173 A 
ATOM     90  F   UNL     1      11.483 -15.181  -2.749  1.00  0.00    -0.203 F 
ATOM     91  C   UNL     1       9.729 -16.709  -2.395  1.00  0.00     0.198 A 
ATOM     92  C   UNL     1       7.616 -15.941  -1.553  1.00  0.00     0.198 A 
ATOM     93  F   UNL     1       7.279 -13.654  -1.125  1.00  0.00    -0.203 F 
ATOM     94  F   UNL     1      10.505 -17.702  -2.851  1.00  0.00    -0.200 F 
ATOM     95  C   UNL     1       8.429 -16.976  -1.992  1.00  0.00     0.200 A 
ATOM     96  F   UNL     1       6.364 -16.199  -1.149  1.00  0.00    -0.200 F 
ATOM     97  F   UNL     1       7.956 -18.229  -2.034  1.00  0.00    -0.200 F 
ENDBRANCH  64  87
ENDBRANCH  38  39
ENDBRANCH  31  33
ENDBRANCH  30  31
ENDBRANCH  29  30
ENDBRANCH   1  29
TORSDOF 17
