REMARK SMILES O=C(CSc1nc2cccnc2n1C1CCCCCC1)OCCOC(=O)c1ccc(-c2c3nc(c(-c4c(F)c(F)c(F)c(F)c4F)c4ccc([nH]4)c(-c4c(F)c(F)c(F)c(F)c4F)c4nc(c(-c5c(F)c(F)c(F)c(F)c5F)c5ccc2[nH]5)C=C4)C=C3)cc1
REMARK SMILES IDX 1 1 2 2 3 3 4 4 5 5 6 6 13 7 7 8 12 9 8 10 11 11 9 12 10 13
REMARK SMILES IDX 14 14 15 15 16 16 17 17 18 18 20 20 19 21 21 23 22 24 23 25
REMARK SMILES IDX 24 26 25 27 26 28 27 29 28 30 89 31 29 32 88 33 30 34 31 35
REMARK SMILES IDX 32 36 82 37 33 38 87 39 81 40 83 41 34 42 86 43 80 44 79 45
REMARK SMILES IDX 35 47 67 48 47 49 66 50 48 51 51 52 65 53 84 54 49 55 50 56
REMARK SMILES IDX 64 58 85 59 52 60 36 61 37 62 45 63 38 64 39 65 43 66 46 67
REMARK SMILES IDX 40 68 41 69 44 70 42 71 68 72 69 73 77 74 70 75 71 76 75 77
REMARK SMILES IDX 78 78 72 79 73 80 76 81 74 82 53 83 54 84 62 85 55 86 56 87
REMARK SMILES IDX 60 88 63 89 57 90 58 91 61 92 59 93
REMARK H PARENT 83 46 51 57
REMARK Flexibility Score: 80.00
ROOT
ATOM      1  O   UNL     1       1.365  -0.733   1.141  1.00  0.00    -0.251 OA
ATOM      2  C   UNL     1       2.524  -0.527   0.780  1.00  0.00     0.316 C 
ENDROOT
BRANCH   2   3
ATOM      3  C   UNL     1       3.293   0.651   1.327  1.00  0.00     0.200 C 
BRANCH   3   4
ATOM      4  S   UNL     1       4.350   0.281   2.733  1.00  0.00    -0.076 SA
BRANCH   4   5
ATOM      5  C   UNL     1       3.214  -0.443   3.806  1.00  0.00     0.171 A 
ATOM      6  N   UNL     1       3.222  -1.731   4.046  1.00  0.00    -0.221 NA
ATOM      7  N   UNL     1       2.227   0.235   4.489  1.00  0.00    -0.301 N 
ATOM      8  C   UNL     1       2.222  -1.911   4.954  1.00  0.00     0.109 A 
ATOM      9  C   UNL     1       1.618  -0.701   5.292  1.00  0.00     0.160 A 
ATOM     10  C   UNL     1       1.757  -3.082   5.557  1.00  0.00     0.034 A 
ATOM     11  N   UNL     1       0.628  -0.510   6.187  1.00  0.00    -0.237 NA
ATOM     12  C   UNL     1       0.738  -2.945   6.497  1.00  0.00     0.022 A 
ATOM     13  C   UNL     1       0.237  -1.674   6.771  1.00  0.00     0.113 A 
BRANCH   7  14
ATOM     14  C   UNL     1       1.790   1.616   4.273  1.00  0.00     0.091 C 
BRANCH  14  15
ATOM     15  C   UNL     1       0.435   1.678   3.538  1.00  0.00     0.025 C 
BRANCH  15  16
ATOM     16  C   UNL     1      -0.703   2.401   4.251  1.00  0.00     0.002 C 
BRANCH  16  17
ATOM     17  C   UNL     1      -0.589   3.921   4.167  1.00  0.00     0.000 C 
BRANCH  17  18
ATOM     18  C   UNL     1       0.407   4.554   5.133  1.00  0.00     0.000 CG0
ATOM     19  G   UNL     1       1.834   4.020   5.072  1.00  0.00     0.000 G0
ENDBRANCH  17  18
ENDBRANCH  16  17
ENDBRANCH  15  16
ENDBRANCH  14  15
BRANCH  14  20
ATOM     20  C   UNL     1       1.972   2.545   5.479  1.00  0.00     0.025 C 
BRANCH  20  21
ATOM     21  C   UNL     1       1.834   4.020   5.072  1.00  0.00     0.002 CG0
ATOM     22  G   UNL     1       0.407   4.554   5.133  1.00  0.00     0.000 G0
ENDBRANCH  20  21
ENDBRANCH  14  20
ENDBRANCH   7  14
ENDBRANCH   4   5
ENDBRANCH   3   4
ENDBRANCH   2   3
BRANCH   2  23
ATOM     23  O   UNL     1       3.103  -1.323  -0.149  1.00  0.00    -0.461 OA
BRANCH  23  24
ATOM     24  C   UNL     1       4.466  -1.208  -0.600  1.00  0.00     0.274 C 
BRANCH  24  25
ATOM     25  C   UNL     1       4.585  -0.387  -1.878  1.00  0.00     0.275 C 
BRANCH  25  26
ATOM     26  O   UNL     1       4.355   0.999  -1.632  1.00  0.00    -0.458 OA
BRANCH  26  27
ATOM     27  C   UNL     1       3.082   1.454  -1.729  1.00  0.00     0.338 C 
ATOM     28  O   UNL     1       2.080   0.807  -1.931  1.00  0.00    -0.246 OA
BRANCH  27  29
ATOM     29  C   UNL     1       3.123   2.920  -1.573  1.00  0.00     0.060 A 
ATOM     30  C   UNL     1       1.928   3.632  -1.696  1.00  0.00     0.016 A 
ATOM     31  C   UNL     1       4.364   3.572  -1.516  1.00  0.00     0.016 A 
ATOM     32  C   UNL     1       1.998   4.974  -2.015  1.00  0.00     0.010 A 
ATOM     33  C   UNL     1       4.436   4.896  -1.862  1.00  0.00     0.010 A 
ATOM     34  C   UNL     1       3.259   5.550  -2.205  1.00  0.00    -0.014 A 
BRANCH  34  35
ATOM     35  C   UNL     1       3.354   6.880  -2.760  1.00  0.00     0.031 A 
ATOM     36  C   UNL     1       3.149   7.949  -1.762  1.00  0.00     0.074 A 
ATOM     37  C   UNL     1       3.704   7.089  -4.045  1.00  0.00     0.049 A 
ATOM     38  N   UNL     1       2.137   8.745  -1.675  1.00  0.00    -0.248 NA
ATOM     39  C   UNL     1       4.085   8.041  -0.631  1.00  0.00     0.031 C 
ATOM     40  C   UNL     1       4.181   6.125  -5.042  1.00  0.00     0.029 A 
ATOM     41  N   UNL     1       3.754   8.267  -4.721  1.00  0.00    -0.354 N 
ATOM     42  C   UNL     1       2.396   9.567  -0.586  1.00  0.00     0.074 A 
ATOM     43  C   UNL     1       3.503   8.978   0.118  1.00  0.00     0.031 C 
ATOM     44  C   UNL     1       4.665   6.790  -6.119  1.00  0.00     0.029 A 
ATOM     45  C   UNL     1       4.401   8.209  -5.951  1.00  0.00     0.049 A 
ATOM     46  H   UNL     1       3.362   9.098  -4.367  1.00  0.00     0.167 HD
ATOM     47  C   UNL     1       1.827  10.799  -0.496  1.00  0.00     0.037 A 
ATOM     48  C   UNL     1       4.721   9.276  -6.728  1.00  0.00     0.037 A 
ATOM     49  C   UNL     1       0.696  10.913  -1.380  1.00  0.00     0.049 A 
ATOM     50  C   UNL     1       3.834  10.395  -6.311  1.00  0.00     0.074 A 
ATOM     51  C   UNL     1      -0.531  10.285  -1.465  1.00  0.00     0.029 A 
ATOM     52  N   UNL     1       0.899  11.502  -2.604  1.00  0.00    -0.354 N 
ATOM     53  N   UNL     1       2.544  10.396  -6.499  1.00  0.00    -0.248 NA
ATOM     54  C   UNL     1       4.316  11.269  -5.252  1.00  0.00     0.031 C 
ATOM     55  C   UNL     1      -0.770  10.124  -2.861  1.00  0.00     0.029 A 
ATOM     56  C   UNL     1       0.284  10.724  -3.551  1.00  0.00     0.049 A 
ATOM     57  H   UNL     1       1.398  12.334  -2.771  1.00  0.00     0.167 HD
ATOM     58  C   UNL     1       2.018  10.922  -5.327  1.00  0.00     0.074 A 
ATOM     59  C   UNL     1       3.162  11.496  -4.619  1.00  0.00     0.031 C 
ATOM     60  C   UNL     1       0.765  10.583  -4.906  1.00  0.00     0.037 A 
BRANCH  47  61
ATOM     61  C   UNL     1       2.508  12.000   0.105  1.00  0.00     0.064 A 
ATOM     62  C   UNL     1       1.771  13.185   0.287  1.00  0.00     0.173 A 
ATOM     63  C   UNL     1       3.908  12.126   0.236  1.00  0.00     0.173 A 
ATOM     64  F   UNL     1       0.435  13.186   0.161  1.00  0.00    -0.203 F 
ATOM     65  C   UNL     1       2.397  14.414   0.514  1.00  0.00     0.198 A 
ATOM     66  C   UNL     1       4.525  13.342   0.517  1.00  0.00     0.198 A 
ATOM     67  F   UNL     1       4.744  11.111  -0.015  1.00  0.00    -0.203 F 
ATOM     68  F   UNL     1       1.664  15.534   0.558  1.00  0.00    -0.200 F 
ATOM     69  C   UNL     1       3.773  14.492   0.625  1.00  0.00     0.200 A 
ATOM     70  F   UNL     1       5.862  13.399   0.598  1.00  0.00    -0.200 F 
ATOM     71  F   UNL     1       4.378  15.675   0.785  1.00  0.00    -0.200 F 
ENDBRANCH  47  61
BRANCH  48  72
ATOM     72  C   UNL     1       5.976   9.520  -7.488  1.00  0.00     0.064 A 
ATOM     73  C   UNL     1       6.067  10.579  -8.410  1.00  0.00     0.173 A 
ATOM     74  C   UNL     1       7.192   8.929  -7.097  1.00  0.00     0.173 A 
ATOM     75  F   UNL     1       4.961  11.228  -8.802  1.00  0.00    -0.203 F 
ATOM     76  C   UNL     1       7.303  11.043  -8.879  1.00  0.00     0.198 A 
ATOM     77  C   UNL     1       8.424   9.391  -7.567  1.00  0.00     0.198 A 
ATOM     78  F   UNL     1       7.219   7.959  -6.172  1.00  0.00    -0.203 F 
ATOM     79  F   UNL     1       7.353  12.100  -9.702  1.00  0.00    -0.200 F 
ATOM     80  C   UNL     1       8.480  10.458  -8.445  1.00  0.00     0.200 A 
ATOM     81  F   UNL     1       9.558   8.843  -7.109  1.00  0.00    -0.200 F 
ATOM     82  F   UNL     1       9.666  10.947  -8.836  1.00  0.00    -0.200 F 
ENDBRANCH  48  72
BRANCH  60  83
ATOM     83  C   UNL     1      -0.108   9.810  -5.858  1.00  0.00     0.064 A 
ATOM     84  C   UNL     1       0.170   8.504  -6.300  1.00  0.00     0.173 A 
ATOM     85  C   UNL     1      -1.351  10.354  -6.206  1.00  0.00     0.173 A 
ATOM     86  F   UNL     1       1.294   7.876  -5.933  1.00  0.00    -0.203 F 
ATOM     87  C   UNL     1      -0.742   7.793  -7.082  1.00  0.00     0.198 A 
ATOM     88  C   UNL     1      -2.274   9.630  -6.955  1.00  0.00     0.198 A 
ATOM     89  F   UNL     1      -1.693  11.576  -5.768  1.00  0.00    -0.203 F 
ATOM     90  F   UNL     1      -0.451   6.550  -7.493  1.00  0.00    -0.200 F 
ATOM     91  C   UNL     1      -1.967   8.354  -7.400  1.00  0.00     0.200 A 
ATOM     92  F   UNL     1      -3.477  10.159  -7.218  1.00  0.00    -0.200 F 
ATOM     93  F   UNL     1      -2.864   7.656  -8.110  1.00  0.00    -0.200 F 
ENDBRANCH  60  83
ENDBRANCH  34  35
ENDBRANCH  27  29
ENDBRANCH  26  27
ENDBRANCH  25  26
ENDBRANCH  24  25
ENDBRANCH  23  24
ENDBRANCH   2  23
TORSDOF 14
