REMARK SMILES COc1ccc(-n2c(=O)[nH]c3cc(C(=O)OCCOC(=O)c4ccc(-c5c6nc(c(-c7c(F)c(F)c(F)c(F)c7F)c7ccc([nH]7)c(-c7c(F)c(F)c(F)c(F)c7F)c7nc(c(-c8c(F)c(F)c(F)c(F)c8F)c8ccc5[nH]8)C=C7)C=C6)cc4)ccc3c2=O)cc1
REMARK SMILES IDX 17 1 16 2 14 3 15 4 13 5 7 6 8 7 88 8 9 9 10 10 87 11 89 12
REMARK SMILES IDX 11 13 86 15 12 16 85 17 6 18 3 19 4 20 91 21 5 22 90 23 2 24
REMARK SMILES IDX 1 25 18 26 19 27 20 28 21 29 22 30 23 31 84 32 24 33 83 34
REMARK SMILES IDX 25 35 26 36 27 37 77 38 28 39 82 40 76 41 78 42 29 43 81 44
REMARK SMILES IDX 75 45 74 46 30 48 62 49 42 50 61 51 43 52 46 53 60 54 79 55
REMARK SMILES IDX 44 56 45 57 59 59 80 60 47 61 31 62 32 63 40 64 33 65 34 66
REMARK SMILES IDX 38 67 41 68 35 69 36 70 39 71 37 72 63 73 64 74 72 75 65 76
REMARK SMILES IDX 66 77 70 78 73 79 67 80 68 81 71 82 69 83 48 84 49 85 57 86
REMARK SMILES IDX 50 87 51 88 55 89 58 90 52 91 53 92 56 93 54 94
REMARK H PARENT 10 14 78 47 46 58
REMARK Flexibility Score: inf
ROOT
ATOM      1  C   UNL     1       1.318  -5.529 -13.835  1.00  0.00     0.275 C 
ENDROOT
BRANCH   1   2
ATOM      2  O   UNL     1       0.955  -4.660 -12.739  1.00  0.00    -0.458 OA
BRANCH   2   3
ATOM      3  C   UNL     1       1.355  -5.088 -11.521  1.00  0.00     0.338 C 
ATOM      4  O   UNL     1       1.963  -6.118 -11.269  1.00  0.00    -0.246 OA
BRANCH   3   5
ATOM      5  C   UNL     1       1.079  -4.087 -10.471  1.00  0.00     0.062 A 
ATOM      6  N   UNL     1       1.499  -1.844  -5.992  1.00  0.00    -0.228 N 
ATOM      7  C   UNL     1       2.807  -2.109  -6.410  1.00  0.00     0.333 A 
ATOM      8  C   UNL     1       0.433  -1.807  -6.918  1.00  0.00     0.268 A 
ATOM      9  O   UNL     1       3.860  -1.888  -5.813  1.00  0.00    -0.247 OA
ATOM     10  N   UNL     1       2.941  -2.740  -7.612  1.00  0.00    -0.306 N 
ATOM     11  C   UNL     1       0.638  -2.498  -8.211  1.00  0.00     0.064 A 
ATOM     12  O   UNL     1      -0.649  -1.243  -6.761  1.00  0.00    -0.268 OA
ATOM     13  C   UNL     1       1.888  -3.024  -8.458  1.00  0.00     0.056 A 
ATOM     14  H   UNL     1       3.845  -3.008  -7.895  1.00  0.00     0.171 HD
ATOM     15  C   UNL     1      -0.391  -2.696  -9.148  1.00  0.00     0.017 A 
ATOM     16  C   UNL     1       2.102  -3.841  -9.554  1.00  0.00     0.042 A 
ATOM     17  C   UNL     1      -0.166  -3.481 -10.293  1.00  0.00     0.016 A 
BRANCH   6  18
ATOM     18  C   UNL     1       1.230  -1.586  -4.589  1.00  0.00     0.054 A 
ATOM     19  C   UNL     1       0.696  -1.273  -1.815  1.00  0.00     0.119 A 
ATOM     20  C   UNL     1      -0.298  -1.720  -2.675  1.00  0.00     0.048 A 
ATOM     21  C   UNL     1       1.965  -1.019  -2.316  1.00  0.00     0.048 A 
ATOM     22  C   UNL     1      -0.037  -1.864  -4.044  1.00  0.00     0.031 A 
ATOM     23  C   UNL     1       2.223  -1.166  -3.686  1.00  0.00     0.031 A 
BRANCH  19  24
ATOM     24  O   UNL     1       0.358  -1.155  -0.496  1.00  0.00    -0.497 OA
ATOM     25  C   UNL     1       0.883   0.021   0.117  1.00  0.00     0.278 C 
ENDBRANCH  19  24
ENDBRANCH   6  18
ENDBRANCH   3   5
ENDBRANCH   2   3
ENDBRANCH   1   2
BRANCH   1  26
ATOM     26  C   UNL     1       2.566  -5.020 -14.558  1.00  0.00     0.275 C 
BRANCH  26  27
ATOM     27  O   UNL     1       3.716  -5.098 -13.692  1.00  0.00    -0.458 OA
BRANCH  27  28
ATOM     28  C   UNL     1       4.349  -3.929 -13.447  1.00  0.00     0.338 C 
ATOM     29  O   UNL     1       4.074  -2.827 -13.892  1.00  0.00    -0.246 OA
BRANCH  28  30
ATOM     30  C   UNL     1       5.445  -4.128 -12.479  1.00  0.00     0.060 A 
ATOM     31  C   UNL     1       5.158  -4.663 -11.230  1.00  0.00     0.016 A 
ATOM     32  C   UNL     1       6.715  -3.616 -12.733  1.00  0.00     0.016 A 
ATOM     33  C   UNL     1       6.069  -4.527 -10.183  1.00  0.00     0.010 A 
ATOM     34  C   UNL     1       7.685  -3.633 -11.721  1.00  0.00     0.010 A 
ATOM     35  C   UNL     1       7.362  -4.033 -10.410  1.00  0.00    -0.014 A 
BRANCH  35  36
ATOM     36  C   UNL     1       8.354  -3.911  -9.291  1.00  0.00     0.031 A 
ATOM     37  C   UNL     1       9.099  -2.614  -9.062  1.00  0.00     0.074 A 
ATOM     38  C   UNL     1       8.607  -4.951  -8.467  1.00  0.00     0.049 A 
ATOM     39  N   UNL     1      10.151  -2.378  -8.315  1.00  0.00    -0.248 NA
ATOM     40  C   UNL     1       8.612  -1.428  -9.786  1.00  0.00     0.031 C 
ATOM     41  C   UNL     1       7.955  -6.261  -8.521  1.00  0.00     0.029 A 
ATOM     42  N   UNL     1       9.484  -5.071  -7.412  1.00  0.00    -0.354 N 
ATOM     43  C   UNL     1      10.497  -1.051  -8.545  1.00  0.00     0.074 A 
ATOM     44  C   UNL     1       9.538  -0.526  -9.493  1.00  0.00     0.031 C 
ATOM     45  C   UNL     1       8.408  -7.026  -7.517  1.00  0.00     0.029 A 
ATOM     46  C   UNL     1       9.470  -6.312  -6.821  1.00  0.00     0.049 A 
ATOM     47  H   UNL     1      10.066  -4.337  -7.110  1.00  0.00     0.167 HD
ATOM     48  C   UNL     1      11.522  -0.337  -8.018  1.00  0.00     0.037 A 
ATOM     49  C   UNL     1      10.257  -6.850  -5.869  1.00  0.00     0.037 A 
ATOM     50  C   UNL     1      12.418  -0.825  -7.000  1.00  0.00     0.049 A 
ATOM     51  C   UNL     1      11.389  -6.041  -5.303  1.00  0.00     0.074 A 
ATOM     52  C   UNL     1      13.453  -0.155  -6.369  1.00  0.00     0.029 A 
ATOM     53  N   UNL     1      12.369  -2.095  -6.446  1.00  0.00    -0.354 N 
ATOM     54  N   UNL     1      11.740  -4.808  -5.574  1.00  0.00    -0.248 NA
ATOM     55  C   UNL     1      12.252  -6.708  -4.318  1.00  0.00     0.031 C 
ATOM     56  C   UNL     1      14.056  -1.032  -5.462  1.00  0.00     0.029 A 
ATOM     57  C   UNL     1      13.367  -2.233  -5.494  1.00  0.00     0.049 A 
ATOM     58  H   UNL     1      11.721  -2.794  -6.691  1.00  0.00     0.167 HD
ATOM     59  C   UNL     1      12.852  -4.549  -4.785  1.00  0.00     0.074 A 
ATOM     60  C   UNL     1      13.105  -5.743  -4.009  1.00  0.00     0.031 C 
ATOM     61  C   UNL     1      13.602  -3.423  -4.719  1.00  0.00     0.037 A 
BRANCH  48  62
ATOM     62  C   UNL     1      11.768   1.046  -8.551  1.00  0.00     0.064 A 
ATOM     63  C   UNL     1      10.936   2.130  -8.238  1.00  0.00     0.173 A 
ATOM     64  C   UNL     1      12.904   1.298  -9.338  1.00  0.00     0.173 A 
ATOM     65  F   UNL     1       9.834   1.943  -7.497  1.00  0.00    -0.203 F 
ATOM     66  C   UNL     1      11.221   3.410  -8.710  1.00  0.00     0.198 A 
ATOM     67  C   UNL     1      13.201   2.583  -9.784  1.00  0.00     0.198 A 
ATOM     68  F   UNL     1      13.740   0.298  -9.658  1.00  0.00    -0.203 F 
ATOM     69  F   UNL     1      10.392   4.425  -8.431  1.00  0.00    -0.200 F 
ATOM     70  C   UNL     1      12.356   3.637  -9.475  1.00  0.00     0.200 A 
ATOM     71  F   UNL     1      14.307   2.801 -10.510  1.00  0.00    -0.200 F 
ATOM     72  F   UNL     1      12.634   4.871  -9.917  1.00  0.00    -0.200 F 
ENDBRANCH  48  62
BRANCH  49  73
ATOM     73  C   UNL     1      10.043  -8.258  -5.434  1.00  0.00     0.064 A 
ATOM     74  C   UNL     1       9.615  -8.556  -4.134  1.00  0.00     0.173 A 
ATOM     75  C   UNL     1      10.275  -9.333  -6.306  1.00  0.00     0.173 A 
ATOM     76  F   UNL     1       9.409  -7.566  -3.253  1.00  0.00    -0.203 F 
ATOM     77  C   UNL     1       9.441  -9.875  -3.718  1.00  0.00     0.198 A 
ATOM     78  C   UNL     1      10.065 -10.649  -5.901  1.00  0.00     0.198 A 
ATOM     79  F   UNL     1      10.688  -9.104  -7.561  1.00  0.00    -0.203 F 
ATOM     80  F   UNL     1       9.081 -10.134  -2.453  1.00  0.00    -0.200 F 
ATOM     81  C   UNL     1       9.658 -10.919  -4.604  1.00  0.00     0.200 A 
ATOM     82  F   UNL     1      10.260 -11.653  -6.766  1.00  0.00    -0.200 F 
ATOM     83  F   UNL     1       9.483 -12.187  -4.206  1.00  0.00    -0.200 F 
ENDBRANCH  49  73
BRANCH  61  84
ATOM     84  C   UNL     1      14.744  -3.417  -3.746  1.00  0.00     0.064 A 
ATOM     85  C   UNL     1      15.917  -4.146  -3.986  1.00  0.00     0.173 A 
ATOM     86  C   UNL     1      14.672  -2.652  -2.572  1.00  0.00     0.173 A 
ATOM     87  F   UNL     1      16.026  -4.907  -5.085  1.00  0.00    -0.203 F 
ATOM     88  C   UNL     1      16.968  -4.130  -3.073  1.00  0.00     0.198 A 
ATOM     89  C   UNL     1      15.735  -2.616  -1.675  1.00  0.00     0.198 A 
ATOM     90  F   UNL     1      13.572  -1.933  -2.300  1.00  0.00    -0.203 F 
ATOM     91  F   UNL     1      18.060  -4.872  -3.298  1.00  0.00    -0.200 F 
ATOM     92  C   UNL     1      16.878  -3.361  -1.922  1.00  0.00     0.200 A 
ATOM     93  F   UNL     1      15.651  -1.865  -0.569  1.00  0.00    -0.200 F 
ATOM     94  F   UNL     1      17.892  -3.344  -1.046  1.00  0.00    -0.200 F 
ENDBRANCH  61  84
ENDBRANCH  35  36
ENDBRANCH  28  30
ENDBRANCH  27  28
ENDBRANCH  26  27
ENDBRANCH   1  26
TORSDOF 13
