REMARK SMILES CN1C(=O)/C(=C(\SC2=[NH+][C@@H]3N=c4ccccc4=C3N=N2)C(=O)OCCOC(=O)c2ccc(-c3c4nc(c(-c5c(F)c(F)c(F)c(F)c5F)c5ccc([nH]5)c(-c5c(F)c(F)c(F)c(F)c5F)c5nc(c(-c6c(F)c(F)c(F)c(F)c6F)c6ccc3[nH]6)C=C5)C=C4)cc2)c2ccccc21
REMARK SMILES IDX 24 1 23 2 21 3 22 4 6 5 1 6 2 7 3 8 97 9 4 10 5 11 92 12
REMARK SMILES IDX 96 13 93 14 95 15 94 16 7 17 8 18 9 19 20 20 10 21 19 23
REMARK SMILES IDX 11 24 18 25 12 26 17 27 13 28 16 29 14 30 15 31 25 32 26 33
REMARK SMILES IDX 27 34 28 35 29 36 30 37 91 38 31 39 90 40 32 41 33 42 34 43
REMARK SMILES IDX 84 44 35 45 89 46 83 47 85 48 36 49 88 50 82 51 81 52 37 54
REMARK SMILES IDX 69 55 49 56 68 57 50 58 53 59 67 60 86 61 51 62 52 63 66 65
REMARK SMILES IDX 87 66 54 67 38 68 39 69 47 70 40 71 41 72 45 73 48 74 42 75
REMARK SMILES IDX 43 76 46 77 44 78 70 79 71 80 79 81 72 82 73 83 77 84 80 85
REMARK SMILES IDX 74 86 75 87 78 88 76 89 55 90 56 91 64 92 57 93 58 94 62 95
REMARK SMILES IDX 65 96 59 97 60 98 63 99 61 100
REMARK H PARENT 9 22 85 53 53 64
REMARK Flexibility Score: inf
ROOT
ATOM      1  C   UNL     1       0.335   5.328  -0.401  1.00  0.00     0.275 C 
ENDROOT
BRANCH   1   2
ATOM      2  O   UNL     1       0.982   4.037  -0.440  1.00  0.00    -0.458 OA
BRANCH   2   3
ATOM      3  C   UNL     1       1.096   3.405   0.759  1.00  0.00     0.346 C 
ATOM      4  O   UNL     1       0.601   3.797   1.809  1.00  0.00    -0.246 OA
BRANCH   3   5
ATOM      5  C   UNL     1       1.989   2.207   0.692  1.00  0.00     0.118 C 
ATOM      6  C   UNL     1       1.894  -2.604   0.930  1.00  0.00     0.153 C 
ATOM      7  N   UNL     1       1.476  -1.247   1.162  1.00  0.00    -0.311 N 
ATOM      8  C   UNL     1       2.336  -0.188   1.440  1.00  0.00     0.260 C 
ATOM      9  C   UNL     1       0.149  -0.807   1.231  1.00  0.00     0.052 A 
ATOM     10  O   UNL     1       3.482  -0.218   1.846  1.00  0.00    -0.269 OA
ATOM     11  C   UNL     1       1.518   1.047   1.202  1.00  0.00     0.071 C 
ATOM     12  C   UNL     1       0.124   0.592   1.397  1.00  0.00     0.012 A 
ATOM     13  C   UNL     1      -0.986  -1.595   1.307  1.00  0.00     0.027 A 
ATOM     14  C   UNL     1      -1.052   1.207   1.766  1.00  0.00     0.011 A 
ATOM     15  C   UNL     1      -2.161  -0.974   1.708  1.00  0.00     0.002 A 
ATOM     16  C   UNL     1      -2.178   0.406   1.965  1.00  0.00     0.001 A 
BRANCH   5  17
ATOM     17  S   UNL     1       3.583   2.639   0.104  1.00  0.00     0.013 SA
BRANCH  17  18
ATOM     18  C   UNL     1       4.444   1.207  -0.462  1.00  0.00     0.386 C 
ATOM     19  N   UNL     1       5.733   1.292  -0.448  1.00  0.00    -0.235 N 
ATOM     20  N   UNL     1       3.718   0.107  -0.868  1.00  0.00     0.088 NA
ATOM     21  C   UNL     1       6.420   0.018  -0.399  1.00  0.00     0.348 C 
ATOM     22  H   UNL     1       6.210   2.153  -0.470  1.00  0.00     0.308 HD
ATOM     23  N   UNL     1       4.191  -1.035  -0.660  1.00  0.00    -0.033 NA
ATOM     24  N   UNL     1       7.405  -0.260  -1.466  1.00  0.00    -0.232 NA
ATOM     25  C   UNL     1       5.524  -1.160  -0.424  1.00  0.00     0.165 C 
ATOM     26  C   UNL     1       7.265  -1.555  -1.584  1.00  0.00     0.072 A 
ATOM     27  C   UNL     1       6.215  -2.233  -0.786  1.00  0.00     0.032 A 
ATOM     28  C   UNL     1       7.950  -2.425  -2.572  1.00  0.00     0.029 A 
ATOM     29  C   UNL     1       5.879  -3.609  -0.954  1.00  0.00     0.012 A 
ATOM     30  C   UNL     1       7.598  -3.721  -2.669  1.00  0.00     0.002 A 
ATOM     31  C   UNL     1       6.585  -4.338  -1.828  1.00  0.00     0.001 A 
ENDBRANCH  17  18
ENDBRANCH   5  17
ENDBRANCH   3   5
ENDBRANCH   2   3
ENDBRANCH   1   2
BRANCH   1  32
ATOM     32  C   UNL     1      -0.558   5.537  -1.623  1.00  0.00     0.275 C 
BRANCH  32  33
ATOM     33  O   UNL     1      -1.644   4.593  -1.604  1.00  0.00    -0.458 OA
BRANCH  33  34
ATOM     34  C   UNL     1      -1.418   3.454  -2.303  1.00  0.00     0.338 C 
ATOM     35  O   UNL     1      -0.463   3.208  -3.018  1.00  0.00    -0.246 OA
BRANCH  34  36
ATOM     36  C   UNL     1      -2.442   2.449  -1.948  1.00  0.00     0.060 A 
ATOM     37  C   UNL     1      -3.785   2.780  -1.730  1.00  0.00     0.016 A 
ATOM     38  C   UNL     1      -2.020   1.125  -1.823  1.00  0.00     0.016 A 
ATOM     39  C   UNL     1      -4.702   1.783  -1.367  1.00  0.00     0.010 A 
ATOM     40  C   UNL     1      -2.928   0.143  -1.433  1.00  0.00     0.010 A 
ATOM     41  C   UNL     1      -4.276   0.460  -1.185  1.00  0.00    -0.014 A 
BRANCH  41  42
ATOM     42  C   UNL     1      -5.206  -0.627  -0.774  1.00  0.00     0.031 A 
ATOM     43  C   UNL     1      -5.682  -0.766   0.646  1.00  0.00     0.074 A 
ATOM     44  C   UNL     1      -5.524  -1.578  -1.671  1.00  0.00     0.049 A 
ATOM     45  N   UNL     1      -6.213  -1.804   1.246  1.00  0.00    -0.248 NA
ATOM     46  C   UNL     1      -5.471   0.383   1.531  1.00  0.00     0.031 C 
ATOM     47  C   UNL     1      -5.135  -1.570  -3.080  1.00  0.00     0.029 A 
ATOM     48  N   UNL     1      -6.237  -2.739  -1.522  1.00  0.00    -0.354 N 
ATOM     49  C   UNL     1      -6.279  -1.475   2.597  1.00  0.00     0.074 A 
ATOM     50  C   UNL     1      -5.755  -0.134   2.721  1.00  0.00     0.031 C 
ATOM     51  C   UNL     1      -5.616  -2.675  -3.671  1.00  0.00     0.029 A 
ATOM     52  C   UNL     1      -6.343  -3.465  -2.681  1.00  0.00     0.049 A 
ATOM     53  H   UNL     1      -6.633  -3.025  -0.667  1.00  0.00     0.167 HD
ATOM     54  C   UNL     1      -6.729  -2.233   3.629  1.00  0.00     0.037 A 
ATOM     55  C   UNL     1      -6.979  -4.626  -2.921  1.00  0.00     0.037 A 
ATOM     56  C   UNL     1      -7.442  -3.476   3.456  1.00  0.00     0.049 A 
ATOM     57  C   UNL     1      -7.715  -5.313  -1.807  1.00  0.00     0.074 A 
ATOM     58  C   UNL     1      -8.092  -4.237   4.415  1.00  0.00     0.029 A 
ATOM     59  N   UNL     1      -7.655  -4.105   2.239  1.00  0.00    -0.354 N 
ATOM     60  N   UNL     1      -7.748  -5.011  -0.533  1.00  0.00    -0.248 NA
ATOM     61  C   UNL     1      -8.522  -6.486  -2.169  1.00  0.00     0.031 C 
ATOM     62  C   UNL     1      -8.697  -5.325   3.779  1.00  0.00     0.029 A 
ATOM     63  C   UNL     1      -8.454  -5.222   2.420  1.00  0.00     0.049 A 
ATOM     64  H   UNL     1      -7.293  -3.802   1.375  1.00  0.00     0.167 HD
ATOM     65  C   UNL     1      -8.592  -5.942   0.056  1.00  0.00     0.074 A 
ATOM     66  C   UNL     1      -9.067  -6.807  -1.003  1.00  0.00     0.031 C 
ATOM     67  C   UNL     1      -8.934  -6.069   1.360  1.00  0.00     0.037 A 
BRANCH  54  68
ATOM     68  C   UNL     1      -6.513  -1.761   5.044  1.00  0.00     0.064 A 
ATOM     69  C   UNL     1      -7.159  -0.635   5.572  1.00  0.00     0.173 A 
ATOM     70  C   UNL     1      -5.739  -2.537   5.928  1.00  0.00     0.173 A 
ATOM     71  F   UNL     1      -7.918   0.140   4.783  1.00  0.00    -0.203 F 
ATOM     72  C   UNL     1      -7.024  -0.291   6.916  1.00  0.00     0.198 A 
ATOM     73  C   UNL     1      -5.642  -2.216   7.280  1.00  0.00     0.198 A 
ATOM     74  F   UNL     1      -5.109  -3.638   5.488  1.00  0.00    -0.203 F 
ATOM     75  F   UNL     1      -7.624   0.812   7.385  1.00  0.00    -0.200 F 
ATOM     76  C   UNL     1      -6.281  -1.089   7.772  1.00  0.00     0.200 A 
ATOM     77  F   UNL     1      -4.950  -3.009   8.110  1.00  0.00    -0.200 F 
ATOM     78  F   UNL     1      -6.187  -0.777   9.072  1.00  0.00    -0.200 F 
ENDBRANCH  54  68
BRANCH  55  79
ATOM     79  C   UNL     1      -7.046  -5.128  -4.312  1.00  0.00     0.064 A 
ATOM     80  C   UNL     1      -8.217  -4.948  -5.061  1.00  0.00     0.173 A 
ATOM     81  C   UNL     1      -5.945  -5.724  -4.940  1.00  0.00     0.173 A 
ATOM     82  F   UNL     1      -9.295  -4.389  -4.492  1.00  0.00    -0.203 F 
ATOM     83  C   UNL     1      -8.288  -5.355  -6.389  1.00  0.00     0.198 A 
ATOM     84  C   UNL     1      -6.011  -6.112  -6.276  1.00  0.00     0.198 A 
ATOM     85  F   UNL     1      -4.800  -5.898  -4.266  1.00  0.00    -0.203 F 
ATOM     86  F   UNL     1      -9.426  -5.190  -7.077  1.00  0.00    -0.200 F 
ATOM     87  C   UNL     1      -7.183  -5.930  -6.998  1.00  0.00     0.200 A 
ATOM     88  F   UNL     1      -4.938  -6.651  -6.870  1.00  0.00    -0.200 F 
ATOM     89  F   UNL     1      -7.247  -6.306  -8.283  1.00  0.00    -0.200 F 
ENDBRANCH  55  79
BRANCH  67  90
ATOM     90  C   UNL     1      -9.886  -7.167   1.726  1.00  0.00     0.064 A 
ATOM     91  C   UNL     1      -9.479  -8.508   1.754  1.00  0.00     0.173 A 
ATOM     92  C   UNL     1     -11.200  -6.868   2.118  1.00  0.00     0.173 A 
ATOM     93  F   UNL     1      -8.235  -8.843   1.381  1.00  0.00    -0.203 F 
ATOM     94  C   UNL     1     -10.359  -9.514   2.144  1.00  0.00     0.198 A 
ATOM     95  C   UNL     1     -12.070  -7.874   2.529  1.00  0.00     0.198 A 
ATOM     96  F   UNL     1     -11.634  -5.599   2.117  1.00  0.00    -0.203 F 
ATOM     97  F   UNL     1      -9.958 -10.793   2.132  1.00  0.00    -0.200 F 
ATOM     98  C   UNL     1     -11.650  -9.196   2.538  1.00  0.00     0.200 A 
ATOM     99  F   UNL     1     -13.313  -7.564   2.921  1.00  0.00    -0.200 F 
ATOM    100  F   UNL     1     -12.492 -10.165   2.922  1.00  0.00    -0.200 F 
ENDBRANCH  67  90
ENDBRANCH  41  42
ENDBRANCH  34  36
ENDBRANCH  33  34
ENDBRANCH  32  33
ENDBRANCH   1  32
TORSDOF 13
