REMARK SMILES C[NH+]1CCC([N@@H+](C)Cc2ccc(C(=O)OCCOC(=O)c3ccc(-c4c5nc(c(-c6c(F)c(F)c(F)c(F)c6F)c6ccc([nH]6)c(-c6c(F)c(F)c(F)c(F)c6F)c6nc(c(-c7c(F)c(F)c(F)c(F)c7F)c7ccc4[nH]7)C=C6)C=C5)cc3)cn2)CC1
REMARK SMILES IDX 16 1 15 2 13 3 14 4 12 5 9 6 10 7 85 8 11 9 84 10 8 11 6 12
REMARK SMILES IDX 7 13 5 15 1 16 2 17 3 18 87 19 4 21 86 22 17 23 18 24 19 25
REMARK SMILES IDX 20 26 21 27 22 28 83 29 23 30 82 31 24 32 25 33 26 34 76 35
REMARK SMILES IDX 27 36 81 37 75 38 77 39 28 40 80 41 74 42 73 43 29 45 61 46
REMARK SMILES IDX 41 47 60 48 42 49 45 50 59 51 78 52 43 53 44 54 58 56 79 57
REMARK SMILES IDX 46 58 30 59 31 60 39 61 32 62 33 63 37 64 40 65 34 66 35 67
REMARK SMILES IDX 38 68 36 69 62 70 63 71 71 72 64 73 65 74 69 75 72 76 66 77
REMARK SMILES IDX 67 78 70 79 68 80 47 81 48 82 56 83 49 84 50 85 54 86 57 87
REMARK SMILES IDX 51 88 52 89 55 90 53 91
REMARK H PARENT 6 14 2 20 77 44 45 55
REMARK Flexibility Score: inf
ROOT
ATOM      1  C   UNL     1      -0.717   5.817   4.838  1.00  0.00     0.275 C 
ENDROOT
BRANCH   1   2
ATOM      2  O   UNL     1      -0.099   4.523   4.670  1.00  0.00    -0.458 OA
BRANCH   2   3
ATOM      3  C   UNL     1       0.443   4.310   3.450  1.00  0.00     0.339 C 
ATOM      4  O   UNL     1       0.381   5.056   2.488  1.00  0.00    -0.246 OA
BRANCH   3   5
ATOM      5  C   UNL     1       1.230   3.070   3.413  1.00  0.00     0.078 A 
ATOM      6  C   UNL     1       2.641   0.853   2.614  1.00  0.00     0.095 A 
ATOM      7  C   UNL     1       1.434   0.686   3.306  1.00  0.00     0.031 A 
ATOM      8  N   UNL     1       3.220   2.064   2.471  1.00  0.00    -0.254 NA
ATOM      9  C   UNL     1       0.714   1.817   3.713  1.00  0.00     0.019 A 
ATOM     10  C   UNL     1       2.490   3.131   2.843  1.00  0.00     0.127 A 
BRANCH   6  11
ATOM     11  C   UNL     1       3.255  -0.265   1.791  1.00  0.00     0.319 C 
BRANCH  11  12
ATOM     12  N   UNL     1       3.127  -0.154   0.312  1.00  0.00    -0.330 N 
ATOM     13  C   UNL     1       3.994   0.885  -0.247  1.00  0.00     0.333 C 
ATOM     14  H   UNL     1       3.466  -1.065   0.002  1.00  0.00     0.348 HD
BRANCH  12  15
ATOM     15  C   UNL     1       1.761  -0.131  -0.267  1.00  0.00     0.195 C 
ATOM     16  C   UNL     1      -2.567  -0.056  -0.260  1.00  0.00     0.332 C 
ATOM     17  N   UNL     1      -1.140  -0.034   0.052  1.00  0.00    -0.337 N 
ATOM     18  C   UNL     1      -0.474   1.088  -0.621  1.00  0.00     0.268 C 
ATOM     19  C   UNL     1      -0.499  -1.294  -0.338  1.00  0.00     0.268 C 
ATOM     20  H   UNL     1      -1.047   0.083   1.060  1.00  0.00     0.347 HD
ATOM     21  C   UNL     1       0.982   1.201  -0.171  1.00  0.00     0.126 C 
ATOM     22  C   UNL     1       0.924  -1.330   0.210  1.00  0.00     0.126 C 
ENDBRANCH  12  15
ENDBRANCH  11  12
ENDBRANCH   6  11
ENDBRANCH   3   5
ENDBRANCH   2   3
ENDBRANCH   1   2
BRANCH   1  23
ATOM     23  C   UNL     1       0.234   6.796   5.531  1.00  0.00     0.275 C 
BRANCH  23  24
ATOM     24  O   UNL     1       1.298   7.211   4.649  1.00  0.00    -0.458 OA
BRANCH  24  25
ATOM     25  C   UNL     1       2.477   6.582   4.844  1.00  0.00     0.338 C 
ATOM     26  O   UNL     1       2.727   5.716   5.668  1.00  0.00    -0.246 OA
BRANCH  25  27
ATOM     27  C   UNL     1       3.479   7.014   3.859  1.00  0.00     0.060 A 
ATOM     28  C   UNL     1       3.408   6.490   2.574  1.00  0.00     0.016 A 
ATOM     29  C   UNL     1       4.620   7.700   4.268  1.00  0.00     0.016 A 
ATOM     30  C   UNL     1       4.546   6.467   1.774  1.00  0.00     0.010 A 
ATOM     31  C   UNL     1       5.695   7.841   3.381  1.00  0.00     0.010 A 
ATOM     32  C   UNL     1       5.697   7.178   2.140  1.00  0.00    -0.014 A 
BRANCH  32  33
ATOM     33  C   UNL     1       6.880   7.229   1.226  1.00  0.00     0.031 A 
ATOM     34  C   UNL     1       8.264   6.891   1.726  1.00  0.00     0.074 A 
ATOM     35  C   UNL     1       6.720   7.589  -0.066  1.00  0.00     0.049 A 
ATOM     36  N   UNL     1       9.426   7.084   1.150  1.00  0.00    -0.248 NA
ATOM     37  C   UNL     1       8.356   6.275   3.058  1.00  0.00     0.031 C 
ATOM     38  C   UNL     1       5.442   7.903  -0.709  1.00  0.00     0.029 A 
ATOM     39  N   UNL     1       7.638   7.751  -1.077  1.00  0.00    -0.354 N 
ATOM     40  C   UNL     1      10.384   6.673   2.071  1.00  0.00     0.074 A 
ATOM     41  C   UNL     1       9.668   6.232   3.249  1.00  0.00     0.031 C 
ATOM     42  C   UNL     1       5.646   8.163  -2.006  1.00  0.00     0.029 A 
ATOM     43  C   UNL     1       7.079   8.164  -2.262  1.00  0.00     0.049 A 
ATOM     44  H   UNL     1       8.602   7.587  -0.962  1.00  0.00     0.167 HD
ATOM     45  C   UNL     1      11.734   6.665   1.942  1.00  0.00     0.037 A 
ATOM     46  C   UNL     1       7.646   8.564  -3.415  1.00  0.00     0.037 A 
ATOM     47  C   UNL     1      12.436   7.056   0.744  1.00  0.00     0.049 A 
ATOM     48  C   UNL     1       9.142   8.602  -3.514  1.00  0.00     0.074 A 
ATOM     49  C   UNL     1      13.799   7.061   0.503  1.00  0.00     0.029 A 
ATOM     50  N   UNL     1      11.826   7.503  -0.420  1.00  0.00    -0.354 N 
ATOM     51  N   UNL     1      10.038   8.258  -2.623  1.00  0.00    -0.248 NA
ATOM     52  C   UNL     1       9.706   9.102  -4.774  1.00  0.00     0.031 C 
ATOM     53  C   UNL     1      14.017   7.564  -0.784  1.00  0.00     0.029 A 
ATOM     54  C   UNL     1      12.787   7.810  -1.372  1.00  0.00     0.049 A 
ATOM     55  H   UNL     1      10.854   7.589  -0.551  1.00  0.00     0.167 HD
ATOM     56  C   UNL     1      11.271   8.478  -3.219  1.00  0.00     0.074 A 
ATOM     57  C   UNL     1      11.006   8.969  -4.556  1.00  0.00     0.031 C 
ATOM     58  C   UNL     1      12.510   8.292  -2.702  1.00  0.00     0.037 A 
BRANCH  45  59
ATOM     59  C   UNL     1      12.552   6.260   3.140  1.00  0.00     0.064 A 
ATOM     60  C   UNL     1      12.574   4.943   3.624  1.00  0.00     0.173 A 
ATOM     61  C   UNL     1      13.355   7.207   3.798  1.00  0.00     0.173 A 
ATOM     62  F   UNL     1      11.824   3.997   3.039  1.00  0.00    -0.203 F 
ATOM     63  C   UNL     1      13.335   4.599   4.740  1.00  0.00     0.198 A 
ATOM     64  C   UNL     1      14.142   6.852   4.891  1.00  0.00     0.198 A 
ATOM     65  F   UNL     1      13.386   8.480   3.373  1.00  0.00    -0.203 F 
ATOM     66  F   UNL     1      13.293   3.348   5.218  1.00  0.00    -0.200 F 
ATOM     67  C   UNL     1      14.123   5.552   5.368  1.00  0.00     0.200 A 
ATOM     68  F   UNL     1      14.918   7.771   5.483  1.00  0.00    -0.200 F 
ATOM     69  F   UNL     1      14.858   5.218   6.438  1.00  0.00    -0.200 F 
ENDBRANCH  45  59
BRANCH  46  70
ATOM     70  C   UNL     1       6.786   9.003  -4.547  1.00  0.00     0.064 A 
ATOM     71  C   UNL     1       6.723   8.260  -5.733  1.00  0.00     0.173 A 
ATOM     72  C   UNL     1       5.994  10.159  -4.459  1.00  0.00     0.173 A 
ATOM     73  F   UNL     1       7.478   7.161  -5.875  1.00  0.00    -0.203 F 
ATOM     74  C   UNL     1       5.909   8.661  -6.790  1.00  0.00     0.198 A 
ATOM     75  C   UNL     1       5.152  10.538  -5.502  1.00  0.00     0.198 A 
ATOM     76  F   UNL     1       6.014  10.905  -3.344  1.00  0.00    -0.203 F 
ATOM     77  F   UNL     1       5.899   7.956  -7.930  1.00  0.00    -0.200 F 
ATOM     78  C   UNL     1       5.116   9.793  -6.670  1.00  0.00     0.200 A 
ATOM     79  F   UNL     1       4.373  11.619  -5.371  1.00  0.00    -0.200 F 
ATOM     80  F   UNL     1       4.322  10.169  -7.681  1.00  0.00    -0.200 F 
ENDBRANCH  46  70
BRANCH  58  81
ATOM     81  C   UNL     1      13.675   8.574  -3.606  1.00  0.00     0.064 A 
ATOM     82  C   UNL     1      14.022   9.881  -3.980  1.00  0.00     0.173 A 
ATOM     83  C   UNL     1      14.471   7.521  -4.083  1.00  0.00     0.173 A 
ATOM     84  F   UNL     1      13.282  10.921  -3.567  1.00  0.00    -0.203 F 
ATOM     85  C   UNL     1      15.105  10.120  -4.822  1.00  0.00     0.198 A 
ATOM     86  C   UNL     1      15.572   7.767  -4.897  1.00  0.00     0.198 A 
ATOM     87  F   UNL     1      14.184   6.253  -3.752  1.00  0.00    -0.203 F 
ATOM     88  F   UNL     1      15.384  11.371  -5.212  1.00  0.00    -0.200 F 
ATOM     89  C   UNL     1      15.883   9.065  -5.273  1.00  0.00     0.200 A 
ATOM     90  F   UNL     1      16.332   6.747  -5.320  1.00  0.00    -0.200 F 
ATOM     91  F   UNL     1      16.929   9.297  -6.078  1.00  0.00    -0.200 F 
ENDBRANCH  58  81
ENDBRANCH  32  33
ENDBRANCH  25  27
ENDBRANCH  24  25
ENDBRANCH  23  24
ENDBRANCH   1  23
TORSDOF 14
