REMARK SMILES CC1(C)C[C@](CC(=O)OCCOC(=O)c2ccc(-c3c4nc(c(-c5c(F)c(F)c(F)c(F)c5F)c5ccc([nH]5)c(-c5c(F)c(F)c(F)c(F)c5F)c5nc(c(-c6c(F)c(F)c(F)c(F)c6F)c6ccc3[nH]6)C=C5)C=C4)cc2)([NH+]2CCCC2)C(C)(C)O1
REMARK SMILES IDX 10 1 9 2 7 3 8 4 6 5 5 6 1 7 2 8 3 9 4 10 86 11 83 12 84 13
REMARK SMILES IDX 85 14 78 15 79 16 82 17 80 19 81 20 11 21 12 22 13 23 14 24
REMARK SMILES IDX 15 25 16 26 77 27 17 28 76 29 18 30 19 31 20 32 70 33 21 34
REMARK SMILES IDX 75 35 69 36 71 37 22 38 74 39 68 40 67 41 23 43 55 44 35 45
REMARK SMILES IDX 54 46 36 47 39 48 53 49 72 50 37 51 38 52 52 54 73 55 40 56
REMARK SMILES IDX 24 57 25 58 33 59 26 60 27 61 31 62 34 63 28 64 29 65 32 66
REMARK SMILES IDX 30 67 56 68 57 69 65 70 58 71 59 72 63 73 66 74 60 75 61 76
REMARK SMILES IDX 64 77 62 78 41 79 42 80 50 81 43 82 44 83 48 84 51 85 45 86
REMARK SMILES IDX 46 87 49 88 47 89
REMARK H PARENT 78 18 71 42 39 53
REMARK Flexibility Score: inf
ROOT
ATOM      1  C   UNL     1      -1.247   7.614  -0.715  1.00  0.00     0.274 C 
ENDROOT
BRANCH   1   2
ATOM      2  O   UNL     1      -0.930   6.213  -0.777  1.00  0.00    -0.462 OA
BRANCH   2   3
ATOM      3  C   UNL     1      -1.270   5.448   0.280  1.00  0.00     0.312 C 
ATOM      4  O   UNL     1      -1.508   5.876   1.404  1.00  0.00    -0.252 OA
BRANCH   3   5
ATOM      5  C   UNL     1      -1.446   3.990  -0.100  1.00  0.00     0.194 C 
BRANCH   5   6
ATOM      6  C   UNL     1      -0.421   3.241  -1.021  1.00  0.00     0.140 C 
ATOM      7  C   UNL     1       1.088   0.337   0.623  1.00  0.00     0.042 C 
ATOM      8  C   UNL     1       0.815   1.085  -0.691  1.00  0.00     0.070 C 
ATOM      9  C   UNL     1       1.062   0.063  -1.812  1.00  0.00     0.042 C 
ATOM     10  C   UNL     1      -0.586   1.714  -0.683  1.00  0.00     0.107 C 
ATOM     11  O   UNL     1       1.751   2.167  -0.830  1.00  0.00    -0.363 OA
ATOM     12  C   UNL     1       1.089   3.440  -0.589  1.00  0.00     0.118 C 
ATOM     13  C   UNL     1       1.297   3.743   0.913  1.00  0.00     0.049 C 
ATOM     14  C   UNL     1       1.873   4.510  -1.356  1.00  0.00     0.049 C 
BRANCH   6  15
ATOM     15  N   UNL     1      -0.802   3.362  -2.477  1.00  0.00    -0.327 N 
ATOM     16  C   UNL     1      -0.916   4.678  -3.086  1.00  0.00     0.263 C 
ATOM     17  C   UNL     1      -0.086   2.536  -3.447  1.00  0.00     0.263 C 
ATOM     18  H   UNL     1      -1.740   2.996  -2.311  1.00  0.00     0.348 HD
ATOM     19  C   UNL     1      -1.049   4.423  -4.577  1.00  0.00     0.067 C 
ATOM     20  C   UNL     1      -0.206   3.195  -4.811  1.00  0.00     0.067 C 
ENDBRANCH   6  15
ENDBRANCH   5   6
ENDBRANCH   3   5
ENDBRANCH   2   3
ENDBRANCH   1   2
BRANCH   1  21
ATOM     21  C   UNL     1      -1.806   8.013  -2.095  1.00  0.00     0.275 C 
BRANCH  21  22
ATOM     22  O   UNL     1      -2.962   7.288  -2.609  1.00  0.00    -0.458 OA
BRANCH  22  23
ATOM     23  C   UNL     1      -3.797   6.663  -1.756  1.00  0.00     0.338 C 
ATOM     24  O   UNL     1      -3.816   6.768  -0.538  1.00  0.00    -0.246 OA
BRANCH  23  25
ATOM     25  C   UNL     1      -4.673   5.677  -2.423  1.00  0.00     0.060 A 
ATOM     26  C   UNL     1      -5.003   4.546  -1.664  1.00  0.00     0.016 A 
ATOM     27  C   UNL     1      -5.268   5.880  -3.671  1.00  0.00     0.016 A 
ATOM     28  C   UNL     1      -5.974   3.660  -2.099  1.00  0.00     0.010 A 
ATOM     29  C   UNL     1      -6.309   5.030  -4.072  1.00  0.00     0.010 A 
ATOM     30  C   UNL     1      -6.705   3.958  -3.251  1.00  0.00    -0.014 A 
BRANCH  30  31
ATOM     31  C   UNL     1      -7.989   3.246  -3.457  1.00  0.00     0.031 A 
ATOM     32  C   UNL     1      -8.158   2.282  -4.583  1.00  0.00     0.074 A 
ATOM     33  C   UNL     1      -8.983   3.471  -2.571  1.00  0.00     0.049 A 
ATOM     34  N   UNL     1      -9.235   1.649  -4.967  1.00  0.00    -0.248 NA
ATOM     35  C   UNL     1      -6.962   1.989  -5.385  1.00  0.00     0.031 C 
ATOM     36  C   UNL     1      -8.887   4.358  -1.405  1.00  0.00     0.029 A 
ATOM     37  N   UNL     1     -10.258   2.974  -2.494  1.00  0.00    -0.354 N 
ATOM     38  C   UNL     1      -8.854   0.891  -6.064  1.00  0.00     0.074 A 
ATOM     39  C   UNL     1      -7.450   1.159  -6.298  1.00  0.00     0.031 C 
ATOM     40  C   UNL     1     -10.040   4.325  -0.722  1.00  0.00     0.029 A 
ATOM     41  C   UNL     1     -10.985   3.489  -1.446  1.00  0.00     0.049 A 
ATOM     42  H   UNL     1     -10.619   2.312  -3.128  1.00  0.00     0.167 HD
ATOM     43  C   UNL     1      -9.620   0.051  -6.798  1.00  0.00     0.037 A 
ATOM     44  C   UNL     1     -12.285   3.342  -1.135  1.00  0.00     0.037 A 
ATOM     45  C   UNL     1     -11.017  -0.192  -6.536  1.00  0.00     0.049 A 
ATOM     46  C   UNL     1     -13.127   2.474  -2.027  1.00  0.00     0.074 A 
ATOM     47  C   UNL     1     -11.899  -1.000  -7.230  1.00  0.00     0.029 A 
ATOM     48  N   UNL     1     -11.733   0.377  -5.490  1.00  0.00    -0.354 N 
ATOM     49  N   UNL     1     -12.768   1.781  -3.081  1.00  0.00    -0.248 NA
ATOM     50  C   UNL     1     -14.552   2.372  -1.696  1.00  0.00     0.031 C 
ATOM     51  C   UNL     1     -13.158  -0.884  -6.633  1.00  0.00     0.029 A 
ATOM     52  C   UNL     1     -13.050  -0.053  -5.529  1.00  0.00     0.049 A 
ATOM     53  H   UNL     1     -11.360   0.994  -4.819  1.00  0.00     0.167 HD
ATOM     54  C   UNL     1     -13.912   1.135  -3.520  1.00  0.00     0.074 A 
ATOM     55  C   UNL     1     -14.973   1.504  -2.603  1.00  0.00     0.031 C 
ATOM     56  C   UNL     1     -14.076   0.315  -4.586  1.00  0.00     0.037 A 
BRANCH  43  57
ATOM     57  C   UNL     1      -8.980  -0.642  -7.965  1.00  0.00     0.064 A 
ATOM     58  C   UNL     1      -8.040  -1.668  -7.789  1.00  0.00     0.173 A 
ATOM     59  C   UNL     1      -9.351  -0.312  -9.278  1.00  0.00     0.173 A 
ATOM     60  F   UNL     1      -7.637  -2.011  -6.556  1.00  0.00    -0.203 F 
ATOM     61  C   UNL     1      -7.485  -2.328  -8.883  1.00  0.00     0.198 A 
ATOM     62  C   UNL     1      -8.816  -0.993 -10.368  1.00  0.00     0.198 A 
ATOM     63  F   UNL     1     -10.245   0.662  -9.503  1.00  0.00    -0.203 F 
ATOM     64  F   UNL     1      -6.560  -3.279  -8.692  1.00  0.00    -0.200 F 
ATOM     65  C   UNL     1      -7.880  -1.997 -10.171  1.00  0.00     0.200 A 
ATOM     66  F   UNL     1      -9.209  -0.679 -11.611  1.00  0.00    -0.200 F 
ATOM     67  F   UNL     1      -7.356  -2.643 -11.222  1.00  0.00    -0.200 F 
ENDBRANCH  43  57
BRANCH  44  68
ATOM     68  C   UNL     1     -12.878   4.064   0.025  1.00  0.00     0.064 A 
ATOM     69  C   UNL     1     -13.420   3.367   1.114  1.00  0.00     0.173 A 
ATOM     70  C   UNL     1     -12.952   5.466   0.052  1.00  0.00     0.173 A 
ATOM     71  F   UNL     1     -13.391   2.026   1.132  1.00  0.00    -0.203 F 
ATOM     72  C   UNL     1     -14.046   4.040   2.162  1.00  0.00     0.198 A 
ATOM     73  C   UNL     1     -13.542   6.140   1.120  1.00  0.00     0.198 A 
ATOM     74  F   UNL     1     -12.446   6.187  -0.959  1.00  0.00    -0.203 F 
ATOM     75  F   UNL     1     -14.618   3.344   3.154  1.00  0.00    -0.200 F 
ATOM     76  C   UNL     1     -14.103   5.426   2.166  1.00  0.00     0.200 A 
ATOM     77  F   UNL     1     -13.577   7.479   1.127  1.00  0.00    -0.200 F 
ATOM     78  F   UNL     1     -14.712   6.071   3.171  1.00  0.00    -0.200 F 
ENDBRANCH  44  68
BRANCH  56  79
ATOM     79  C   UNL     1     -15.438  -0.284  -4.773  1.00  0.00     0.064 A 
ATOM     80  C   UNL     1     -16.537   0.488  -5.178  1.00  0.00     0.173 A 
ATOM     81  C   UNL     1     -15.637  -1.657  -4.565  1.00  0.00     0.173 A 
ATOM     82  F   UNL     1     -16.401   1.809  -5.369  1.00  0.00    -0.203 F 
ATOM     83  C   UNL     1     -17.794  -0.089  -5.335  1.00  0.00     0.198 A 
ATOM     84  C   UNL     1     -16.886  -2.237  -4.761  1.00  0.00     0.198 A 
ATOM     85  F   UNL     1     -14.616  -2.438  -4.183  1.00  0.00    -0.203 F 
ATOM     86  F   UNL     1     -18.843   0.678  -5.662  1.00  0.00    -0.200 F 
ATOM     87  C   UNL     1     -17.965  -1.451  -5.136  1.00  0.00     0.200 A 
ATOM     88  F   UNL     1     -17.045  -3.555  -4.584  1.00  0.00    -0.200 F 
ATOM     89  F   UNL     1     -19.174  -2.005  -5.296  1.00  0.00    -0.200 F 
ENDBRANCH  56  79
ENDBRANCH  30  31
ENDBRANCH  23  25
ENDBRANCH  22  23
ENDBRANCH  21  22
ENDBRANCH   1  21
TORSDOF 13
