REMARK SMILES CS(=O)(=O)N1C[C@@H]2CN(C(=O)C3CCOCC3)C[C@]2(C(=O)OCCOC(=O)c2ccc(-c3c4nc(c(-c5c(F)c(F)c(F)c(F)c5F)c5ccc([nH]5)c(-c5c(F)c(F)c(F)c(F)c5F)c5nc(c(-c6c(F)c(F)c(F)c(F)c6F)c6ccc3[nH]6)C=C5)C=C4)cc2)C1
REMARK SMILES IDX 23 1 22 2 20 3 21 4 19 5 5 6 6 7 91 8 7 9 8 10 18 11 9 12
REMARK SMILES IDX 2 13 1 14 3 15 4 16 10 17 11 18 12 19 13 20 17 21 14 22
REMARK SMILES IDX 16 23 15 24 24 25 25 26 26 27 27 28 28 29 29 30 90 31 30 32
REMARK SMILES IDX 89 33 31 34 32 35 33 36 83 37 34 38 88 39 82 40 84 41 35 42
REMARK SMILES IDX 87 43 81 44 80 45 36 47 68 48 48 49 67 50 49 51 52 52 66 53
REMARK SMILES IDX 85 54 50 55 51 56 65 58 86 59 53 60 37 61 38 62 46 63 39 64
REMARK SMILES IDX 40 65 44 66 47 67 41 68 42 69 45 70 43 71 69 72 70 73 78 74
REMARK SMILES IDX 71 75 72 76 76 77 79 78 73 79 74 80 77 81 75 82 54 83 55 84
REMARK SMILES IDX 63 85 56 86 57 87 61 88 64 89 58 90 59 91 62 92 60 93
REMARK H PARENT 84 46 52 57
REMARK Flexibility Score: inf
ROOT
ATOM      1  C   UNL     1      -0.374   7.057   3.882  1.00  0.00     0.274 C 
ENDROOT
BRANCH   1   2
ATOM      2  O   UNL     1       0.354   5.805   4.030  1.00  0.00    -0.462 OA
BRANCH   2   3
ATOM      3  C   UNL     1       0.717   5.199   2.858  1.00  0.00     0.315 C 
ATOM      4  O   UNL     1       0.273   5.590   1.787  1.00  0.00    -0.251 OA
BRANCH   3   5
ATOM      5  C   UNL     1       1.750   3.996   3.074  1.00  0.00     0.105 C 
ATOM      6  N   UNL     1       1.237   1.812   1.793  1.00  0.00    -0.201 NA
ATOM      7  C   UNL     1       2.655   1.802   2.108  1.00  0.00     0.109 C 
ATOM      8  C   UNL     1       0.773   3.213   2.071  1.00  0.00     0.123 C 
ATOM      9  C   UNL     1       2.974   3.267   2.315  1.00  0.00     0.044 C 
ATOM     10  C   UNL     1       4.222   3.374   3.179  1.00  0.00     0.125 C 
ATOM     11  C   UNL     1       2.796   5.200   3.318  1.00  0.00     0.140 C 
ATOM     12  N   UNL     1       4.018   4.617   3.839  1.00  0.00    -0.341 N 
BRANCH   6  13
ATOM     13  S   UNL     1       0.785   1.305   0.216  1.00  0.00     0.211 S 
ATOM     14  C   UNL     1       1.216  -0.420   0.214  1.00  0.00     0.176 C 
ATOM     15  O   UNL     1       1.648   2.005  -0.718  1.00  0.00    -0.213 OA
ATOM     16  O   UNL     1      -0.651   1.414   0.128  1.00  0.00    -0.213 OA
ENDBRANCH   6  13
BRANCH  12  17
ATOM     17  C   UNL     1       4.897   5.056   4.804  1.00  0.00     0.225 C 
ATOM     18  O   UNL     1       5.903   4.391   5.077  1.00  0.00    -0.275 OA
BRANCH  17  19
ATOM     19  C   UNL     1       4.620   6.335   5.600  1.00  0.00     0.083 C 
ATOM     20  C   UNL     1       3.408   6.166   6.528  1.00  0.00     0.042 C 
ATOM     21  C   UNL     1       4.604   7.589   4.722  1.00  0.00     0.042 C 
ATOM     22  C   UNL     1       2.888   7.492   7.059  1.00  0.00     0.161 C 
ATOM     23  C   UNL     1       3.986   8.783   5.429  1.00  0.00     0.161 C 
ATOM     24  O   UNL     1       2.727   8.430   5.999  1.00  0.00    -0.381 OA
ENDBRANCH  17  19
ENDBRANCH  12  17
ENDBRANCH   3   5
ENDBRANCH   2   3
ENDBRANCH   1   2
BRANCH   1  25
ATOM     25  C   UNL     1       0.429   8.213   3.231  1.00  0.00     0.275 C 
BRANCH  25  26
ATOM     26  O   UNL     1       0.414   8.151   1.781  1.00  0.00    -0.458 OA
BRANCH  26  27
ATOM     27  C   UNL     1       1.617   8.018   1.165  1.00  0.00     0.338 C 
ATOM     28  O   UNL     1       2.717   8.104   1.688  1.00  0.00    -0.246 OA
BRANCH  27  29
ATOM     29  C   UNL     1       1.455   7.547  -0.230  1.00  0.00     0.060 A 
ATOM     30  C   UNL     1       1.902   6.256  -0.547  1.00  0.00     0.016 A 
ATOM     31  C   UNL     1       0.953   8.370  -1.236  1.00  0.00     0.016 A 
ATOM     32  C   UNL     1       1.823   5.767  -1.849  1.00  0.00     0.010 A 
ATOM     33  C   UNL     1       0.900   7.890  -2.554  1.00  0.00     0.010 A 
ATOM     34  C   UNL     1       1.337   6.588  -2.869  1.00  0.00    -0.014 A 
BRANCH  34  35
ATOM     35  C   UNL     1       1.368   6.109  -4.273  1.00  0.00     0.031 A 
ATOM     36  C   UNL     1       2.452   6.587  -5.196  1.00  0.00     0.074 A 
ATOM     37  C   UNL     1       0.457   5.222  -4.714  1.00  0.00     0.049 A 
ATOM     38  N   UNL     1       2.609   6.374  -6.478  1.00  0.00    -0.248 NA
ATOM     39  C   UNL     1       3.505   7.414  -4.588  1.00  0.00     0.031 C 
ATOM     40  C   UNL     1      -0.592   4.614  -3.897  1.00  0.00     0.029 A 
ATOM     41  N   UNL     1       0.267   4.681  -5.963  1.00  0.00    -0.354 N 
ATOM     42  C   UNL     1       3.766   7.054  -6.834  1.00  0.00     0.074 A 
ATOM     43  C   UNL     1       4.266   7.695  -5.636  1.00  0.00     0.031 C 
ATOM     44  C   UNL     1      -1.326   3.795  -4.669  1.00  0.00     0.029 A 
ATOM     45  C   UNL     1      -0.826   3.854  -6.041  1.00  0.00     0.049 A 
ATOM     46  H   UNL     1       0.858   4.869  -6.727  1.00  0.00     0.167 HD
ATOM     47  C   UNL     1       4.356   7.134  -8.052  1.00  0.00     0.037 A 
ATOM     48  C   UNL     1      -1.378   3.241  -7.106  1.00  0.00     0.037 A 
ATOM     49  C   UNL     1       3.861   6.488  -9.239  1.00  0.00     0.049 A 
ATOM     50  C   UNL     1      -0.753   3.415  -8.466  1.00  0.00     0.074 A 
ATOM     51  C   UNL     1       4.382   6.518 -10.521  1.00  0.00     0.029 A 
ATOM     52  N   UNL     1       2.724   5.694  -9.290  1.00  0.00    -0.354 N 
ATOM     53  N   UNL     1       0.326   4.079  -8.803  1.00  0.00    -0.248 NA
ATOM     54  C   UNL     1      -1.427   2.759  -9.596  1.00  0.00     0.031 C 
ATOM     55  C   UNL     1       3.537   5.778 -11.356  1.00  0.00     0.029 A 
ATOM     56  C   UNL     1       2.516   5.247 -10.585  1.00  0.00     0.049 A 
ATOM     57  H   UNL     1       2.150   5.479  -8.519  1.00  0.00     0.167 HD
ATOM     58  C   UNL     1       0.473   3.902 -10.172  1.00  0.00     0.074 A 
ATOM     59  C   UNL     1      -0.620   3.056 -10.604  1.00  0.00     0.031 C 
ATOM     60  C   UNL     1       1.428   4.397 -10.998  1.00  0.00     0.037 A 
BRANCH  47  61
ATOM     61  C   UNL     1       5.583   7.989  -8.168  1.00  0.00     0.064 A 
ATOM     62  C   UNL     1       6.817   7.589  -7.634  1.00  0.00     0.173 A 
ATOM     63  C   UNL     1       5.527   9.216  -8.846  1.00  0.00     0.173 A 
ATOM     64  F   UNL     1       6.920   6.431  -6.965  1.00  0.00    -0.203 F 
ATOM     65  C   UNL     1       7.944   8.399  -7.753  1.00  0.00     0.198 A 
ATOM     66  C   UNL     1       6.661  10.011  -8.986  1.00  0.00     0.198 A 
ATOM     67  F   UNL     1       4.372   9.642  -9.379  1.00  0.00    -0.203 F 
ATOM     68  F   UNL     1       9.102   8.019  -7.196  1.00  0.00    -0.200 F 
ATOM     69  C   UNL     1       7.867   9.606  -8.433  1.00  0.00     0.200 A 
ATOM     70  F   UNL     1       6.587  11.171  -9.652  1.00  0.00    -0.200 F 
ATOM     71  F   UNL     1       8.953  10.383  -8.549  1.00  0.00    -0.200 F 
ENDBRANCH  47  61
BRANCH  48  72
ATOM     72  C   UNL     1      -2.612   2.430  -6.938  1.00  0.00     0.064 A 
ATOM     73  C   UNL     1      -2.596   1.040  -7.112  1.00  0.00     0.173 A 
ATOM     74  C   UNL     1      -3.838   3.033  -6.618  1.00  0.00     0.173 A 
ATOM     75  F   UNL     1      -1.456   0.420  -7.452  1.00  0.00    -0.203 F 
ATOM     76  C   UNL     1      -3.762   0.285  -6.987  1.00  0.00     0.198 A 
ATOM     77  C   UNL     1      -4.997   2.275  -6.464  1.00  0.00     0.198 A 
ATOM     78  F   UNL     1      -3.911   4.362  -6.452  1.00  0.00    -0.203 F 
ATOM     79  F   UNL     1      -3.729  -1.036  -7.208  1.00  0.00    -0.200 F 
ATOM     80  C   UNL     1      -4.959   0.902  -6.656  1.00  0.00     0.200 A 
ATOM     81  F   UNL     1      -6.150   2.874  -6.140  1.00  0.00    -0.200 F 
ATOM     82  F   UNL     1      -6.079   0.176  -6.536  1.00  0.00    -0.200 F 
ENDBRANCH  48  72
BRANCH  60  83
ATOM     83  C   UNL     1       1.355   4.010 -12.446  1.00  0.00     0.064 A 
ATOM     84  C   UNL     1       0.384   4.545 -13.303  1.00  0.00     0.173 A 
ATOM     85  C   UNL     1       2.297   3.123 -12.992  1.00  0.00     0.173 A 
ATOM     86  F   UNL     1      -0.548   5.385 -12.828  1.00  0.00    -0.203 F 
ATOM     87  C   UNL     1       0.343   4.190 -14.650  1.00  0.00     0.198 A 
ATOM     88  C   UNL     1       2.270   2.792 -14.343  1.00  0.00     0.198 A 
ATOM     89  F   UNL     1       3.251   2.588 -12.215  1.00  0.00    -0.203 F 
ATOM     90  F   UNL     1      -0.620   4.681 -15.442  1.00  0.00    -0.200 F 
ATOM     91  C   UNL     1       1.290   3.320 -15.170  1.00  0.00     0.200 A 
ATOM     92  F   UNL     1       3.193   1.960 -14.847  1.00  0.00    -0.200 F 
ATOM     93  F   UNL     1       1.254   2.985 -16.467  1.00  0.00    -0.200 F 
ENDBRANCH  60  83
ENDBRANCH  34  35
ENDBRANCH  27  29
ENDBRANCH  26  27
ENDBRANCH  25  26
ENDBRANCH   1  25
TORSDOF 14
