REMARK SMILES CN1C(=O)C[C@@H](C(=O)OCCOC(=O)c2ccc(-c3c4nc(c(-c5c(F)c(F)c(F)c(F)c5F)c5ccc([nH]5)c(-c5c(F)c(F)c(F)c(F)c5F)c5nc(c(-c6c(F)c(F)c(F)c(F)c6F)c6ccc3[nH]6)C=C5)C=C4)cc2)C12CCN(C(=O)c1ccccc1-n1cccn1)CC2
REMARK SMILES IDX 10 1 9 2 7 3 8 4 6 5 1 6 2 7 3 8 78 9 4 10 5 11 79 12 96 13
REMARK SMILES IDX 80 14 95 15 81 16 82 17 83 18 84 19 85 20 89 21 86 22 88 23
REMARK SMILES IDX 87 24 90 25 91 26 94 27 92 28 93 29 11 30 12 31 13 32 14 33
REMARK SMILES IDX 15 34 16 35 77 36 17 37 76 38 18 39 19 40 20 41 70 42 21 43
REMARK SMILES IDX 75 44 69 45 71 46 22 47 74 48 68 49 67 50 23 52 55 53 35 54
REMARK SMILES IDX 54 55 36 56 39 57 53 58 72 59 37 60 38 61 52 63 73 64 40 65
REMARK SMILES IDX 24 66 25 67 33 68 26 69 27 70 31 71 34 72 28 73 29 74 32 75
REMARK SMILES IDX 30 76 56 77 57 78 65 79 58 80 59 81 63 82 66 83 60 84 61 85
REMARK SMILES IDX 64 86 62 87 41 88 42 89 50 90 43 91 44 92 48 93 51 94 45 95
REMARK SMILES IDX 46 96 49 97 47 98
REMARK H PARENT 71 51 39 62
REMARK Flexibility Score: inf
ROOT
ATOM      1  C   UNL     1      -0.960  -2.634  -5.003  1.00  0.00     0.274 C 
ENDROOT
BRANCH   1   2
ATOM      2  O   UNL     1      -0.495  -2.487  -3.643  1.00  0.00    -0.462 OA
BRANCH   2   3
ATOM      3  C   UNL     1      -1.092  -3.282  -2.732  1.00  0.00     0.311 C 
ATOM      4  O   UNL     1      -2.030  -4.035  -2.985  1.00  0.00    -0.252 OA
BRANCH   3   5
ATOM      5  C   UNL     1      -0.539  -3.192  -1.319  1.00  0.00     0.134 C 
ATOM      6  C   UNL     1       1.040   0.054  -0.271  1.00  0.00     0.147 C 
ATOM      7  N   UNL     1       0.233  -1.087  -0.659  1.00  0.00    -0.339 N 
ATOM      8  C   UNL     1      -1.126  -1.090  -0.360  1.00  0.00     0.223 C 
ATOM      9  C   UNL     1       0.762  -2.427  -0.952  1.00  0.00     0.060 C 
ATOM     10  O   UNL     1      -1.785  -0.147   0.031  1.00  0.00    -0.275 OA
ATOM     11  C   UNL     1      -1.636  -2.496  -0.502  1.00  0.00     0.118 C 
ATOM     12  C   UNL     1       1.879  -2.404  -2.017  1.00  0.00     0.051 C 
ATOM     13  C   UNL     1       1.384  -3.028   0.353  1.00  0.00     0.051 C 
ATOM     14  C   UNL     1       2.508  -3.773  -2.227  1.00  0.00     0.122 C 
ATOM     15  C   UNL     1       2.146  -4.341   0.140  1.00  0.00     0.122 C 
ATOM     16  N   UNL     1       3.083  -4.262  -0.977  1.00  0.00    -0.338 N 
ATOM     17  C   UNL     1       4.368  -4.792  -0.818  1.00  0.00     0.256 C 
ATOM     18  O   UNL     1       4.748  -5.329   0.221  1.00  0.00    -0.269 OA
BRANCH  17  19
ATOM     19  C   UNL     1       5.332  -4.771  -1.945  1.00  0.00     0.065 A 
ATOM     20  C   UNL     1       5.742  -6.034  -2.409  1.00  0.00     0.016 A 
ATOM     21  C   UNL     1       5.791  -3.615  -2.593  1.00  0.00     0.077 A 
ATOM     22  C   UNL     1       6.545  -6.148  -3.545  1.00  0.00     0.001 A 
ATOM     23  C   UNL     1       6.548  -3.744  -3.773  1.00  0.00     0.029 A 
ATOM     24  C   UNL     1       6.928  -5.005  -4.239  1.00  0.00     0.002 A 
BRANCH  21  25
ATOM     25  N   UNL     1       5.544  -2.307  -2.106  1.00  0.00    -0.240 N 
ATOM     26  C   UNL     1       5.360  -1.891  -0.805  1.00  0.00     0.115 A 
ATOM     27  N   UNL     1       5.484  -1.256  -2.967  1.00  0.00    -0.177 NA
ATOM     28  C   UNL     1       5.111  -0.539  -0.843  1.00  0.00     0.042 A 
ATOM     29  C   UNL     1       5.180  -0.207  -2.203  1.00  0.00     0.135 A 
ENDBRANCH  21  25
ENDBRANCH  17  19
ENDBRANCH   3   5
ENDBRANCH   2   3
ENDBRANCH   1   2
BRANCH   1  30
ATOM     30  C   UNL     1      -0.110  -3.658  -5.759  1.00  0.00     0.275 C 
BRANCH  30  31
ATOM     31  O   UNL     1      -0.111  -4.914  -5.053  1.00  0.00    -0.458 OA
BRANCH  31  32
ATOM     32  C   UNL     1       1.079  -5.553  -4.984  1.00  0.00     0.338 C 
ATOM     33  O   UNL     1       2.122  -5.213  -5.516  1.00  0.00    -0.246 OA
BRANCH  32  34
ATOM     34  C   UNL     1       0.990  -6.734  -4.096  1.00  0.00     0.060 A 
ATOM     35  C   UNL     1       0.229  -6.710  -2.923  1.00  0.00     0.016 A 
ATOM     36  C   UNL     1       1.782  -7.847  -4.379  1.00  0.00     0.016 A 
ATOM     37  C   UNL     1       0.304  -7.760  -2.009  1.00  0.00     0.010 A 
ATOM     38  C   UNL     1       1.780  -8.942  -3.510  1.00  0.00     0.010 A 
ATOM     39  C   UNL     1       1.051  -8.906  -2.310  1.00  0.00    -0.014 A 
BRANCH  39  40
ATOM     40  C   UNL     1       1.041 -10.088  -1.407  1.00  0.00     0.031 A 
ATOM     41  C   UNL     1       2.320 -10.612  -0.816  1.00  0.00     0.074 A 
ATOM     42  C   UNL     1      -0.118 -10.732  -1.165  1.00  0.00     0.049 A 
ATOM     43  N   UNL     1       2.548 -11.751  -0.212  1.00  0.00    -0.248 NA
ATOM     44  C   UNL     1       3.503  -9.747  -0.934  1.00  0.00     0.031 C 
ATOM     45  C   UNL     1      -1.435 -10.319  -1.651  1.00  0.00     0.029 A 
ATOM     46  N   UNL     1      -0.371 -11.885  -0.462  1.00  0.00    -0.354 N 
ATOM     47  C   UNL     1       3.907 -11.763   0.077  1.00  0.00     0.074 A 
ATOM     48  C   UNL     1       4.453 -10.516  -0.419  1.00  0.00     0.031 C 
ATOM     49  C   UNL     1      -2.357 -11.193  -1.223  1.00  0.00     0.029 A 
ATOM     50  C   UNL     1      -1.689 -12.271  -0.505  1.00  0.00     0.049 A 
ATOM     51  H   UNL     1       0.323 -12.385   0.025  1.00  0.00     0.167 HD
ATOM     52  C   UNL     1       4.627 -12.729   0.696  1.00  0.00     0.037 A 
ATOM     53  C   UNL     1      -2.289 -13.391  -0.062  1.00  0.00     0.037 A 
ATOM     54  C   UNL     1       4.069 -13.945   1.232  1.00  0.00     0.049 A 
ATOM     55  C   UNL     1      -1.465 -14.457   0.599  1.00  0.00     0.074 A 
ATOM     56  C   UNL     1       4.715 -14.970   1.904  1.00  0.00     0.029 A 
ATOM     57  N   UNL     1       2.728 -14.295   1.169  1.00  0.00    -0.354 N 
ATOM     58  N   UNL     1      -0.176 -14.477   0.833  1.00  0.00    -0.248 NA
ATOM     59  C   UNL     1      -2.177 -15.662   1.045  1.00  0.00     0.031 C 
ATOM     60  C   UNL     1       3.771 -15.955   2.216  1.00  0.00     0.029 A 
ATOM     61  C   UNL     1       2.530 -15.524   1.779  1.00  0.00     0.049 A 
ATOM     62  H   UNL     1       2.021 -13.750   0.753  1.00  0.00     0.167 HD
ATOM     63  C   UNL     1       0.075 -15.684   1.470  1.00  0.00     0.074 A 
ATOM     64  C   UNL     1      -1.198 -16.363   1.598  1.00  0.00     0.031 C 
ATOM     65  C   UNL     1       1.256 -16.185   1.906  1.00  0.00     0.037 A 
BRANCH  52  66
ATOM     66  C   UNL     1       6.111 -12.532   0.810  1.00  0.00     0.064 A 
ATOM     67  C   UNL     1       6.671 -11.612   1.707  1.00  0.00     0.173 A 
ATOM     68  C   UNL     1       6.987 -13.324   0.050  1.00  0.00     0.173 A 
ATOM     69  F   UNL     1       5.878 -10.827   2.450  1.00  0.00    -0.203 F 
ATOM     70  C   UNL     1       8.053 -11.478   1.826  1.00  0.00     0.198 A 
ATOM     71  C   UNL     1       8.367 -13.207   0.190  1.00  0.00     0.198 A 
ATOM     72  F   UNL     1       6.503 -14.226  -0.818  1.00  0.00    -0.203 F 
ATOM     73  F   UNL     1       8.567 -10.569   2.665  1.00  0.00    -0.200 F 
ATOM     74  C   UNL     1       8.899 -12.281   1.074  1.00  0.00     0.200 A 
ATOM     75  F   UNL     1       9.182 -13.993  -0.527  1.00  0.00    -0.200 F 
ATOM     76  F   UNL     1      10.228 -12.159   1.199  1.00  0.00    -0.200 F 
ENDBRANCH  52  66
BRANCH  53  77
ATOM     77  C   UNL     1      -3.750 -13.567  -0.261  1.00  0.00     0.064 A 
ATOM     78  C   UNL     1      -4.633 -13.518   0.826  1.00  0.00     0.173 A 
ATOM     79  C   UNL     1      -4.295 -13.765  -1.539  1.00  0.00     0.173 A 
ATOM     80  F   UNL     1      -4.155 -13.354   2.068  1.00  0.00    -0.203 F 
ATOM     81  C   UNL     1      -6.005 -13.669   0.643  1.00  0.00     0.198 A 
ATOM     82  C   UNL     1      -5.669 -13.886  -1.723  1.00  0.00     0.198 A 
ATOM     83  F   UNL     1      -3.491 -13.816  -2.611  1.00  0.00    -0.203 F 
ATOM     84  F   UNL     1      -6.825 -13.654   1.703  1.00  0.00    -0.200 F 
ATOM     85  C   UNL     1      -6.523 -13.844  -0.632  1.00  0.00     0.200 A 
ATOM     86  F   UNL     1      -6.166 -14.039  -2.958  1.00  0.00    -0.200 F 
ATOM     87  F   UNL     1      -7.845 -13.977  -0.808  1.00  0.00    -0.200 F 
ENDBRANCH  53  77
BRANCH  65  88
ATOM     88  C   UNL     1       1.218 -17.514   2.599  1.00  0.00     0.064 A 
ATOM     89  C   UNL     1       1.018 -18.707   1.891  1.00  0.00     0.173 A 
ATOM     90  C   UNL     1       1.405 -17.594   3.987  1.00  0.00     0.173 A 
ATOM     91  F   UNL     1       0.817 -18.679   0.565  1.00  0.00    -0.203 F 
ATOM     92  C   UNL     1       0.981 -19.932   2.551  1.00  0.00     0.198 A 
ATOM     93  C   UNL     1       1.393 -18.823   4.641  1.00  0.00     0.198 A 
ATOM     94  F   UNL     1       1.602 -16.481   4.709  1.00  0.00    -0.203 F 
ATOM     95  F   UNL     1       0.742 -21.056   1.862  1.00  0.00    -0.200 F 
ATOM     96  C   UNL     1       1.174 -19.990   3.924  1.00  0.00     0.200 A 
ATOM     97  F   UNL     1       1.587 -18.878   5.965  1.00  0.00    -0.200 F 
ATOM     98  F   UNL     1       1.138 -21.170   4.558  1.00  0.00    -0.200 F 
ENDBRANCH  65  88
ENDBRANCH  39  40
ENDBRANCH  32  34
ENDBRANCH  31  32
ENDBRANCH  30  31
ENDBRANCH   1  30
TORSDOF 13
