REMARK SMILES CC(=O)NC(C)(C)C(=O)N1C[C@@H](C(=O)OCCOC(=O)c2ccc(-c3c4nc(c(-c5c(F)c(F)c(F)c(F)c5F)c5ccc([nH]5)c(-c5c(F)c(F)c(F)c(F)c5F)c5nc(c(-c6c(F)c(F)c(F)c(F)c6F)c6ccc3[nH]6)C=C5)C=C4)cc2)[C@H](c2ccccc2C)C1
REMARK SMILES IDX 16 1 15 2 13 3 14 4 12 5 10 6 11 7 92 8 84 9 8 10 9 11 5 12
REMARK SMILES IDX 6 13 7 14 4 15 1 16 2 17 3 18 85 20 86 21 90 22 87 23 89 24
REMARK SMILES IDX 91 25 88 26 17 27 18 28 19 29 20 30 21 31 22 32 83 33 23 34
REMARK SMILES IDX 82 35 24 36 25 37 26 38 76 39 27 40 81 41 75 42 77 43 28 44
REMARK SMILES IDX 80 45 74 46 73 47 29 49 61 50 41 51 60 52 42 53 45 54 59 55
REMARK SMILES IDX 78 56 43 57 44 58 58 60 79 61 46 62 30 63 31 64 39 65 32 66
REMARK SMILES IDX 33 67 37 68 40 69 34 70 35 71 38 72 36 73 62 74 63 75 71 76
REMARK SMILES IDX 64 77 65 78 69 79 72 80 66 81 67 82 70 83 68 84 47 85 48 86
REMARK SMILES IDX 56 87 49 88 50 89 54 90 57 91 51 92 52 93 55 94 53 95
REMARK H PARENT 4 19 77 48 45 59
REMARK Flexibility Score: inf
ROOT
ATOM      1  C   UNL     1       4.255   3.329   8.040  1.00  0.00     0.274 C 
ENDROOT
BRANCH   1   2
ATOM      2  O   UNL     1       4.473   2.537   6.854  1.00  0.00    -0.462 OA
BRANCH   2   3
ATOM      3  C   UNL     1       3.719   2.892   5.789  1.00  0.00     0.311 C 
ATOM      4  O   UNL     1       2.765   3.662   5.855  1.00  0.00    -0.252 OA
BRANCH   3   5
ATOM      5  C   UNL     1       4.281   2.415   4.465  1.00  0.00     0.128 C 
ATOM      6  N   UNL     1       3.224   1.330   2.625  1.00  0.00    -0.339 N 
ATOM      7  C   UNL     1       3.113   2.481   3.476  1.00  0.00     0.135 C 
ATOM      8  C   UNL     1       3.881   0.273   3.388  1.00  0.00     0.128 C 
ATOM      9  C   UNL     1       4.876   0.994   4.339  1.00  0.00     0.055 C 
BRANCH   6  10
ATOM     10  C   UNL     1       2.612   1.095   1.400  1.00  0.00     0.247 C 
ATOM     11  O   UNL     1       2.666  -0.043   0.925  1.00  0.00    -0.272 OA
BRANCH  10  12
ATOM     12  C   UNL     1       1.911   2.279   0.597  1.00  0.00     0.113 C 
ATOM     13  C   UNL     1       3.020   3.298   0.238  1.00  0.00     0.045 C 
ATOM     14  C   UNL     1       0.780   2.958   1.389  1.00  0.00     0.045 C 
BRANCH  12  15
ATOM     15  N   UNL     1       1.334   1.926  -0.742  1.00  0.00    -0.342 N 
ATOM     16  C   UNL     1       0.172  -0.256  -0.476  1.00  0.00     0.114 C 
ATOM     17  C   UNL     1       0.360   1.070  -1.140  1.00  0.00     0.217 C 
ATOM     18  O   UNL     1      -0.319   1.396  -2.117  1.00  0.00    -0.275 OA
ATOM     19  H   UNL     1       1.748   2.418  -1.487  1.00  0.00     0.164 HD
ENDBRANCH  12  15
ENDBRANCH  10  12
ENDBRANCH   6  10
BRANCH   9  20
ATOM     20  C   UNL     1       6.344   1.030   3.846  1.00  0.00    -0.039 A 
ATOM     21  C   UNL     1       6.667   0.752   2.501  1.00  0.00     0.004 A 
ATOM     22  C   UNL     1       7.425   1.338   4.714  1.00  0.00    -0.048 A 
ATOM     23  C   UNL     1       7.990   0.733   2.044  1.00  0.00     0.000 A 
ATOM     24  C   UNL     1       8.751   1.333   4.231  1.00  0.00     0.004 A 
ATOM     25  C   UNL     1       7.247   1.715   6.157  1.00  0.00     0.044 C 
ATOM     26  C   UNL     1       9.034   1.020   2.909  1.00  0.00     0.000 A 
ENDBRANCH   9  20
ENDBRANCH   3   5
ENDBRANCH   2   3
ENDBRANCH   1   2
BRANCH   1  27
ATOM     27  C   UNL     1       5.171   4.558   8.038  1.00  0.00     0.275 C 
BRANCH  27  28
ATOM     28  O   UNL     1       4.857   5.436   6.934  1.00  0.00    -0.458 OA
BRANCH  28  29
ATOM     29  C   UNL     1       5.873   5.713   6.083  1.00  0.00     0.338 C 
ATOM     30  O   UNL     1       7.020   5.310   6.139  1.00  0.00    -0.246 OA
BRANCH  29  31
ATOM     31  C   UNL     1       5.407   6.619   5.019  1.00  0.00     0.060 A 
ATOM     32  C   UNL     1       4.649   6.121   3.958  1.00  0.00     0.016 A 
ATOM     33  C   UNL     1       5.835   7.945   5.010  1.00  0.00     0.016 A 
ATOM     34  C   UNL     1       4.348   6.931   2.865  1.00  0.00     0.010 A 
ATOM     35  C   UNL     1       5.487   8.776   3.940  1.00  0.00     0.010 A 
ATOM     36  C   UNL     1       4.757   8.270   2.850  1.00  0.00    -0.014 A 
BRANCH  36  37
ATOM     37  C   UNL     1       4.426   9.139   1.694  1.00  0.00     0.031 A 
ATOM     38  C   UNL     1       5.509   9.616   0.771  1.00  0.00     0.074 A 
ATOM     39  C   UNL     1       3.148   9.501   1.480  1.00  0.00     0.049 A 
ATOM     40  N   UNL     1       5.441  10.481  -0.208  1.00  0.00    -0.248 NA
ATOM     41  C   UNL     1       6.849   9.045   0.978  1.00  0.00     0.031 C 
ATOM     42  C   UNL     1       2.003   9.069   2.282  1.00  0.00     0.029 A 
ATOM     43  N   UNL     1       2.598  10.322   0.528  1.00  0.00    -0.354 N 
ATOM     44  C   UNL     1       6.729  10.583  -0.716  1.00  0.00     0.074 A 
ATOM     45  C   UNL     1       7.562   9.693   0.067  1.00  0.00     0.031 C 
ATOM     46  C   UNL     1       0.887   9.627   1.789  1.00  0.00     0.029 A 
ATOM     47  C   UNL     1       1.244  10.498   0.674  1.00  0.00     0.049 A 
ATOM     48  H   UNL     1       3.123  10.744  -0.190  1.00  0.00     0.167 HD
ATOM     49  C   UNL     1       7.173  11.351  -1.739  1.00  0.00     0.037 A 
ATOM     50  C   UNL     1       0.393  11.301   0.008  1.00  0.00     0.037 A 
ATOM     51  C   UNL     1       6.336  12.218  -2.527  1.00  0.00     0.049 A 
ATOM     52  C   UNL     1       0.918  12.176  -1.095  1.00  0.00     0.074 A 
ATOM     53  C   UNL     1       6.690  13.029  -3.592  1.00  0.00     0.029 A 
ATOM     54  N   UNL     1       4.972  12.384  -2.336  1.00  0.00    -0.354 N 
ATOM     55  N   UNL     1       2.143  12.284  -1.550  1.00  0.00    -0.248 NA
ATOM     56  C   UNL     1      -0.053  13.048  -1.768  1.00  0.00     0.031 C 
ATOM     57  C   UNL     1       5.546  13.710  -4.025  1.00  0.00     0.029 A 
ATOM     58  C   UNL     1       4.473  13.296  -3.252  1.00  0.00     0.049 A 
ATOM     59  H   UNL     1       4.438  11.922  -1.650  1.00  0.00     0.167 HD
ATOM     60  C   UNL     1       2.089  13.225  -2.567  1.00  0.00     0.074 A 
ATOM     61  C   UNL     1       0.706  13.646  -2.676  1.00  0.00     0.031 C 
ATOM     62  C   UNL     1       3.094  13.702  -3.341  1.00  0.00     0.037 A 
BRANCH  49  63
ATOM     63  C   UNL     1       8.640  11.312  -2.048  1.00  0.00     0.064 A 
ATOM     64  C   UNL     1       9.228  10.220  -2.701  1.00  0.00     0.173 A 
ATOM     65  C   UNL     1       9.460  12.402  -1.719  1.00  0.00     0.173 A 
ATOM     66  F   UNL     1       8.488   9.149  -3.024  1.00  0.00    -0.203 F 
ATOM     67  C   UNL     1      10.589  10.212  -2.996  1.00  0.00     0.198 A 
ATOM     68  C   UNL     1      10.816  12.400  -2.035  1.00  0.00     0.198 A 
ATOM     69  F   UNL     1       8.944  13.473  -1.096  1.00  0.00    -0.203 F 
ATOM     70  F   UNL     1      11.139   9.142  -3.588  1.00  0.00    -0.200 F 
ATOM     71  C   UNL     1      11.380  11.303  -2.668  1.00  0.00     0.200 A 
ATOM     72  F   UNL     1      11.577  13.459  -1.724  1.00  0.00    -0.200 F 
ATOM     73  F   UNL     1      12.689  11.295  -2.957  1.00  0.00    -0.200 F 
ENDBRANCH  49  63
BRANCH  50  74
ATOM     74  C   UNL     1      -1.041  11.330   0.392  1.00  0.00     0.064 A 
ATOM     75  C   UNL     1      -2.021  10.778  -0.443  1.00  0.00     0.173 A 
ATOM     76  C   UNL     1      -1.456  11.895   1.607  1.00  0.00     0.173 A 
ATOM     77  F   UNL     1      -1.673  10.249  -1.625  1.00  0.00    -0.203 F 
ATOM     78  C   UNL     1      -3.366  10.795  -0.079  1.00  0.00     0.198 A 
ATOM     79  C   UNL     1      -2.798  11.888   1.981  1.00  0.00     0.198 A 
ATOM     80  F   UNL     1      -0.555  12.435   2.439  1.00  0.00    -0.203 F 
ATOM     81  F   UNL     1      -4.288  10.289  -0.909  1.00  0.00    -0.200 F 
ATOM     82  C   UNL     1      -3.752  11.342   1.136  1.00  0.00     0.200 A 
ATOM     83  F   UNL     1      -3.165  12.407   3.161  1.00  0.00    -0.200 F 
ATOM     84  F   UNL     1      -5.044  11.348   1.490  1.00  0.00    -0.200 F 
ENDBRANCH  50  74
BRANCH  62  85
ATOM     85  C   UNL     1       2.729  14.719  -4.379  1.00  0.00     0.064 A 
ATOM     86  C   UNL     1       2.452  16.049  -4.033  1.00  0.00     0.173 A 
ATOM     87  C   UNL     1       2.683  14.366  -5.736  1.00  0.00     0.173 A 
ATOM     88  F   UNL     1       2.468  16.428  -2.746  1.00  0.00    -0.203 F 
ATOM     89  C   UNL     1       2.121  16.986  -5.008  1.00  0.00     0.198 A 
ATOM     90  C   UNL     1       2.373  15.310  -6.710  1.00  0.00     0.198 A 
ATOM     91  F   UNL     1       2.943  13.106  -6.115  1.00  0.00    -0.203 F 
ATOM     92  F   UNL     1       1.821  18.243  -4.652  1.00  0.00    -0.200 F 
ATOM     93  C   UNL     1       2.087  16.617  -6.345  1.00  0.00     0.200 A 
ATOM     94  F   UNL     1       2.346  14.955  -8.001  1.00  0.00    -0.200 F 
ATOM     95  F   UNL     1       1.769  17.521  -7.282  1.00  0.00    -0.200 F 
ENDBRANCH  62  85
ENDBRANCH  36  37
ENDBRANCH  29  31
ENDBRANCH  28  29
ENDBRANCH  27  28
ENDBRANCH   1  27
TORSDOF 15
