REMARK SMILES Cc1ccc(O[C@H](C)C(=O)NNC(=O)[C@@H]2[C@@H](C(=O)OCCOC(=O)c3ccc(-c4c5nc(c(-c6c(F)c(F)c(F)c(F)c6F)c6ccc([nH]6)c(-c6c(F)c(F)c(F)c(F)c6F)c6nc(c(-c7c(F)c(F)c(F)c(F)c7F)c7ccc4[nH]7)C=C6)C=C5)cc3)[C@@H]3C=C[C@H]2C3)cc1C
REMARK SMILES IDX 19 1 17 2 18 3 16 4 15 5 91 6 88 7 90 8 92 9 89 10 13 11
REMARK SMILES IDX 12 12 14 14 11 15 9 16 10 17 7 19 8 20 6 21 5 22 1 23 2 24
REMARK SMILES IDX 3 25 94 26 4 27 93 28 95 29 20 30 21 31 22 32 23 33 24 34
REMARK SMILES IDX 25 35 26 36 87 37 27 38 86 39 28 40 29 41 30 42 80 43 31 44
REMARK SMILES IDX 85 45 79 46 81 47 32 48 84 49 78 50 77 51 33 53 65 54 45 55
REMARK SMILES IDX 64 56 46 57 49 58 63 59 82 60 47 61 48 62 62 64 83 65 50 66
REMARK SMILES IDX 34 67 35 68 43 69 36 70 37 71 41 72 44 73 38 74 39 75 42 76
REMARK SMILES IDX 40 77 66 78 67 79 75 80 68 81 69 82 73 83 76 84 70 85 71 86
REMARK SMILES IDX 74 87 72 88 51 89 52 90 60 91 53 92 54 93 58 94 61 95 55 96
REMARK SMILES IDX 56 97 59 98 57 99
REMARK H PARENT 12 13 11 18 81 52 49 63
REMARK Flexibility Score: inf
ROOT
ATOM      1  O   UNL     1       0.407   4.922  -1.298  1.00  0.00    -0.462 OA
ENDROOT
BRANCH   1   2
ATOM      2  C   UNL     1      -0.757   5.619  -1.250  1.00  0.00     0.310 C 
ATOM      3  O   UNL     1      -0.840   6.836  -1.376  1.00  0.00    -0.252 OA
BRANCH   2   4
ATOM      4  C   UNL     1      -1.955   4.750  -0.929  1.00  0.00     0.119 C 
ATOM      5  C   UNL     1      -1.910   3.267  -1.466  1.00  0.00     0.102 C 
ATOM      6  C   UNL     1      -3.225   3.186  -2.288  1.00  0.00     0.025 C 
ATOM      7  C   UNL     1      -3.225   5.315  -1.619  1.00  0.00     0.027 C 
ATOM      8  C   UNL     1      -4.421   3.366  -1.390  1.00  0.00    -0.027 C 
ATOM      9  C   UNL     1      -3.221   4.563  -2.950  1.00  0.00     0.017 C 
ATOM     10  C   UNL     1      -4.424   4.645  -0.988  1.00  0.00    -0.027 C 
BRANCH   5  11
ATOM     11  C   UNL     1      -1.725   2.299  -0.299  1.00  0.00     0.242 C 
ATOM     12  N   UNL     1      -2.057   0.975  -0.405  1.00  0.00    -0.267 N 
ATOM     13  H   UNL     1      -1.807   0.387   0.344  1.00  0.00     0.191 HD
ATOM     14  O   UNL     1      -1.165   2.660   0.742  1.00  0.00    -0.273 OA
BRANCH  12  15
ATOM     15  N   UNL     1      -2.712   0.393  -1.473  1.00  0.00    -0.264 N 
ATOM     16  C   UNL     1      -3.744  -0.507  -1.345  1.00  0.00     0.279 C 
ATOM     17  O   UNL     1      -4.425  -0.770  -2.341  1.00  0.00    -0.269 OA
ATOM     18  H   UNL     1      -2.422   0.638  -2.381  1.00  0.00     0.191 HD
BRANCH  16  19
ATOM     19  C   UNL     1      -3.927  -1.279  -0.024  1.00  0.00     0.260 C 
ATOM     20  C   UNL     1      -2.721  -2.219   0.114  1.00  0.00     0.064 C 
BRANCH  19  21
ATOM     21  O   UNL     1      -4.058  -0.405   1.097  1.00  0.00    -0.481 OA
BRANCH  21  22
ATOM     22  C   UNL     1      -4.425  -0.939   2.305  1.00  0.00     0.120 A 
ATOM     23  C   UNL     1      -5.237  -2.374   6.312  1.00  0.00     0.044 C 
ATOM     24  C   UNL     1      -4.981  -1.830   4.934  1.00  0.00    -0.048 A 
ATOM     25  C   UNL     1      -5.081  -2.696   3.837  1.00  0.00     0.007 A 
ATOM     26  C   UNL     1      -4.647  -0.483   4.705  1.00  0.00    -0.045 A 
ATOM     27  C   UNL     1      -4.822  -2.253   2.536  1.00  0.00     0.047 A 
ATOM     28  C   UNL     1      -4.368  -0.058   3.389  1.00  0.00     0.050 A 
ATOM     29  C   UNL     1      -4.596   0.544   5.804  1.00  0.00     0.045 C 
ENDBRANCH  21  22
ENDBRANCH  19  21
ENDBRANCH  16  19
ENDBRANCH  12  15
ENDBRANCH   5  11
ENDBRANCH   2   4
ENDBRANCH   1   2
BRANCH   1  30
ATOM     30  C   UNL     1       1.604   5.717  -1.425  1.00  0.00     0.274 C 
BRANCH  30  31
ATOM     31  C   UNL     1       2.096   5.769  -2.869  1.00  0.00     0.275 C 
BRANCH  31  32
ATOM     32  O   UNL     1       1.142   6.446  -3.707  1.00  0.00    -0.458 OA
BRANCH  32  33
ATOM     33  C   UNL     1       0.526   5.673  -4.627  1.00  0.00     0.338 C 
ATOM     34  O   UNL     1       0.693   4.484  -4.836  1.00  0.00    -0.246 OA
BRANCH  33  35
ATOM     35  C   UNL     1      -0.445   6.471  -5.392  1.00  0.00     0.060 A 
ATOM     36  C   UNL     1      -1.569   6.993  -4.754  1.00  0.00     0.016 A 
ATOM     37  C   UNL     1      -0.326   6.544  -6.780  1.00  0.00     0.016 A 
ATOM     38  C   UNL     1      -2.632   7.483  -5.510  1.00  0.00     0.010 A 
ATOM     39  C   UNL     1      -1.349   7.133  -7.528  1.00  0.00     0.010 A 
ATOM     40  C   UNL     1      -2.533   7.568  -6.907  1.00  0.00    -0.014 A 
BRANCH  40  41
ATOM     41  C   UNL     1      -3.669   8.073  -7.727  1.00  0.00     0.031 A 
ATOM     42  C   UNL     1      -4.283   7.198  -8.788  1.00  0.00     0.074 A 
ATOM     43  C   UNL     1      -4.150   9.316  -7.536  1.00  0.00     0.049 A 
ATOM     44  N   UNL     1      -5.107   7.519  -9.754  1.00  0.00    -0.248 NA
ATOM     45  C   UNL     1      -3.911   5.775  -8.767  1.00  0.00     0.031 C 
ATOM     46  C   UNL     1      -3.692  10.257  -6.513  1.00  0.00     0.029 A 
ATOM     47  N   UNL     1      -5.134  10.005  -8.202  1.00  0.00    -0.354 N 
ATOM     48  C   UNL     1      -5.299   6.358 -10.491  1.00  0.00     0.074 A 
ATOM     49  C   UNL     1      -4.517   5.319  -9.855  1.00  0.00     0.031 C 
ATOM     50  C   UNL     1      -4.408  11.387  -6.602  1.00  0.00     0.029 A 
ATOM     51  C   UNL     1      -5.315  11.285  -7.740  1.00  0.00     0.049 A 
ATOM     52  H   UNL     1      -5.659   9.618  -8.940  1.00  0.00     0.167 HD
ATOM     53  C   UNL     1      -6.053   6.180 -11.603  1.00  0.00     0.037 A 
ATOM     54  C   UNL     1      -6.086  12.284  -8.207  1.00  0.00     0.037 A 
ATOM     55  C   UNL     1      -6.881   7.198 -12.197  1.00  0.00     0.049 A 
ATOM     56  C   UNL     1      -6.907  12.068  -9.445  1.00  0.00     0.074 A 
ATOM     57  C   UNL     1      -7.686   7.112 -13.319  1.00  0.00     0.029 A 
ATOM     58  N   UNL     1      -7.027   8.483 -11.698  1.00  0.00    -0.354 N 
ATOM     59  N   UNL     1      -7.016  10.992 -10.185  1.00  0.00    -0.248 NA
ATOM     60  C   UNL     1      -7.693  13.212  -9.926  1.00  0.00     0.031 C 
ATOM     61  C   UNL     1      -8.306   8.352 -13.511  1.00  0.00     0.029 A 
ATOM     62  C   UNL     1      -7.908   9.200 -12.491  1.00  0.00     0.049 A 
ATOM     63  H   UNL     1      -6.571   8.834 -10.899  1.00  0.00     0.167 HD
ATOM     64  C   UNL     1      -7.883  11.326 -11.215  1.00  0.00     0.074 A 
ATOM     65  C   UNL     1      -8.287  12.699 -10.995  1.00  0.00     0.031 C 
ATOM     66  C   UNL     1      -8.301  10.564 -12.254  1.00  0.00     0.037 A 
BRANCH  53  67
ATOM     67  C   UNL     1      -5.995   4.842 -12.276  1.00  0.00     0.064 A 
ATOM     68  C   UNL     1      -6.662   3.723 -11.760  1.00  0.00     0.173 A 
ATOM     69  C   UNL     1      -5.299   4.694 -13.487  1.00  0.00     0.173 A 
ATOM     70  F   UNL     1      -7.329   3.810 -10.600  1.00  0.00    -0.203 F 
ATOM     71  C   UNL     1      -6.620   2.498 -12.424  1.00  0.00     0.198 A 
ATOM     72  C   UNL     1      -5.278   3.475 -14.158  1.00  0.00     0.198 A 
ATOM     73  F   UNL     1      -4.649   5.738 -14.024  1.00  0.00    -0.203 F 
ATOM     74  F   UNL     1      -7.237   1.431 -11.897  1.00  0.00    -0.200 F 
ATOM     75  C   UNL     1      -5.935   2.377 -13.624  1.00  0.00     0.200 A 
ATOM     76  F   UNL     1      -4.624   3.363 -15.322  1.00  0.00    -0.200 F 
ATOM     77  F   UNL     1      -5.904   1.200 -14.264  1.00  0.00    -0.200 F 
ENDBRANCH  53  67
BRANCH  54  78
ATOM     78  C   UNL     1      -6.076  13.598  -7.517  1.00  0.00     0.064 A 
ATOM     79  C   UNL     1      -7.182  14.026  -6.771  1.00  0.00     0.173 A 
ATOM     80  C   UNL     1      -4.954  14.439  -7.569  1.00  0.00     0.173 A 
ATOM     81  F   UNL     1      -8.286  13.267  -6.714  1.00  0.00    -0.203 F 
ATOM     82  C   UNL     1      -7.166  15.248  -6.102  1.00  0.00     0.198 A 
ATOM     83  C   UNL     1      -4.930  15.648  -6.880  1.00  0.00     0.198 A 
ATOM     84  F   UNL     1      -3.873  14.072  -8.272  1.00  0.00    -0.203 F 
ATOM     85  F   UNL     1      -8.246  15.649  -5.419  1.00  0.00    -0.200 F 
ATOM     86  C   UNL     1      -6.037  16.054  -6.150  1.00  0.00     0.200 A 
ATOM     87  F   UNL     1      -3.834  16.417  -6.918  1.00  0.00    -0.200 F 
ATOM     88  F   UNL     1      -6.019  17.223  -5.497  1.00  0.00    -0.200 F 
ENDBRANCH  54  78
BRANCH  66  89
ATOM     89  C   UNL     1      -9.259  11.193 -13.217  1.00  0.00     0.064 A 
ATOM     90  C   UNL     1      -8.824  12.105 -14.188  1.00  0.00     0.173 A 
ATOM     91  C   UNL     1     -10.620  10.854 -13.188  1.00  0.00     0.173 A 
ATOM     92  F   UNL     1      -7.534  12.470 -14.241  1.00  0.00    -0.203 F 
ATOM     93  C   UNL     1      -9.723  12.671 -15.087  1.00  0.00     0.198 A 
ATOM     94  C   UNL     1     -11.512  11.408 -14.100  1.00  0.00     0.198 A 
ATOM     95  F   UNL     1     -11.081   9.984 -12.277  1.00  0.00    -0.203 F 
ATOM     96  F   UNL     1      -9.294  13.568 -15.986  1.00  0.00    -0.200 F 
ATOM     97  C   UNL     1     -11.064  12.319 -15.046  1.00  0.00     0.200 A 
ATOM     98  F   UNL     1     -12.807  11.064 -14.063  1.00  0.00    -0.200 F 
ATOM     99  F   UNL     1     -11.928  12.864 -15.914  1.00  0.00    -0.200 F 
ENDBRANCH  66  89
ENDBRANCH  40  41
ENDBRANCH  33  35
ENDBRANCH  32  33
ENDBRANCH  31  32
ENDBRANCH  30  31
ENDBRANCH   1  30
TORSDOF 16
