REMARK SMILES O=C(OCCOC(=O)c1cc(F)c(F)cc1NS(=O)(=O)c1ccc2c(c1)CCC2)c1ccc(-c2c3nc(c(-c4c(F)c(F)c(F)c(F)c4F)c4ccc([nH]4)c(-c4c(F)c(F)c(F)c(F)c4F)c4nc(c(-c5c(F)c(F)c(F)c(F)c5F)c5ccc2[nH]5)C=C4)C=C3)cc1
REMARK SMILES IDX 5 1 4 2 3 3 2 4 1 5 30 6 31 7 92 8 32 9 91 10 33 11 34 12
REMARK SMILES IDX 35 13 85 14 36 15 90 16 84 17 86 18 37 19 89 20 83 21 82 22
REMARK SMILES IDX 38 24 70 25 50 26 69 27 51 28 54 29 68 30 87 31 52 32 53 33
REMARK SMILES IDX 67 35 88 36 55 37 39 38 40 39 48 40 41 41 42 42 46 43 49 44
REMARK SMILES IDX 43 45 44 46 47 47 45 48 71 49 72 50 80 51 73 52 74 53 78 54
REMARK SMILES IDX 81 55 75 56 76 57 79 58 77 59 56 60 57 61 65 62 58 63 59 64
REMARK SMILES IDX 63 65 66 66 60 67 61 68 64 69 62 70 6 71 7 72 8 73 9 74
REMARK SMILES IDX 10 75 16 76 11 77 15 78 12 79 13 80 14 81 17 82 18 84 19 85
REMARK SMILES IDX 20 86 21 87 22 88 26 89 23 90 25 91 24 92 27 93 29 94 28 95
REMARK H PARENT 86 23 54 34 17 83
REMARK Flexibility Score: inf
ROOT
ATOM      1  C   UNL     1       3.741   1.543   1.713  1.00  0.00     0.275 C 
ENDROOT
BRANCH   1   2
ATOM      2  C   UNL     1       4.280   1.743   0.293  1.00  0.00     0.275 C 
BRANCH   2   3
ATOM      3  O   UNL     1       3.458   1.227  -0.762  1.00  0.00    -0.458 OA
BRANCH   3   4
ATOM      4  C   UNL     1       3.109  -0.044  -1.049  1.00  0.00     0.338 C 
ATOM      5  O   UNL     1       2.081  -0.222  -1.697  1.00  0.00    -0.246 OA
BRANCH   4   6
ATOM      6  C   UNL     1       3.853  -1.256  -0.563  1.00  0.00     0.060 A 
ATOM      7  C   UNL     1       5.084  -1.266   0.090  1.00  0.00     0.016 A 
ATOM      8  C   UNL     1       3.213  -2.495  -0.743  1.00  0.00     0.016 A 
ATOM      9  C   UNL     1       5.604  -2.444   0.631  1.00  0.00     0.010 A 
ATOM     10  C   UNL     1       3.698  -3.670  -0.171  1.00  0.00     0.010 A 
ATOM     11  C   UNL     1       4.908  -3.648   0.520  1.00  0.00    -0.014 A 
BRANCH  11  12
ATOM     12  C   UNL     1       5.535  -4.898   0.992  1.00  0.00     0.031 A 
ATOM     13  C   UNL     1       6.074  -5.849  -0.029  1.00  0.00     0.074 A 
ATOM     14  C   UNL     1       5.684  -5.135   2.308  1.00  0.00     0.049 A 
ATOM     15  N   UNL     1       6.743  -6.955   0.152  1.00  0.00    -0.248 NA
ATOM     16  C   UNL     1       5.865  -5.493  -1.443  1.00  0.00     0.031 C 
ATOM     17  C   UNL     1       5.269  -4.226   3.372  1.00  0.00     0.029 A 
ATOM     18  N   UNL     1       6.220  -6.203   2.979  1.00  0.00    -0.354 N 
ATOM     19  C   UNL     1       7.079  -7.392  -1.119  1.00  0.00     0.074 A 
ATOM     20  C   UNL     1       6.459  -6.497  -2.067  1.00  0.00     0.031 C 
ATOM     21  C   UNL     1       5.509  -4.795   4.564  1.00  0.00     0.029 A 
ATOM     22  C   UNL     1       6.119  -6.100   4.346  1.00  0.00     0.049 A 
ATOM     23  H   UNL     1       6.637  -6.970   2.525  1.00  0.00     0.167 HD
ATOM     24  C   UNL     1       7.888  -8.420  -1.458  1.00  0.00     0.037 A 
ATOM     25  C   UNL     1       6.489  -6.960   5.313  1.00  0.00     0.037 A 
ATOM     26  C   UNL     1       8.481  -9.307  -0.498  1.00  0.00     0.049 A 
ATOM     27  C   UNL     1       7.254  -8.188   4.909  1.00  0.00     0.074 A 
ATOM     28  C   UNL     1       9.305 -10.391  -0.722  1.00  0.00     0.029 A 
ATOM     29  N   UNL     1       8.295  -9.214   0.877  1.00  0.00    -0.354 N 
ATOM     30  N   UNL     1       7.611  -8.569   3.705  1.00  0.00    -0.248 NA
ATOM     31  C   UNL     1       7.709  -9.078   5.983  1.00  0.00     0.031 C 
ATOM     32  C   UNL     1       9.568 -10.993   0.512  1.00  0.00     0.029 A 
ATOM     33  C   UNL     1       8.961 -10.246   1.512  1.00  0.00     0.049 A 
ATOM     34  H   UNL     1       7.767  -8.518   1.330  1.00  0.00     0.167 HD
ATOM     35  C   UNL     1       8.373  -9.714   3.876  1.00  0.00     0.074 A 
ATOM     36  C   UNL     1       8.418  -9.971   5.303  1.00  0.00     0.031 C 
ATOM     37  C   UNL     1       8.993 -10.471   2.938  1.00  0.00     0.037 A 
BRANCH  24  38
ATOM     38  C   UNL     1       8.159  -8.621  -2.918  1.00  0.00     0.064 A 
ATOM     39  C   UNL     1       7.633  -9.729  -3.595  1.00  0.00     0.173 A 
ATOM     40  C   UNL     1       8.933  -7.707  -3.652  1.00  0.00     0.173 A 
ATOM     41  F   UNL     1       6.880 -10.626  -2.941  1.00  0.00    -0.203 F 
ATOM     42  C   UNL     1       7.871  -9.915  -4.954  1.00  0.00     0.198 A 
ATOM     43  C   UNL     1       9.144  -7.881  -5.017  1.00  0.00     0.198 A 
ATOM     44  F   UNL     1       9.438  -6.616  -3.055  1.00  0.00    -0.203 F 
ATOM     45  F   UNL     1       7.367 -10.989  -5.578  1.00  0.00    -0.200 F 
ATOM     46  C   UNL     1       8.618  -8.988  -5.665  1.00  0.00     0.200 A 
ATOM     47  F   UNL     1       9.836  -6.965  -5.709  1.00  0.00    -0.200 F 
ATOM     48  F   UNL     1       8.822  -9.155  -6.979  1.00  0.00    -0.200 F 
ENDBRANCH  24  38
BRANCH  25  49
ATOM     49  C   UNL     1       6.191  -6.641   6.734  1.00  0.00     0.064 A 
ATOM     50  C   UNL     1       4.874  -6.669   7.220  1.00  0.00     0.173 A 
ATOM     51  C   UNL     1       7.201  -6.244   7.620  1.00  0.00     0.173 A 
ATOM     52  F   UNL     1       3.870  -7.040   6.413  1.00  0.00    -0.203 F 
ATOM     53  C   UNL     1       4.579  -6.297   8.531  1.00  0.00     0.198 A 
ATOM     54  C   UNL     1       6.907  -5.891   8.937  1.00  0.00     0.198 A 
ATOM     55  F   UNL     1       8.477  -6.210   7.209  1.00  0.00    -0.203 F 
ATOM     56  F   UNL     1       3.309  -6.306   8.960  1.00  0.00    -0.200 F 
ATOM     57  C   UNL     1       5.596  -5.909   9.389  1.00  0.00     0.200 A 
ATOM     58  F   UNL     1       7.895  -5.530   9.768  1.00  0.00    -0.200 F 
ATOM     59  F   UNL     1       5.314  -5.553  10.650  1.00  0.00    -0.200 F 
ENDBRANCH  25  49
BRANCH  37  60
ATOM     60  C   UNL     1       9.800 -11.640   3.413  1.00  0.00     0.064 A 
ATOM     61  C   UNL     1      11.197 -11.633   3.277  1.00  0.00     0.173 A 
ATOM     62  C   UNL     1       9.187 -12.808   3.885  1.00  0.00     0.173 A 
ATOM     63  F   UNL     1      11.826 -10.539   2.820  1.00  0.00    -0.203 F 
ATOM     64  C   UNL     1      11.948 -12.767   3.565  1.00  0.00     0.198 A 
ATOM     65  C   UNL     1       9.946 -13.930   4.204  1.00  0.00     0.198 A 
ATOM     66  F   UNL     1       7.856 -12.856   4.044  1.00  0.00    -0.203 F 
ATOM     67  F   UNL     1      13.274 -12.756   3.373  1.00  0.00    -0.200 F 
ATOM     68  C   UNL     1      11.322 -13.914   4.029  1.00  0.00     0.200 A 
ATOM     69  F   UNL     1       9.343 -15.031   4.674  1.00  0.00    -0.200 F 
ATOM     70  F   UNL     1      12.046 -15.007   4.303  1.00  0.00    -0.200 F 
ENDBRANCH  37  60
ENDBRANCH  11  12
ENDBRANCH   4   6
ENDBRANCH   3   4
ENDBRANCH   2   3
ENDBRANCH   1   2
BRANCH   1  71
ATOM     71  O   UNL     1       3.277   0.214   2.008  1.00  0.00    -0.458 OA
BRANCH  71  72
ATOM     72  C   UNL     1       1.938  -0.013   1.890  1.00  0.00     0.340 C 
ATOM     73  O   UNL     1       1.098   0.769   1.485  1.00  0.00    -0.246 OA
BRANCH  72  74
ATOM     74  C   UNL     1       1.659  -1.423   2.254  1.00  0.00     0.087 A 
ATOM     75  C   UNL     1       2.286  -1.894   3.427  1.00  0.00     0.060 A 
ATOM     76  C   UNL     1       0.812  -2.263   1.478  1.00  0.00     0.066 A 
ATOM     77  C   UNL     1       2.106  -3.205   3.827  1.00  0.00     0.159 A 
ATOM     78  C   UNL     1       0.700  -3.588   1.913  1.00  0.00     0.070 A 
ATOM     79  F   UNL     1       2.672  -3.636   4.961  1.00  0.00    -0.204 F 
ATOM     80  C   UNL     1       1.354  -4.059   3.051  1.00  0.00     0.160 A 
ATOM     81  F   UNL     1       1.206  -5.343   3.402  1.00  0.00    -0.204 F 
BRANCH  76  82
ATOM     82  N   UNL     1      -0.106  -1.690   0.509  1.00  0.00    -0.279 N 
ATOM     83  H   UNL     1      -0.353  -0.751   0.674  1.00  0.00     0.180 HD
BRANCH  82  84
ATOM     84  S   UNL     1      -0.822  -2.390  -0.867  1.00  0.00     0.261 S 
ATOM     85  O   UNL     1      -2.110  -1.747  -1.027  1.00  0.00    -0.201 OA
ATOM     86  O   UNL     1       0.137  -2.358  -1.948  1.00  0.00    -0.201 OA
BRANCH  84  87
ATOM     87  C   UNL     1      -1.139  -4.104  -0.553  1.00  0.00     0.088 A 
ATOM     88  C   UNL     1      -2.205  -4.470   0.288  1.00  0.00     0.022 A 
ATOM     89  C   UNL     1      -0.279  -5.068  -1.109  1.00  0.00     0.026 A 
ATOM     90  C   UNL     1      -2.357  -5.806   0.670  1.00  0.00     0.005 A 
ATOM     91  C   UNL     1      -0.449  -6.385  -0.725  1.00  0.00    -0.043 A 
ATOM     92  C   UNL     1      -1.463  -6.744   0.171  1.00  0.00    -0.045 A 
ATOM     93  C   UNL     1       0.405  -7.564  -1.073  1.00  0.00     0.036 C 
ATOM     94  C   UNL     1      -1.355  -8.194   0.531  1.00  0.00     0.036 C 
ATOM     95  C   UNL     1      -0.489  -8.727  -0.620  1.00  0.00     0.010 C 
ENDBRANCH  84  87
ENDBRANCH  82  84
ENDBRANCH  76  82
ENDBRANCH  72  74
ENDBRANCH  71  72
ENDBRANCH   1  71
TORSDOF 14
