REMARK SMILES O=C(OCCOC(=O)c1nnn(-c2ccccc2C(F)(F)F)c1-c1cccc(Cl)c1)c1ccc(-c2c3nc(c(-c4c(F)c(F)c(F)c(F)c4F)c4ccc([nH]4)c(-c4c(F)c(F)c(F)c(F)c4F)c4nc(c(-c5c(F)c(F)c(F)c(F)c5F)c5ccc2[nH]5)C=C4)C=C3)cc1
REMARK SMILES IDX 4 1 3 2 2 3 1 4 31 5 32 6 93 7 33 8 92 9 34 10 35 11 36 12
REMARK SMILES IDX 86 13 37 14 91 15 85 16 87 17 38 18 90 19 84 20 83 21 39 23
REMARK SMILES IDX 71 24 51 25 70 26 52 27 55 28 69 29 88 30 53 31 54 32 68 34
REMARK SMILES IDX 89 35 56 36 40 37 41 38 49 39 42 40 43 41 47 42 50 43 44 44
REMARK SMILES IDX 45 45 48 46 46 47 72 48 73 49 81 50 74 51 75 52 79 53 82 54
REMARK SMILES IDX 76 55 77 56 80 57 78 58 57 59 58 60 66 61 59 62 60 63 64 64
REMARK SMILES IDX 67 65 61 66 62 67 65 68 63 69 5 70 6 71 7 72 8 73 9 74 10 75
REMARK SMILES IDX 23 76 11 77 12 78 24 79 25 80 30 81 26 82 28 83 27 84 29 85
REMARK SMILES IDX 13 86 14 87 18 88 15 89 17 90 16 91 19 92 20 93 21 94 22 95
REMARK H PARENT 87 22 55 33
REMARK Flexibility Score: inf
ROOT
ATOM      1  C   UNL     1       4.685   0.910  -1.045  1.00  0.00     0.275 C 
ENDROOT
BRANCH   1   2
ATOM      2  O   UNL     1       3.526   0.417  -1.753  1.00  0.00    -0.458 OA
BRANCH   2   3
ATOM      3  C   UNL     1       2.389   0.160  -1.070  1.00  0.00     0.338 C 
ATOM      4  O   UNL     1       1.474   0.958  -0.954  1.00  0.00    -0.246 OA
BRANCH   3   5
ATOM      5  C   UNL     1       2.294  -1.256  -0.632  1.00  0.00     0.060 A 
ATOM      6  C   UNL     1       3.399  -2.117  -0.651  1.00  0.00     0.016 A 
ATOM      7  C   UNL     1       1.049  -1.727  -0.194  1.00  0.00     0.016 A 
ATOM      8  C   UNL     1       3.248  -3.453  -0.315  1.00  0.00     0.010 A 
ATOM      9  C   UNL     1       0.898  -3.065   0.149  1.00  0.00     0.010 A 
ATOM     10  C   UNL     1       1.986  -3.934   0.033  1.00  0.00    -0.014 A 
BRANCH  10  11
ATOM     11  C   UNL     1       1.844  -5.375   0.226  1.00  0.00     0.031 A 
ATOM     12  C   UNL     1       2.539  -5.981   1.401  1.00  0.00     0.074 A 
ATOM     13  C   UNL     1       1.029  -6.096  -0.570  1.00  0.00     0.049 A 
ATOM     14  N   UNL     1       3.327  -7.011   1.439  1.00  0.00    -0.248 NA
ATOM     15  C   UNL     1       2.353  -5.329   2.705  1.00  0.00     0.031 C 
ATOM     16  C   UNL     1       0.087  -5.598  -1.579  1.00  0.00     0.029 A 
ATOM     17  N   UNL     1       0.786  -7.436  -0.560  1.00  0.00    -0.354 N 
ATOM     18  C   UNL     1       3.617  -7.233   2.788  1.00  0.00     0.074 A 
ATOM     19  C   UNL     1       3.070  -6.114   3.509  1.00  0.00     0.031 C 
ATOM     20  C   UNL     1      -0.779  -6.581  -1.902  1.00  0.00     0.029 A 
ATOM     21  C   UNL     1      -0.370  -7.802  -1.232  1.00  0.00     0.049 A 
ATOM     22  H   UNL     1       1.378  -8.086  -0.117  1.00  0.00     0.167 HD
ATOM     23  C   UNL     1       4.128  -8.415   3.235  1.00  0.00     0.037 A 
ATOM     24  C   UNL     1      -0.998  -9.000  -1.171  1.00  0.00     0.037 A 
ATOM     25  C   UNL     1       4.812  -9.125   2.188  1.00  0.00     0.049 A 
ATOM     26  C   UNL     1      -0.026  -9.997  -0.663  1.00  0.00     0.074 A 
ATOM     27  C   UNL     1       5.906  -8.858   1.387  1.00  0.00     0.029 A 
ATOM     28  N   UNL     1       4.208 -10.216   1.616  1.00  0.00    -0.354 N 
ATOM     29  N   UNL     1       1.017 -10.409  -1.328  1.00  0.00    -0.248 NA
ATOM     30  C   UNL     1       0.016 -10.227   0.773  1.00  0.00     0.031 C 
ATOM     31  C   UNL     1       5.596  -9.456   0.129  1.00  0.00     0.029 A 
ATOM     32  C   UNL     1       4.355 -10.076   0.262  1.00  0.00     0.049 A 
ATOM     33  H   UNL     1       3.758 -10.954   2.087  1.00  0.00     0.167 HD
ATOM     34  C   UNL     1       2.007 -10.562  -0.370  1.00  0.00     0.074 A 
ATOM     35  C   UNL     1       1.308 -10.531   0.912  1.00  0.00     0.031 C 
ATOM     36  C   UNL     1       3.327 -10.420  -0.688  1.00  0.00     0.037 A 
BRANCH  23  37
ATOM     37  C   UNL     1       3.718  -9.091   4.529  1.00  0.00     0.064 A 
ATOM     38  C   UNL     1       4.339 -10.303   4.901  1.00  0.00     0.173 A 
ATOM     39  C   UNL     1       2.538  -8.779   5.239  1.00  0.00     0.173 A 
ATOM     40  F   UNL     1       5.475 -10.702   4.308  1.00  0.00    -0.203 F 
ATOM     41  C   UNL     1       3.758 -11.186   5.816  1.00  0.00     0.198 A 
ATOM     42  C   UNL     1       1.986  -9.641   6.188  1.00  0.00     0.198 A 
ATOM     43  F   UNL     1       1.815  -7.685   4.977  1.00  0.00    -0.203 F 
ATOM     44  F   UNL     1       4.314 -12.386   6.029  1.00  0.00    -0.200 F 
ATOM     45  C   UNL     1       2.572 -10.861   6.447  1.00  0.00     0.200 A 
ATOM     46  F   UNL     1       0.835  -9.308   6.788  1.00  0.00    -0.200 F 
ATOM     47  F   UNL     1       1.973 -11.735   7.266  1.00  0.00    -0.200 F 
ENDBRANCH  23  37
BRANCH  24  48
ATOM     48  C   UNL     1      -2.457  -9.245  -1.209  1.00  0.00     0.064 A 
ATOM     49  C   UNL     1      -2.976 -10.514  -1.505  1.00  0.00     0.173 A 
ATOM     50  C   UNL     1      -3.369  -8.294  -0.707  1.00  0.00     0.173 A 
ATOM     51  F   UNL     1      -2.164 -11.491  -1.934  1.00  0.00    -0.203 F 
ATOM     52  C   UNL     1      -4.327 -10.815  -1.302  1.00  0.00     0.198 A 
ATOM     53  C   UNL     1      -4.718  -8.592  -0.517  1.00  0.00     0.198 A 
ATOM     54  F   UNL     1      -2.953  -7.085  -0.304  1.00  0.00    -0.203 F 
ATOM     55  F   UNL     1      -4.779 -12.054  -1.543  1.00  0.00    -0.200 F 
ATOM     56  C   UNL     1      -5.195  -9.856  -0.804  1.00  0.00     0.200 A 
ATOM     57  F   UNL     1      -5.537  -7.666   0.001  1.00  0.00    -0.200 F 
ATOM     58  F   UNL     1      -6.477 -10.161  -0.561  1.00  0.00    -0.200 F 
ENDBRANCH  24  48
BRANCH  36  59
ATOM     59  C   UNL     1       3.693 -10.332  -2.141  1.00  0.00     0.064 A 
ATOM     60  C   UNL     1       3.281  -9.281  -2.980  1.00  0.00     0.173 A 
ATOM     61  C   UNL     1       4.615 -11.248  -2.661  1.00  0.00     0.173 A 
ATOM     62  F   UNL     1       2.492  -8.303  -2.522  1.00  0.00    -0.203 F 
ATOM     63  C   UNL     1       3.734  -9.185  -4.294  1.00  0.00     0.198 A 
ATOM     64  C   UNL     1       5.095 -11.129  -3.962  1.00  0.00     0.198 A 
ATOM     65  F   UNL     1       5.095 -12.233  -1.885  1.00  0.00    -0.203 F 
ATOM     66  F   UNL     1       3.319  -8.177  -5.076  1.00  0.00    -0.200 F 
ATOM     67  C   UNL     1       4.646 -10.105  -4.782  1.00  0.00     0.200 A 
ATOM     68  F   UNL     1       6.019 -11.988  -4.413  1.00  0.00    -0.200 F 
ATOM     69  F   UNL     1       5.119  -9.986  -6.031  1.00  0.00    -0.200 F 
ENDBRANCH  36  59
ENDBRANCH  10  11
ENDBRANCH   3   5
ENDBRANCH   2   3
ENDBRANCH   1   2
BRANCH   1  70
ATOM     70  C   UNL     1       4.451   1.565   0.314  1.00  0.00     0.275 C 
BRANCH  70  71
ATOM     71  O   UNL     1       4.039   0.574   1.270  1.00  0.00    -0.457 OA
BRANCH  71  72
ATOM     72  C   UNL     1       2.939   0.883   2.015  1.00  0.00     0.361 C 
ATOM     73  O   UNL     1       2.292   1.920   1.923  1.00  0.00    -0.244 OA
BRANCH  72  74
ATOM     74  C   UNL     1       2.696  -0.096   3.045  1.00  0.00     0.198 A 
ATOM     75  N   UNL     1       2.001  -1.263   2.870  1.00  0.00    -0.122 NA
ATOM     76  C   UNL     1       3.185  -0.036   4.338  1.00  0.00     0.109 A 
ATOM     77  N   UNL     1       2.011  -1.923   4.022  1.00  0.00    -0.061 NA
ATOM     78  N   UNL     1       2.576  -1.119   4.950  1.00  0.00    -0.211 N 
BRANCH  76  79
ATOM     79  C   UNL     1       4.133   0.887   4.949  1.00  0.00     0.004 A 
ATOM     80  C   UNL     1       5.284   0.404   5.588  1.00  0.00     0.010 A 
ATOM     81  C   UNL     1       3.910   2.267   4.890  1.00  0.00     0.031 A 
ATOM     82  C   UNL     1       6.174   1.286   6.201  1.00  0.00     0.002 A 
ATOM     83  C   UNL     1       4.799   3.142   5.508  1.00  0.00     0.041 A 
ATOM     84  C   UNL     1       5.925   2.658   6.170  1.00  0.00     0.020 A 
ATOM     85  Cl  UNL     1       4.492   4.834   5.468  1.00  0.00    -0.084 Cl
ENDBRANCH  76  79
BRANCH  78  86
ATOM     86  C   UNL     1       2.606  -1.473   6.316  1.00  0.00     0.079 A 
ATOM     87  C   UNL     1       3.079  -2.756   6.635  1.00  0.00     0.029 A 
ATOM     88  C   UNL     1       2.267  -0.553   7.328  1.00  0.00     0.081 A 
ATOM     89  C   UNL     1       3.320  -3.091   7.966  1.00  0.00     0.002 A 
ATOM     90  C   UNL     1       2.533  -0.914   8.661  1.00  0.00     0.015 A 
ATOM     91  C   UNL     1       3.070  -2.164   8.975  1.00  0.00     0.001 A 
BRANCH  88  92
ATOM     92  C   UNL     1       1.542   0.757   7.096  1.00  0.00     0.418 C 
ATOM     93  F   UNL     1       0.454   0.885   7.907  1.00  0.00    -0.166 F 
ATOM     94  F   UNL     1       2.324   1.837   7.363  1.00  0.00    -0.166 F 
ATOM     95  F   UNL     1       1.065   0.929   5.835  1.00  0.00    -0.166 F 
ENDBRANCH  88  92
ENDBRANCH  78  86
ENDBRANCH  72  74
ENDBRANCH  71  72
ENDBRANCH  70  71
ENDBRANCH   1  70
TORSDOF 14
