REMARK SMILES COC(=O)[C@H]1CCN(C(=O)Nc2sccc2C(=O)OCCOC(=O)c2ccc(-c3c4nc(c(-c5c(F)c(F)c(F)c(F)c5F)c5ccc([nH]5)c(-c5c(F)c(F)c(F)c(F)c5F)c5nc(c(-c6c(F)c(F)c(F)c(F)c6F)c6ccc3[nH]6)C=C5)C=C4)cc2)C1
REMARK SMILES IDX 20 1 19 2 17 3 18 4 16 5 12 6 13 7 14 8 15 9 11 10 9 11
REMARK SMILES IDX 10 12 8 14 5 15 6 16 88 17 7 18 3 19 4 20 2 21 1 22 21 23
REMARK SMILES IDX 22 24 23 25 24 26 25 27 26 28 87 29 27 30 86 31 28 32 29 33
REMARK SMILES IDX 30 34 80 35 31 36 85 37 79 38 81 39 32 40 84 41 78 42 77 43
REMARK SMILES IDX 33 45 65 46 45 47 64 48 46 49 49 50 63 51 82 52 47 53 48 54
REMARK SMILES IDX 62 56 83 57 50 58 34 59 35 60 43 61 36 62 37 63 41 64 44 65
REMARK SMILES IDX 38 66 39 67 42 68 40 69 66 70 67 71 75 72 68 73 69 74 73 75
REMARK SMILES IDX 76 76 70 77 71 78 74 79 72 80 51 81 52 82 60 83 53 84 54 85
REMARK SMILES IDX 58 86 61 87 55 88 56 89 59 90 57 91
REMARK H PARENT 11 13 81 44 49 55
REMARK Flexibility Score: inf
ROOT
ATOM      1  C   UNL     1      -0.806  -3.794   6.499  1.00  0.00     0.275 C 
ENDROOT
BRANCH   1   2
ATOM      2  O   UNL     1      -1.425  -4.812   5.687  1.00  0.00    -0.458 OA
BRANCH   2   3
ATOM      3  C   UNL     1      -0.657  -5.288   4.669  1.00  0.00     0.341 C 
ATOM      4  O   UNL     1       0.522  -5.007   4.497  1.00  0.00    -0.246 OA
BRANCH   3   5
ATOM      5  C   UNL     1      -1.354  -6.212   3.787  1.00  0.00     0.094 A 
ATOM      6  C   UNL     1      -2.394  -5.888   2.938  1.00  0.00     0.111 A 
ATOM      7  S   UNL     1      -3.005  -7.236   2.086  1.00  0.00    -0.126 S 
ATOM      8  C   UNL     1      -1.794  -8.258   2.708  1.00  0.00     0.068 A 
ATOM      9  C   UNL     1      -1.003  -7.601   3.622  1.00  0.00     0.029 A 
BRANCH   6  10
ATOM     10  N   UNL     1      -3.087  -4.744   2.622  1.00  0.00    -0.298 N 
ATOM     11  C   UNL     1      -2.824  -3.472   3.002  1.00  0.00     0.322 C 
ATOM     12  O   UNL     1      -3.767  -2.764   3.365  1.00  0.00    -0.248 OA
ATOM     13  H   UNL     1      -3.876  -4.866   2.046  1.00  0.00     0.172 HD
BRANCH  11  14
ATOM     14  N   UNL     1      -1.561  -2.959   2.863  1.00  0.00    -0.324 N 
ATOM     15  C   UNL     1       0.105  -1.250   2.848  1.00  0.00     0.120 C 
ATOM     16  C   UNL     1       0.711  -2.579   2.402  1.00  0.00     0.039 C 
ATOM     17  C   UNL     1      -1.303  -1.603   3.318  1.00  0.00     0.136 C 
ATOM     18  C   UNL     1      -0.495  -3.404   1.978  1.00  0.00     0.122 C 
BRANCH  15  19
ATOM     19  C   UNL     1       0.904  -0.600   3.952  1.00  0.00     0.310 C 
ATOM     20  O   UNL     1       0.649  -0.666   5.147  1.00  0.00    -0.252 OA
BRANCH  19  21
ATOM     21  O   UNL     1       1.956   0.086   3.421  1.00  0.00    -0.469 OA
ATOM     22  C   UNL     1       2.731   0.792   4.392  1.00  0.00     0.282 C 
ENDBRANCH  19  21
ENDBRANCH  15  19
ENDBRANCH  11  14
ENDBRANCH   6  10
ENDBRANCH   3   5
ENDBRANCH   2   3
ENDBRANCH   1   2
BRANCH   1  23
ATOM     23  C   UNL     1      -0.080  -4.353   7.727  1.00  0.00     0.275 C 
BRANCH  23  24
ATOM     24  O   UNL     1       1.141  -5.033   7.371  1.00  0.00    -0.458 OA
BRANCH  24  25
ATOM     25  C   UNL     1       1.063  -6.380   7.335  1.00  0.00     0.338 C 
ATOM     26  O   UNL     1       0.097  -7.079   7.596  1.00  0.00    -0.246 OA
BRANCH  25  27
ATOM     27  C   UNL     1       2.309  -6.946   6.798  1.00  0.00     0.060 A 
ATOM     28  C   UNL     1       2.320  -7.322   5.456  1.00  0.00     0.016 A 
ATOM     29  C   UNL     1       3.389  -7.256   7.623  1.00  0.00     0.016 A 
ATOM     30  C   UNL     1       3.371  -8.054   4.931  1.00  0.00     0.010 A 
ATOM     31  C   UNL     1       4.472  -7.964   7.087  1.00  0.00     0.010 A 
ATOM     32  C   UNL     1       4.453  -8.391   5.746  1.00  0.00    -0.014 A 
BRANCH  32  33
ATOM     33  C   UNL     1       5.507  -9.270   5.193  1.00  0.00     0.031 A 
ATOM     34  C   UNL     1       5.608 -10.688   5.668  1.00  0.00     0.074 A 
ATOM     35  C   UNL     1       6.314  -8.820   4.216  1.00  0.00     0.049 A 
ATOM     36  N   UNL     1       6.519 -11.588   5.403  1.00  0.00    -0.248 NA
ATOM     37  C   UNL     1       4.538 -11.155   6.562  1.00  0.00     0.031 C 
ATOM     38  C   UNL     1       6.245  -7.488   3.614  1.00  0.00     0.029 A 
ATOM     39  N   UNL     1       7.343  -9.437   3.553  1.00  0.00    -0.354 N 
ATOM     40  C   UNL     1       6.162 -12.710   6.138  1.00  0.00     0.074 A 
ATOM     41  C   UNL     1       4.945 -12.383   6.851  1.00  0.00     0.031 C 
ATOM     42  C   UNL     1       7.192  -7.388   2.668  1.00  0.00     0.029 A 
ATOM     43  C   UNL     1       7.971  -8.622   2.646  1.00  0.00     0.049 A 
ATOM     44  H   UNL     1       7.606 -10.372   3.713  1.00  0.00     0.167 HD
ATOM     45  C   UNL     1       6.803 -13.900   6.214  1.00  0.00     0.037 A 
ATOM     46  C   UNL     1       9.081  -8.832   1.914  1.00  0.00     0.037 A 
ATOM     47  C   UNL     1       7.990 -14.223   5.468  1.00  0.00     0.049 A 
ATOM     48  C   UNL     1       9.797 -10.146   2.039  1.00  0.00     0.074 A 
ATOM     49  C   UNL     1       8.714 -15.402   5.460  1.00  0.00     0.029 A 
ATOM     50  N   UNL     1       8.623 -13.358   4.585  1.00  0.00    -0.354 N 
ATOM     51  N   UNL     1       9.491 -11.185   2.778  1.00  0.00    -0.248 NA
ATOM     52  C   UNL     1      11.021 -10.313   1.245  1.00  0.00     0.031 C 
ATOM     53  C   UNL     1       9.807 -15.236   4.601  1.00  0.00     0.029 A 
ATOM     54  C   UNL     1       9.742 -13.968   4.043  1.00  0.00     0.049 A 
ATOM     55  H   UNL     1       8.321 -12.444   4.376  1.00  0.00     0.167 HD
ATOM     56  C   UNL     1      10.482 -12.127   2.545  1.00  0.00     0.074 A 
ATOM     57  C   UNL     1      11.387 -11.545   1.573  1.00  0.00     0.031 C 
ATOM     58  C   UNL     1      10.635 -13.359   3.090  1.00  0.00     0.037 A 
BRANCH  45  59
ATOM     59  C   UNL     1       6.263 -14.905   7.186  1.00  0.00     0.064 A 
ATOM     60  C   UNL     1       5.072 -15.607   6.950  1.00  0.00     0.173 A 
ATOM     61  C   UNL     1       6.948 -15.156   8.384  1.00  0.00     0.173 A 
ATOM     62  F   UNL     1       4.369 -15.388   5.829  1.00  0.00    -0.203 F 
ATOM     63  C   UNL     1       4.570 -16.500   7.895  1.00  0.00     0.198 A 
ATOM     64  C   UNL     1       6.457 -16.067   9.315  1.00  0.00     0.198 A 
ATOM     65  F   UNL     1       8.091 -14.510   8.657  1.00  0.00    -0.203 F 
ATOM     66  F   UNL     1       3.401 -17.118   7.676  1.00  0.00    -0.200 F 
ATOM     67  C   UNL     1       5.263 -16.731   9.075  1.00  0.00     0.200 A 
ATOM     68  F   UNL     1       7.131 -16.293  10.451  1.00  0.00    -0.200 F 
ATOM     69  F   UNL     1       4.775 -17.584   9.985  1.00  0.00    -0.200 F 
ENDBRANCH  45  59
BRANCH  46  70
ATOM     70  C   UNL     1       9.598  -7.742   1.050  1.00  0.00     0.064 A 
ATOM     71  C   UNL     1       9.518  -7.819  -0.345  1.00  0.00     0.173 A 
ATOM     72  C   UNL     1      10.143  -6.576   1.611  1.00  0.00     0.173 A 
ATOM     73  F   UNL     1       9.027  -8.922  -0.928  1.00  0.00    -0.203 F 
ATOM     74  C   UNL     1       9.958  -6.768  -1.148  1.00  0.00     0.198 A 
ATOM     75  C   UNL     1      10.558  -5.516   0.810  1.00  0.00     0.198 A 
ATOM     76  F   UNL     1      10.241  -6.455   2.944  1.00  0.00    -0.203 F 
ATOM     77  F   UNL     1       9.890  -6.872  -2.482  1.00  0.00    -0.200 F 
ATOM     78  C   UNL     1      10.467  -5.614  -0.570  1.00  0.00     0.200 A 
ATOM     79  F   UNL     1      11.034  -4.398   1.374  1.00  0.00    -0.200 F 
ATOM     80  F   UNL     1      10.871  -4.596  -1.343  1.00  0.00    -0.200 F 
ENDBRANCH  46  70
BRANCH  58  81
ATOM     81  C   UNL     1      11.827 -14.152   2.649  1.00  0.00     0.064 A 
ATOM     82  C   UNL     1      13.115 -13.849   3.115  1.00  0.00     0.173 A 
ATOM     83  C   UNL     1      11.677 -15.246   1.785  1.00  0.00     0.173 A 
ATOM     84  F   UNL     1      13.309 -12.801   3.930  1.00  0.00    -0.203 F 
ATOM     85  C   UNL     1      14.213 -14.605   2.717  1.00  0.00     0.198 A 
ATOM     86  C   UNL     1      12.774 -16.013   1.407  1.00  0.00     0.198 A 
ATOM     87  F   UNL     1      10.464 -15.575   1.316  1.00  0.00    -0.203 F 
ATOM     88  F   UNL     1      15.441 -14.277   3.144  1.00  0.00    -0.200 F 
ATOM     89  C   UNL     1      14.041 -15.689   1.869  1.00  0.00     0.200 A 
ATOM     90  F   UNL     1      12.606 -17.065   0.594  1.00  0.00    -0.200 F 
ATOM     91  F   UNL     1      15.100 -16.419   1.490  1.00  0.00    -0.200 F 
ENDBRANCH  58  81
ENDBRANCH  32  33
ENDBRANCH  25  27
ENDBRANCH  24  25
ENDBRANCH  23  24
ENDBRANCH   1  23
TORSDOF 15
