REMARK SMILES NC(=O)c1c(-c2ccc(Cl)cc2)csc1NC(=O)[C@H]1[C@@H](C(=O)OCCOC(=O)c2ccc(-c3c4nc(c(-c5c(F)c(F)c(F)c(F)c5F)c5ccc([nH]5)c(-c5c(F)c(F)c(F)c(F)c5F)c5nc(c(-c6c(F)c(F)c(F)c(F)c6F)c6ccc3[nH]6)C=C5)C=C4)cc2)[C@@H]2CC[C@H]1O2
REMARK SMILES IDX 24 1 23 2 21 3 22 4 20 5 19 6 95 7 92 8 94 9 96 10 93 11
REMARK SMILES IDX 17 12 16 13 18 15 15 16 4 17 5 18 13 19 14 20 2 21 1 22 3 25
REMARK SMILES IDX 6 26 7 27 12 28 8 29 11 30 9 31 10 32 25 33 26 34 27 35
REMARK SMILES IDX 28 36 29 37 30 38 91 39 31 40 90 41 32 42 33 43 34 44 84 45
REMARK SMILES IDX 35 46 89 47 83 48 85 49 36 50 88 51 82 52 81 53 37 55 69 56
REMARK SMILES IDX 49 57 68 58 50 59 53 60 67 61 86 62 51 63 52 64 66 66 87 67
REMARK SMILES IDX 54 68 38 69 39 70 47 71 40 72 41 73 45 74 48 75 42 76 43 77
REMARK SMILES IDX 46 78 44 79 70 80 71 81 79 82 72 83 73 84 77 85 80 86 74 87
REMARK SMILES IDX 75 88 78 89 76 90 55 91 56 92 64 93 57 94 58 95 62 96 65 97
REMARK SMILES IDX 59 98 60 99 63 100 61 101
REMARK H PARENT 16 14 1 23 1 24 85 54 53 65
REMARK Flexibility Score: inf
ROOT
ATOM      1  C   UNL     1       0.935 -10.430   4.291  1.00  0.00     0.274 C 
ENDROOT
BRANCH   1   2
ATOM      2  O   UNL     1       0.306  -9.187   3.909  1.00  0.00    -0.462 OA
BRANCH   2   3
ATOM      3  C   UNL     1       0.849  -8.072   4.472  1.00  0.00     0.312 C 
ATOM      4  O   UNL     1       1.833  -8.103   5.202  1.00  0.00    -0.252 OA
BRANCH   3   5
ATOM      5  C   UNL     1      -0.010  -6.835   4.249  1.00  0.00     0.143 C 
ATOM      6  C   UNL     1      -0.049  -6.112   2.881  1.00  0.00     0.124 C 
ATOM      7  C   UNL     1       0.736  -4.808   3.200  1.00  0.00     0.132 C 
ATOM      8  C   UNL     1       0.549  -5.724   5.154  1.00  0.00     0.133 C 
ATOM      9  C   UNL     1      -0.176  -3.819   3.924  1.00  0.00     0.035 C 
ATOM     10  O   UNL     1       1.586  -5.190   4.304  1.00  0.00    -0.373 OA
ATOM     11  C   UNL     1      -0.418  -4.540   5.249  1.00  0.00     0.036 C 
BRANCH   6  12
ATOM     12  C   UNL     1       0.460  -6.764   1.602  1.00  0.00     0.231 C 
ATOM     13  N   UNL     1      -0.091  -7.876   1.042  1.00  0.00    -0.317 N 
ATOM     14  H   UNL     1       0.392  -8.191   0.244  1.00  0.00     0.170 HD
ATOM     15  O   UNL     1       1.387  -6.248   0.967  1.00  0.00    -0.274 OA
BRANCH  13  16
ATOM     16  C   UNL     1      -1.187  -8.653   1.359  1.00  0.00     0.108 A 
ATOM     17  C   UNL     1      -1.446  -9.939   0.885  1.00  0.00     0.082 A 
ATOM     18  C   UNL     1      -2.427 -10.564   1.752  1.00  0.00     0.007 A 
ATOM     19  C   UNL     1      -3.062  -9.635   2.555  1.00  0.00     0.076 A 
ATOM     20  S   UNL     1      -2.454  -8.072   2.318  1.00  0.00    -0.125 S 
BRANCH  17  21
ATOM     21  C   UNL     1      -0.698 -10.490  -0.249  1.00  0.00     0.252 C 
ATOM     22  N   UNL     1      -0.997 -11.752  -0.667  1.00  0.00    -0.365 N 
ATOM     23  H   UNL     1      -0.511 -12.147  -1.426  1.00  0.00     0.159 HD
ATOM     24  H   UNL     1      -1.699 -12.268  -0.209  1.00  0.00     0.159 HD
ATOM     25  O   UNL     1       0.129  -9.832  -0.876  1.00  0.00    -0.269 OA
ENDBRANCH  17  21
BRANCH  18  26
ATOM     26  C   UNL     1      -2.754 -11.971   1.936  1.00  0.00    -0.017 A 
ATOM     27  C   UNL     1      -4.076 -12.417   1.837  1.00  0.00     0.010 A 
ATOM     28  C   UNL     1      -1.744 -12.875   2.296  1.00  0.00     0.010 A 
ATOM     29  C   UNL     1      -4.386 -13.752   2.104  1.00  0.00     0.021 A 
ATOM     30  C   UNL     1      -2.054 -14.210   2.558  1.00  0.00     0.021 A 
ATOM     31  C   UNL     1      -3.375 -14.642   2.466  1.00  0.00     0.041 A 
ATOM     32  Cl  UNL     1      -3.762 -16.281   2.809  1.00  0.00    -0.084 Cl
ENDBRANCH  18  26
ENDBRANCH  13  16
ENDBRANCH   6  12
ENDBRANCH   3   5
ENDBRANCH   2   3
ENDBRANCH   1   2
BRANCH   1  33
ATOM     33  C   UNL     1       1.959 -10.887   3.256  1.00  0.00     0.275 C 
BRANCH  33  34
ATOM     34  O   UNL     1       2.893  -9.829   3.006  1.00  0.00    -0.458 OA
BRANCH  34  35
ATOM     35  C   UNL     1       3.113  -9.535   1.706  1.00  0.00     0.338 C 
ATOM     36  O   UNL     1       2.709 -10.165   0.740  1.00  0.00    -0.246 OA
BRANCH  35  37
ATOM     37  C   UNL     1       3.947  -8.324   1.599  1.00  0.00     0.060 A 
ATOM     38  C   UNL     1       3.759  -7.245   2.464  1.00  0.00     0.016 A 
ATOM     39  C   UNL     1       4.885  -8.233   0.571  1.00  0.00     0.016 A 
ATOM     40  C   UNL     1       4.460  -6.060   2.275  1.00  0.00     0.010 A 
ATOM     41  C   UNL     1       5.666  -7.082   0.446  1.00  0.00     0.010 A 
ATOM     42  C   UNL     1       5.458  -5.984   1.298  1.00  0.00    -0.014 A 
BRANCH  42  43
ATOM     43  C   UNL     1       6.336  -4.792   1.220  1.00  0.00     0.031 A 
ATOM     44  C   UNL     1       6.400  -3.968  -0.031  1.00  0.00     0.074 A 
ATOM     45  C   UNL     1       7.113  -4.488   2.277  1.00  0.00     0.049 A 
ATOM     46  N   UNL     1       7.266  -3.046  -0.367  1.00  0.00    -0.248 NA
ATOM     47  C   UNL     1       5.365  -4.222  -1.045  1.00  0.00     0.031 C 
ATOM     48  C   UNL     1       7.112  -5.196   3.560  1.00  0.00     0.029 A 
ATOM     49  N   UNL     1       8.062  -3.511   2.442  1.00  0.00    -0.354 N 
ATOM     50  C   UNL     1       6.914  -2.645  -1.648  1.00  0.00     0.074 A 
ATOM     51  C   UNL     1       5.749  -3.417  -2.028  1.00  0.00     0.031 C 
ATOM     52  C   UNL     1       7.996  -4.620   4.385  1.00  0.00     0.029 A 
ATOM     53  C   UNL     1       8.690  -3.564   3.662  1.00  0.00     0.049 A 
ATOM     54  H   UNL     1       8.273  -2.840   1.753  1.00  0.00     0.167 HD
ATOM     55  C   UNL     1       7.522  -1.720  -2.429  1.00  0.00     0.037 A 
ATOM     56  C   UNL     1       9.745  -2.875   4.132  1.00  0.00     0.037 A 
ATOM     57  C   UNL     1       8.655  -0.931  -2.016  1.00  0.00     0.049 A 
ATOM     58  C   UNL     1      10.408  -1.871   3.239  1.00  0.00     0.074 A 
ATOM     59  C   UNL     1       9.338   0.041  -2.727  1.00  0.00     0.029 A 
ATOM     60  N   UNL     1       9.264  -1.017  -0.772  1.00  0.00    -0.354 N 
ATOM     61  N   UNL     1      10.107  -1.536   2.009  1.00  0.00    -0.248 NA
ATOM     62  C   UNL     1      11.570  -1.162   3.791  1.00  0.00     0.031 C 
ATOM     63  C   UNL     1      10.378   0.522  -1.923  1.00  0.00     0.029 A 
ATOM     64  C   UNL     1      10.320  -0.122  -0.698  1.00  0.00     0.049 A 
ATOM     65  H   UNL     1       8.987  -1.624  -0.048  1.00  0.00     0.167 HD
ATOM     66  C   UNL     1      11.034  -0.577   1.637  1.00  0.00     0.074 A 
ATOM     67  C   UNL     1      11.897  -0.365   2.783  1.00  0.00     0.031 C 
ATOM     68  C   UNL     1      11.165   0.066   0.452  1.00  0.00     0.037 A 
BRANCH  55  69
ATOM     69  C   UNL     1       7.002  -1.530  -3.823  1.00  0.00     0.064 A 
ATOM     70  C   UNL     1       5.805  -0.848  -4.082  1.00  0.00     0.173 A 
ATOM     71  C   UNL     1       7.750  -1.983  -4.921  1.00  0.00     0.173 A 
ATOM     72  F   UNL     1       5.049  -0.401  -3.067  1.00  0.00    -0.203 F 
ATOM     73  C   UNL     1       5.369  -0.636  -5.388  1.00  0.00     0.198 A 
ATOM     74  C   UNL     1       7.323  -1.751  -6.226  1.00  0.00     0.198 A 
ATOM     75  F   UNL     1       8.906  -2.635  -4.729  1.00  0.00    -0.203 F 
ATOM     76  F   UNL     1       4.209  -0.004  -5.613  1.00  0.00    -0.200 F 
ATOM     77  C   UNL     1       6.132  -1.081  -6.459  1.00  0.00     0.200 A 
ATOM     78  F   UNL     1       8.069  -2.168  -7.259  1.00  0.00    -0.200 F 
ATOM     79  F   UNL     1       5.719  -0.863  -7.715  1.00  0.00    -0.200 F 
ENDBRANCH  55  69
BRANCH  56  80
ATOM     80  C   UNL     1      10.251  -3.155   5.499  1.00  0.00     0.064 A 
ATOM     81  C   UNL     1      10.089  -2.223   6.531  1.00  0.00     0.173 A 
ATOM     82  C   UNL     1      10.870  -4.376   5.811  1.00  0.00     0.173 A 
ATOM     83  F   UNL     1       9.525  -1.033   6.276  1.00  0.00    -0.203 F 
ATOM     84  C   UNL     1      10.528  -2.499   7.824  1.00  0.00     0.198 A 
ATOM     85  C   UNL     1      11.281  -4.663   7.109  1.00  0.00     0.198 A 
ATOM     86  F   UNL     1      11.046  -5.303   4.858  1.00  0.00    -0.203 F 
ATOM     87  F   UNL     1      10.390  -1.578   8.787  1.00  0.00    -0.200 F 
ATOM     88  C   UNL     1      11.115  -3.722   8.114  1.00  0.00     0.200 A 
ATOM     89  F   UNL     1      11.833  -5.852   7.389  1.00  0.00    -0.200 F 
ATOM     90  F   UNL     1      11.523  -3.992   9.361  1.00  0.00    -0.200 F 
ENDBRANCH  56  80
BRANCH  68  91
ATOM     91  C   UNL     1      12.271   1.071   0.353  1.00  0.00     0.064 A 
ATOM     92  C   UNL     1      13.609   0.673   0.224  1.00  0.00     0.173 A 
ATOM     93  C   UNL     1      11.987   2.444   0.375  1.00  0.00     0.173 A 
ATOM     94  F   UNL     1      13.929  -0.630   0.219  1.00  0.00    -0.203 F 
ATOM     95  C   UNL     1      14.629   1.617   0.146  1.00  0.00     0.198 A 
ATOM     96  C   UNL     1      13.007   3.385   0.273  1.00  0.00     0.198 A 
ATOM     97  F   UNL     1      10.721   2.871   0.495  1.00  0.00    -0.203 F 
ATOM     98  F   UNL     1      15.906   1.217   0.070  1.00  0.00    -0.200 F 
ATOM     99  C   UNL     1      14.327   2.971   0.165  1.00  0.00     0.200 A 
ATOM    100  F   UNL     1      12.714   4.692   0.286  1.00  0.00    -0.200 F 
ATOM    101  F   UNL     1      15.310   3.878   0.092  1.00  0.00    -0.200 F 
ENDBRANCH  68  91
ENDBRANCH  42  43
ENDBRANCH  35  37
ENDBRANCH  34  35
ENDBRANCH  33  34
ENDBRANCH   1  33
TORSDOF 15
