REMARK SMILES [N-]=[N+]=NC[C@H](NC=O)C(=O)OCCOC(=O)c1ccc(-c2c3nc(c(-c4c(F)c(F)c(F)c(F)c4F)c4ccc([nH]4)c(-c4c(F)c(F)c(F)c(F)c4F)c4nc(c(-c5c(F)c(F)c(F)c(F)c5F)c5ccc2[nH]5)C=C4)C=C3)cc1
REMARK SMILES IDX 12 1 11 2 9 3 10 4 5 5 4 6 3 7 1 8 2 9 6 10 7 11 8 13 13 14
REMARK SMILES IDX 14 15 15 16 16 17 17 18 18 19 79 20 19 21 78 22 20 23 21 24
REMARK SMILES IDX 22 25 72 26 23 27 77 28 71 29 73 30 24 31 76 32 70 33 69 34
REMARK SMILES IDX 25 36 57 37 37 38 56 39 38 40 41 41 55 42 74 43 39 44 40 45
REMARK SMILES IDX 54 47 75 48 42 49 26 50 27 51 35 52 28 53 29 54 33 55 36 56
REMARK SMILES IDX 30 57 31 58 34 59 32 60 58 61 59 62 67 63 60 64 61 65 65 66
REMARK SMILES IDX 68 67 62 68 63 69 66 70 64 71 43 72 44 73 52 74 45 75 46 76
REMARK SMILES IDX 50 77 53 78 47 79 48 80 51 81 49 82
REMARK H PARENT 6 12 73 35 41 46
REMARK Flexibility Score: inf
ROOT
ATOM      1  C   UNL     1       5.227  -5.261   1.202  1.00  0.00     0.274 C 
ENDROOT
BRANCH   1   2
ATOM      2  O   UNL     1       4.516  -4.059   0.848  1.00  0.00    -0.461 OA
BRANCH   2   3
ATOM      3  C   UNL     1       3.916  -3.371   1.863  1.00  0.00     0.328 C 
ATOM      4  O   UNL     1       3.889  -3.727   3.034  1.00  0.00    -0.250 OA
BRANCH   3   5
ATOM      5  C   UNL     1       3.200  -2.114   1.347  1.00  0.00     0.197 C 
BRANCH   5   6
ATOM      6  C   UNL     1       1.672  -2.285   1.325  1.00  0.00     0.127 C 
BRANCH   6   7
ATOM      7  N   UNL     1       1.218  -3.669   1.116  1.00  0.00    -0.091 NA
ATOM      8  N   UNL     1       1.612  -4.658  -1.013  1.00  0.00    -0.003 NA
ATOM      9  N   UNL     1       1.414  -4.176  -0.005  1.00  0.00     0.001 N 
ENDBRANCH   6   7
ENDBRANCH   5   6
BRANCH   5  10
ATOM     10  N   UNL     1       3.710  -1.658   0.054  1.00  0.00    -0.345 N 
ATOM     11  C   UNL     1       3.978  -0.349  -0.232  1.00  0.00     0.337 C 
ATOM     12  H   UNL     1       3.869  -2.330  -0.648  1.00  0.00     0.164 HD
ATOM     13  O   UNL     1       4.478   0.025  -1.281  1.00  0.00    -0.279 OA
ENDBRANCH   5  10
ENDBRANCH   3   5
ENDBRANCH   2   3
ENDBRANCH   1   2
BRANCH   1  14
ATOM     14  C   UNL     1       6.743  -5.043   1.187  1.00  0.00     0.275 C 
BRANCH  14  15
ATOM     15  O   UNL     1       7.159  -4.122   2.215  1.00  0.00    -0.458 OA
BRANCH  15  16
ATOM     16  C   UNL     1       7.143  -2.825   1.832  1.00  0.00     0.338 C 
ATOM     17  O   UNL     1       6.856  -2.385   0.731  1.00  0.00    -0.246 OA
BRANCH  16  18
ATOM     18  C   UNL     1       7.358  -1.940   2.985  1.00  0.00     0.060 A 
ATOM     19  C   UNL     1       6.359  -1.003   3.256  1.00  0.00     0.016 A 
ATOM     20  C   UNL     1       8.560  -1.918   3.690  1.00  0.00     0.016 A 
ATOM     21  C   UNL     1       6.567  -0.006   4.196  1.00  0.00     0.010 A 
ATOM     22  C   UNL     1       8.769  -0.916   4.646  1.00  0.00     0.010 A 
ATOM     23  C   UNL     1       7.788   0.067   4.876  1.00  0.00    -0.014 A 
BRANCH  23  24
ATOM     24  C   UNL     1       8.055   1.257   5.720  1.00  0.00     0.031 A 
ATOM     25  C   UNL     1       9.019   2.305   5.237  1.00  0.00     0.074 A 
ATOM     26  C   UNL     1       7.370   1.439   6.863  1.00  0.00     0.049 A 
ATOM     27  N   UNL     1       9.400   3.414   5.818  1.00  0.00    -0.248 NA
ATOM     28  C   UNL     1       9.638   2.074   3.922  1.00  0.00     0.031 C 
ATOM     29  C   UNL     1       6.370   0.518   7.403  1.00  0.00     0.029 A 
ATOM     30  N   UNL     1       7.402   2.468   7.770  1.00  0.00    -0.354 N 
ATOM     31  C   UNL     1      10.318   3.998   4.954  1.00  0.00     0.074 A 
ATOM     32  C   UNL     1      10.458   3.110   3.821  1.00  0.00     0.031 C 
ATOM     33  C   UNL     1       5.876   1.028   8.543  1.00  0.00     0.029 A 
ATOM     34  C   UNL     1       6.557   2.285   8.836  1.00  0.00     0.049 A 
ATOM     35  H   UNL     1       7.976   3.261   7.666  1.00  0.00     0.167 HD
ATOM     36  C   UNL     1      10.978   5.173   5.092  1.00  0.00     0.037 A 
ATOM     37  C   UNL     1       6.372   3.039   9.937  1.00  0.00     0.037 A 
ATOM     38  C   UNL     1      10.814   6.064   6.212  1.00  0.00     0.049 A 
ATOM     39  C   UNL     1       7.152   4.319  10.083  1.00  0.00     0.074 A 
ATOM     40  C   UNL     1      11.427   7.284   6.442  1.00  0.00     0.029 A 
ATOM     41  N   UNL     1       9.971   5.832   7.289  1.00  0.00    -0.354 N 
ATOM     42  N   UNL     1       8.019   4.862   9.264  1.00  0.00    -0.248 NA
ATOM     43  C   UNL     1       6.920   5.095  11.309  1.00  0.00     0.031 C 
ATOM     44  C   UNL     1      10.994   7.764   7.683  1.00  0.00     0.029 A 
ATOM     45  C   UNL     1      10.063   6.876   8.197  1.00  0.00     0.049 A 
ATOM     46  H   UNL     1       9.393   5.042   7.394  1.00  0.00     0.167 HD
ATOM     47  C   UNL     1       8.413   6.054   9.857  1.00  0.00     0.074 A 
ATOM     48  C   UNL     1       7.670   6.165  11.096  1.00  0.00     0.031 C 
ATOM     49  C   UNL     1       9.310   6.974   9.421  1.00  0.00     0.037 A 
BRANCH  36  50
ATOM     50  C   UNL     1      11.963   5.549   4.023  1.00  0.00     0.064 A 
ATOM     51  C   UNL     1      11.555   5.931   2.736  1.00  0.00     0.173 A 
ATOM     52  C   UNL     1      13.338   5.562   4.303  1.00  0.00     0.173 A 
ATOM     53  F   UNL     1      10.254   5.923   2.410  1.00  0.00    -0.203 F 
ATOM     54  C   UNL     1      12.488   6.287   1.764  1.00  0.00     0.198 A 
ATOM     55  C   UNL     1      14.266   5.948   3.340  1.00  0.00     0.198 A 
ATOM     56  F   UNL     1      13.784   5.209   5.519  1.00  0.00    -0.203 F 
ATOM     57  F   UNL     1      12.078   6.603   0.527  1.00  0.00    -0.200 F 
ATOM     58  C   UNL     1      13.841   6.303   2.069  1.00  0.00     0.200 A 
ATOM     59  F   UNL     1      15.571   5.977   3.641  1.00  0.00    -0.200 F 
ATOM     60  F   UNL     1      14.736   6.656   1.136  1.00  0.00    -0.200 F 
ENDBRANCH  36  50
BRANCH  37  61
ATOM     61  C   UNL     1       5.425   2.598  10.995  1.00  0.00     0.064 A 
ATOM     62  C   UNL     1       4.261   3.326  11.280  1.00  0.00     0.173 A 
ATOM     63  C   UNL     1       5.683   1.455  11.767  1.00  0.00     0.173 A 
ATOM     64  F   UNL     1       3.981   4.439  10.586  1.00  0.00    -0.203 F 
ATOM     65  C   UNL     1       3.409   2.945  12.314  1.00  0.00     0.198 A 
ATOM     66  C   UNL     1       4.811   1.056  12.778  1.00  0.00     0.198 A 
ATOM     67  F   UNL     1       6.781   0.721  11.536  1.00  0.00    -0.203 F 
ATOM     68  F   UNL     1       2.336   3.694  12.604  1.00  0.00    -0.200 F 
ATOM     69  C   UNL     1       3.681   1.808  13.059  1.00  0.00     0.200 A 
ATOM     70  F   UNL     1       5.071  -0.053  13.484  1.00  0.00    -0.200 F 
ATOM     71  F   UNL     1       2.862   1.443  14.054  1.00  0.00    -0.200 F 
ENDBRANCH  37  61
BRANCH  49  72
ATOM     72  C   UNL     1       9.495   8.202  10.267  1.00  0.00     0.064 A 
ATOM     73  C   UNL     1      10.107   8.148  11.529  1.00  0.00     0.173 A 
ATOM     74  C   UNL     1       9.058   9.453   9.804  1.00  0.00     0.173 A 
ATOM     75  F   UNL     1      10.531   6.975  12.024  1.00  0.00    -0.203 F 
ATOM     76  C   UNL     1      10.231   9.291  12.314  1.00  0.00     0.198 A 
ATOM     77  C   UNL     1       9.219  10.600  10.576  1.00  0.00     0.198 A 
ATOM     78  F   UNL     1       8.476   9.564   8.601  1.00  0.00    -0.203 F 
ATOM     79  F   UNL     1      10.754   9.202  13.545  1.00  0.00    -0.200 F 
ATOM     80  C   UNL     1       9.792  10.516  11.835  1.00  0.00     0.200 A 
ATOM     81  F   UNL     1       8.809  11.785  10.104  1.00  0.00    -0.200 F 
ATOM     82  F   UNL     1       9.910  11.615  12.593  1.00  0.00    -0.200 F 
ENDBRANCH  49  72
ENDBRANCH  23  24
ENDBRANCH  16  18
ENDBRANCH  15  16
ENDBRANCH  14  15
ENDBRANCH   1  14
TORSDOF 14
