REMARK SMILES COc1ccc(-c2noc(C[N@H+]3CCCC[C@@H]3C(=O)OCCOC(=O)c3ccc(-c4c5nc(c(-c6c(F)c(F)c(F)c(F)c6F)c6ccc([nH]6)c(-c6c(F)c(F)c(F)c(F)c6F)c6nc(c(-c7c(F)c(F)c(F)c(F)c7F)c7ccc4[nH]7)C=C6)C=C5)cc3)n2)cc1OC
REMARK SMILES IDX 21 1 20 2 18 3 19 4 17 5 12 6 13 7 14 9 16 10 15 11 11 12
REMARK SMILES IDX 10 13 7 14 8 15 89 16 9 17 6 18 3 19 4 20 91 21 5 22 90 23
REMARK SMILES IDX 2 24 1 25 92 26 93 27 22 28 23 29 24 30 25 31 26 32 27 33
REMARK SMILES IDX 88 34 28 35 87 36 29 37 30 38 31 39 81 40 32 41 86 42 80 43
REMARK SMILES IDX 82 44 33 45 85 46 79 47 78 48 34 50 66 51 46 52 65 53 47 54
REMARK SMILES IDX 50 55 64 56 83 57 48 58 49 59 63 61 84 62 51 63 35 64 36 65
REMARK SMILES IDX 44 66 37 67 38 68 42 69 45 70 39 71 40 72 43 73 41 74 67 75
REMARK SMILES IDX 68 76 76 77 69 78 70 79 74 80 77 81 71 82 72 83 75 84 73 85
REMARK SMILES IDX 52 86 53 87 61 88 54 89 55 90 59 91 62 92 56 93 57 94 60 95
REMARK SMILES IDX 58 96
REMARK H PARENT 12 8 82 49 50 60
REMARK Flexibility Score: inf
ROOT
ATOM      1  C   UNL     1       4.447  -1.438  13.156  1.00  0.00     0.274 C 
ENDROOT
BRANCH   1   2
ATOM      2  O   UNL     1       3.725  -0.247  12.788  1.00  0.00    -0.458 OA
BRANCH   2   3
ATOM      3  C   UNL     1       3.384  -0.142  11.477  1.00  0.00     0.365 C 
ATOM      4  O   UNL     1       3.691  -0.973  10.625  1.00  0.00    -0.245 OA
BRANCH   3   5
ATOM      5  C   UNL     1       2.546   1.113  11.148  1.00  0.00     0.295 C 
ATOM      6  N   UNL     1       3.293   2.119  10.340  1.00  0.00    -0.315 N 
ATOM      7  C   UNL     1       2.424   3.253   9.966  1.00  0.00     0.263 C 
ATOM      8  H   UNL     1       4.042   2.444  10.951  1.00  0.00     0.349 HD
ATOM      9  C   UNL     1       1.776   3.920  11.180  1.00  0.00     0.062 C 
ATOM     10  C   UNL     1       1.932   1.756  12.402  1.00  0.00     0.078 C 
ATOM     11  C   UNL     1       1.013   2.910  12.024  1.00  0.00     0.013 C 
BRANCH   6  12
ATOM     12  C   UNL     1       3.963   1.565   9.130  1.00  0.00     0.364 C 
BRANCH  12  13
ATOM     13  C   UNL     1       3.099   1.024   8.030  1.00  0.00     0.282 A 
ATOM     14  C   UNL     1       2.070   0.564   6.258  1.00  0.00     0.202 A 
ATOM     15  N   UNL     1       1.524  -0.269   7.156  1.00  0.00    -0.057 NA
ATOM     16  N   UNL     1       3.046   1.390   6.769  1.00  0.00    -0.186 NA
ATOM     17  O   UNL     1       2.234   0.010   8.325  1.00  0.00    -0.333 OA
BRANCH  14  18
ATOM     18  C   UNL     1       1.716   0.594   4.854  1.00  0.00     0.027 A 
ATOM     19  C   UNL     1       1.122   0.751   2.117  1.00  0.00     0.160 A 
ATOM     20  C   UNL     1       0.098   0.839   3.073  1.00  0.00     0.051 A 
ATOM     21  C   UNL     1       2.451   0.579   2.527  1.00  0.00     0.161 A 
ATOM     22  C   UNL     1       0.391   0.741   4.437  1.00  0.00     0.016 A 
ATOM     23  C   UNL     1       2.733   0.515   3.896  1.00  0.00     0.062 A 
BRANCH  19  24
ATOM     24  O   UNL     1       0.826   0.953   0.796  1.00  0.00    -0.493 OA
ATOM     25  C   UNL     1      -0.085  -0.016   0.280  1.00  0.00     0.278 C 
ENDBRANCH  19  24
BRANCH  21  26
ATOM     26  O   UNL     1       3.573   0.478   1.750  1.00  0.00    -0.493 OA
ATOM     27  C   UNL     1       3.405   0.173   0.373  1.00  0.00     0.278 C 
ENDBRANCH  21  26
ENDBRANCH  14  18
ENDBRANCH  12  13
ENDBRANCH   6  12
ENDBRANCH   3   5
ENDBRANCH   2   3
ENDBRANCH   1   2
BRANCH   1  28
ATOM     28  C   UNL     1       3.521  -2.516  13.730  1.00  0.00     0.275 C 
BRANCH  28  29
ATOM     29  O   UNL     1       2.612  -3.040  12.742  1.00  0.00    -0.458 OA
BRANCH  29  30
ATOM     30  C   UNL     1       1.405  -2.433  12.692  1.00  0.00     0.338 C 
ATOM     31  O   UNL     1       1.006  -1.522  13.405  1.00  0.00    -0.246 OA
BRANCH  30  32
ATOM     32  C   UNL     1       0.638  -2.913  11.534  1.00  0.00     0.060 A 
ATOM     33  C   UNL     1       0.251  -1.971  10.578  1.00  0.00     0.016 A 
ATOM     34  C   UNL     1       0.225  -4.241  11.423  1.00  0.00     0.016 A 
ATOM     35  C   UNL     1      -0.536  -2.343   9.496  1.00  0.00     0.010 A 
ATOM     36  C   UNL     1      -0.588  -4.613  10.346  1.00  0.00     0.010 A 
ATOM     37  C   UNL     1      -0.977  -3.663   9.383  1.00  0.00    -0.014 A 
BRANCH  37  38
ATOM     38  C   UNL     1      -1.913  -4.026   8.297  1.00  0.00     0.031 A 
ATOM     39  C   UNL     1      -3.378  -4.135   8.595  1.00  0.00     0.074 A 
ATOM     40  C   UNL     1      -1.456  -4.218   7.048  1.00  0.00     0.049 A 
ATOM     41  N   UNL     1      -4.353  -4.546   7.825  1.00  0.00    -0.248 NA
ATOM     42  C   UNL     1      -3.805  -3.714   9.938  1.00  0.00     0.031 C 
ATOM     43  C   UNL     1      -0.069  -4.045   6.621  1.00  0.00     0.029 A 
ATOM     44  N   UNL     1      -2.115  -4.612   5.911  1.00  0.00    -0.354 N 
ATOM     45  C   UNL     1      -5.505  -4.449   8.594  1.00  0.00     0.074 A 
ATOM     46  C   UNL     1      -5.109  -3.948   9.893  1.00  0.00     0.031 C 
ATOM     47  C   UNL     1       0.026  -4.356   5.317  1.00  0.00     0.029 A 
ATOM     48  C   UNL     1      -1.283  -4.792   4.835  1.00  0.00     0.049 A 
ATOM     49  H   UNL     1      -3.089  -4.753   5.871  1.00  0.00     0.167 HD
ATOM     50  C   UNL     1      -6.776  -4.754   8.242  1.00  0.00     0.037 A 
ATOM     51  C   UNL     1      -1.545  -5.290   3.613  1.00  0.00     0.037 A 
ATOM     52  C   UNL     1      -7.161  -5.248   6.947  1.00  0.00     0.049 A 
ATOM     53  C   UNL     1      -2.947  -5.722   3.279  1.00  0.00     0.074 A 
ATOM     54  C   UNL     1      -8.421  -5.596   6.494  1.00  0.00     0.029 A 
ATOM     55  N   UNL     1      -6.282  -5.467   5.896  1.00  0.00    -0.354 N 
ATOM     56  N   UNL     1      -4.030  -5.656   4.015  1.00  0.00    -0.248 NA
ATOM     57  C   UNL     1      -3.162  -6.306   1.947  1.00  0.00     0.031 C 
ATOM     58  C   UNL     1      -8.299  -6.065   5.181  1.00  0.00     0.029 A 
ATOM     59  C   UNL     1      -6.970  -5.966   4.802  1.00  0.00     0.049 A 
ATOM     60  H   UNL     1      -5.314  -5.294   5.924  1.00  0.00     0.167 HD
ATOM     61  C   UNL     1      -5.057  -6.163   3.231  1.00  0.00     0.074 A 
ATOM     62  C   UNL     1      -4.470  -6.529   1.959  1.00  0.00     0.031 C 
ATOM     63  C   UNL     1      -6.369  -6.311   3.538  1.00  0.00     0.037 A 
BRANCH  50  64
ATOM     64  C   UNL     1      -7.837  -4.600   9.290  1.00  0.00     0.064 A 
ATOM     65  C   UNL     1      -8.305  -3.339   9.686  1.00  0.00     0.173 A 
ATOM     66  C   UNL     1      -8.409  -5.733   9.887  1.00  0.00     0.173 A 
ATOM     67  F   UNL     1      -7.778  -2.225   9.155  1.00  0.00    -0.203 F 
ATOM     68  C   UNL     1      -9.295  -3.218  10.658  1.00  0.00     0.198 A 
ATOM     69  C   UNL     1      -9.415  -5.608  10.842  1.00  0.00     0.198 A 
ATOM     70  F   UNL     1      -7.996  -6.961   9.541  1.00  0.00    -0.203 F 
ATOM     71  F   UNL     1      -9.700  -2.002  11.052  1.00  0.00    -0.200 F 
ATOM     72  C   UNL     1      -9.852  -4.352  11.231  1.00  0.00     0.200 A 
ATOM     73  F   UNL     1      -9.958  -6.705  11.387  1.00  0.00    -0.200 F 
ATOM     74  F   UNL     1     -10.807  -4.233  12.164  1.00  0.00    -0.200 F 
ENDBRANCH  50  64
BRANCH  51  75
ATOM     75  C   UNL     1      -0.444  -5.445   2.629  1.00  0.00     0.064 A 
ATOM     76  C   UNL     1      -0.374  -4.637   1.488  1.00  0.00     0.173 A 
ATOM     77  C   UNL     1       0.557  -6.411   2.811  1.00  0.00     0.173 A 
ATOM     78  F   UNL     1      -1.323  -3.716   1.258  1.00  0.00    -0.203 F 
ATOM     79  C   UNL     1       0.650  -4.798   0.557  1.00  0.00     0.198 A 
ATOM     80  C   UNL     1       1.593  -6.555   1.892  1.00  0.00     0.198 A 
ATOM     81  F   UNL     1       0.531  -7.213   3.886  1.00  0.00    -0.203 F 
ATOM     82  F   UNL     1       0.672  -4.037  -0.546  1.00  0.00    -0.200 F 
ATOM     83  C   UNL     1       1.635  -5.753   0.762  1.00  0.00     0.200 A 
ATOM     84  F   UNL     1       2.547  -7.474   2.097  1.00  0.00    -0.200 F 
ATOM     85  F   UNL     1       2.618  -5.907  -0.136  1.00  0.00    -0.200 F 
ENDBRANCH  51  75
BRANCH  63  86
ATOM     86  C   UNL     1      -7.271  -6.851   2.469  1.00  0.00     0.064 A 
ATOM     87  C   UNL     1      -7.271  -8.210   2.125  1.00  0.00     0.173 A 
ATOM     88  C   UNL     1      -8.186  -6.007   1.822  1.00  0.00     0.173 A 
ATOM     89  F   UNL     1      -6.403  -9.053   2.705  1.00  0.00    -0.203 F 
ATOM     90  C   UNL     1      -8.146  -8.703   1.161  1.00  0.00     0.198 A 
ATOM     91  C   UNL     1      -9.076  -6.507   0.876  1.00  0.00     0.198 A 
ATOM     92  F   UNL     1      -8.227  -4.700   2.120  1.00  0.00    -0.203 F 
ATOM     93  F   UNL     1      -8.107  -9.999   0.822  1.00  0.00    -0.200 F 
ATOM     94  C   UNL     1      -9.053  -7.853   0.544  1.00  0.00     0.200 A 
ATOM     95  F   UNL     1      -9.958  -5.687   0.289  1.00  0.00    -0.200 F 
ATOM     96  F   UNL     1      -9.902  -8.331  -0.377  1.00  0.00    -0.200 F 
ENDBRANCH  63  86
ENDBRANCH  37  38
ENDBRANCH  30  32
ENDBRANCH  29  30
ENDBRANCH  28  29
ENDBRANCH   1  28
TORSDOF 16
