REMARK SMILES CCN1C(=O)c2cccc3cc(S(=O)(=O)NCC(=O)OCCOC(=O)c4ccc(-c5c6nc(c(-c7c(F)c(F)c(F)c(F)c7F)c7ccc([nH]7)c(-c7c(F)c(F)c(F)c(F)c7F)c7nc(c(-c8c(F)c(F)c(F)c(F)c8F)c8ccc5[nH]8)C=C7)C=C6)cc4)cc(c23)C1=O
REMARK SMILES IDX 21 1 20 2 18 3 19 4 17 5 16 6 13 8 14 9 15 10 12 11 3 12
REMARK SMILES IDX 4 13 92 14 5 15 6 16 90 17 93 18 7 19 91 20 89 21 8 22 10 23
REMARK SMILES IDX 9 24 11 25 2 26 1 27 22 28 23 29 24 30 25 31 26 32 27 33
REMARK SMILES IDX 88 34 28 35 87 36 29 37 30 38 31 39 81 40 32 41 86 42 80 43
REMARK SMILES IDX 82 44 33 45 85 46 79 47 78 48 34 50 66 51 46 52 65 53 47 54
REMARK SMILES IDX 50 55 64 56 83 57 48 58 49 59 63 61 84 62 51 63 35 64 36 65
REMARK SMILES IDX 44 66 37 67 38 68 42 69 45 70 39 71 40 72 43 73 41 74 67 75
REMARK SMILES IDX 68 76 76 77 69 78 70 79 74 80 77 81 71 82 72 83 75 84 73 85
REMARK SMILES IDX 52 86 53 87 61 88 54 89 55 90 59 91 62 92 56 93 57 94 60 95
REMARK SMILES IDX 58 96
REMARK H PARENT 16 7 82 49 50 60
REMARK Flexibility Score: inf
ROOT
ATOM      1  C   UNL     1       8.624   4.268  -3.341  1.00  0.00     0.274 C 
ENDROOT
BRANCH   1   2
ATOM      2  O   UNL     1       7.272   4.619  -3.671  1.00  0.00    -0.461 OA
BRANCH   2   3
ATOM      3  C   UNL     1       7.005   5.933  -3.832  1.00  0.00     0.321 C 
ATOM      4  O   UNL     1       7.763   6.851  -3.540  1.00  0.00    -0.251 OA
BRANCH   3   5
ATOM      5  C   UNL     1       5.644   6.151  -4.428  1.00  0.00     0.221 C 
BRANCH   5   6
ATOM      6  N   UNL     1       5.262   5.385  -5.642  1.00  0.00    -0.200 NA
ATOM      7  H   UNL     1       4.605   5.969  -6.160  1.00  0.00     0.142 HD
BRANCH   6   8
ATOM      8  S   UNL     1       4.548   3.857  -5.506  1.00  0.00     0.241 S 
ATOM      9  O   UNL     1       5.551   2.954  -4.993  1.00  0.00    -0.207 OA
ATOM     10  O   UNL     1       3.864   3.594  -6.752  1.00  0.00    -0.207 OA
BRANCH   8  11
ATOM     11  C   UNL     1       3.299   4.038  -4.262  1.00  0.00     0.083 A 
ATOM     12  N   UNL     1       1.016   2.310  -0.338  1.00  0.00    -0.275 N 
ATOM     13  C   UNL     1       0.428   3.555  -0.079  1.00  0.00     0.261 C 
ATOM     14  C   UNL     1       2.031   2.129  -1.274  1.00  0.00     0.261 C 
ATOM     15  O   UNL     1      -0.310   3.777   0.878  1.00  0.00    -0.269 OA
ATOM     16  C   UNL     1       0.736   4.663  -1.010  1.00  0.00     0.049 A 
ATOM     17  C   UNL     1       2.232   3.211  -2.265  1.00  0.00     0.050 A 
ATOM     18  O   UNL     1       2.781   1.159  -1.326  1.00  0.00    -0.269 OA
ATOM     19  C   UNL     1       0.175   5.929  -0.796  1.00  0.00     0.014 A 
ATOM     20  C   UNL     1       1.573   4.433  -2.102  1.00  0.00     0.007 A 
ATOM     21  C   UNL     1       3.122   3.019  -3.327  1.00  0.00     0.036 A 
ATOM     22  C   UNL     1       0.422   6.965  -1.694  1.00  0.00     0.001 A 
ATOM     23  C   UNL     1       1.781   5.472  -3.042  1.00  0.00    -0.015 A 
ATOM     24  C   UNL     1       1.203   6.731  -2.825  1.00  0.00     0.009 A 
ATOM     25  C   UNL     1       2.594   5.239  -4.155  1.00  0.00     0.030 A 
BRANCH  12  26
ATOM     26  C   UNL     1       0.649   1.245   0.600  1.00  0.00     0.126 C 
ATOM     27  C   UNL     1       0.895  -0.197   0.179  1.00  0.00     0.028 C 
ENDBRANCH  12  26
ENDBRANCH   8  11
ENDBRANCH   6   8
ENDBRANCH   5   6
ENDBRANCH   3   5
ENDBRANCH   2   3
ENDBRANCH   1   2
BRANCH   1  28
ATOM     28  C   UNL     1       9.420   3.951  -4.612  1.00  0.00     0.275 C 
BRANCH  28  29
ATOM     29  O   UNL     1       9.783   5.146  -5.335  1.00  0.00    -0.458 OA
BRANCH  29  30
ATOM     30  C   UNL     1       8.889   5.584  -6.251  1.00  0.00     0.338 C 
ATOM     31  O   UNL     1       7.816   5.079  -6.545  1.00  0.00    -0.246 OA
BRANCH  30  32
ATOM     32  C   UNL     1       9.295   6.900  -6.769  1.00  0.00     0.060 A 
ATOM     33  C   UNL     1       8.344   7.928  -6.770  1.00  0.00     0.016 A 
ATOM     34  C   UNL     1      10.563   7.104  -7.312  1.00  0.00     0.016 A 
ATOM     35  C   UNL     1       8.654   9.167  -7.324  1.00  0.00     0.010 A 
ATOM     36  C   UNL     1      10.872   8.346  -7.870  1.00  0.00     0.010 A 
ATOM     37  C   UNL     1       9.916   9.379  -7.890  1.00  0.00    -0.014 A 
BRANCH  37  38
ATOM     38  C   UNL     1      10.227  10.656  -8.570  1.00  0.00     0.031 A 
ATOM     39  C   UNL     1      10.276  10.692 -10.069  1.00  0.00     0.074 A 
ATOM     40  C   UNL     1      10.480  11.762  -7.849  1.00  0.00     0.049 A 
ATOM     41  N   UNL     1      10.699  11.642 -10.862  1.00  0.00    -0.248 NA
ATOM     42  C   UNL     1       9.786   9.494 -10.770  1.00  0.00     0.031 C 
ATOM     43  C   UNL     1      10.396  11.858  -6.392  1.00  0.00     0.029 A 
ATOM     44  N   UNL     1      10.881  13.013  -8.246  1.00  0.00    -0.354 N 
ATOM     45  C   UNL     1      10.561  11.145 -12.151  1.00  0.00     0.074 A 
ATOM     46  C   UNL     1      10.012   9.811 -12.037  1.00  0.00     0.031 C 
ATOM     47  C   UNL     1      10.751  13.098  -6.016  1.00  0.00     0.029 A 
ATOM     48  C   UNL     1      11.142  13.861  -7.198  1.00  0.00     0.049 A 
ATOM     49  H   UNL     1      10.972  13.277  -9.191  1.00  0.00     0.167 HD
ATOM     50  C   UNL     1      10.873  11.752 -13.319  1.00  0.00     0.037 A 
ATOM     51  C   UNL     1      11.679  15.096  -7.196  1.00  0.00     0.037 A 
ATOM     52  C   UNL     1      11.394  13.089 -13.418  1.00  0.00     0.049 A 
ATOM     53  C   UNL     1      12.076  15.723  -8.507  1.00  0.00     0.074 A 
ATOM     54  C   UNL     1      11.732  13.802 -14.555  1.00  0.00     0.029 A 
ATOM     55  N   UNL     1      11.650  13.916 -12.334  1.00  0.00    -0.354 N 
ATOM     56  N   UNL     1      11.956  15.245  -9.722  1.00  0.00    -0.248 NA
ATOM     57  C   UNL     1      12.694  17.055  -8.447  1.00  0.00     0.031 C 
ATOM     58  C   UNL     1      12.231  15.046 -14.156  1.00  0.00     0.029 A 
ATOM     59  C   UNL     1      12.157  15.126 -12.775  1.00  0.00     0.049 A 
ATOM     60  H   UNL     1      11.494  13.677 -11.392  1.00  0.00     0.167 HD
ATOM     61  C   UNL     1      12.442  16.231 -10.570  1.00  0.00     0.074 A 
ATOM     62  C   UNL     1      12.862  17.334  -9.732  1.00  0.00     0.031 C 
ATOM     63  C   UNL     1      12.530  16.225 -11.922  1.00  0.00     0.037 A 
BRANCH  50  64
ATOM     64  C   UNL     1      10.698  10.969 -14.585  1.00  0.00     0.064 A 
ATOM     65  C   UNL     1       9.431  10.711 -15.128  1.00  0.00     0.173 A 
ATOM     66  C   UNL     1      11.822  10.521 -15.297  1.00  0.00     0.173 A 
ATOM     67  F   UNL     1       8.326  11.106 -14.479  1.00  0.00    -0.203 F 
ATOM     68  C   UNL     1       9.296  10.022 -16.331  1.00  0.00     0.198 A 
ATOM     69  C   UNL     1      11.684   9.855 -16.511  1.00  0.00     0.198 A 
ATOM     70  F   UNL     1      13.056  10.745 -14.821  1.00  0.00    -0.203 F 
ATOM     71  F   UNL     1       8.074   9.759 -16.817  1.00  0.00    -0.200 F 
ATOM     72  C   UNL     1      10.421   9.603 -17.025  1.00  0.00     0.200 A 
ATOM     73  F   UNL     1      12.773   9.461 -17.186  1.00  0.00    -0.200 F 
ATOM     74  F   UNL     1      10.289   8.953 -18.190  1.00  0.00    -0.200 F 
ENDBRANCH  50  64
BRANCH  51  75
ATOM     75  C   UNL     1      11.906  15.812  -5.913  1.00  0.00     0.064 A 
ATOM     76  C   UNL     1      11.185  16.971  -5.596  1.00  0.00     0.173 A 
ATOM     77  C   UNL     1      12.866  15.369  -4.990  1.00  0.00     0.173 A 
ATOM     78  F   UNL     1      10.274  17.448  -6.457  1.00  0.00    -0.203 F 
ATOM     79  C   UNL     1      11.430  17.672  -4.417  1.00  0.00     0.198 A 
ATOM     80  C   UNL     1      13.089  16.053  -3.798  1.00  0.00     0.198 A 
ATOM     81  F   UNL     1      13.586  14.266  -5.246  1.00  0.00    -0.203 F 
ATOM     82  F   UNL     1      10.762  18.805  -4.163  1.00  0.00    -0.200 F 
ATOM     83  C   UNL     1      12.378  17.210  -3.516  1.00  0.00     0.200 A 
ATOM     84  F   UNL     1      13.998  15.597  -2.925  1.00  0.00    -0.200 F 
ATOM     85  F   UNL     1      12.614  17.885  -2.383  1.00  0.00    -0.200 F 
ENDBRANCH  51  75
BRANCH  63  86
ATOM     86  C   UNL     1      13.028  17.471 -12.591  1.00  0.00     0.064 A 
ATOM     87  C   UNL     1      14.384  17.822 -12.584  1.00  0.00     0.173 A 
ATOM     88  C   UNL     1      12.139  18.283 -13.312  1.00  0.00     0.173 A 
ATOM     89  F   UNL     1      15.269  17.084 -11.896  1.00  0.00    -0.203 F 
ATOM     90  C   UNL     1      14.832  18.950 -13.266  1.00  0.00     0.198 A 
ATOM     91  C   UNL     1      12.594  19.394 -14.014  1.00  0.00     0.198 A 
ATOM     92  F   UNL     1      10.832  17.983 -13.353  1.00  0.00    -0.203 F 
ATOM     93  F   UNL     1      16.129  19.286 -13.223  1.00  0.00    -0.200 F 
ATOM     94  C   UNL     1      13.939  19.728 -13.989  1.00  0.00     0.200 A 
ATOM     95  F   UNL     1      11.732  20.137 -14.722  1.00  0.00    -0.200 F 
ATOM     96  F   UNL     1      14.375  20.804 -14.659  1.00  0.00    -0.200 F 
ENDBRANCH  63  86
ENDBRANCH  37  38
ENDBRANCH  30  32
ENDBRANCH  29  30
ENDBRANCH  28  29
ENDBRANCH   1  28
TORSDOF 15
