REMARK SMILES C[NH2+]CCC(=O)N1Cc2nc[nH]c2C[C@H]1C(=O)OCCOC(=O)c1ccc(-c2c3nc(c(-c4c(F)c(F)c(F)c(F)c4F)c4ccc([nH]4)c(-c4c(F)c(F)c(F)c(F)c4F)c4nc(c(-c5c(F)c(F)c(F)c(F)c5F)c5ccc2[nH]5)C=C4)C=C3)cc1
REMARK SMILES IDX 19 1 18 2 16 3 17 4 15 5 7 6 8 7 9 8 14 9 10 10 13 11 11 12
REMARK SMILES IDX 12 13 5 15 6 16 4 17 3 18 2 19 1 20 20 23 21 24 22 25 23 26
REMARK SMILES IDX 24 27 25 28 86 29 26 30 85 31 27 32 28 33 29 34 79 35 30 36
REMARK SMILES IDX 84 37 78 38 80 39 31 40 83 41 77 42 76 43 32 45 64 46 44 47
REMARK SMILES IDX 63 48 45 49 48 50 62 51 81 52 46 53 47 54 61 56 82 57 49 58
REMARK SMILES IDX 33 59 34 60 42 61 35 62 36 63 40 64 43 65 37 66 38 67 41 68
REMARK SMILES IDX 39 69 65 70 66 71 74 72 67 73 68 74 72 75 75 76 69 77 70 78
REMARK SMILES IDX 73 79 71 80 50 81 51 82 59 83 52 84 53 85 57 86 60 87 54 88
REMARK SMILES IDX 55 89 58 90 56 91
REMARK H PARENT 12 14 2 21 2 22 80 44 48 55
REMARK Flexibility Score: inf
ROOT
ATOM      1  C   UNL     1       4.792   3.177  -0.213  1.00  0.00     0.274 C 
ENDROOT
BRANCH   1   2
ATOM      2  O   UNL     1       3.501   3.213  -0.849  1.00  0.00    -0.461 OA
BRANCH   2   3
ATOM      3  C   UNL     1       3.080   2.086  -1.478  1.00  0.00     0.329 C 
ATOM      4  O   UNL     1       3.772   1.080  -1.624  1.00  0.00    -0.250 OA
BRANCH   3   5
ATOM      5  C   UNL     1       1.696   2.227  -2.150  1.00  0.00     0.201 C 
ATOM      6  N   UNL     1       0.663   3.190  -1.647  1.00  0.00    -0.322 N 
ATOM      7  C   UNL     1       1.024   4.623  -1.630  1.00  0.00     0.178 C 
ATOM      8  C   UNL     1       1.857   4.939  -2.827  1.00  0.00     0.081 A 
ATOM      9  C   UNL     1       2.003   2.543  -3.650  1.00  0.00     0.093 C 
ATOM     10  N   UNL     1       2.411   6.161  -3.099  1.00  0.00    -0.240 NA
ATOM     11  C   UNL     1       2.297   3.998  -3.734  1.00  0.00     0.042 A 
ATOM     12  C   UNL     1       3.151   5.966  -4.170  1.00  0.00     0.197 A 
ATOM     13  N   UNL     1       3.107   4.665  -4.600  1.00  0.00    -0.348 N 
ATOM     14  H   UNL     1       3.571   4.287  -5.382  1.00  0.00     0.167 HD
BRANCH   6  15
ATOM     15  C   UNL     1      -0.678   2.893  -1.871  1.00  0.00     0.229 C 
ATOM     16  O   UNL     1      -1.392   3.559  -2.619  1.00  0.00    -0.275 OA
BRANCH  15  17
ATOM     17  C   UNL     1      -1.264   1.779  -1.025  1.00  0.00     0.161 C 
BRANCH  17  18
ATOM     18  C   UNL     1      -1.803   0.583  -1.816  1.00  0.00     0.270 C 
BRANCH  18  19
ATOM     19  N   UNL     1      -0.854  -0.475  -2.182  1.00  0.00    -0.348 N 
ATOM     20  C   UNL     1      -0.122  -1.014  -1.051  1.00  0.00     0.330 C 
ATOM     21  H   UNL     1      -1.372  -1.235  -2.623  1.00  0.00     0.346 HD
ATOM     22  H   UNL     1      -0.168  -0.058  -2.812  1.00  0.00     0.346 HD
ENDBRANCH  18  19
ENDBRANCH  17  18
ENDBRANCH  15  17
ENDBRANCH   6  15
ENDBRANCH   3   5
ENDBRANCH   2   3
ENDBRANCH   1   2
BRANCH   1  23
ATOM     23  C   UNL     1       4.653   3.108   1.306  1.00  0.00     0.275 C 
BRANCH  23  24
ATOM     24  O   UNL     1       4.345   1.791   1.786  1.00  0.00    -0.458 OA
BRANCH  24  25
ATOM     25  C   UNL     1       3.040   1.472   1.679  1.00  0.00     0.338 C 
ATOM     26  O   UNL     1       2.175   2.042   1.035  1.00  0.00    -0.246 OA
BRANCH  25  27
ATOM     27  C   UNL     1       2.650   0.438   2.630  1.00  0.00     0.060 A 
ATOM     28  C   UNL     1       1.487  -0.257   2.299  1.00  0.00     0.016 A 
ATOM     29  C   UNL     1       3.138   0.479   3.934  1.00  0.00     0.016 A 
ATOM     30  C   UNL     1       0.679  -0.732   3.301  1.00  0.00     0.010 A 
ATOM     31  C   UNL     1       2.355  -0.058   4.939  1.00  0.00     0.010 A 
ATOM     32  C   UNL     1       1.085  -0.568   4.626  1.00  0.00    -0.014 A 
BRANCH  32  33
ATOM     33  C   UNL     1       0.160  -1.025   5.660  1.00  0.00     0.031 A 
ATOM     34  C   UNL     1      -0.228  -2.466   5.581  1.00  0.00     0.074 A 
ATOM     35  C   UNL     1      -0.179  -0.227   6.692  1.00  0.00     0.049 A 
ATOM     36  N   UNL     1      -1.371  -3.024   5.833  1.00  0.00    -0.248 NA
ATOM     37  C   UNL     1       0.798  -3.406   5.085  1.00  0.00     0.031 C 
ATOM     38  C   UNL     1       0.316   1.127   6.968  1.00  0.00     0.029 A 
ATOM     39  N   UNL     1      -0.895  -0.531   7.812  1.00  0.00    -0.354 N 
ATOM     40  C   UNL     1      -1.160  -4.394   5.682  1.00  0.00     0.074 A 
ATOM     41  C   UNL     1       0.144  -4.562   5.103  1.00  0.00     0.031 C 
ATOM     42  C   UNL     1       0.139   1.396   8.277  1.00  0.00     0.029 A 
ATOM     43  C   UNL     1      -0.572   0.285   8.886  1.00  0.00     0.049 A 
ATOM     44  H   UNL     1      -1.566  -1.250   7.854  1.00  0.00     0.167 HD
ATOM     45  C   UNL     1      -1.968  -5.324   6.254  1.00  0.00     0.037 A 
ATOM     46  C   UNL     1      -0.747   0.004  10.197  1.00  0.00     0.037 A 
ATOM     47  C   UNL     1      -3.306  -4.841   6.444  1.00  0.00     0.049 A 
ATOM     48  C   UNL     1      -1.730  -1.097  10.312  1.00  0.00     0.074 A 
ATOM     49  C   UNL     1      -4.297  -4.372   5.603  1.00  0.00     0.029 A 
ATOM     50  N   UNL     1      -3.738  -4.551   7.712  1.00  0.00    -0.354 N 
ATOM     51  N   UNL     1      -3.002  -0.988  10.052  1.00  0.00    -0.248 NA
ATOM     52  C   UNL     1      -1.224  -2.461  10.393  1.00  0.00     0.031 C 
ATOM     53  C   UNL     1      -5.035  -3.429   6.375  1.00  0.00     0.029 A 
ATOM     54  C   UNL     1      -4.442  -3.379   7.635  1.00  0.00     0.049 A 
ATOM     55  H   UNL     1      -3.573  -5.084   8.523  1.00  0.00     0.167 HD
ATOM     56  C   UNL     1      -3.363  -2.225   9.541  1.00  0.00     0.074 A 
ATOM     57  C   UNL     1      -2.273  -3.121   9.899  1.00  0.00     0.031 C 
ATOM     58  C   UNL     1      -4.373  -2.340   8.630  1.00  0.00     0.037 A 
BRANCH  45  59
ATOM     59  C   UNL     1      -1.420  -6.547   6.952  1.00  0.00     0.064 A 
ATOM     60  C   UNL     1      -2.306  -7.540   7.410  1.00  0.00     0.173 A 
ATOM     61  C   UNL     1      -0.098  -6.636   7.448  1.00  0.00     0.173 A 
ATOM     62  F   UNL     1      -3.591  -7.539   7.025  1.00  0.00    -0.203 F 
ATOM     63  C   UNL     1      -1.917  -8.499   8.350  1.00  0.00     0.198 A 
ATOM     64  C   UNL     1       0.300  -7.628   8.340  1.00  0.00     0.198 A 
ATOM     65  F   UNL     1       0.831  -5.710   7.180  1.00  0.00    -0.203 F 
ATOM     66  F   UNL     1      -2.828  -9.341   8.854  1.00  0.00    -0.200 F 
ATOM     67  C   UNL     1      -0.616  -8.538   8.818  1.00  0.00     0.200 A 
ATOM     68  F   UNL     1       1.562  -7.638   8.793  1.00  0.00    -0.200 F 
ATOM     69  F   UNL     1      -0.259  -9.415   9.765  1.00  0.00    -0.200 F 
ENDBRANCH  45  59
BRANCH  46  70
ATOM     70  C   UNL     1       0.113   0.433  11.323  1.00  0.00     0.064 A 
ATOM     71  C   UNL     1      -0.366   0.431  12.640  1.00  0.00     0.173 A 
ATOM     72  C   UNL     1       1.497   0.648  11.159  1.00  0.00     0.173 A 
ATOM     73  F   UNL     1      -1.658   0.170  12.886  1.00  0.00    -0.203 F 
ATOM     74  C   UNL     1       0.487   0.640  13.728  1.00  0.00     0.198 A 
ATOM     75  C   UNL     1       2.343   0.878  12.242  1.00  0.00     0.198 A 
ATOM     76  F   UNL     1       2.074   0.553   9.951  1.00  0.00    -0.203 F 
ATOM     77  F   UNL     1       0.003   0.580  14.976  1.00  0.00    -0.200 F 
ATOM     78  C   UNL     1       1.839   0.866  13.528  1.00  0.00     0.200 A 
ATOM     79  F   UNL     1       3.655   1.058  12.034  1.00  0.00    -0.200 F 
ATOM     80  F   UNL     1       2.662   1.030  14.573  1.00  0.00    -0.200 F 
ENDBRANCH  46  70
BRANCH  58  81
ATOM     81  C   UNL     1      -5.281  -1.161   8.449  1.00  0.00     0.064 A 
ATOM     82  C   UNL     1      -4.849   0.074   7.937  1.00  0.00     0.173 A 
ATOM     83  C   UNL     1      -6.652  -1.326   8.678  1.00  0.00     0.173 A 
ATOM     84  F   UNL     1      -3.570   0.265   7.590  1.00  0.00    -0.203 F 
ATOM     85  C   UNL     1      -5.746   1.117   7.720  1.00  0.00     0.198 A 
ATOM     86  C   UNL     1      -7.552  -0.294   8.427  1.00  0.00     0.198 A 
ATOM     87  F   UNL     1      -7.127  -2.507   9.105  1.00  0.00    -0.203 F 
ATOM     88  F   UNL     1      -5.308   2.293   7.247  1.00  0.00    -0.200 F 
ATOM     89  C   UNL     1      -7.098   0.930   7.961  1.00  0.00     0.200 A 
ATOM     90  F   UNL     1      -8.864  -0.493   8.612  1.00  0.00    -0.200 F 
ATOM     91  F   UNL     1      -7.967   1.922   7.718  1.00  0.00    -0.200 F 
ENDBRANCH  58  81
ENDBRANCH  32  33
ENDBRANCH  25  27
ENDBRANCH  24  25
ENDBRANCH  23  24
ENDBRANCH   1  23
TORSDOF 15
