REMARK SMILES O=C(OCCOC(=O)c1sccc1S(=O)(=O)N[C@@H]1CONC1=O)c1ccc(-c2c3nc(c(-c4c(F)c(F)c(F)c(F)c4F)c4ccc([nH]4)c(-c4c(F)c(F)c(F)c(F)c4F)c4nc(c(-c5c(F)c(F)c(F)c(F)c5F)c5ccc2[nH]5)C=C4)C=C3)cc1
REMARK SMILES IDX 5 1 4 2 3 3 2 4 1 5 24 6 25 7 86 8 26 9 85 10 27 11 28 12
REMARK SMILES IDX 29 13 79 14 30 15 84 16 78 17 80 18 31 19 83 20 77 21 76 22
REMARK SMILES IDX 32 24 64 25 44 26 63 27 45 28 48 29 62 30 81 31 46 32 47 33
REMARK SMILES IDX 61 35 82 36 49 37 33 38 34 39 42 40 35 41 36 42 40 43 43 44
REMARK SMILES IDX 37 45 38 46 41 47 39 48 65 49 66 50 74 51 67 52 68 53 72 54
REMARK SMILES IDX 75 55 69 56 70 57 73 58 71 59 50 60 51 61 59 62 52 63 53 64
REMARK SMILES IDX 57 65 60 66 54 67 55 68 58 69 56 70 6 71 7 72 8 73 9 74
REMARK SMILES IDX 10 75 13 76 11 77 12 78 14 79 15 80 16 81 17 82 18 84 19 85
REMARK SMILES IDX 22 86 20 87 21 88 23 89
REMARK H PARENT 80 23 48 34 17 83 21 90
REMARK Flexibility Score: inf
ROOT
ATOM      1  C   UNL     1       4.315  -1.488   0.397  1.00  0.00     0.275 C 
ENDROOT
BRANCH   1   2
ATOM      2  C   UNL     1       4.541  -0.225   1.226  1.00  0.00     0.275 C 
BRANCH   2   3
ATOM      3  O   UNL     1       3.435   0.694   1.208  1.00  0.00    -0.458 OA
BRANCH   3   4
ATOM      4  C   UNL     1       3.236   1.766   0.405  1.00  0.00     0.338 C 
ATOM      5  O   UNL     1       2.472   2.656   0.771  1.00  0.00    -0.246 OA
BRANCH   4   6
ATOM      6  C   UNL     1       3.766   1.841  -0.992  1.00  0.00     0.060 A 
ATOM      7  C   UNL     1       5.005   1.362  -1.422  1.00  0.00     0.016 A 
ATOM      8  C   UNL     1       2.939   2.479  -1.937  1.00  0.00     0.016 A 
ATOM      9  C   UNL     1       5.394   1.465  -2.758  1.00  0.00     0.010 A 
ATOM     10  C   UNL     1       3.331   2.609  -3.273  1.00  0.00     0.010 A 
ATOM     11  C   UNL     1       4.574   2.116  -3.681  1.00  0.00    -0.014 A 
BRANCH  11  12
ATOM     12  C   UNL     1       5.154   2.515  -4.981  1.00  0.00     0.031 A 
ATOM     13  C   UNL     1       5.804   3.855  -5.050  1.00  0.00     0.074 A 
ATOM     14  C   UNL     1       5.165   1.688  -6.039  1.00  0.00     0.049 A 
ATOM     15  N   UNL     1       6.405   4.430  -6.053  1.00  0.00    -0.248 NA
ATOM     16  C   UNL     1       5.788   4.649  -3.810  1.00  0.00     0.031 C 
ATOM     17  C   UNL     1       4.635   0.340  -6.013  1.00  0.00     0.029 A 
ATOM     18  N   UNL     1       5.628   1.832  -7.318  1.00  0.00    -0.354 N 
ATOM     19  C   UNL     1       6.847   5.647  -5.564  1.00  0.00     0.074 A 
ATOM     20  C   UNL     1       6.414   5.748  -4.189  1.00  0.00     0.031 C 
ATOM     21  C   UNL     1       4.769  -0.233  -7.217  1.00  0.00     0.029 A 
ATOM     22  C   UNL     1       5.378   0.738  -8.116  1.00  0.00     0.049 A 
ATOM     23  H   UNL     1       6.094   2.638  -7.637  1.00  0.00     0.167 HD
ATOM     24  C   UNL     1       7.556   6.593  -6.218  1.00  0.00     0.037 A 
ATOM     25  C   UNL     1       5.599   0.557  -9.431  1.00  0.00     0.037 A 
ATOM     26  C   UNL     1       7.920   6.480  -7.602  1.00  0.00     0.049 A 
ATOM     27  C   UNL     1       6.294   1.665 -10.170  1.00  0.00     0.074 A 
ATOM     28  C   UNL     1       8.592   7.386  -8.398  1.00  0.00     0.029 A 
ATOM     29  N   UNL     1       7.612   5.384  -8.404  1.00  0.00    -0.354 N 
ATOM     30  N   UNL     1       6.718   2.817  -9.704  1.00  0.00    -0.248 NA
ATOM     31  C   UNL     1       6.554   1.460 -11.598  1.00  0.00     0.031 C 
ATOM     32  C   UNL     1       8.638   6.864  -9.696  1.00  0.00     0.029 A 
ATOM     33  C   UNL     1       8.051   5.605  -9.698  1.00  0.00     0.049 A 
ATOM     34  H   UNL     1       7.150   4.572  -8.096  1.00  0.00     0.167 HD
ATOM     35  C   UNL     1       7.318   3.466 -10.769  1.00  0.00     0.074 A 
ATOM     36  C   UNL     1       7.206   2.574 -11.909  1.00  0.00     0.031 C 
ATOM     37  C   UNL     1       7.913   4.685 -10.802  1.00  0.00     0.037 A 
BRANCH  24  38
ATOM     38  C   UNL     1       7.873   7.832  -5.439  1.00  0.00     0.064 A 
ATOM     39  C   UNL     1       8.767   7.816  -4.355  1.00  0.00     0.173 A 
ATOM     40  C   UNL     1       7.179   9.022  -5.699  1.00  0.00     0.173 A 
ATOM     41  F   UNL     1       9.425   6.690  -4.039  1.00  0.00    -0.203 F 
ATOM     42  C   UNL     1       8.909   8.928  -3.528  1.00  0.00     0.198 A 
ATOM     43  C   UNL     1       7.348  10.142  -4.890  1.00  0.00     0.198 A 
ATOM     44  F   UNL     1       6.303   9.086  -6.713  1.00  0.00    -0.203 F 
ATOM     45  F   UNL     1       9.694   8.858  -2.443  1.00  0.00    -0.200 F 
ATOM     46  C   UNL     1       8.199  10.088  -3.796  1.00  0.00     0.200 A 
ATOM     47  F   UNL     1       6.659  11.261  -5.147  1.00  0.00    -0.200 F 
ATOM     48  F   UNL     1       8.313  11.147  -2.983  1.00  0.00    -0.200 F 
ENDBRANCH  24  38
BRANCH  25  49
ATOM     49  C   UNL     1       5.143  -0.692 -10.099  1.00  0.00     0.064 A 
ATOM     50  C   UNL     1       6.049  -1.636 -10.600  1.00  0.00     0.173 A 
ATOM     51  C   UNL     1       3.773  -0.986 -10.217  1.00  0.00     0.173 A 
ATOM     52  F   UNL     1       7.367  -1.401 -10.529  1.00  0.00    -0.203 F 
ATOM     53  C   UNL     1       5.606  -2.817 -11.197  1.00  0.00     0.198 A 
ATOM     54  C   UNL     1       3.333  -2.178 -10.791  1.00  0.00     0.198 A 
ATOM     55  F   UNL     1       2.858  -0.122  -9.752  1.00  0.00    -0.203 F 
ATOM     56  F   UNL     1       6.495  -3.688 -11.695  1.00  0.00    -0.200 F 
ATOM     57  C   UNL     1       4.250  -3.091 -11.285  1.00  0.00     0.200 A 
ATOM     58  F   UNL     1       2.020  -2.440 -10.861  1.00  0.00    -0.200 F 
ATOM     59  F   UNL     1       3.826  -4.230 -11.851  1.00  0.00    -0.200 F 
ENDBRANCH  25  49
BRANCH  37  60
ATOM     60  C   UNL     1       8.508   5.109 -12.109  1.00  0.00     0.064 A 
ATOM     61  C   UNL     1       7.705   5.527 -13.178  1.00  0.00     0.173 A 
ATOM     62  C   UNL     1       9.901   5.176 -12.256  1.00  0.00     0.173 A 
ATOM     63  F   UNL     1       6.369   5.464 -13.086  1.00  0.00    -0.203 F 
ATOM     64  C   UNL     1       8.280   5.992 -14.357  1.00  0.00     0.198 A 
ATOM     65  C   UNL     1      10.471   5.669 -13.424  1.00  0.00     0.198 A 
ATOM     66  F   UNL     1      10.707   4.790 -11.255  1.00  0.00    -0.203 F 
ATOM     67  F   UNL     1       7.497   6.360 -15.381  1.00  0.00    -0.200 F 
ATOM     68  C   UNL     1       9.660   6.075 -14.474  1.00  0.00     0.200 A 
ATOM     69  F   UNL     1      11.803   5.763 -13.530  1.00  0.00    -0.200 F 
ATOM     70  F   UNL     1      10.210   6.544 -15.602  1.00  0.00    -0.200 F 
ENDBRANCH  37  60
ENDBRANCH  11  12
ENDBRANCH   4   6
ENDBRANCH   3   4
ENDBRANCH   2   3
ENDBRANCH   1   2
BRANCH   1  71
ATOM     71  O   UNL     1       3.778  -1.236  -0.909  1.00  0.00    -0.458 OA
BRANCH  71  72
ATOM     72  C   UNL     1       2.418  -1.257  -1.002  1.00  0.00     0.349 C 
ATOM     73  O   UNL     1       1.667  -1.439  -0.058  1.00  0.00    -0.245 OA
BRANCH  72  74
ATOM     74  C   UNL     1       2.001  -1.053  -2.370  1.00  0.00     0.132 A 
ATOM     75  S   UNL     1       0.610  -0.077  -2.642  1.00  0.00    -0.136 S 
ATOM     76  C   UNL     1       2.502  -1.544  -3.560  1.00  0.00     0.107 A 
ATOM     77  C   UNL     1       0.789  -0.160  -4.336  1.00  0.00     0.067 A 
ATOM     78  C   UNL     1       1.789  -1.033  -4.696  1.00  0.00     0.034 A 
BRANCH  76  79
ATOM     79  S   UNL     1       3.841  -2.634  -3.715  1.00  0.00     0.243 S 
ATOM     80  O   UNL     1       3.534  -3.411  -4.892  1.00  0.00    -0.207 OA
ATOM     81  O   UNL     1       5.010  -1.790  -3.641  1.00  0.00    -0.207 OA
BRANCH  79  82
ATOM     82  N   UNL     1       3.941  -3.675  -2.414  1.00  0.00    -0.196 NA
ATOM     83  H   UNL     1       3.906  -3.107  -1.567  1.00  0.00     0.142 HD
BRANCH  82  84
ATOM     84  C   UNL     1       2.908  -4.722  -2.283  1.00  0.00     0.189 C 
ATOM     85  C   UNL     1       2.032  -4.510  -1.060  1.00  0.00     0.224 C 
ATOM     86  C   UNL     1       3.579  -6.008  -1.886  1.00  0.00     0.264 C 
ATOM     87  O   UNL     1       1.702  -5.815  -0.569  1.00  0.00    -0.271 OA
ATOM     88  N   UNL     1       2.795  -6.624  -0.950  1.00  0.00    -0.233 N 
ATOM     89  O   UNL     1       4.659  -6.399  -2.302  1.00  0.00    -0.271 OA
ATOM     90  H   UNL     1       2.971  -7.521  -0.585  1.00  0.00     0.199 HD
ENDBRANCH  82  84
ENDBRANCH  79  82
ENDBRANCH  76  79
ENDBRANCH  72  74
ENDBRANCH  71  72
ENDBRANCH   1  71
TORSDOF 14
