REMARK SMILES CCCCc1[nH]ncc1C(=O)OCCOC(=O)c1ccc(-c2c3nc(c(-c4c(F)c(F)c(F)c(F)c4F)c4ccc([nH]4)c(-c4c(F)c(F)c(F)c(F)c4F)c4nc(c(-c5c(F)c(F)c(F)c(F)c5F)c5ccc2[nH]5)C=C4)C=C3)cc1
REMARK SMILES IDX 13 1 12 2 10 3 11 4 9 5 5 6 6 7 7 8 8 10 4 11 3 12 2 13 1 14
REMARK SMILES IDX 14 15 15 16 16 17 17 18 18 19 19 20 80 21 20 22 79 23 21 24
REMARK SMILES IDX 22 25 23 26 73 27 24 28 78 29 72 30 74 31 25 32 77 33 71 34
REMARK SMILES IDX 70 35 26 37 58 38 38 39 57 40 39 41 42 42 56 43 75 44 40 45
REMARK SMILES IDX 41 46 55 48 76 49 43 50 27 51 28 52 36 53 29 54 30 55 34 56
REMARK SMILES IDX 37 57 31 58 32 59 35 60 33 61 59 62 60 63 68 64 61 65 62 66
REMARK SMILES IDX 66 67 69 68 63 69 64 70 67 71 65 72 44 73 45 74 53 75 46 76
REMARK SMILES IDX 47 77 51 78 54 79 48 80 49 81 52 82 50 83
REMARK H PARENT 6 9 74 36 42 47
REMARK Flexibility Score: inf
ROOT
ATOM      1  C   UNL     1       0.079  -6.022  -3.774  1.00  0.00     0.275 C 
ENDROOT
BRANCH   1   2
ATOM      2  O   UNL     1      -0.143  -4.813  -3.023  1.00  0.00    -0.458 OA
BRANCH   2   3
ATOM      3  C   UNL     1      -1.231  -4.067  -3.374  1.00  0.00     0.341 C 
ATOM      4  O   UNL     1      -1.967  -4.321  -4.317  1.00  0.00    -0.246 OA
BRANCH   3   5
ATOM      5  C   UNL     1      -1.522  -3.000  -2.432  1.00  0.00     0.100 A 
ATOM      6  C   UNL     1      -0.720  -2.365  -1.496  1.00  0.00     0.050 A 
ATOM      7  N   UNL     1      -1.569  -1.586  -0.752  1.00  0.00    -0.282 N 
ATOM      8  N   UNL     1      -2.808  -1.510  -1.254  1.00  0.00    -0.183 NA
ATOM      9  H   UNL     1      -1.294  -1.125   0.074  1.00  0.00     0.190 HD
ATOM     10  C   UNL     1      -2.771  -2.346  -2.291  1.00  0.00     0.150 A 
BRANCH   6  11
ATOM     11  C   UNL     1       0.748  -2.363  -1.236  1.00  0.00     0.056 C 
BRANCH  11  12
ATOM     12  C   UNL     1       1.444  -1.198  -1.960  1.00  0.00     0.006 C 
BRANCH  12  13
ATOM     13  C   UNL     1       1.060   0.211  -1.484  1.00  0.00    -0.003 C 
ATOM     14  C   UNL     1       1.375   0.469  -0.019  1.00  0.00     0.004 C 
ENDBRANCH  12  13
ENDBRANCH  11  12
ENDBRANCH   6  11
ENDBRANCH   3   5
ENDBRANCH   2   3
ENDBRANCH   1   2
BRANCH   1  15
ATOM     15  C   UNL     1      -0.394  -7.249  -2.990  1.00  0.00     0.275 C 
BRANCH  15  16
ATOM     16  O   UNL     1      -1.832  -7.282  -2.914  1.00  0.00    -0.458 OA
BRANCH  16  17
ATOM     17  C   UNL     1      -2.365  -6.998  -1.704  1.00  0.00     0.338 C 
ATOM     18  O   UNL     1      -1.776  -6.759  -0.665  1.00  0.00    -0.246 OA
BRANCH  17  19
ATOM     19  C   UNL     1      -3.824  -6.882  -1.844  1.00  0.00     0.060 A 
ATOM     20  C   UNL     1      -4.361  -5.601  -1.957  1.00  0.00     0.016 A 
ATOM     21  C   UNL     1      -4.662  -7.994  -1.781  1.00  0.00     0.016 A 
ATOM     22  C   UNL     1      -5.737  -5.412  -2.009  1.00  0.00     0.010 A 
ATOM     23  C   UNL     1      -6.050  -7.808  -1.845  1.00  0.00     0.010 A 
ATOM     24  C   UNL     1      -6.597  -6.514  -1.950  1.00  0.00    -0.014 A 
BRANCH  24  25
ATOM     25  C   UNL     1      -8.065  -6.293  -1.930  1.00  0.00     0.031 A 
ATOM     26  C   UNL     1      -8.836  -6.516  -0.661  1.00  0.00     0.074 A 
ATOM     27  C   UNL     1      -8.698  -5.844  -3.029  1.00  0.00     0.049 A 
ATOM     28  N   UNL     1     -10.128  -6.476  -0.457  1.00  0.00    -0.248 NA
ATOM     29  C   UNL     1      -8.045  -6.827   0.540  1.00  0.00     0.031 C 
ATOM     30  C   UNL     1      -8.053  -5.525  -4.303  1.00  0.00     0.029 A 
ATOM     31  N   UNL     1     -10.025  -5.571  -3.248  1.00  0.00    -0.354 N 
ATOM     32  C   UNL     1     -10.308  -6.789   0.884  1.00  0.00     0.074 A 
ATOM     33  C   UNL     1      -8.994  -7.023   1.445  1.00  0.00     0.031 C 
ATOM     34  C   UNL     1      -8.984  -5.088  -5.167  1.00  0.00     0.029 A 
ATOM     35  C   UNL     1     -10.296  -5.149  -4.527  1.00  0.00     0.049 A 
ATOM     36  H   UNL     1     -10.718  -5.669  -2.555  1.00  0.00     0.167 HD
ATOM     37  C   UNL     1     -11.466  -6.873   1.581  1.00  0.00     0.037 A 
ATOM     38  C   UNL     1     -11.471  -4.872  -5.123  1.00  0.00     0.037 A 
ATOM     39  C   UNL     1     -12.769  -6.606   1.030  1.00  0.00     0.049 A 
ATOM     40  C   UNL     1     -12.747  -5.014  -4.339  1.00  0.00     0.074 A 
ATOM     41  C   UNL     1     -14.002  -6.668   1.656  1.00  0.00     0.029 A 
ATOM     42  N   UNL     1     -13.005  -6.215  -0.280  1.00  0.00    -0.354 N 
ATOM     43  N   UNL     1     -12.913  -5.358  -3.085  1.00  0.00    -0.248 NA
ATOM     44  C   UNL     1     -14.000  -4.743  -5.057  1.00  0.00     0.031 C 
ATOM     45  C   UNL     1     -14.988  -6.344   0.716  1.00  0.00     0.029 A 
ATOM     46  C   UNL     1     -14.365  -6.043  -0.485  1.00  0.00     0.049 A 
ATOM     47  H   UNL     1     -12.310  -6.079  -0.963  1.00  0.00     0.167 HD
ATOM     48  C   UNL     1     -14.282  -5.333  -2.860  1.00  0.00     0.074 A 
ATOM     49  C   UNL     1     -14.903  -4.922  -4.102  1.00  0.00     0.031 C 
ATOM     50  C   UNL     1     -14.964  -5.631  -1.728  1.00  0.00     0.037 A 
BRANCH  37  51
ATOM     51  C   UNL     1     -11.379  -7.307   3.014  1.00  0.00     0.064 A 
ATOM     52  C   UNL     1     -10.899  -6.455   4.018  1.00  0.00     0.173 A 
ATOM     53  C   UNL     1     -11.809  -8.589   3.389  1.00  0.00     0.173 A 
ATOM     54  F   UNL     1     -10.462  -5.225   3.707  1.00  0.00    -0.203 F 
ATOM     55  C   UNL     1     -10.832  -6.878   5.343  1.00  0.00     0.198 A 
ATOM     56  C   UNL     1     -11.764  -9.000   4.718  1.00  0.00     0.198 A 
ATOM     57  F   UNL     1     -12.280  -9.441   2.466  1.00  0.00    -0.203 F 
ATOM     58  F   UNL     1     -10.331  -6.062   6.281  1.00  0.00    -0.200 F 
ATOM     59  C   UNL     1     -11.270  -8.147   5.692  1.00  0.00     0.200 A 
ATOM     60  F   UNL     1     -12.196 -10.223   5.055  1.00  0.00    -0.200 F 
ATOM     61  F   UNL     1     -11.208  -8.551   6.969  1.00  0.00    -0.200 F 
ENDBRANCH  37  51
BRANCH  38  62
ATOM     62  C   UNL     1     -11.496  -4.463  -6.551  1.00  0.00     0.064 A 
ATOM     63  C   UNL     1     -11.847  -3.159  -6.925  1.00  0.00     0.173 A 
ATOM     64  C   UNL     1     -11.172  -5.371  -7.571  1.00  0.00     0.173 A 
ATOM     65  F   UNL     1     -12.194  -2.265  -5.988  1.00  0.00    -0.203 F 
ATOM     66  C   UNL     1     -11.881  -2.780  -8.265  1.00  0.00     0.198 A 
ATOM     67  C   UNL     1     -11.179  -4.983  -8.909  1.00  0.00     0.198 A 
ATOM     68  F   UNL     1     -10.836  -6.633  -7.266  1.00  0.00    -0.203 F 
ATOM     69  F   UNL     1     -12.258  -1.539  -8.599  1.00  0.00    -0.200 F 
ATOM     70  C   UNL     1     -11.539  -3.690  -9.255  1.00  0.00     0.200 A 
ATOM     71  F   UNL     1     -10.840  -5.863  -9.861  1.00  0.00    -0.200 F 
ATOM     72  F   UNL     1     -11.566  -3.323 -10.544  1.00  0.00    -0.200 F 
ENDBRANCH  38  62
BRANCH  50  73
ATOM     73  C   UNL     1     -16.458  -5.503  -1.775  1.00  0.00     0.064 A 
ATOM     74  C   UNL     1     -17.253  -6.448  -2.439  1.00  0.00     0.173 A 
ATOM     75  C   UNL     1     -17.102  -4.444  -1.118  1.00  0.00     0.173 A 
ATOM     76  F   UNL     1     -16.681  -7.469  -3.095  1.00  0.00    -0.203 F 
ATOM     77  C   UNL     1     -18.639  -6.326  -2.461  1.00  0.00     0.198 A 
ATOM     78  C   UNL     1     -18.490  -4.338  -1.122  1.00  0.00     0.198 A 
ATOM     79  F   UNL     1     -16.385  -3.517  -0.464  1.00  0.00    -0.203 F 
ATOM     80  F   UNL     1     -19.378  -7.218  -3.135  1.00  0.00    -0.200 F 
ATOM     81  C   UNL     1     -19.256  -5.276  -1.798  1.00  0.00     0.200 A 
ATOM     82  F   UNL     1     -19.085  -3.328  -0.473  1.00  0.00    -0.200 F 
ATOM     83  F   UNL     1     -20.592  -5.163  -1.816  1.00  0.00    -0.200 F 
ENDBRANCH  50  73
ENDBRANCH  24  25
ENDBRANCH  17  19
ENDBRANCH  16  17
ENDBRANCH  15  16
ENDBRANCH   1  15
TORSDOF 14
