REMARK SMILES CC1(C)[C@@]2(C(=O)OCCOC(=O)c3ccc(-c4c5nc(c(-c6c(F)c(F)c(F)c(F)c6F)c6ccc([nH]6)c(-c6c(F)c(F)c(F)c(F)c6F)c6nc(c(-c7c(F)c(F)c(F)c(F)c7F)c7ccc4[nH]7)C=C6)C=C5)cc3)CC[C@]1(C)/C(=N/NC(=O)c1ccc(Cl)cc1)C2
REMARK SMILES IDX 8 1 7 2 5 3 6 4 4 5 1 6 2 7 3 8 78 9 76 10 92 11 77 12 79 13
REMARK SMILES IDX 80 14 81 15 82 16 83 17 84 19 85 20 86 21 91 22 87 23 90 24
REMARK SMILES IDX 88 25 89 26 9 27 10 28 11 29 12 30 13 31 14 32 75 33 15 34
REMARK SMILES IDX 74 35 16 36 17 37 18 38 68 39 19 40 73 41 67 42 69 43 20 44
REMARK SMILES IDX 72 45 66 46 65 47 21 49 53 50 33 51 52 52 34 53 37 54 51 55
REMARK SMILES IDX 70 56 35 57 36 58 50 60 71 61 38 62 22 63 23 64 31 65 24 66
REMARK SMILES IDX 25 67 29 68 32 69 26 70 27 71 30 72 28 73 54 74 55 75 63 76
REMARK SMILES IDX 56 77 57 78 61 79 64 80 58 81 59 82 62 83 60 84 39 85 40 86
REMARK SMILES IDX 48 87 41 88 42 89 46 90 49 91 43 92 44 93 47 94 45 95
REMARK H PARENT 82 18 69 48 37 59
REMARK Flexibility Score: inf
ROOT
ATOM      1  C   UNL     1       2.040   2.679   3.825  1.00  0.00     0.274 C 
ENDROOT
BRANCH   1   2
ATOM      2  O   UNL     1       1.236   1.542   3.435  1.00  0.00    -0.462 OA
BRANCH   2   3
ATOM      3  C   UNL     1       1.003   1.336   2.108  1.00  0.00     0.313 C 
ATOM      4  O   UNL     1       1.486   2.001   1.202  1.00  0.00    -0.252 OA
BRANCH   3   5
ATOM      5  C   UNL     1      -0.041   0.253   1.894  1.00  0.00     0.079 C 
ATOM      6  C   UNL     1       0.402  -0.264  -0.622  1.00  0.00     0.013 C 
ATOM      7  C   UNL     1       0.138  -0.827   0.786  1.00  0.00    -0.008 C 
ATOM      8  C   UNL     1       1.217  -1.899   1.075  1.00  0.00     0.013 C 
ATOM      9  C   UNL     1      -1.311  -1.385   1.020  1.00  0.00     0.014 C 
ATOM     10  C   UNL     1      -1.374   0.962   1.484  1.00  0.00     0.021 C 
ATOM     11  C   UNL     1      -0.309  -0.611   3.146  1.00  0.00     0.073 C 
ATOM     12  C   UNL     1      -2.219  -0.158   0.857  1.00  0.00     0.014 C 
ATOM     13  C   UNL     1      -1.718  -2.584   0.190  1.00  0.00     0.018 C 
ATOM     14  C   UNL     1      -1.267  -1.605   2.552  1.00  0.00     0.046 C 
ATOM     15  N   UNL     1      -1.952  -2.555   3.101  1.00  0.00    -0.181 NA
BRANCH  15  16
ATOM     16  N   UNL     1      -1.883  -2.928   4.406  1.00  0.00    -0.243 N 
ATOM     17  C   UNL     1      -1.790  -2.279   5.617  1.00  0.00     0.271 C 
ATOM     18  H   UNL     1      -1.904  -3.907   4.512  1.00  0.00     0.194 HD
ATOM     19  O   UNL     1      -1.603  -2.934   6.644  1.00  0.00    -0.267 OA
BRANCH  17  20
ATOM     20  C   UNL     1      -1.931  -0.823   5.763  1.00  0.00     0.041 A 
ATOM     21  C   UNL     1      -0.955  -0.150   6.518  1.00  0.00     0.015 A 
ATOM     22  C   UNL     1      -2.966  -0.111   5.146  1.00  0.00     0.015 A 
ATOM     23  C   UNL     1      -0.958   1.244   6.575  1.00  0.00     0.021 A 
ATOM     24  C   UNL     1      -2.971   1.287   5.219  1.00  0.00     0.021 A 
ATOM     25  C   UNL     1      -1.956   1.956   5.911  1.00  0.00     0.041 A 
ATOM     26  Cl  UNL     1      -1.908   3.676   5.906  1.00  0.00    -0.084 Cl
ENDBRANCH  17  20
ENDBRANCH  15  16
ENDBRANCH   3   5
ENDBRANCH   2   3
ENDBRANCH   1   2
BRANCH   1  27
ATOM     27  C   UNL     1       3.248   2.202   4.632  1.00  0.00     0.275 C 
BRANCH  27  28
ATOM     28  O   UNL     1       4.138   1.550   3.713  1.00  0.00    -0.458 OA
BRANCH  28  29
ATOM     29  C   UNL     1       4.498   0.278   3.986  1.00  0.00     0.338 C 
ATOM     30  O   UNL     1       4.414  -0.310   5.052  1.00  0.00    -0.246 OA
BRANCH  29  31
ATOM     31  C   UNL     1       4.911  -0.353   2.714  1.00  0.00     0.060 A 
ATOM     32  C   UNL     1       4.192  -0.050   1.560  1.00  0.00     0.016 A 
ATOM     33  C   UNL     1       5.912  -1.319   2.662  1.00  0.00     0.016 A 
ATOM     34  C   UNL     1       4.398  -0.759   0.388  1.00  0.00     0.010 A 
ATOM     35  C   UNL     1       6.209  -1.939   1.438  1.00  0.00     0.010 A 
ATOM     36  C   UNL     1       5.443  -1.677   0.285  1.00  0.00    -0.014 A 
BRANCH  36  37
ATOM     37  C   UNL     1       5.710  -2.355  -1.016  1.00  0.00     0.031 A 
ATOM     38  C   UNL     1       5.830  -3.851  -1.078  1.00  0.00     0.074 A 
ATOM     39  C   UNL     1       5.818  -1.646  -2.161  1.00  0.00     0.049 A 
ATOM     40  N   UNL     1       6.370  -4.599  -2.005  1.00  0.00    -0.248 NA
ATOM     41  C   UNL     1       5.279  -4.607   0.058  1.00  0.00     0.031 C 
ATOM     42  C   UNL     1       5.625  -0.200  -2.297  1.00  0.00     0.029 A 
ATOM     43  N   UNL     1       6.105  -2.054  -3.443  1.00  0.00    -0.354 N 
ATOM     44  C   UNL     1       6.316  -5.898  -1.521  1.00  0.00     0.074 A 
ATOM     45  C   UNL     1       5.648  -5.846  -0.238  1.00  0.00     0.031 C 
ATOM     46  C   UNL     1       5.723   0.144  -3.587  1.00  0.00     0.029 A 
ATOM     47  C   UNL     1       6.146  -1.021  -4.349  1.00  0.00     0.049 A 
ATOM     48  H   UNL     1       6.264  -2.994  -3.687  1.00  0.00     0.167 HD
ATOM     49  C   UNL     1       6.808  -7.022  -2.095  1.00  0.00     0.037 A 
ATOM     50  C   UNL     1       6.564  -0.986  -5.628  1.00  0.00     0.037 A 
ATOM     51  C   UNL     1       7.390  -7.067  -3.411  1.00  0.00     0.049 A 
ATOM     52  C   UNL     1       7.159  -2.225  -6.227  1.00  0.00     0.074 A 
ATOM     53  C   UNL     1       7.916  -8.152  -4.090  1.00  0.00     0.029 A 
ATOM     54  N   UNL     1       7.493  -5.975  -4.261  1.00  0.00    -0.354 N 
ATOM     55  N   UNL     1       7.263  -3.423  -5.707  1.00  0.00    -0.248 NA
ATOM     56  C   UNL     1       7.752  -2.092  -7.564  1.00  0.00     0.031 C 
ATOM     57  C   UNL     1       8.361  -7.711  -5.342  1.00  0.00     0.029 A 
ATOM     58  C   UNL     1       8.084  -6.358  -5.454  1.00  0.00     0.049 A 
ATOM     59  H   UNL     1       7.190  -5.063  -4.048  1.00  0.00     0.167 HD
ATOM     60  C   UNL     1       7.949  -4.183  -6.641  1.00  0.00     0.074 A 
ATOM     61  C   UNL     1       8.209  -3.319  -7.776  1.00  0.00     0.031 C 
ATOM     62  C   UNL     1       8.345  -5.476  -6.560  1.00  0.00     0.037 A 
BRANCH  49  63
ATOM     63  C   UNL     1       6.802  -8.280  -1.281  1.00  0.00     0.064 A 
ATOM     64  C   UNL     1       5.640  -9.032  -1.068  1.00  0.00     0.173 A 
ATOM     65  C   UNL     1       8.006  -8.760  -0.740  1.00  0.00     0.173 A 
ATOM     66  F   UNL     1       4.463  -8.606  -1.550  1.00  0.00    -0.203 F 
ATOM     67  C   UNL     1       5.680 -10.214  -0.331  1.00  0.00     0.198 A 
ATOM     68  C   UNL     1       8.046  -9.952  -0.022  1.00  0.00     0.198 A 
ATOM     69  F   UNL     1       9.147  -8.076  -0.917  1.00  0.00    -0.203 F 
ATOM     70  F   UNL     1       4.552 -10.902  -0.110  1.00  0.00    -0.200 F 
ATOM     71  C   UNL     1       6.883 -10.676   0.185  1.00  0.00     0.200 A 
ATOM     72  F   UNL     1       9.211 -10.399   0.468  1.00  0.00    -0.200 F 
ATOM     73  F   UNL     1       6.919 -11.817   0.888  1.00  0.00    -0.200 F 
ENDBRANCH  49  63
BRANCH  50  74
ATOM     74  C   UNL     1       6.540   0.298  -6.377  1.00  0.00     0.064 A 
ATOM     75  C   UNL     1       5.662   0.487  -7.452  1.00  0.00     0.173 A 
ATOM     76  C   UNL     1       7.367   1.372  -6.011  1.00  0.00     0.173 A 
ATOM     77  F   UNL     1       4.876  -0.520  -7.859  1.00  0.00    -0.203 F 
ATOM     78  C   UNL     1       5.604   1.706  -8.124  1.00  0.00     0.198 A 
ATOM     79  C   UNL     1       7.284   2.599  -6.663  1.00  0.00     0.198 A 
ATOM     80  F   UNL     1       8.230   1.239  -4.994  1.00  0.00    -0.203 F 
ATOM     81  F   UNL     1       4.774   1.856  -9.165  1.00  0.00    -0.200 F 
ATOM     82  C   UNL     1       6.405   2.765  -7.721  1.00  0.00     0.200 A 
ATOM     83  F   UNL     1       8.048   3.623  -6.257  1.00  0.00    -0.200 F 
ATOM     84  F   UNL     1       6.331   3.944  -8.353  1.00  0.00    -0.200 F 
ENDBRANCH  50  74
BRANCH  62  85
ATOM     85  C   UNL     1       9.100  -6.024  -7.729  1.00  0.00     0.064 A 
ATOM     86  C   UNL     1      10.455  -5.721  -7.922  1.00  0.00     0.173 A 
ATOM     87  C   UNL     1       8.472  -6.875  -8.649  1.00  0.00     0.173 A 
ATOM     88  F   UNL     1      11.089  -4.895  -7.077  1.00  0.00    -0.203 F 
ATOM     89  C   UNL     1      11.153  -6.242  -9.008  1.00  0.00     0.198 A 
ATOM     90  C   UNL     1       9.178  -7.408  -9.722  1.00  0.00     0.198 A 
ATOM     91  F   UNL     1       7.176  -7.190  -8.502  1.00  0.00    -0.203 F 
ATOM     92  F   UNL     1      12.438  -5.913  -9.196  1.00  0.00    -0.200 F 
ATOM     93  C   UNL     1      10.515  -7.088  -9.903  1.00  0.00     0.200 A 
ATOM     94  F   UNL     1       8.562  -8.229 -10.585  1.00  0.00    -0.200 F 
ATOM     95  F   UNL     1      11.189  -7.589 -10.948  1.00  0.00    -0.200 F 
ENDBRANCH  62  85
ENDBRANCH  36  37
ENDBRANCH  29  31
ENDBRANCH  28  29
ENDBRANCH  27  28
ENDBRANCH   1  27
TORSDOF 13
