REMARK SMILES COc1ccc(-c2nc(C(C)C)cc3nn(CC(=O)OCCOC(=O)c4ccc(-c5c6nc(c(-c7c(F)c(F)c(F)c(F)c7F)c7ccc([nH]7)c(-c7c(F)c(F)c(F)c(F)c7F)c7nc(c(-c8c(F)c(F)c(F)c(F)c8F)c8ccc5[nH]8)C=C7)C=C6)cc4)c(=O)n23)cc1
REMARK SMILES IDX 21 1 20 2 18 3 19 4 17 5 16 6 7 7 8 8 91 9 9 10 14 11 89 12
REMARK SMILES IDX 13 13 15 14 90 15 6 16 3 17 4 18 93 19 5 20 92 21 2 22 1 23
REMARK SMILES IDX 10 24 11 25 12 26 22 27 23 28 24 29 25 30 26 31 27 32 88 33
REMARK SMILES IDX 28 34 87 35 29 36 30 37 31 38 81 39 32 40 86 41 80 42 82 43
REMARK SMILES IDX 33 44 85 45 79 46 78 47 34 49 66 50 46 51 65 52 47 53 50 54
REMARK SMILES IDX 64 55 83 56 48 57 49 58 63 60 84 61 51 62 35 63 36 64 44 65
REMARK SMILES IDX 37 66 38 67 42 68 45 69 39 70 40 71 43 72 41 73 67 74 68 75
REMARK SMILES IDX 76 76 69 77 70 78 74 79 77 80 71 81 72 82 75 83 73 84 52 85
REMARK SMILES IDX 53 86 61 87 54 88 55 89 59 90 62 91 56 92 57 93 60 94 58 95
REMARK H PARENT 82 48 50 59
REMARK Flexibility Score: inf
ROOT
ATOM      1  C   UNL     1      -3.038   8.002  -5.622  1.00  0.00     0.274 C 
ENDROOT
BRANCH   1   2
ATOM      2  O   UNL     1      -1.636   8.014  -5.279  1.00  0.00    -0.461 OA
BRANCH   2   3
ATOM      3  C   UNL     1      -1.313   8.575  -4.081  1.00  0.00     0.328 C 
ATOM      4  O   UNL     1      -2.105   9.211  -3.387  1.00  0.00    -0.250 OA
BRANCH   3   5
ATOM      5  C   UNL     1       0.149   8.412  -3.680  1.00  0.00     0.272 C 
BRANCH   5   6
ATOM      6  N   UNL     1       0.912   7.378  -4.342  1.00  0.00    -0.201 N 
ATOM      7  C   UNL     1       2.478   4.197  -4.891  1.00  0.00     0.150 A 
ATOM      8  N   UNL     1       3.340   3.887  -5.813  1.00  0.00    -0.234 NA
ATOM      9  N   UNL     1       1.978   5.486  -4.766  1.00  0.00    -0.226 N 
ATOM     10  C   UNL     1       3.738   4.879  -6.688  1.00  0.00     0.049 A 
ATOM     11  C   UNL     1       2.228   6.441  -5.684  1.00  0.00     0.165 A 
ATOM     12  C   UNL     1       1.235   6.125  -3.795  1.00  0.00     0.352 A 
ATOM     13  C   UNL     1       3.203   6.113  -6.717  1.00  0.00     0.073 A 
ATOM     14  N   UNL     1       1.611   7.572  -5.514  1.00  0.00    -0.149 NA
ATOM     15  O   UNL     1       1.093   5.787  -2.629  1.00  0.00    -0.245 OA
BRANCH   7  16
ATOM     16  C   UNL     1       1.988   3.155  -3.964  1.00  0.00     0.018 A 
ATOM     17  C   UNL     1       1.088   1.169  -2.225  1.00  0.00     0.118 A 
ATOM     18  C   UNL     1       0.190   1.813  -3.075  1.00  0.00     0.047 A 
ATOM     19  C   UNL     1       2.451   1.455  -2.306  1.00  0.00     0.047 A 
ATOM     20  C   UNL     1       0.631   2.819  -3.936  1.00  0.00     0.016 A 
ATOM     21  C   UNL     1       2.904   2.444  -3.184  1.00  0.00     0.016 A 
BRANCH  17  22
ATOM     22  O   UNL     1       0.571   0.230  -1.377  1.00  0.00    -0.497 OA
ATOM     23  C   UNL     1       0.999   0.411  -0.028  1.00  0.00     0.278 C 
ENDBRANCH  17  22
ENDBRANCH   7  16
BRANCH  10  24
ATOM     24  C   UNL     1       4.858   4.474  -7.632  1.00  0.00     0.032 C 
ATOM     25  C   UNL     1       4.542   4.794  -9.094  1.00  0.00     0.014 C 
ATOM     26  C   UNL     1       6.178   5.116  -7.194  1.00  0.00     0.014 C 
ENDBRANCH  10  24
ENDBRANCH   5   6
ENDBRANCH   3   5
ENDBRANCH   2   3
ENDBRANCH   1   2
BRANCH   1  27
ATOM     27  C   UNL     1      -3.690   6.676  -5.250  1.00  0.00     0.275 C 
BRANCH  27  28
ATOM     28  O   UNL     1      -3.631   6.448  -3.841  1.00  0.00    -0.458 OA
BRANCH  28  29
ATOM     29  C   UNL     1      -2.511   5.795  -3.458  1.00  0.00     0.338 C 
ATOM     30  O   UNL     1      -1.526   5.559  -4.131  1.00  0.00    -0.246 OA
BRANCH  29  31
ATOM     31  C   UNL     1      -2.729   5.159  -2.163  1.00  0.00     0.060 A 
ATOM     32  C   UNL     1      -1.601   4.818  -1.416  1.00  0.00     0.016 A 
ATOM     33  C   UNL     1      -3.961   4.533  -1.978  1.00  0.00     0.016 A 
ATOM     34  C   UNL     1      -1.627   3.669  -0.664  1.00  0.00     0.010 A 
ATOM     35  C   UNL     1      -3.995   3.398  -1.212  1.00  0.00     0.010 A 
ATOM     36  C   UNL     1      -2.802   2.925  -0.656  1.00  0.00    -0.014 A 
BRANCH  36  37
ATOM     37  C   UNL     1      -2.829   1.672   0.070  1.00  0.00     0.031 A 
ATOM     38  C   UNL     1      -2.794   1.879   1.540  1.00  0.00     0.074 A 
ATOM     39  C   UNL     1      -3.087   0.527  -0.594  1.00  0.00     0.049 A 
ATOM     40  N   UNL     1      -2.012   1.343   2.418  1.00  0.00    -0.248 NA
ATOM     41  C   UNL     1      -3.652   2.955   2.084  1.00  0.00     0.031 C 
ATOM     42  C   UNL     1      -3.368   0.384  -2.030  1.00  0.00     0.029 A 
ATOM     43  N   UNL     1      -3.312  -0.729  -0.119  1.00  0.00    -0.354 N 
ATOM     44  C   UNL     1      -2.444   1.849   3.642  1.00  0.00     0.074 A 
ATOM     45  C   UNL     1      -3.286   2.977   3.363  1.00  0.00     0.031 C 
ATOM     46  C   UNL     1      -3.936  -0.817  -2.263  1.00  0.00     0.029 A 
ATOM     47  C   UNL     1      -3.990  -1.553  -1.017  1.00  0.00     0.049 A 
ATOM     48  H   UNL     1      -3.024  -1.027   0.774  1.00  0.00     0.167 HD
ATOM     49  C   UNL     1      -2.363   1.097   4.770  1.00  0.00     0.037 A 
ATOM     50  C   UNL     1      -4.668  -2.686  -0.703  1.00  0.00     0.037 A 
ATOM     51  C   UNL     1      -1.361   0.074   4.646  1.00  0.00     0.049 A 
ATOM     52  C   UNL     1      -4.221  -3.111   0.650  1.00  0.00     0.074 A 
ATOM     53  C   UNL     1       0.004   0.073   4.451  1.00  0.00     0.029 A 
ATOM     54  N   UNL     1      -1.783  -1.201   4.369  1.00  0.00    -0.354 N 
ATOM     55  N   UNL     1      -3.024  -3.558   0.916  1.00  0.00    -0.248 NA
ATOM     56  C   UNL     1      -4.951  -2.572   1.787  1.00  0.00     0.031 C 
ATOM     57  C   UNL     1       0.262  -1.068   3.636  1.00  0.00     0.029 A 
ATOM     58  C   UNL     1      -0.949  -1.729   3.419  1.00  0.00     0.049 A 
ATOM     59  H   UNL     1      -2.551  -1.658   4.781  1.00  0.00     0.167 HD
ATOM     60  C   UNL     1      -2.683  -2.956   2.119  1.00  0.00     0.074 A 
ATOM     61  C   UNL     1      -3.937  -2.420   2.643  1.00  0.00     0.031 C 
ATOM     62  C   UNL     1      -1.377  -2.697   2.430  1.00  0.00     0.037 A 
BRANCH  49  63
ATOM     63  C   UNL     1      -3.487   1.016   5.774  1.00  0.00     0.064 A 
ATOM     64  C   UNL     1      -3.259   0.353   6.992  1.00  0.00     0.173 A 
ATOM     65  C   UNL     1      -4.843   1.275   5.463  1.00  0.00     0.173 A 
ATOM     66  F   UNL     1      -2.011   0.038   7.371  1.00  0.00    -0.203 F 
ATOM     67  C   UNL     1      -4.313  -0.090   7.795  1.00  0.00     0.198 A 
ATOM     68  C   UNL     1      -5.888   0.883   6.295  1.00  0.00     0.198 A 
ATOM     69  F   UNL     1      -5.226   1.803   4.295  1.00  0.00    -0.203 F 
ATOM     70  F   UNL     1      -4.053  -0.836   8.877  1.00  0.00    -0.200 F 
ATOM     71  C   UNL     1      -5.625   0.170   7.443  1.00  0.00     0.200 A 
ATOM     72  F   UNL     1      -7.152   1.127   5.922  1.00  0.00    -0.200 F 
ATOM     73  F   UNL     1      -6.637  -0.312   8.175  1.00  0.00    -0.200 F 
ENDBRANCH  49  63
BRANCH  50  74
ATOM     74  C   UNL     1      -5.935  -3.166  -1.310  1.00  0.00     0.064 A 
ATOM     75  C   UNL     1      -6.375  -4.486  -1.127  1.00  0.00     0.173 A 
ATOM     76  C   UNL     1      -6.870  -2.272  -1.874  1.00  0.00     0.173 A 
ATOM     77  F   UNL     1      -5.572  -5.388  -0.544  1.00  0.00    -0.203 F 
ATOM     78  C   UNL     1      -7.670  -4.885  -1.479  1.00  0.00     0.198 A 
ATOM     79  C   UNL     1      -8.155  -2.673  -2.237  1.00  0.00     0.198 A 
ATOM     80  F   UNL     1      -6.592  -0.967  -1.998  1.00  0.00    -0.203 F 
ATOM     81  F   UNL     1      -8.074  -6.140  -1.236  1.00  0.00    -0.200 F 
ATOM     82  C   UNL     1      -8.560  -3.977  -2.029  1.00  0.00     0.200 A 
ATOM     83  F   UNL     1      -9.016  -1.772  -2.733  1.00  0.00    -0.200 F 
ATOM     84  F   UNL     1      -9.816  -4.344  -2.318  1.00  0.00    -0.200 F 
ENDBRANCH  50  74
BRANCH  62  85
ATOM     85  C   UNL     1      -0.305  -3.277   1.536  1.00  0.00     0.064 A 
ATOM     86  C   UNL     1      -0.205  -3.028   0.154  1.00  0.00     0.173 A 
ATOM     87  C   UNL     1       0.756  -3.974   2.131  1.00  0.00     0.173 A 
ATOM     88  F   UNL     1      -1.117  -2.282  -0.479  1.00  0.00    -0.203 F 
ATOM     89  C   UNL     1       0.886  -3.474  -0.593  1.00  0.00     0.198 A 
ATOM     90  C   UNL     1       1.866  -4.379   1.393  1.00  0.00     0.198 A 
ATOM     91  F   UNL     1       0.750  -4.209   3.453  1.00  0.00    -0.203 F 
ATOM     92  F   UNL     1       0.949  -3.224  -1.909  1.00  0.00    -0.200 F 
ATOM     93  C   UNL     1       1.927  -4.136   0.031  1.00  0.00     0.200 A 
ATOM     94  F   UNL     1       2.895  -4.973   2.013  1.00  0.00    -0.200 F 
ATOM     95  F   UNL     1       3.005  -4.513  -0.672  1.00  0.00    -0.200 F 
ENDBRANCH  62  85
ENDBRANCH  36  37
ENDBRANCH  29  31
ENDBRANCH  28  29
ENDBRANCH  27  28
ENDBRANCH   1  27
TORSDOF 15
