REMARK SMILES COc1ccc(/C=C(/SCC(=O)OCCOC(=O)c2ccc(-c3c4nc(c(-c5c(F)c(F)c(F)c(F)c5F)c5ccc([nH]5)c(-c5c(F)c(F)c(F)c(F)c5F)c5nc(c(-c6c(F)c(F)c(F)c(F)c6F)c6ccc3[nH]6)C=C5)C=C4)cc2)c2nc3ccccc3s2)cc1O
REMARK SMILES IDX 14 1 13 2 11 3 12 4 10 5 9 6 8 7 7 8 6 9 3 10 4 11 92 12
REMARK SMILES IDX 5 13 91 14 2 15 1 16 93 17 82 19 83 20 90 21 84 22 89 23
REMARK SMILES IDX 85 24 88 25 86 26 87 27 15 28 16 29 17 30 18 31 19 32 20 33
REMARK SMILES IDX 81 34 21 35 80 36 22 37 23 38 24 39 74 40 25 41 79 42 73 43
REMARK SMILES IDX 75 44 26 45 78 46 72 47 71 48 27 50 59 51 39 52 58 53 40 54
REMARK SMILES IDX 43 55 57 56 76 57 41 58 42 59 56 61 77 62 44 63 28 64 29 65
REMARK SMILES IDX 37 66 30 67 31 68 35 69 38 70 32 71 33 72 36 73 34 74 60 75
REMARK SMILES IDX 61 76 69 77 62 78 63 79 67 80 70 81 64 82 65 83 68 84 66 85
REMARK SMILES IDX 45 86 46 87 54 88 47 89 48 90 52 91 55 92 49 93 50 94 53 95
REMARK SMILES IDX 51 96
REMARK H PARENT 93 18 75 49 43 60
REMARK Flexibility Score: inf
ROOT
ATOM      1  C   UNL     1       5.527  -8.497  -1.729  1.00  0.00     0.274 C 
ENDROOT
BRANCH   1   2
ATOM      2  O   UNL     1       4.219  -8.370  -2.322  1.00  0.00    -0.461 OA
BRANCH   2   3
ATOM      3  C   UNL     1       3.233  -9.142  -1.795  1.00  0.00     0.316 C 
ATOM      4  O   UNL     1       3.382  -9.877  -0.822  1.00  0.00    -0.251 OA
BRANCH   3   5
ATOM      5  C   UNL     1       1.880  -8.991  -2.466  1.00  0.00     0.197 C 
BRANCH   5   6
ATOM      6  S   UNL     1       1.911  -8.113  -4.039  1.00  0.00    -0.111 SA
BRANCH   6   7
ATOM      7  C   UNL     1       1.076  -6.589  -3.787  1.00  0.00     0.044 C 
ATOM      8  C   UNL     1       1.061  -5.913  -2.619  1.00  0.00     0.026 C 
BRANCH   8   9
ATOM      9  C   UNL     1       0.565  -4.557  -2.247  1.00  0.00    -0.020 A 
ATOM     10  C   UNL     1       0.013  -1.868  -1.444  1.00  0.00     0.160 A 
ATOM     11  C   UNL     1      -0.560  -2.421  -2.593  1.00  0.00     0.051 A 
ATOM     12  C   UNL     1       0.811  -2.693  -0.665  1.00  0.00     0.158 A 
ATOM     13  C   UNL     1      -0.306  -3.750  -2.981  1.00  0.00     0.012 A 
ATOM     14  C   UNL     1       1.064  -4.012  -1.056  1.00  0.00     0.058 A 
BRANCH  10  15
ATOM     15  O   UNL     1      -0.284  -0.549  -1.244  1.00  0.00    -0.493 OA
ATOM     16  C   UNL     1       0.410   0.137  -0.207  1.00  0.00     0.278 C 
ENDBRANCH  10  15
BRANCH  12  17
ATOM     17  O   UNL     1       1.405  -2.267   0.490  1.00  0.00    -0.504 OA
ATOM     18  H   UNL     1       1.266  -1.391   0.793  1.00  0.00     0.293 HD
ENDBRANCH  12  17
ENDBRANCH   8   9
BRANCH   7  19
ATOM     19  C   UNL     1       0.494  -6.066  -4.982  1.00  0.00     0.131 A 
ATOM     20  N   UNL     1      -0.659  -6.443  -5.500  1.00  0.00    -0.235 NA
ATOM     21  S   UNL     1       1.358  -4.894  -5.922  1.00  0.00    -0.113 S 
ATOM     22  C   UNL     1      -0.905  -5.769  -6.681  1.00  0.00     0.082 A 
ATOM     23  C   UNL     1       0.067  -4.843  -7.055  1.00  0.00     0.055 A 
ATOM     24  C   UNL     1      -2.037  -5.937  -7.504  1.00  0.00     0.030 A 
ATOM     25  C   UNL     1      -0.069  -4.047  -8.202  1.00  0.00     0.021 A 
ATOM     26  C   UNL     1      -2.176  -5.160  -8.657  1.00  0.00     0.002 A 
ATOM     27  C   UNL     1      -1.208  -4.219  -8.993  1.00  0.00     0.002 A 
ENDBRANCH   7  19
ENDBRANCH   6   7
ENDBRANCH   5   6
ENDBRANCH   3   5
ENDBRANCH   2   3
ENDBRANCH   1   2
BRANCH   1  28
ATOM     28  C   UNL     1       5.809  -7.332  -0.787  1.00  0.00     0.275 C 
BRANCH  28  29
ATOM     29  O   UNL     1       4.809  -7.288   0.248  1.00  0.00    -0.458 OA
BRANCH  29  30
ATOM     30  C   UNL     1       4.024  -6.193   0.230  1.00  0.00     0.338 C 
ATOM     31  O   UNL     1       4.106  -5.227  -0.510  1.00  0.00    -0.246 OA
BRANCH  30  32
ATOM     32  C   UNL     1       2.972  -6.275   1.256  1.00  0.00     0.060 A 
ATOM     33  C   UNL     1       1.987  -7.265   1.194  1.00  0.00     0.016 A 
ATOM     34  C   UNL     1       2.848  -5.207   2.148  1.00  0.00     0.016 A 
ATOM     35  C   UNL     1       0.852  -7.162   1.999  1.00  0.00     0.010 A 
ATOM     36  C   UNL     1       1.731  -5.126   2.980  1.00  0.00     0.010 A 
ATOM     37  C   UNL     1       0.718  -6.093   2.899  1.00  0.00    -0.014 A 
BRANCH  37  38
ATOM     38  C   UNL     1      -0.439  -6.016   3.820  1.00  0.00     0.031 A 
ATOM     39  C   UNL     1      -1.534  -5.011   3.614  1.00  0.00     0.074 A 
ATOM     40  C   UNL     1      -0.468  -6.843   4.881  1.00  0.00     0.049 A 
ATOM     41  N   UNL     1      -2.540  -4.719   4.401  1.00  0.00    -0.248 NA
ATOM     42  C   UNL     1      -1.503  -4.241   2.363  1.00  0.00     0.031 C 
ATOM     43  C   UNL     1       0.523  -7.881   5.164  1.00  0.00     0.029 A 
ATOM     44  N   UNL     1      -1.351  -6.926   5.926  1.00  0.00    -0.354 N 
ATOM     45  C   UNL     1      -3.267  -3.740   3.738  1.00  0.00     0.074 A 
ATOM     46  C   UNL     1      -2.578  -3.472   2.493  1.00  0.00     0.031 C 
ATOM     47  C   UNL     1       0.202  -8.489   6.316  1.00  0.00     0.029 A 
ATOM     48  C   UNL     1      -0.985  -7.848   6.873  1.00  0.00     0.049 A 
ATOM     49  H   UNL     1      -2.167  -6.379   5.990  1.00  0.00     0.167 HD
ATOM     50  C   UNL     1      -4.408  -3.128   4.137  1.00  0.00     0.037 A 
ATOM     51  C   UNL     1      -1.518  -8.118   8.078  1.00  0.00     0.037 A 
ATOM     52  C   UNL     1      -5.081  -3.381   5.386  1.00  0.00     0.049 A 
ATOM     53  C   UNL     1      -2.721  -7.352   8.540  1.00  0.00     0.074 A 
ATOM     54  C   UNL     1      -6.235  -2.798   5.882  1.00  0.00     0.029 A 
ATOM     55  N   UNL     1      -4.655  -4.293   6.340  1.00  0.00    -0.354 N 
ATOM     56  N   UNL     1      -3.387  -6.410   7.920  1.00  0.00    -0.248 NA
ATOM     57  C   UNL     1      -3.241  -7.678   9.875  1.00  0.00     0.031 C 
ATOM     58  C   UNL     1      -6.492  -3.337   7.148  1.00  0.00     0.029 A 
ATOM     59  C   UNL     1      -5.515  -4.278   7.427  1.00  0.00     0.049 A 
ATOM     60  H   UNL     1      -3.860  -4.868   6.257  1.00  0.00     0.167 HD
ATOM     61  C   UNL     1      -4.410  -6.039   8.778  1.00  0.00     0.074 A 
ATOM     62  C   UNL     1      -4.284  -6.865   9.962  1.00  0.00     0.031 C 
ATOM     63  C   UNL     1      -5.370  -5.100   8.599  1.00  0.00     0.037 A 
BRANCH  50  64
ATOM     64  C   UNL     1      -5.012  -2.111   3.217  1.00  0.00     0.064 A 
ATOM     65  C   UNL     1      -5.774  -2.501   2.107  1.00  0.00     0.173 A 
ATOM     66  C   UNL     1      -4.905  -0.741   3.498  1.00  0.00     0.173 A 
ATOM     67  F   UNL     1      -5.903  -3.800   1.799  1.00  0.00    -0.203 F 
ATOM     68  C   UNL     1      -6.408  -1.552   1.308  1.00  0.00     0.198 A 
ATOM     69  C   UNL     1      -5.552   0.203   2.705  1.00  0.00     0.198 A 
ATOM     70  F   UNL     1      -4.196  -0.322   4.556  1.00  0.00    -0.203 F 
ATOM     71  F   UNL     1      -7.129  -1.944   0.248  1.00  0.00    -0.200 F 
ATOM     72  C   UNL     1      -6.303  -0.203   1.612  1.00  0.00     0.200 A 
ATOM     73  F   UNL     1      -5.462   1.506   3.008  1.00  0.00    -0.200 F 
ATOM     74  F   UNL     1      -6.932   0.707   0.855  1.00  0.00    -0.200 F 
ENDBRANCH  50  64
BRANCH  51  75
ATOM     75  C   UNL     1      -0.884  -9.144   8.939  1.00  0.00     0.064 A 
ATOM     76  C   UNL     1      -1.485 -10.393   9.133  1.00  0.00     0.173 A 
ATOM     77  C   UNL     1       0.350  -8.903   9.560  1.00  0.00     0.173 A 
ATOM     78  F   UNL     1      -2.676 -10.656   8.575  1.00  0.00    -0.203 F 
ATOM     79  C   UNL     1      -0.875 -11.366   9.920  1.00  0.00     0.198 A 
ATOM     80  C   UNL     1       0.970  -9.884  10.328  1.00  0.00     0.198 A 
ATOM     81  F   UNL     1       0.963  -7.720   9.400  1.00  0.00    -0.203 F 
ATOM     82  F   UNL     1      -1.480 -12.546  10.111  1.00  0.00    -0.200 F 
ATOM     83  C   UNL     1       0.356 -11.114  10.510  1.00  0.00     0.200 A 
ATOM     84  F   UNL     1       2.164  -9.640  10.886  1.00  0.00    -0.200 F 
ATOM     85  F   UNL     1       0.948 -12.055  11.257  1.00  0.00    -0.200 F 
ENDBRANCH  51  75
BRANCH  63  86
ATOM     86  C   UNL     1      -6.364  -4.933   9.706  1.00  0.00     0.064 A 
ATOM     87  C   UNL     1      -6.038  -4.242  10.881  1.00  0.00     0.173 A 
ATOM     88  C   UNL     1      -7.656  -5.465   9.587  1.00  0.00     0.173 A 
ATOM     89  F   UNL     1      -4.807  -3.734  11.045  1.00  0.00    -0.203 F 
ATOM     90  C   UNL     1      -6.966  -4.106  11.909  1.00  0.00     0.198 A 
ATOM     91  C   UNL     1      -8.587  -5.312  10.610  1.00  0.00     0.198 A 
ATOM     92  F   UNL     1      -8.012  -6.136   8.482  1.00  0.00    -0.203 F 
ATOM     93  F   UNL     1      -6.622  -3.476  13.041  1.00  0.00    -0.200 F 
ATOM     94  C   UNL     1      -8.240  -4.638  11.772  1.00  0.00     0.200 A 
ATOM     95  F   UNL     1      -9.818  -5.825  10.476  1.00  0.00    -0.200 F 
ATOM     96  F   UNL     1      -9.130  -4.512  12.765  1.00  0.00    -0.200 F 
ENDBRANCH  63  86
ENDBRANCH  37  38
ENDBRANCH  30  32
ENDBRANCH  29  30
ENDBRANCH  28  29
ENDBRANCH   1  28
TORSDOF 17
