REMARK SMILES O=C(OCCOC(=O)c1cc(Br)ccc1OCc1ccccc1F)c1ccc(-c2c3nc(c(-c4c(F)c(F)c(F)c(F)c4F)c4ccc([nH]4)c(-c4c(F)c(F)c(F)c(F)c4F)c4nc(c(-c5c(F)c(F)c(F)c(F)c5F)c5ccc2[nH]5)C=C4)C=C3)cc1
REMARK SMILES IDX 5 1 4 2 3 3 2 4 1 5 25 6 26 7 87 8 27 9 86 10 28 11 29 12
REMARK SMILES IDX 30 13 80 14 31 15 85 16 79 17 81 18 32 19 84 20 78 21 77 22
REMARK SMILES IDX 33 24 65 25 45 26 64 27 46 28 49 29 63 30 82 31 47 32 48 33
REMARK SMILES IDX 62 35 83 36 50 37 34 38 35 39 43 40 36 41 37 42 41 43 44 44
REMARK SMILES IDX 38 45 39 46 42 47 40 48 66 49 67 50 75 51 68 52 69 53 73 54
REMARK SMILES IDX 76 55 70 56 71 57 74 58 72 59 51 60 52 61 60 62 53 63 54 64
REMARK SMILES IDX 58 65 61 66 55 67 56 68 59 69 57 70 6 71 7 72 8 73 9 74
REMARK SMILES IDX 10 75 15 76 11 77 14 78 12 79 13 80 16 81 17 82 18 83 19 84
REMARK SMILES IDX 23 85 20 86 22 87 24 88 21 89
REMARK H PARENT 81 23 49 34
REMARK Flexibility Score: inf
ROOT
ATOM      1  C   UNL     1       4.071  -0.208  -1.748  1.00  0.00     0.275 C 
ENDROOT
BRANCH   1   2
ATOM      2  C   UNL     1       4.570  -1.264  -0.762  1.00  0.00     0.275 C 
BRANCH   2   3
ATOM      3  O   UNL     1       3.722  -1.514   0.373  1.00  0.00    -0.458 OA
BRANCH   3   4
ATOM      4  C   UNL     1       3.571  -0.744   1.480  1.00  0.00     0.338 C 
ATOM      5  O   UNL     1       2.901  -1.157   2.424  1.00  0.00    -0.246 OA
BRANCH   4   6
ATOM      6  C   UNL     1       4.062   0.659   1.529  1.00  0.00     0.060 A 
ATOM      7  C   UNL     1       5.322   1.070   1.090  1.00  0.00     0.016 A 
ATOM      8  C   UNL     1       3.187   1.613   2.071  1.00  0.00     0.016 A 
ATOM      9  C   UNL     1       5.677   2.418   1.118  1.00  0.00     0.010 A 
ATOM     10  C   UNL     1       3.539   2.964   2.111  1.00  0.00     0.010 A 
ATOM     11  C   UNL     1       4.801   3.365   1.656  1.00  0.00    -0.014 A 
BRANCH  11  12
ATOM     12  C   UNL     1       5.350   4.685   2.031  1.00  0.00     0.031 A 
ATOM     13  C   UNL     1       5.798   4.849   3.453  1.00  0.00     0.074 A 
ATOM     14  C   UNL     1       5.582   5.647   1.122  1.00  0.00     0.049 A 
ATOM     15  N   UNL     1       6.480   5.819   3.998  1.00  0.00    -0.248 NA
ATOM     16  C   UNL     1       5.481   3.743   4.376  1.00  0.00     0.031 C 
ATOM     17  C   UNL     1       5.294   5.544  -0.304  1.00  0.00     0.029 A 
ATOM     18  N   UNL     1       6.132   6.895   1.262  1.00  0.00    -0.354 N 
ATOM     19  C   UNL     1       6.734   5.404   5.295  1.00  0.00     0.074 A 
ATOM     20  C   UNL     1       6.046   4.152   5.497  1.00  0.00     0.031 C 
ATOM     21  C   UNL     1       5.626   6.699  -0.905  1.00  0.00     0.029 A 
ATOM     22  C   UNL     1       6.162   7.617   0.095  1.00  0.00     0.049 A 
ATOM     23  H   UNL     1       6.473   7.241   2.119  1.00  0.00     0.167 HD
ATOM     24  C   UNL     1       7.526   5.987   6.220  1.00  0.00     0.037 A 
ATOM     25  C   UNL     1       6.588   8.873  -0.139  1.00  0.00     0.037 A 
ATOM     26  C   UNL     1       8.165   7.256   6.024  1.00  0.00     0.049 A 
ATOM     27  C   UNL     1       7.291   9.608   0.969  1.00  0.00     0.074 A 
ATOM     28  C   UNL     1       8.946   7.972   6.907  1.00  0.00     0.029 A 
ATOM     29  N   UNL     1       8.067   8.009   4.861  1.00  0.00    -0.354 N 
ATOM     30  N   UNL     1       7.558   9.196   2.185  1.00  0.00    -0.248 NA
ATOM     31  C   UNL     1       7.799  10.951   0.664  1.00  0.00     0.031 C 
ATOM     32  C   UNL     1       9.266   9.192   6.303  1.00  0.00     0.029 A 
ATOM     33  C   UNL     1       8.747   9.203   5.016  1.00  0.00     0.049 A 
ATOM     34  H   UNL     1       7.586   7.734   4.047  1.00  0.00     0.167 HD
ATOM     35  C   UNL     1       8.314  10.199   2.773  1.00  0.00     0.074 A 
ATOM     36  C   UNL     1       8.446  11.250   1.783  1.00  0.00     0.031 C 
ATOM     37  C   UNL     1       8.870  10.231   4.010  1.00  0.00     0.037 A 
BRANCH  24  38
ATOM     38  C   UNL     1       7.706   5.249   7.512  1.00  0.00     0.064 A 
ATOM     39  C   UNL     1       7.118   5.723   8.691  1.00  0.00     0.173 A 
ATOM     40  C   UNL     1       8.420   4.040   7.571  1.00  0.00     0.173 A 
ATOM     41  F   UNL     1       6.417   6.866   8.685  1.00  0.00    -0.203 F 
ATOM     42  C   UNL     1       7.233   5.012   9.882  1.00  0.00     0.198 A 
ATOM     43  C   UNL     1       8.506   3.316   8.756  1.00  0.00     0.198 A 
ATOM     44  F   UNL     1       8.975   3.527   6.461  1.00  0.00    -0.203 F 
ATOM     45  F   UNL     1       6.666   5.486  11.000  1.00  0.00    -0.200 F 
ATOM     46  C   UNL     1       7.916   3.805   9.912  1.00  0.00     0.200 A 
ATOM     47  F   UNL     1       9.131   2.130   8.773  1.00  0.00    -0.200 F 
ATOM     48  F   UNL     1       7.991   3.104  11.052  1.00  0.00    -0.200 F 
ENDBRANCH  24  38
BRANCH  25  49
ATOM     49  C   UNL     1       6.401   9.473  -1.485  1.00  0.00     0.064 A 
ATOM     50  C   UNL     1       5.124   9.857  -1.926  1.00  0.00     0.173 A 
ATOM     51  C   UNL     1       7.471   9.636  -2.373  1.00  0.00     0.173 A 
ATOM     52  F   UNL     1       4.070   9.741  -1.105  1.00  0.00    -0.203 F 
ATOM     53  C   UNL     1       4.923  10.355  -3.212  1.00  0.00     0.198 A 
ATOM     54  C   UNL     1       7.272  10.153  -3.653  1.00  0.00     0.198 A 
ATOM     55  F   UNL     1       8.713   9.307  -1.991  1.00  0.00    -0.203 F 
ATOM     56  F   UNL     1       3.690  10.690  -3.616  1.00  0.00    -0.200 F 
ATOM     57  C   UNL     1       5.997  10.502  -4.075  1.00  0.00     0.200 A 
ATOM     58  F   UNL     1       8.316  10.316  -4.477  1.00  0.00    -0.200 F 
ATOM     59  F   UNL     1       5.807  10.985  -5.311  1.00  0.00    -0.200 F 
ENDBRANCH  25  49
BRANCH  37  60
ATOM     60  C   UNL     1       9.713  11.419   4.365  1.00  0.00     0.064 A 
ATOM     61  C   UNL     1      11.095  11.264   4.557  1.00  0.00     0.173 A 
ATOM     62  C   UNL     1       9.147  12.674   4.627  1.00  0.00     0.173 A 
ATOM     63  F   UNL     1      11.681  10.078   4.330  1.00  0.00    -0.203 F 
ATOM     64  C   UNL     1      11.875  12.315   5.027  1.00  0.00     0.198 A 
ATOM     65  C   UNL     1       9.937  13.733   5.064  1.00  0.00     0.198 A 
ATOM     66  F   UNL     1       7.833  12.873   4.448  1.00  0.00    -0.203 F 
ATOM     67  F   UNL     1      13.182  12.128   5.255  1.00  0.00    -0.200 F 
ATOM     68  C   UNL     1      11.296  13.549   5.277  1.00  0.00     0.200 A 
ATOM     69  F   UNL     1       9.382  14.933   5.283  1.00  0.00    -0.200 F 
ATOM     70  F   UNL     1      12.047  14.563   5.728  1.00  0.00    -0.200 F 
ENDBRANCH  37  60
ENDBRANCH  11  12
ENDBRANCH   4   6
ENDBRANCH   3   4
ENDBRANCH   2   3
ENDBRANCH   1   2
BRANCH   1  71
ATOM     71  O   UNL     1       3.225   0.781  -1.143  1.00  0.00    -0.458 OA
BRANCH  71  72
ATOM     72  C   UNL     1       2.819   1.736  -2.017  1.00  0.00     0.342 C 
ATOM     73  O   UNL     1       3.132   1.775  -3.195  1.00  0.00    -0.246 OA
BRANCH  72  74
ATOM     74  C   UNL     1       2.091   2.849  -1.351  1.00  0.00     0.103 A 
ATOM     75  C   UNL     1       2.391   4.112  -1.911  1.00  0.00     0.035 A 
ATOM     76  C   UNL     1       1.185   2.785  -0.284  1.00  0.00     0.134 A 
ATOM     77  C   UNL     1       1.877   5.287  -1.369  1.00  0.00     0.019 A 
ATOM     78  C   UNL     1       0.744   3.997   0.292  1.00  0.00     0.048 A 
ATOM     79  Br  UNL     1       2.233   6.947  -2.196  1.00  0.00    -0.051 Br
ATOM     80  C   UNL     1       1.092   5.239  -0.232  1.00  0.00     0.019 A 
BRANCH  76  81
ATOM     81  O   UNL     1       0.591   1.742   0.350  1.00  0.00    -0.488 OA
BRANCH  81  82
ATOM     82  C   UNL     1       0.330   0.437  -0.159  1.00  0.00     0.268 C 
BRANCH  82  83
ATOM     83  C   UNL     1       0.198   0.168  -1.632  1.00  0.00     0.025 A 
ATOM     84  C   UNL     1       0.669  -1.061  -2.126  1.00  0.00     0.010 A 
ATOM     85  C   UNL     1      -0.343   1.081  -2.536  1.00  0.00     0.129 A 
ATOM     86  C   UNL     1       0.737  -1.295  -3.498  1.00  0.00     0.001 A 
ATOM     87  C   UNL     1      -0.245   0.870  -3.907  1.00  0.00     0.039 A 
ATOM     88  F   UNL     1      -0.899   2.221  -2.105  1.00  0.00    -0.207 F 
ATOM     89  C   UNL     1       0.318  -0.311  -4.390  1.00  0.00     0.003 A 
ENDBRANCH  82  83
ENDBRANCH  81  82
ENDBRANCH  76  81
ENDBRANCH  72  74
ENDBRANCH  71  72
ENDBRANCH   1  71
TORSDOF 14
