REMARK SMILES COc1ccc(-c2ccc(CCC(=O)OCCOC(=O)c3ccc(-c4c5nc(c(-c6c(F)c(F)c(F)c(F)c6F)c6ccc([nH]6)c(-c6c(F)c(F)c(F)c(F)c6F)c6nc(c(-c7c(F)c(F)c(F)c(F)c7F)c7ccc4[nH]7)C=C6)C=C5)cc3)n2-c2ccc(C(C)=O)cc2)cc1
REMARK SMILES IDX 16 1 15 2 13 3 14 4 12 5 11 6 10 7 7 8 8 9 84 10 9 11 6 12
REMARK SMILES IDX 3 13 4 14 95 15 5 16 94 17 2 18 1 19 85 20 86 21 93 22 87 23
REMARK SMILES IDX 92 24 88 25 89 26 90 27 91 28 17 29 18 30 19 31 20 32 21 33
REMARK SMILES IDX 22 34 83 35 23 36 82 37 24 38 25 39 26 40 76 41 27 42 81 43
REMARK SMILES IDX 75 44 77 45 28 46 80 47 74 48 73 49 29 51 61 52 41 53 60 54
REMARK SMILES IDX 42 55 45 56 59 57 78 58 43 59 44 60 58 62 79 63 46 64 30 65
REMARK SMILES IDX 31 66 39 67 32 68 33 69 37 70 40 71 34 72 35 73 38 74 36 75
REMARK SMILES IDX 62 76 63 77 71 78 64 79 65 80 69 81 72 82 66 83 67 84 70 85
REMARK SMILES IDX 68 86 47 87 48 88 56 89 49 90 50 91 54 92 57 93 51 94 52 95
REMARK SMILES IDX 55 96 53 97
REMARK H PARENT 77 50 45 61
REMARK Flexibility Score: inf
ROOT
ATOM      1  C   UNL     1       5.822  -8.514   6.187  1.00  0.00     0.274 C 
ENDROOT
BRANCH   1   2
ATOM      2  O   UNL     1       4.684  -8.371   5.317  1.00  0.00    -0.462 OA
BRANCH   2   3
ATOM      3  C   UNL     1       3.932  -9.476   5.088  1.00  0.00     0.306 C 
ATOM      4  O   UNL     1       4.166 -10.588   5.548  1.00  0.00    -0.252 OA
BRANCH   3   5
ATOM      5  C   UNL     1       2.783  -9.201   4.144  1.00  0.00     0.129 C 
BRANCH   5   6
ATOM      6  C   UNL     1       1.645  -8.357   4.716  1.00  0.00     0.066 C 
BRANCH   6   7
ATOM      7  C   UNL     1       1.897  -6.871   4.652  1.00  0.00     0.024 A 
ATOM      8  C   UNL     1       1.915  -4.769   3.822  1.00  0.00     0.053 A 
ATOM      9  C   UNL     1       2.783  -4.802   4.893  1.00  0.00     0.029 A 
ATOM     10  N   UNL     1       1.306  -6.017   3.728  1.00  0.00    -0.314 N 
ATOM     11  C   UNL     1       2.741  -6.095   5.425  1.00  0.00     0.024 A 
BRANCH   8  12
ATOM     12  C   UNL     1       1.559  -3.585   3.057  1.00  0.00    -0.001 A 
ATOM     13  C   UNL     1       0.922  -1.252   1.665  1.00  0.00     0.118 A 
ATOM     14  C   UNL     1      -0.021  -1.846   2.504  1.00  0.00     0.047 A 
ATOM     15  C   UNL     1       2.198  -1.806   1.548  1.00  0.00     0.047 A 
ATOM     16  C   UNL     1       0.293  -3.012   3.197  1.00  0.00     0.014 A 
ATOM     17  C   UNL     1       2.516  -2.971   2.245  1.00  0.00     0.014 A 
BRANCH  13  18
ATOM     18  O   UNL     1       0.506  -0.107   1.043  1.00  0.00    -0.497 OA
ATOM     19  C   UNL     1       1.119   0.147  -0.215  1.00  0.00     0.278 C 
ENDBRANCH  13  18
ENDBRANCH   8  12
BRANCH  10  20
ATOM     20  C   UNL     1       0.225  -6.346   2.876  1.00  0.00     0.046 A 
ATOM     21  C   UNL     1      -0.963  -6.822   3.439  1.00  0.00     0.027 A 
ATOM     22  C   UNL     1       0.335  -6.154   1.500  1.00  0.00     0.027 A 
ATOM     23  C   UNL     1      -2.054  -7.115   2.617  1.00  0.00     0.014 A 
ATOM     24  C   UNL     1      -0.751  -6.469   0.683  1.00  0.00     0.014 A 
ATOM     25  C   UNL     1      -1.956  -6.945   1.231  1.00  0.00     0.017 A 
BRANCH  25  26
ATOM     26  C   UNL     1      -3.075  -7.248   0.285  1.00  0.00     0.159 C 
ATOM     27  C   UNL     1      -4.451  -7.599   0.790  1.00  0.00     0.093 C 
ATOM     28  O   UNL     1      -2.866  -7.190  -0.927  1.00  0.00    -0.295 OA
ENDBRANCH  25  26
ENDBRANCH  10  20
ENDBRANCH   6   7
ENDBRANCH   5   6
ENDBRANCH   3   5
ENDBRANCH   2   3
ENDBRANCH   1   2
BRANCH   1  29
ATOM     29  C   UNL     1       5.513  -8.273   7.669  1.00  0.00     0.275 C 
BRANCH  29  30
ATOM     30  O   UNL     1       4.694  -9.286   8.275  1.00  0.00    -0.458 OA
BRANCH  30  31
ATOM     31  C   UNL     1       3.380  -9.023   8.143  1.00  0.00     0.338 C 
ATOM     32  O   UNL     1       2.868  -8.138   7.487  1.00  0.00    -0.246 OA
BRANCH  31  33
ATOM     33  C   UNL     1       2.510  -9.777   9.022  1.00  0.00     0.060 A 
ATOM     34  C   UNL     1       1.294 -10.221   8.483  1.00  0.00     0.016 A 
ATOM     35  C   UNL     1       2.719  -9.641  10.394  1.00  0.00     0.016 A 
ATOM     36  C   UNL     1       0.246 -10.497   9.335  1.00  0.00     0.010 A 
ATOM     37  C   UNL     1       1.664  -9.902  11.248  1.00  0.00     0.010 A 
ATOM     38  C   UNL     1       0.436 -10.327  10.711  1.00  0.00    -0.014 A 
BRANCH  38  39
ATOM     39  C   UNL     1      -0.598 -10.851  11.615  1.00  0.00     0.031 A 
ATOM     40  C   UNL     1      -0.368 -12.346  11.887  1.00  0.00     0.074 A 
ATOM     41  C   UNL     1      -1.536  -9.961  12.054  1.00  0.00     0.049 A 
ATOM     42  N   UNL     1      -1.144 -13.221  12.447  1.00  0.00    -0.248 NA
ATOM     43  C   UNL     1       0.915 -12.977  11.452  1.00  0.00     0.031 C 
ATOM     44  C   UNL     1      -1.586  -8.535  11.666  1.00  0.00     0.029 A 
ATOM     45  N   UNL     1      -2.626 -10.054  12.896  1.00  0.00    -0.354 N 
ATOM     46  C   UNL     1      -0.373 -14.385  12.654  1.00  0.00     0.074 A 
ATOM     47  C   UNL     1       0.838 -14.221  11.918  1.00  0.00     0.031 C 
ATOM     48  C   UNL     1      -2.668  -7.928  12.199  1.00  0.00     0.029 A 
ATOM     49  C   UNL     1      -3.407  -8.873  13.015  1.00  0.00     0.049 A 
ATOM     50  H   UNL     1      -2.848 -10.882  13.381  1.00  0.00     0.167 HD
ATOM     51  C   UNL     1      -0.714 -15.342  13.562  1.00  0.00     0.037 A 
ATOM     52  C   UNL     1      -4.574  -8.677  13.708  1.00  0.00     0.037 A 
ATOM     53  C   UNL     1      -2.002 -15.070  14.096  1.00  0.00     0.049 A 
ATOM     54  C   UNL     1      -4.726  -9.879  14.539  1.00  0.00     0.074 A 
ATOM     55  C   UNL     1      -3.255 -15.136  13.548  1.00  0.00     0.029 A 
ATOM     56  N   UNL     1      -2.054 -14.338  15.256  1.00  0.00    -0.354 N 
ATOM     57  N   UNL     1      -4.012 -10.127  15.596  1.00  0.00    -0.248 NA
ATOM     58  C   UNL     1      -5.696 -10.907  14.145  1.00  0.00     0.031 C 
ATOM     59  C   UNL     1      -3.948 -14.079  14.168  1.00  0.00     0.029 A 
ATOM     60  C   UNL     1      -3.153 -13.521  15.176  1.00  0.00     0.049 A 
ATOM     61  H   UNL     1      -1.420 -14.389  16.006  1.00  0.00     0.167 HD
ATOM     62  C   UNL     1      -4.216 -11.474  15.771  1.00  0.00     0.074 A 
ATOM     63  C   UNL     1      -5.459 -11.795  15.107  1.00  0.00     0.031 C 
ATOM     64  C   UNL     1      -3.140 -12.287  15.925  1.00  0.00     0.037 A 
BRANCH  51  65
ATOM     65  C   UNL     1       0.106 -16.406  14.234  1.00  0.00     0.064 A 
ATOM     66  C   UNL     1      -0.585 -17.432  14.923  1.00  0.00     0.173 A 
ATOM     67  C   UNL     1       1.462 -16.250  14.553  1.00  0.00     0.173 A 
ATOM     68  F   UNL     1      -1.873 -17.696  14.650  1.00  0.00    -0.203 F 
ATOM     69  C   UNL     1      -0.003 -18.135  15.975  1.00  0.00     0.198 A 
ATOM     70  C   UNL     1       2.058 -16.998  15.572  1.00  0.00     0.198 A 
ATOM     71  F   UNL     1       2.212 -15.305  13.972  1.00  0.00    -0.203 F 
ATOM     72  F   UNL     1      -0.747 -18.978  16.705  1.00  0.00    -0.200 F 
ATOM     73  C   UNL     1       1.314 -17.901  16.313  1.00  0.00     0.200 A 
ATOM     74  F   UNL     1       3.341 -16.776  15.892  1.00  0.00    -0.200 F 
ATOM     75  F   UNL     1       1.856 -18.514  17.374  1.00  0.00    -0.200 F 
ENDBRANCH  51  65
BRANCH  52  76
ATOM     76  C   UNL     1      -5.673  -7.641  13.838  1.00  0.00     0.064 A 
ATOM     77  C   UNL     1      -5.700  -6.381  13.230  1.00  0.00     0.173 A 
ATOM     78  C   UNL     1      -6.866  -7.957  14.558  1.00  0.00     0.173 A 
ATOM     79  F   UNL     1      -4.626  -5.886  12.609  1.00  0.00    -0.203 F 
ATOM     80  C   UNL     1      -6.850  -5.565  13.246  1.00  0.00     0.198 A 
ATOM     81  C   UNL     1      -8.020  -7.175  14.532  1.00  0.00     0.198 A 
ATOM     82  F   UNL     1      -6.964  -9.056  15.318  1.00  0.00    -0.203 F 
ATOM     83  F   UNL     1      -6.824  -4.371  12.637  1.00  0.00    -0.200 F 
ATOM     84  C   UNL     1      -8.019  -5.980  13.859  1.00  0.00     0.200 A 
ATOM     85  F   UNL     1      -9.131  -7.610  15.146  1.00  0.00    -0.200 F 
ATOM     86  F   UNL     1      -9.130  -5.234  13.808  1.00  0.00    -0.200 F 
ENDBRANCH  52  76
BRANCH  64  87
ATOM     87  C   UNL     1      -1.919 -11.578  16.487  1.00  0.00     0.064 A 
ATOM     88  C   UNL     1      -1.978 -10.982  17.757  1.00  0.00     0.173 A 
ATOM     89  C   UNL     1      -0.742 -11.346  15.756  1.00  0.00     0.173 A 
ATOM     90  F   UNL     1      -3.054 -11.174  18.536  1.00  0.00    -0.203 F 
ATOM     91  C   UNL     1      -0.941 -10.180  18.244  1.00  0.00     0.198 A 
ATOM     92  C   UNL     1       0.297 -10.548  16.238  1.00  0.00     0.198 A 
ATOM     93  F   UNL     1      -0.568 -11.897  14.558  1.00  0.00    -0.203 F 
ATOM     94  F   UNL     1      -1.042  -9.623  19.459  1.00  0.00    -0.200 F 
ATOM     95  C   UNL     1       0.193  -9.957  17.481  1.00  0.00     0.200 A 
ATOM     96  F   UNL     1       1.399 -10.361  15.495  1.00  0.00    -0.200 F 
ATOM     97  F   UNL     1       1.190  -9.191  17.949  1.00  0.00    -0.200 F 
ENDBRANCH  64  87
ENDBRANCH  38  39
ENDBRANCH  31  33
ENDBRANCH  30  31
ENDBRANCH  29  30
ENDBRANCH   1  29
TORSDOF 17
