REMARK SMILES CC[N@@H+]1CCO[C@@H](c2ncc(C(=O)OCCOC(=O)c3ccc(-c4c5nc(c(-c6c(F)c(F)c(F)c(F)c6F)c6ccc([nH]6)c(-c6c(F)c(F)c(F)c(F)c6F)c6nc(c(-c7c(F)c(F)c(F)c(F)c7F)c7ccc4[nH]7)C=C6)C=C5)cc3)s2)C1
REMARK SMILES IDX 15 1 14 2 12 3 13 4 11 5 8 6 9 7 83 8 10 9 7 10 3 11 4 12
REMARK SMILES IDX 84 13 5 15 6 16 2 17 1 18 16 19 17 20 18 21 19 22 20 23
REMARK SMILES IDX 21 24 82 25 22 26 81 27 23 28 24 29 25 30 75 31 26 32 80 33
REMARK SMILES IDX 74 34 76 35 27 36 79 37 73 38 72 39 28 41 60 42 40 43 59 44
REMARK SMILES IDX 41 45 44 46 58 47 77 48 42 49 43 50 57 52 78 53 45 54 29 55
REMARK SMILES IDX 30 56 38 57 31 58 32 59 36 60 39 61 33 62 34 63 37 64 35 65
REMARK SMILES IDX 61 66 62 67 70 68 63 69 64 70 68 71 71 72 65 73 66 74 69 75
REMARK SMILES IDX 67 76 46 77 47 78 55 79 48 80 49 81 53 82 56 83 50 84 51 85
REMARK SMILES IDX 54 86 52 87
REMARK H PARENT 3 14 76 40 44 51
REMARK Flexibility Score: inf
ROOT
ATOM      1  C   UNL     1      10.642  -1.527   2.481  1.00  0.00     0.275 C 
ENDROOT
BRANCH   1   2
ATOM      2  O   UNL     1       9.244  -1.825   2.308  1.00  0.00    -0.458 OA
BRANCH   2   3
ATOM      3  C   UNL     1       8.368  -1.104   3.072  1.00  0.00     0.350 C 
ATOM      4  O   UNL     1       8.705  -0.315   3.941  1.00  0.00    -0.245 OA
BRANCH   3   5
ATOM      5  C   UNL     1       7.016  -1.345   2.624  1.00  0.00     0.132 A 
ATOM      6  C   UNL     1       4.697  -1.009   1.997  1.00  0.00     0.128 A 
ATOM      7  N   UNL     1       5.201  -2.023   1.318  1.00  0.00    -0.246 NA
ATOM      8  S   UNL     1       5.709  -0.426   3.262  1.00  0.00    -0.109 S 
ATOM      9  C   UNL     1       6.527  -2.205   1.665  1.00  0.00     0.139 A 
BRANCH   6  10
ATOM     10  C   UNL     1       3.351  -0.397   1.694  1.00  0.00     0.232 C 
ATOM     11  N   UNL     1       0.893  -0.477   2.273  1.00  0.00    -0.331 N 
ATOM     12  C   UNL     1       0.954   0.990   2.356  1.00  0.00     0.291 C 
ATOM     13  C   UNL     1       2.231  -1.056   2.514  1.00  0.00     0.302 C 
ATOM     14  H   UNL     1       0.275  -0.774   3.028  1.00  0.00     0.348 HD
ATOM     15  C   UNL     1       2.147   1.639   1.622  1.00  0.00     0.222 C 
ATOM     16  O   UNL     1       3.400   1.023   1.953  1.00  0.00    -0.359 OA
BRANCH  11  17
ATOM     17  C   UNL     1       0.188  -1.038   1.117  1.00  0.00     0.258 C 
ATOM     18  C   UNL     1       0.349  -0.377  -0.248  1.00  0.00     0.071 C 
ENDBRANCH  11  17
ENDBRANCH   6  10
ENDBRANCH   3   5
ENDBRANCH   2   3
ENDBRANCH   1   2
BRANCH   1  19
ATOM     19  C   UNL     1      11.175  -0.668   1.328  1.00  0.00     0.275 C 
BRANCH  19  20
ATOM     20  O   UNL     1      10.616   0.661   1.340  1.00  0.00    -0.458 OA
BRANCH  20  21
ATOM     21  C   UNL     1       9.532   0.830   0.547  1.00  0.00     0.338 C 
ATOM     22  O   UNL     1       8.996  -0.010  -0.156  1.00  0.00    -0.246 OA
BRANCH  21  23
ATOM     23  C   UNL     1       8.967   2.175   0.737  1.00  0.00     0.060 A 
ATOM     24  C   UNL     1       7.719   2.264   1.351  1.00  0.00     0.016 A 
ATOM     25  C   UNL     1       9.579   3.318   0.222  1.00  0.00     0.016 A 
ATOM     26  C   UNL     1       7.059   3.484   1.440  1.00  0.00     0.010 A 
ATOM     27  C   UNL     1       8.925   4.554   0.332  1.00  0.00     0.010 A 
ATOM     28  C   UNL     1       7.652   4.645   0.929  1.00  0.00    -0.014 A 
BRANCH  28  29
ATOM     29  C   UNL     1       6.913   5.934   0.991  1.00  0.00     0.031 A 
ATOM     30  C   UNL     1       6.420   6.587  -0.271  1.00  0.00     0.074 A 
ATOM     31  C   UNL     1       6.652   6.503   2.184  1.00  0.00     0.049 A 
ATOM     32  N   UNL     1       5.832   7.747  -0.432  1.00  0.00    -0.248 NA
ATOM     33  C   UNL     1       6.617   5.836  -1.519  1.00  0.00     0.031 C 
ATOM     34  C   UNL     1       7.029   5.947   3.483  1.00  0.00     0.029 A 
ATOM     35  N   UNL     1       6.005   7.673   2.498  1.00  0.00    -0.354 N 
ATOM     36  C   UNL     1       5.617   7.877  -1.798  1.00  0.00     0.074 A 
ATOM     37  C   UNL     1       6.154   6.687  -2.424  1.00  0.00     0.031 C 
ATOM     38  C   UNL     1       6.597   6.766   4.454  1.00  0.00     0.029 A 
ATOM     39  C   UNL     1       5.970   7.936   3.846  1.00  0.00     0.049 A 
ATOM     40  H   UNL     1       5.604   8.267   1.822  1.00  0.00     0.167 HD
ATOM     41  C   UNL     1       5.021   8.895  -2.466  1.00  0.00     0.037 A 
ATOM     42  C   UNL     1       5.516   9.013   4.516  1.00  0.00     0.037 A 
ATOM     43  C   UNL     1       4.467  10.066  -1.834  1.00  0.00     0.049 A 
ATOM     44  C   UNL     1       4.917  10.158   3.745  1.00  0.00     0.074 A 
ATOM     45  C   UNL     1       3.828  11.144  -2.423  1.00  0.00     0.029 A 
ATOM     46  N   UNL     1       4.485  10.313  -0.469  1.00  0.00    -0.354 N 
ATOM     47  N   UNL     1       4.725  10.277   2.454  1.00  0.00    -0.248 NA
ATOM     48  C   UNL     1       4.476  11.323   4.525  1.00  0.00     0.031 C 
ATOM     49  C   UNL     1       3.510  12.067  -1.422  1.00  0.00     0.029 A 
ATOM     50  C   UNL     1       3.891  11.537  -0.200  1.00  0.00     0.049 A 
ATOM     51  H   UNL     1       4.864   9.708   0.209  1.00  0.00     0.167 HD
ATOM     52  C   UNL     1       4.119  11.512   2.269  1.00  0.00     0.074 A 
ATOM     53  C   UNL     1       3.960  12.099   3.583  1.00  0.00     0.031 C 
ATOM     54  C   UNL     1       3.729  12.106   1.114  1.00  0.00     0.037 A 
BRANCH  41  55
ATOM     55  C   UNL     1       4.967   8.809  -3.965  1.00  0.00     0.064 A 
ATOM     56  C   UNL     1       4.142   7.889  -4.629  1.00  0.00     0.173 A 
ATOM     57  C   UNL     1       5.726   9.691  -4.751  1.00  0.00     0.173 A 
ATOM     58  F   UNL     1       3.402   7.017  -3.927  1.00  0.00    -0.203 F 
ATOM     59  C   UNL     1       4.101   7.835  -6.020  1.00  0.00     0.198 A 
ATOM     60  C   UNL     1       5.659   9.656  -6.141  1.00  0.00     0.198 A 
ATOM     61  F   UNL     1       6.526  10.598  -4.170  1.00  0.00    -0.203 F 
ATOM     62  F   UNL     1       3.342   6.915  -6.632  1.00  0.00    -0.200 F 
ATOM     63  C   UNL     1       4.853   8.723  -6.775  1.00  0.00     0.200 A 
ATOM     64  F   UNL     1       6.374  10.526  -6.868  1.00  0.00    -0.200 F 
ATOM     65  F   UNL     1       4.806   8.675  -8.114  1.00  0.00    -0.200 F 
ENDBRANCH  41  55
BRANCH  42  66
ATOM     66  C   UNL     1       5.638   9.072   5.997  1.00  0.00     0.064 A 
ATOM     67  C   UNL     1       4.504   9.062   6.819  1.00  0.00     0.173 A 
ATOM     68  C   UNL     1       6.894   9.151   6.620  1.00  0.00     0.173 A 
ATOM     69  F   UNL     1       3.280   9.015   6.271  1.00  0.00    -0.203 F 
ATOM     70  C   UNL     1       4.618   9.146   8.206  1.00  0.00     0.198 A 
ATOM     71  C   UNL     1       7.008   9.201   8.007  1.00  0.00     0.198 A 
ATOM     72  F   UNL     1       8.012   9.168   5.880  1.00  0.00    -0.203 F 
ATOM     73  F   UNL     1       3.515   9.187   8.965  1.00  0.00    -0.200 F 
ATOM     74  C   UNL     1       5.870   9.207   8.799  1.00  0.00     0.200 A 
ATOM     75  F   UNL     1       8.221   9.246   8.576  1.00  0.00    -0.200 F 
ATOM     76  F   UNL     1       5.980   9.284  10.132  1.00  0.00    -0.200 F 
ENDBRANCH  42  66
BRANCH  54  77
ATOM     77  C   UNL     1       3.049  13.441   1.221  1.00  0.00     0.064 A 
ATOM     78  C   UNL     1       3.749  14.602   1.582  1.00  0.00     0.173 A 
ATOM     79  C   UNL     1       1.683  13.565   0.922  1.00  0.00     0.173 A 
ATOM     80  F   UNL     1       5.052  14.536   1.893  1.00  0.00    -0.203 F 
ATOM     81  C   UNL     1       3.100  15.832   1.666  1.00  0.00     0.198 A 
ATOM     82  C   UNL     1       1.046  14.802   0.975  1.00  0.00     0.198 A 
ATOM     83  F   UNL     1       0.968  12.488   0.565  1.00  0.00    -0.203 F 
ATOM     84  F   UNL     1       3.777  16.918   2.063  1.00  0.00    -0.200 F 
ATOM     85  C   UNL     1       1.752  15.932   1.355  1.00  0.00     0.200 A 
ATOM     86  F   UNL     1      -0.253  14.898   0.659  1.00  0.00    -0.200 F 
ATOM     87  F   UNL     1       1.132  17.118   1.429  1.00  0.00    -0.200 F 
ENDBRANCH  54  77
ENDBRANCH  28  29
ENDBRANCH  21  23
ENDBRANCH  20  21
ENDBRANCH  19  20
ENDBRANCH   1  19
TORSDOF 13
