REMARK SMILES COCC[C@H]1CCC[C@@]1([NH3+])C(=O)OCCOC(=O)c1ccc(-c2c3nc(c(-c4c(F)c(F)c(F)c(F)c4F)c4ccc([nH]4)c(-c4c(F)c(F)c(F)c(F)c4F)c4nc(c(-c5c(F)c(F)c(F)c(F)c5F)c5ccc2[nH]5)C=C4)C=C3)cc1
REMARK SMILES IDX 14 1 13 2 11 3 12 4 9 5 5 6 6 7 7 8 8 9 4 10 3 11 2 12 1 13
REMARK SMILES IDX 10 14 15 18 16 19 17 20 18 21 19 22 20 23 81 24 21 25 80 26
REMARK SMILES IDX 22 27 23 28 24 29 74 30 25 31 79 32 73 33 75 34 26 35 78 36
REMARK SMILES IDX 72 37 71 38 27 40 59 41 39 42 58 43 40 44 43 45 57 46 76 47
REMARK SMILES IDX 41 48 42 49 56 51 77 52 44 53 28 54 29 55 37 56 30 57 31 58
REMARK SMILES IDX 35 59 38 60 32 61 33 62 36 63 34 64 60 65 61 66 69 67 62 68
REMARK SMILES IDX 63 69 67 70 70 71 64 72 65 73 68 74 66 75 45 76 46 77 54 78
REMARK SMILES IDX 47 79 48 80 52 81 55 82 49 83 50 84 53 85 51 86
REMARK H PARENT 10 15 10 16 10 17 75 39 43 50
REMARK Flexibility Score: inf
ROOT
ATOM      1  C   UNL     1      -0.261   4.588   5.065  1.00  0.00     0.274 C 
ENDROOT
BRANCH   1   2
ATOM      2  O   UNL     1      -0.081   3.267   4.510  1.00  0.00    -0.457 OA
BRANCH   2   3
ATOM      3  C   UNL     1      -0.409   3.125   3.198  1.00  0.00     0.368 C 
ATOM      4  O   UNL     1      -0.716   4.051   2.451  1.00  0.00    -0.245 OA
BRANCH   3   5
ATOM      5  C   UNL     1      -0.524   1.647   2.756  1.00  0.00     0.195 C 
ATOM      6  C   UNL     1       0.465   1.228   1.629  1.00  0.00     0.065 C 
ATOM      7  C   UNL     1       0.242  -0.293   1.575  1.00  0.00     0.011 C 
ATOM      8  C   UNL     1       0.014  -0.713   3.032  1.00  0.00     0.008 C 
ATOM      9  C   UNL     1      -0.266   0.576   3.820  1.00  0.00     0.081 C 
BRANCH   6  10
ATOM     10  C   UNL     1       1.948   1.544   1.924  1.00  0.00     0.039 C 
BRANCH  10  11
ATOM     11  C   UNL     1       2.955   1.125   0.842  1.00  0.00     0.160 C 
BRANCH  11  12
ATOM     12  O   UNL     1       2.822   1.850  -0.375  1.00  0.00    -0.385 OA
ATOM     13  C   UNL     1       2.010   1.231  -1.361  1.00  0.00     0.194 C 
ENDBRANCH  11  12
ENDBRANCH  10  11
ENDBRANCH   6  10
BRANCH   5  14
ATOM     14  N   UNL     1      -1.924   1.465   2.254  1.00  0.00    -0.343 N 
ATOM     15  H   UNL     1      -2.053   0.501   1.948  1.00  0.00     0.345 HD
ATOM     16  H   UNL     1      -2.088   2.096   1.469  1.00  0.00     0.345 HD
ATOM     17  H   UNL     1      -2.583   1.675   3.003  1.00  0.00     0.345 HD
ENDBRANCH   5  14
ENDBRANCH   3   5
ENDBRANCH   2   3
ENDBRANCH   1   2
BRANCH   1  18
ATOM     18  C   UNL     1       1.061   5.343   5.152  1.00  0.00     0.275 C 
BRANCH  18  19
ATOM     19  O   UNL     1       1.569   5.560   3.826  1.00  0.00    -0.458 OA
BRANCH  19  20
ATOM     20  C   UNL     1       2.901   5.407   3.668  1.00  0.00     0.338 C 
ATOM     21  O   UNL     1       3.720   5.195   4.554  1.00  0.00    -0.246 OA
BRANCH  20  22
ATOM     22  C   UNL     1       3.267   5.481   2.236  1.00  0.00     0.060 A 
ATOM     23  C   UNL     1       2.377   5.070   1.244  1.00  0.00     0.016 A 
ATOM     24  C   UNL     1       4.572   5.831   1.881  1.00  0.00     0.016 A 
ATOM     25  C   UNL     1       2.829   4.875  -0.060  1.00  0.00     0.010 A 
ATOM     26  C   UNL     1       4.991   5.731   0.548  1.00  0.00     0.010 A 
ATOM     27  C   UNL     1       4.144   5.191  -0.434  1.00  0.00    -0.014 A 
BRANCH  27  28
ATOM     28  C   UNL     1       4.650   4.877  -1.807  1.00  0.00     0.031 A 
ATOM     29  C   UNL     1       5.906   4.055  -1.987  1.00  0.00     0.074 A 
ATOM     30  C   UNL     1       3.984   5.274  -2.910  1.00  0.00     0.049 A 
ATOM     31  N   UNL     1       6.645   3.891  -3.058  1.00  0.00    -0.248 NA
ATOM     32  C   UNL     1       6.412   3.342  -0.804  1.00  0.00     0.031 C 
ATOM     33  C   UNL     1       2.726   6.019  -2.927  1.00  0.00     0.029 A 
ATOM     34  N   UNL     1       4.270   5.085  -4.243  1.00  0.00    -0.354 N 
ATOM     35  C   UNL     1       7.743   3.139  -2.655  1.00  0.00     0.074 A 
ATOM     36  C   UNL     1       7.565   2.858  -1.246  1.00  0.00     0.031 C 
ATOM     37  C   UNL     1       2.310   6.156  -4.195  1.00  0.00     0.029 A 
ATOM     38  C   UNL     1       3.323   5.607  -5.089  1.00  0.00     0.049 A 
ATOM     39  H   UNL     1       5.077   4.618  -4.560  1.00  0.00     0.167 HD
ATOM     40  C   UNL     1       8.804   2.731  -3.392  1.00  0.00     0.037 A 
ATOM     41  C   UNL     1       3.285   5.677  -6.433  1.00  0.00     0.037 A 
ATOM     42  C   UNL     1       8.932   2.916  -4.815  1.00  0.00     0.049 A 
ATOM     43  C   UNL     1       4.450   5.171  -7.236  1.00  0.00     0.074 A 
ATOM     44  C   UNL     1       9.987   2.570  -5.644  1.00  0.00     0.029 A 
ATOM     45  N   UNL     1       7.947   3.452  -5.628  1.00  0.00    -0.354 N 
ATOM     46  N   UNL     1       5.558   4.611  -6.823  1.00  0.00    -0.248 NA
ATOM     47  C   UNL     1       4.369   5.341  -8.694  1.00  0.00     0.031 C 
ATOM     48  C   UNL     1       9.639   2.896  -6.960  1.00  0.00     0.029 A 
ATOM     49  C   UNL     1       8.359   3.421  -6.952  1.00  0.00     0.049 A 
ATOM     50  H   UNL     1       7.083   3.802  -5.314  1.00  0.00     0.167 HD
ATOM     51  C   UNL     1       6.310   4.371  -7.963  1.00  0.00     0.074 A 
ATOM     52  C   UNL     1       5.516   4.809  -9.091  1.00  0.00     0.031 C 
ATOM     53  C   UNL     1       7.559   3.856  -8.064  1.00  0.00     0.037 A 
BRANCH  40  54
ATOM     54  C   UNL     1       9.939   2.059  -2.677  1.00  0.00     0.064 A 
ATOM     55  C   UNL     1       9.866   0.725  -2.255  1.00  0.00     0.173 A 
ATOM     56  C   UNL     1      11.150   2.745  -2.486  1.00  0.00     0.173 A 
ATOM     57  F   UNL     1       8.728   0.031  -2.403  1.00  0.00    -0.203 F 
ATOM     58  C   UNL     1      10.962   0.104  -1.659  1.00  0.00     0.198 A 
ATOM     59  C   UNL     1      12.250   2.114  -1.913  1.00  0.00     0.198 A 
ATOM     60  F   UNL     1      11.274   4.021  -2.882  1.00  0.00    -0.203 F 
ATOM     61  F   UNL     1      10.864  -1.165  -1.240  1.00  0.00    -0.200 F 
ATOM     62  C   UNL     1      12.155   0.795  -1.497  1.00  0.00     0.200 A 
ATOM     63  F   UNL     1      13.405   2.779  -1.771  1.00  0.00    -0.200 F 
ATOM     64  F   UNL     1      13.213   0.189  -0.941  1.00  0.00    -0.200 F 
ENDBRANCH  40  54
BRANCH  41  65
ATOM     65  C   UNL     1       2.115   6.293  -7.110  1.00  0.00     0.064 A 
ATOM     66  C   UNL     1       1.230   5.511  -7.863  1.00  0.00     0.173 A 
ATOM     67  C   UNL     1       1.862   7.670  -7.022  1.00  0.00     0.173 A 
ATOM     68  F   UNL     1       1.450   4.195  -8.001  1.00  0.00    -0.203 F 
ATOM     69  C   UNL     1       0.139   6.085  -8.511  1.00  0.00     0.198 A 
ATOM     70  C   UNL     1       0.753   8.237  -7.645  1.00  0.00     0.198 A 
ATOM     71  F   UNL     1       2.683   8.461  -6.316  1.00  0.00    -0.203 F 
ATOM     72  F   UNL     1      -0.669   5.323  -9.261  1.00  0.00    -0.200 F 
ATOM     73  C   UNL     1      -0.103   7.446  -8.395  1.00  0.00     0.200 A 
ATOM     74  F   UNL     1       0.516   9.550  -7.519  1.00  0.00    -0.200 F 
ATOM     75  F   UNL     1      -1.157   7.996  -9.012  1.00  0.00    -0.200 F 
ENDBRANCH  41  65
BRANCH  53  76
ATOM     76  C   UNL     1       8.128   3.726  -9.443  1.00  0.00     0.064 A 
ATOM     77  C   UNL     1       8.593   4.847 -10.147  1.00  0.00     0.173 A 
ATOM     78  C   UNL     1       8.208   2.474 -10.068  1.00  0.00     0.173 A 
ATOM     79  F   UNL     1       8.521   6.068  -9.595  1.00  0.00    -0.203 F 
ATOM     80  C   UNL     1       9.090   4.721 -11.441  1.00  0.00     0.198 A 
ATOM     81  C   UNL     1       8.724   2.349 -11.355  1.00  0.00     0.198 A 
ATOM     82  F   UNL     1       7.777   1.373  -9.433  1.00  0.00    -0.203 F 
ATOM     83  F   UNL     1       9.484   5.811 -12.114  1.00  0.00    -0.200 F 
ATOM     84  C   UNL     1       9.157   3.473 -12.043  1.00  0.00     0.200 A 
ATOM     85  F   UNL     1       8.791   1.143 -11.935  1.00  0.00    -0.200 F 
ATOM     86  F   UNL     1       9.626   3.356 -13.293  1.00  0.00    -0.200 F 
ENDBRANCH  53  76
ENDBRANCH  27  28
ENDBRANCH  20  22
ENDBRANCH  19  20
ENDBRANCH  18  19
ENDBRANCH   1  18
TORSDOF 15
