REMARK SMILES CN(CC(N)=O)C(=O)Cn1cccc1C(=O)OCCOC(=O)c1ccc(-c2c3nc(c(-c4c(F)c(F)c(F)c(F)c4F)c4ccc([nH]4)c(-c4c(F)c(F)c(F)c(F)c4F)c4nc(c(-c5c(F)c(F)c(F)c(F)c5F)c5ccc2[nH]5)C=C4)C=C3)cc1
REMARK SMILES IDX 17 1 15 2 16 3 14 4 10 5 11 6 12 7 13 8 9 9 7 10 8 11 2 12
REMARK SMILES IDX 1 13 3 14 4 15 5 16 6 17 18 20 19 21 20 22 21 23 22 24 23 25
REMARK SMILES IDX 24 26 85 27 25 28 84 29 26 30 27 31 28 32 78 33 29 34 83 35
REMARK SMILES IDX 77 36 79 37 30 38 82 39 76 40 75 41 31 43 63 44 43 45 62 46
REMARK SMILES IDX 44 47 47 48 61 49 80 50 45 51 46 52 60 54 81 55 48 56 32 57
REMARK SMILES IDX 33 58 41 59 34 60 35 61 39 62 42 63 36 64 37 65 40 66 38 67
REMARK SMILES IDX 64 68 65 69 73 70 66 71 67 72 71 73 74 74 68 75 69 76 72 77
REMARK SMILES IDX 70 78 49 79 50 80 58 81 51 82 52 83 56 84 59 85 53 86 54 87
REMARK SMILES IDX 57 88 55 89
REMARK H PARENT 5 18 5 19 79 42 47 53
REMARK Flexibility Score: inf
ROOT
ATOM      1  O   UNL     1       0.759  -5.146   3.996  1.00  0.00    -0.457 OA
ENDROOT
BRANCH   1   2
ATOM      2  C   UNL     1       0.566  -4.459   5.159  1.00  0.00     0.355 C 
ATOM      3  O   UNL     1       0.335  -4.985   6.231  1.00  0.00    -0.244 OA
BRANCH   2   4
ATOM      4  C   UNL     1       0.812  -3.029   4.988  1.00  0.00     0.128 A 
ATOM      5  N   UNL     1       1.010  -2.278   3.831  1.00  0.00    -0.333 N 
ATOM      6  C   UNL     1       1.510  -1.044   4.185  1.00  0.00     0.087 A 
ATOM      7  C   UNL     1       1.436  -0.912   5.549  1.00  0.00     0.020 A 
ATOM      8  C   UNL     1       0.990  -2.148   6.052  1.00  0.00     0.035 A 
BRANCH   5   9
ATOM      9  C   UNL     1       0.707  -2.711   2.466  1.00  0.00     0.222 C 
BRANCH   9  10
ATOM     10  C   UNL     1       1.119  -1.784   1.333  1.00  0.00     0.242 C 
ATOM     11  O   UNL     1       2.089  -2.102   0.633  1.00  0.00    -0.273 OA
BRANCH  10  12
ATOM     12  N   UNL     1       0.378  -0.642   1.032  1.00  0.00    -0.335 N 
ATOM     13  C   UNL     1       0.787   0.119  -0.142  1.00  0.00     0.147 C 
BRANCH  12  14
ATOM     14  C   UNL     1      -0.699  -0.067   1.846  1.00  0.00     0.218 C 
BRANCH  14  15
ATOM     15  C   UNL     1      -1.962  -0.914   1.974  1.00  0.00     0.237 C 
ATOM     16  N   UNL     1      -2.355  -1.166   3.260  1.00  0.00    -0.368 N 
ATOM     17  O   UNL     1      -2.583  -1.371   1.022  1.00  0.00    -0.273 OA
ATOM     18  H   UNL     1      -1.845  -0.791   4.013  1.00  0.00     0.159 HD
ATOM     19  H   UNL     1      -3.149  -1.722   3.431  1.00  0.00     0.159 HD
ENDBRANCH  14  15
ENDBRANCH  12  14
ENDBRANCH  10  12
ENDBRANCH   9  10
ENDBRANCH   5   9
ENDBRANCH   2   4
ENDBRANCH   1   2
BRANCH   1  20
ATOM     20  C   UNL     1       1.036  -6.553   4.137  1.00  0.00     0.275 C 
BRANCH  20  21
ATOM     21  C   UNL     1       2.537  -6.846   4.046  1.00  0.00     0.275 C 
BRANCH  21  22
ATOM     22  O   UNL     1       3.309  -6.229   5.087  1.00  0.00    -0.458 OA
BRANCH  22  23
ATOM     23  C   UNL     1       3.748  -4.994   4.755  1.00  0.00     0.338 C 
ATOM     24  O   UNL     1       3.355  -4.301   3.829  1.00  0.00    -0.246 OA
BRANCH  23  25
ATOM     25  C   UNL     1       4.928  -4.605   5.528  1.00  0.00     0.060 A 
ATOM     26  C   UNL     1       5.152  -3.235   5.700  1.00  0.00     0.016 A 
ATOM     27  C   UNL     1       5.926  -5.551   5.789  1.00  0.00     0.016 A 
ATOM     28  C   UNL     1       6.418  -2.797   6.043  1.00  0.00     0.010 A 
ATOM     29  C   UNL     1       7.201  -5.111   6.109  1.00  0.00     0.010 A 
ATOM     30  C   UNL     1       7.447  -3.733   6.203  1.00  0.00    -0.014 A 
BRANCH  30  31
ATOM     31  C   UNL     1       8.776  -3.233   6.597  1.00  0.00     0.031 A 
ATOM     32  C   UNL     1       8.893  -3.074   8.112  1.00  0.00     0.074 A 
ATOM     33  C   UNL     1       9.656  -2.959   5.587  1.00  0.00     0.049 A 
ATOM     34  N   UNL     1       9.706  -2.338   8.805  1.00  0.00    -0.248 NA
ATOM     35  C   UNL     1       7.933  -3.795   8.994  1.00  0.00     0.031 C 
ATOM     36  C   UNL     1       9.378  -3.180   4.151  1.00  0.00     0.029 A 
ATOM     37  N   UNL     1      10.938  -2.442   5.541  1.00  0.00    -0.354 N 
ATOM     38  C   UNL     1       9.509  -2.669  10.161  1.00  0.00     0.074 A 
ATOM     39  C   UNL     1       8.325  -3.467  10.225  1.00  0.00     0.031 C 
ATOM     40  C   UNL     1      10.406  -2.752   3.389  1.00  0.00     0.029 A 
ATOM     41  C   UNL     1      11.460  -2.231   4.237  1.00  0.00     0.049 A 
ATOM     42  H   UNL     1      11.452  -2.235   6.355  1.00  0.00     0.167 HD
ATOM     43  C   UNL     1      10.431  -2.401  11.128  1.00  0.00     0.037 A 
ATOM     44  C   UNL     1      12.649  -1.665   3.859  1.00  0.00     0.037 A 
ATOM     45  C   UNL     1      11.527  -1.679  10.581  1.00  0.00     0.049 A 
ATOM     46  C   UNL     1      13.423  -1.512   5.096  1.00  0.00     0.074 A 
ATOM     47  C   UNL     1      11.653  -0.393  10.129  1.00  0.00     0.029 A 
ATOM     48  N   UNL     1      12.601  -2.417  10.149  1.00  0.00    -0.354 N 
ATOM     49  N   UNL     1      13.967  -2.502   5.736  1.00  0.00    -0.248 NA
ATOM     50  C   UNL     1      13.610  -0.176   5.669  1.00  0.00     0.031 C 
ATOM     51  C   UNL     1      12.598  -0.490   9.088  1.00  0.00     0.029 A 
ATOM     52  C   UNL     1      13.113  -1.791   9.043  1.00  0.00     0.049 A 
ATOM     53  H   UNL     1      12.941  -3.244  10.559  1.00  0.00     0.167 HD
ATOM     54  C   UNL     1      14.242  -1.940   6.958  1.00  0.00     0.074 A 
ATOM     55  C   UNL     1      14.307  -0.510   6.753  1.00  0.00     0.031 C 
ATOM     56  C   UNL     1      13.816  -2.593   8.069  1.00  0.00     0.037 A 
BRANCH  43  57
ATOM     57  C   UNL     1      10.599  -2.947  12.516  1.00  0.00     0.064 A 
ATOM     58  C   UNL     1      11.435  -2.234  13.411  1.00  0.00     0.173 A 
ATOM     59  C   UNL     1      10.301  -4.270  12.864  1.00  0.00     0.173 A 
ATOM     60  F   UNL     1      11.748  -0.949  13.182  1.00  0.00    -0.203 F 
ATOM     61  C   UNL     1      12.044  -2.852  14.501  1.00  0.00     0.198 A 
ATOM     62  C   UNL     1      10.873  -4.870  13.989  1.00  0.00     0.198 A 
ATOM     63  F   UNL     1       9.546  -5.044  12.074  1.00  0.00    -0.203 F 
ATOM     64  F   UNL     1      12.945  -2.180  15.231  1.00  0.00    -0.200 F 
ATOM     65  C   UNL     1      11.775  -4.177  14.779  1.00  0.00     0.200 A 
ATOM     66  F   UNL     1      10.607  -6.156  14.259  1.00  0.00    -0.200 F 
ATOM     67  F   UNL     1      12.412  -4.797  15.781  1.00  0.00    -0.200 F 
ENDBRANCH  43  57
BRANCH  44  68
ATOM     68  C   UNL     1      13.351  -1.176   2.608  1.00  0.00     0.064 A 
ATOM     69  C   UNL     1      12.779  -1.057   1.337  1.00  0.00     0.173 A 
ATOM     70  C   UNL     1      14.670  -0.635   2.705  1.00  0.00     0.173 A 
ATOM     71  F   UNL     1      11.575  -1.571   1.069  1.00  0.00    -0.203 F 
ATOM     72  C   UNL     1      13.426  -0.373   0.289  1.00  0.00     0.198 A 
ATOM     73  C   UNL     1      15.283   0.097   1.689  1.00  0.00     0.198 A 
ATOM     74  F   UNL     1      15.409  -0.773   3.815  1.00  0.00    -0.203 F 
ATOM     75  F   UNL     1      12.831  -0.281  -0.909  1.00  0.00    -0.200 F 
ATOM     76  C   UNL     1      14.653   0.240   0.479  1.00  0.00     0.200 A 
ATOM     77  F   UNL     1      16.468   0.684   1.913  1.00  0.00    -0.200 F 
ATOM     78  F   UNL     1      15.222   0.962  -0.495  1.00  0.00    -0.200 F 
ENDBRANCH  44  68
BRANCH  56  79
ATOM     79  C   UNL     1      13.708  -4.097   7.867  1.00  0.00     0.064 A 
ATOM     80  C   UNL     1      14.843  -4.839   7.495  1.00  0.00     0.173 A 
ATOM     81  C   UNL     1      12.492  -4.799   7.861  1.00  0.00     0.173 A 
ATOM     82  F   UNL     1      16.052  -4.256   7.496  1.00  0.00    -0.203 F 
ATOM     83  C   UNL     1      14.753  -6.178   7.102  1.00  0.00     0.198 A 
ATOM     84  C   UNL     1      12.397  -6.137   7.473  1.00  0.00     0.198 A 
ATOM     85  F   UNL     1      11.364  -4.201   8.234  1.00  0.00    -0.203 F 
ATOM     86  F   UNL     1      15.858  -6.843   6.737  1.00  0.00    -0.200 F 
ATOM     87  C   UNL     1      13.528  -6.824   7.082  1.00  0.00     0.200 A 
ATOM     88  F   UNL     1      11.205  -6.754   7.481  1.00  0.00    -0.200 F 
ATOM     89  F   UNL     1      13.442  -8.108   6.706  1.00  0.00    -0.200 F 
ENDBRANCH  56  79
ENDBRANCH  30  31
ENDBRANCH  23  25
ENDBRANCH  22  23
ENDBRANCH  21  22
ENDBRANCH  20  21
ENDBRANCH   1  20
TORSDOF 16
