REMARK SMILES O=C(OCCOC(=O)[C@@H](Cc1ccccc1)N1C(=O)/C(=C/c2ccncc2)SC1=S)c1ccc(-c2c3nc(c(-c4c(F)c(F)c(F)c(F)c4F)c4ccc([nH]4)c(-c4c(F)c(F)c(F)c(F)c4F)c4nc(c(-c5c(F)c(F)c(F)c(F)c5F)c5ccc2[nH]5)C=C4)C=C3)cc1
REMARK SMILES IDX 4 1 3 2 2 3 1 4 31 5 32 6 93 7 33 8 92 9 34 10 35 11 36 12
REMARK SMILES IDX 86 13 37 14 91 15 85 16 87 17 38 18 90 19 84 20 83 21 39 23
REMARK SMILES IDX 71 24 51 25 70 26 52 27 55 28 69 29 88 30 53 31 54 32 68 34
REMARK SMILES IDX 89 35 56 36 40 37 41 38 49 39 42 40 43 41 47 42 50 43 44 44
REMARK SMILES IDX 45 45 48 46 46 47 72 48 73 49 81 50 74 51 75 52 79 53 82 54
REMARK SMILES IDX 76 55 77 56 80 57 78 58 57 59 58 60 66 61 59 62 60 63 64 64
REMARK SMILES IDX 67 65 61 66 62 67 65 68 63 69 5 70 6 71 7 72 8 73 9 74 10 75
REMARK SMILES IDX 11 76 12 77 16 78 13 79 15 80 14 81 17 82 18 83 29 84 19 85
REMARK SMILES IDX 20 86 28 87 30 88 21 89 22 90 23 91 27 92 24 93 26 94 25 95
REMARK H PARENT 87 22 55 33
REMARK Flexibility Score: inf
ROOT
ATOM      1  C   UNL     1       4.280  -1.548   1.119  1.00  0.00     0.275 C 
ENDROOT
BRANCH   1   2
ATOM      2  O   UNL     1       3.242  -0.669   1.497  1.00  0.00    -0.458 OA
BRANCH   2   3
ATOM      3  C   UNL     1       2.866   0.337   0.700  1.00  0.00     0.338 C 
ATOM      4  O   UNL     1       1.926   1.058   1.028  1.00  0.00    -0.246 OA
BRANCH   3   5
ATOM      5  C   UNL     1       3.513   0.613  -0.625  1.00  0.00     0.060 A 
ATOM      6  C   UNL     1       4.317  -0.456  -1.911  1.00  0.00     0.016 A 
ATOM      7  C   UNL     1       3.022   2.280  -1.074  1.00  0.00     0.016 A 
ATOM      8  C   UNL     1       4.678   0.266  -3.598  1.00  0.00     0.010 A 
ATOM      9  C   UNL     1       3.306   2.905  -2.724  1.00  0.00     0.010 A 
ATOM     10  C   UNL     1       4.258   2.014  -3.933  1.00  0.00    -0.014 A 
BRANCH  10  11
ATOM     11  C   UNL     1       4.822   2.833  -5.087  1.00  0.00     0.031 A 
ATOM     12  C   UNL     1       5.479   4.195  -4.957  1.00  0.00     0.074 A 
ATOM     13  C   UNL     1       4.671   2.369  -6.335  1.00  0.00     0.049 A 
ATOM     14  N   UNL     1       6.295   4.790  -5.802  1.00  0.00    -0.248 NA
ATOM     15  C   UNL     1       5.201   5.027  -3.783  1.00  0.00     0.031 C 
ATOM     16  C   UNL     1       3.833   1.239  -6.596  1.00  0.00     0.029 A 
ATOM     17  N   UNL     1       5.091   2.737  -7.584  1.00  0.00    -0.354 N 
ATOM     18  C   UNL     1       6.668   5.992  -5.207  1.00  0.00     0.074 A 
ATOM     19  C   UNL     1       6.003   6.064  -3.937  1.00  0.00     0.031 C 
ATOM     20  C   UNL     1       3.812   0.938  -7.891  1.00  0.00     0.029 A 
ATOM     21  C   UNL     1       4.685   1.859  -8.571  1.00  0.00     0.049 A 
ATOM     22  H   UNL     1       5.627   3.543  -7.761  1.00  0.00     0.167 HD
ATOM     23  C   UNL     1       7.422   7.003  -5.698  1.00  0.00     0.037 A 
ATOM     24  C   UNL     1       4.995   1.767  -9.874  1.00  0.00     0.037 A 
ATOM     25  C   UNL     1       7.806   7.075  -7.078  1.00  0.00     0.049 A 
ATOM     26  C   UNL     1       5.892   2.841 -10.392  1.00  0.00     0.074 A 
ATOM     27  C   UNL     1       8.433   8.105  -7.750  1.00  0.00     0.029 A 
ATOM     28  N   UNL     1       7.487   6.106  -8.023  1.00  0.00    -0.354 N 
ATOM     29  N   UNL     1       6.411   3.846  -9.730  1.00  0.00    -0.248 NA
ATOM     30  C   UNL     1       6.229   2.804 -11.815  1.00  0.00     0.031 C 
ATOM     31  C   UNL     1       8.394   7.806  -9.117  1.00  0.00     0.029 A 
ATOM     32  C   UNL     1       7.845   6.543  -9.285  1.00  0.00     0.049 A 
ATOM     33  H   UNL     1       7.068   5.237  -7.823  1.00  0.00     0.167 HD
ATOM     34  C   UNL     1       7.095   4.595 -10.662  1.00  0.00     0.074 A 
ATOM     35  C   UNL     1       7.007   3.872 -11.918  1.00  0.00     0.031 C 
ATOM     36  C   UNL     1       7.695   5.798 -10.508  1.00  0.00     0.037 A 
BRANCH  23  37
ATOM     37  C   UNL     1       7.687   8.159  -4.768  1.00  0.00     0.064 A 
ATOM     38  C   UNL     1       8.510   8.019  -3.636  1.00  0.00     0.173 A 
ATOM     39  C   UNL     1       7.021   9.382  -4.939  1.00  0.00     0.173 A 
ATOM     40  F   UNL     1       9.142   6.859  -3.399  1.00  0.00    -0.203 F 
ATOM     41  C   UNL     1       8.618   9.043  -2.694  1.00  0.00     0.198 A 
ATOM     42  C   UNL     1       7.152  10.411  -4.008  1.00  0.00     0.198 A 
ATOM     43  F   UNL     1       6.204   9.566  -5.986  1.00  0.00    -0.203 F 
ATOM     44  F   UNL     1       9.343   8.855  -1.581  1.00  0.00    -0.200 F 
ATOM     45  C   UNL     1       7.938  10.236  -2.880  1.00  0.00     0.200 A 
ATOM     46  F   UNL     1       6.485  11.560  -4.185  1.00  0.00    -0.200 F 
ATOM     47  F   UNL     1       8.014  11.205  -1.957  1.00  0.00    -0.200 F 
ENDBRANCH  23  37
BRANCH  24  48
ATOM     48  C   UNL     1       4.522   0.620 -10.707  1.00  0.00     0.064 A 
ATOM     49  C   UNL     1       5.438  -0.255 -11.310  1.00  0.00     0.173 A 
ATOM     50  C   UNL     1       3.158   0.327 -10.882  1.00  0.00     0.173 A 
ATOM     51  F   UNL     1       6.755  -0.058 -11.152  1.00  0.00    -0.203 F 
ATOM     52  C   UNL     1       5.015  -1.330 -12.093  1.00  0.00     0.198 A 
ATOM     53  C   UNL     1       2.737  -0.795 -11.596  1.00  0.00     0.198 A 
ATOM     54  F   UNL     1       2.223   1.107 -10.319  1.00  0.00    -0.203 F 
ATOM     55  F   UNL     1       5.923  -2.096 -12.712  1.00  0.00    -0.200 F 
ATOM     56  C   UNL     1       3.664  -1.608 -12.225  1.00  0.00     0.200 A 
ATOM     57  F   UNL     1       1.431  -1.091 -11.662  1.00  0.00    -0.200 F 
ATOM     58  F   UNL     1       3.252  -2.658 -12.948  1.00  0.00    -0.200 F 
ENDBRANCH  24  48
BRANCH  36  59
ATOM     59  C   UNL     1       8.243   6.409 -11.752  1.00  0.00     0.064 A 
ATOM     60  C   UNL     1       7.393   6.906 -12.751  1.00  0.00     0.173 A 
ATOM     61  C   UNL     1       9.626   6.531 -11.922  1.00  0.00     0.173 A 
ATOM     62  F   UNL     1       6.062   6.786 -12.632  1.00  0.00    -0.203 F 
ATOM     63  C   UNL     1       7.917   7.488 -13.897  1.00  0.00     0.198 A 
ATOM     64  C   UNL     1      10.144   7.147 -13.052  1.00  0.00     0.198 A 
ATOM     65  F   UNL     1      10.466   6.064 -10.987  1.00  0.00    -0.203 F 
ATOM     66  F   UNL     1       7.095   7.909 -14.867  1.00  0.00    -0.200 F 
ATOM     67  C   UNL     1       9.291   7.618 -14.040  1.00  0.00     0.200 A 
ATOM     68  F   UNL     1      11.470   7.285 -13.185  1.00  0.00    -0.200 F 
ATOM     69  F   UNL     1       9.796   8.193 -15.140  1.00  0.00    -0.200 F 
ENDBRANCH  36  59
ENDBRANCH  10  11
ENDBRANCH   3   5
ENDBRANCH   2   3
ENDBRANCH   1   2
BRANCH   1  70
ATOM     70  C   UNL     1       3.714  -2.748   0.347  1.00  0.00     0.274 C 
BRANCH  70  71
ATOM     71  O   UNL     1       3.132  -2.458  -0.959  1.00  0.00    -0.461 OA
BRANCH  71  72
ATOM     72  C   UNL     1       2.024  -1.676  -1.169  1.00  0.00     0.329 C 
ATOM     73  O   UNL     1       1.150  -1.490  -0.338  1.00  0.00    -0.250 OA
BRANCH  72  74
ATOM     74  C   UNL     1       2.106  -0.921  -2.578  1.00  0.00     0.206 C 
BRANCH  74  75
ATOM     75  C   UNL     1       2.999   0.796  -2.601  1.00  0.00     0.073 C 
BRANCH  75  76
ATOM     76  C   UNL     1       4.925   1.508  -1.931  1.00  0.00    -0.045 A 
ATOM     77  C   UNL     1       6.300   0.681  -1.890  1.00  0.00     0.004 A 
ATOM     78  C   UNL     1       5.443   2.843  -1.547  1.00  0.00     0.004 A 
ATOM     79  C   UNL     1       7.640   1.100  -1.871  1.00  0.00     0.000 A 
ATOM     80  C   UNL     1       6.823   3.273  -1.572  1.00  0.00     0.000 A 
ATOM     81  C   UNL     1       7.895   2.432  -1.819  1.00  0.00     0.000 A 
ENDBRANCH  75  76
ENDBRANCH  74  75
BRANCH  74  82
ATOM     82  N   UNL     1       2.427  -1.932  -3.692  1.00  0.00    -0.278 N 
ATOM     83  C   UNL     1       2.483  -1.470  -4.974  1.00  0.00     0.267 C 
ATOM     84  C   UNL     1       2.012  -3.263  -3.775  1.00  0.00     0.149 C 
ATOM     85  O   UNL     1       1.823  -0.521  -5.375  1.00  0.00    -0.268 OA
ATOM     86  C   UNL     1       3.049  -2.487  -5.900  1.00  0.00     0.081 C 
ATOM     87  S   UNL     1       2.468  -3.986  -5.352  1.00  0.00    -0.054 SA
ATOM     88  S   UNL     1       1.159  -4.225  -2.712  1.00  0.00    -0.052 S 
ATOM     89  C   UNL     1       3.888  -2.227  -6.911  1.00  0.00     0.029 C 
BRANCH  89  90
ATOM     90  C   UNL     1       4.269  -3.060  -8.064  1.00  0.00    -0.021 A 
ATOM     91  C   UNL     1       3.285  -3.696  -8.824  1.00  0.00     0.028 A 
ATOM     92  C   UNL     1       5.581  -3.054  -8.548  1.00  0.00     0.028 A 
ATOM     93  C   UNL     1       3.654  -4.337  -9.995  1.00  0.00     0.111 A 
ATOM     94  C   UNL     1       5.856  -3.727  -9.730  1.00  0.00     0.111 A 
ATOM     95  N   UNL     1       4.918  -4.362 -10.462  1.00  0.00    -0.265 NA
ENDBRANCH  89  90
ENDBRANCH  74  82
ENDBRANCH  72  74
ENDBRANCH  71  72
ENDBRANCH  70  71
ENDBRANCH   1  70
TORSDOF 15
