REMARK SMILES O=C(CCc1cc2n(n1)CCCN(S(=O)(=O)CCC(F)(F)F)C2)OCCOC(=O)c1ccc(-c2c3nc(c(-c4c(F)c(F)c(F)c(F)c4F)c4ccc([nH]4)c(-c4c(F)c(F)c(F)c(F)c4F)c4nc(c(-c5c(F)c(F)c(F)c(F)c5F)c5ccc2[nH]5)C=C4)C=C3)cc1
REMARK SMILES IDX 3 1 2 2 1 3 24 4 25 5 26 6 27 7 28 8 29 9 30 10 31 11 92 12
REMARK SMILES IDX 32 13 91 14 33 15 34 16 35 17 85 18 36 19 90 20 84 21 86 22
REMARK SMILES IDX 37 23 89 24 83 25 82 26 38 28 70 29 50 30 69 31 51 32 54 33
REMARK SMILES IDX 68 34 87 35 52 36 53 37 67 39 88 40 55 41 39 42 40 43 48 44
REMARK SMILES IDX 41 45 42 46 46 47 49 48 43 49 44 50 47 51 45 52 71 53 72 54
REMARK SMILES IDX 80 55 73 56 74 57 78 58 81 59 75 60 76 61 79 62 77 63 56 64
REMARK SMILES IDX 57 65 65 66 58 67 59 68 63 69 66 70 60 71 61 72 64 73 62 74
REMARK SMILES IDX 4 75 5 76 6 77 9 78 7 79 8 80 23 81 13 82 12 83 14 85 15 86
REMARK SMILES IDX 16 87 17 88 18 89 19 90 20 91 21 92 22 93 10 94 11 95
REMARK H PARENT 86 27 54 38
REMARK Flexibility Score: 90.00
ROOT
ATOM      1  C   UNL     1       3.151   0.254   1.288  1.00  0.00     0.129 C 
ENDROOT
BRANCH   1   2
ATOM      2  C   UNL     1       2.260  -0.711   0.533  1.00  0.00     0.306 C 
ATOM      3  O   UNL     1       1.315  -1.250   1.106  1.00  0.00    -0.252 OA
BRANCH   2   4
ATOM      4  O   UNL     1       2.456  -0.917  -0.794  1.00  0.00    -0.462 OA
BRANCH   4   5
ATOM      5  C   UNL     1       3.748  -0.966  -1.431  1.00  0.00     0.274 C 
BRANCH   5   6
ATOM      6  C   UNL     1       3.993   0.131  -2.450  1.00  0.00     0.275 C 
BRANCH   6   7
ATOM      7  O   UNL     1       4.036   1.381  -1.781  1.00  0.00    -0.458 OA
BRANCH   7   8
ATOM      8  C   UNL     1       2.824   1.932  -1.522  1.00  0.00     0.338 C 
ATOM      9  O   UNL     1       1.737   1.536  -1.851  1.00  0.00    -0.246 OA
BRANCH   8  10
ATOM     10  C   UNL     1       3.103   3.228  -0.892  1.00  0.00     0.060 A 
ATOM     11  C   UNL     1       2.150   4.212  -1.131  1.00  0.00     0.016 A 
ATOM     12  C   UNL     1       4.384   3.513  -0.387  1.00  0.00     0.016 A 
ATOM     13  C   UNL     1       2.581   5.512  -1.137  1.00  0.00     0.010 A 
ATOM     14  C   UNL     1       4.815   4.813  -0.399  1.00  0.00     0.010 A 
ATOM     15  C   UNL     1       3.934   5.775  -0.875  1.00  0.00    -0.014 A 
BRANCH  15  16
ATOM     16  C   UNL     1       4.374   7.134  -1.058  1.00  0.00     0.031 A 
ATOM     17  C   UNL     1       3.849   8.035  -0.018  1.00  0.00     0.074 A 
ATOM     18  C   UNL     1       5.180   7.501  -2.068  1.00  0.00     0.049 A 
ATOM     19  N   UNL     1       2.983   8.979  -0.163  1.00  0.00    -0.248 NA
ATOM     20  C   UNL     1       4.183   7.719   1.379  1.00  0.00     0.031 C 
ATOM     21  C   UNL     1       5.952   6.657  -2.982  1.00  0.00     0.029 A 
ATOM     22  N   UNL     1       5.535   8.758  -2.436  1.00  0.00    -0.354 N 
ATOM     23  C   UNL     1       2.798   9.506   1.109  1.00  0.00     0.074 A 
ATOM     24  C   UNL     1       3.409   8.585   2.030  1.00  0.00     0.031 C 
ATOM     25  C   UNL     1       6.849   7.426  -3.643  1.00  0.00     0.029 A 
ATOM     26  C   UNL     1       6.619   8.819  -3.295  1.00  0.00     0.049 A 
ATOM     27  H   UNL     1       5.061   9.560  -2.118  1.00  0.00     0.167 HD
ATOM     28  C   UNL     1       2.399  10.795   1.263  1.00  0.00     0.037 A 
ATOM     29  C   UNL     1       7.312   9.942  -3.606  1.00  0.00     0.037 A 
ATOM     30  C   UNL     1       1.709  11.263   0.085  1.00  0.00     0.049 A 
ATOM     31  C   UNL     1       6.444  11.106  -3.278  1.00  0.00     0.074 A 
ATOM     32  C   UNL     1       0.571  10.860  -0.590  1.00  0.00     0.029 A 
ATOM     33  N   UNL     1       2.390  12.069  -0.795  1.00  0.00    -0.354 N 
ATOM     34  N   UNL     1       5.356  11.407  -3.933  1.00  0.00    -0.248 NA
ATOM     35  C   UNL     1       6.534  11.661  -1.934  1.00  0.00     0.031 C 
ATOM     36  C   UNL     1       0.869  11.047  -1.972  1.00  0.00     0.029 A 
ATOM     37  C   UNL     1       2.145  11.603  -2.061  1.00  0.00     0.049 A 
ATOM     38  H   UNL     1       2.953  12.841  -0.559  1.00  0.00     0.167 HD
ATOM     39  C   UNL     1       4.456  11.814  -2.958  1.00  0.00     0.074 A 
ATOM     40  C   UNL     1       5.262  12.030  -1.760  1.00  0.00     0.031 C 
ATOM     41  C   UNL     1       3.111  11.658  -3.133  1.00  0.00     0.037 A 
BRANCH  28  42
ATOM     42  C   UNL     1       3.021  11.724   2.280  1.00  0.00     0.064 A 
ATOM     43  C   UNL     1       2.547  13.047   2.356  1.00  0.00     0.173 A 
ATOM     44  C   UNL     1       4.247  11.482   2.943  1.00  0.00     0.173 A 
ATOM     45  F   UNL     1       1.392  13.394   1.769  1.00  0.00    -0.203 F 
ATOM     46  C   UNL     1       3.301  14.068   2.938  1.00  0.00     0.198 A 
ATOM     47  C   UNL     1       4.972  12.494   3.567  1.00  0.00     0.198 A 
ATOM     48  F   UNL     1       4.859  10.294   2.930  1.00  0.00    -0.203 F 
ATOM     49  F   UNL     1       2.877  15.335   2.854  1.00  0.00    -0.200 F 
ATOM     50  C   UNL     1       4.520  13.793   3.530  1.00  0.00     0.200 A 
ATOM     51  F   UNL     1       6.157  12.204   4.124  1.00  0.00    -0.200 F 
ATOM     52  F   UNL     1       5.281  14.780   4.018  1.00  0.00    -0.200 F 
ENDBRANCH  28  42
BRANCH  29  53
ATOM     53  C   UNL     1       8.773  10.075  -3.816  1.00  0.00     0.064 A 
ATOM     54  C   UNL     1       9.317  11.232  -4.399  1.00  0.00     0.173 A 
ATOM     55  C   UNL     1       9.687   9.197  -3.200  1.00  0.00     0.173 A 
ATOM     56  F   UNL     1       8.512  12.143  -4.964  1.00  0.00    -0.203 F 
ATOM     57  C   UNL     1      10.688  11.504  -4.346  1.00  0.00     0.198 A 
ATOM     58  C   UNL     1      11.055   9.466  -3.155  1.00  0.00     0.198 A 
ATOM     59  F   UNL     1       9.261   8.109  -2.542  1.00  0.00    -0.203 F 
ATOM     60  F   UNL     1      11.163  12.649  -4.857  1.00  0.00    -0.200 F 
ATOM     61  C   UNL     1      11.554  10.626  -3.716  1.00  0.00     0.200 A 
ATOM     62  F   UNL     1      11.875   8.625  -2.510  1.00  0.00    -0.200 F 
ATOM     63  F   UNL     1      12.858  10.915  -3.612  1.00  0.00    -0.200 F 
ENDBRANCH  29  53
BRANCH  41  64
ATOM     64  C   UNL     1       2.626  11.283  -4.505  1.00  0.00     0.064 A 
ATOM     65  C   UNL     1       2.953  10.078  -5.152  1.00  0.00     0.173 A 
ATOM     66  C   UNL     1       1.688  12.116  -5.130  1.00  0.00     0.173 A 
ATOM     67  F   UNL     1       3.762   9.181  -4.573  1.00  0.00    -0.203 F 
ATOM     68  C   UNL     1       2.402   9.750  -6.390  1.00  0.00     0.198 A 
ATOM     69  C   UNL     1       1.111  11.767  -6.347  1.00  0.00     0.198 A 
ATOM     70  F   UNL     1       1.296  13.252  -4.532  1.00  0.00    -0.203 F 
ATOM     71  F   UNL     1       2.742   8.602  -6.995  1.00  0.00    -0.200 F 
ATOM     72  C   UNL     1       1.476  10.592  -6.983  1.00  0.00     0.200 A 
ATOM     73  F   UNL     1       0.178  12.561  -6.893  1.00  0.00    -0.200 F 
ATOM     74  F   UNL     1       0.915  10.258  -8.154  1.00  0.00    -0.200 F 
ENDBRANCH  41  64
ENDBRANCH  15  16
ENDBRANCH   8  10
ENDBRANCH   7   8
ENDBRANCH   6   7
ENDBRANCH   5   6
ENDBRANCH   4   5
ENDBRANCH   2   4
ENDBRANCH   1   2
BRANCH   1  75
ATOM     75  C   UNL     1       3.941  -0.430   2.407  1.00  0.00     0.070 C 
BRANCH  75  76
ATOM     76  C   UNL     1       5.018  -1.269   1.812  1.00  0.00     0.063 A 
ATOM     77  C   UNL     1       4.935  -2.640   1.483  1.00  0.00     0.050 A 
ATOM     78  N   UNL     1       6.099  -0.688   1.275  1.00  0.00    -0.178 NA
ATOM     79  C   UNL     1       5.928  -2.825   0.547  1.00  0.00     0.054 A 
ATOM     80  N   UNL     1       6.637  -1.655   0.513  1.00  0.00    -0.268 N 
BRANCH  79  81
ATOM     81  C   UNL     1       6.202  -3.945  -0.381  1.00  0.00     0.157 C 
BRANCH  81  82
ATOM     82  N   UNL     1       7.528  -4.560  -0.137  1.00  0.00    -0.196 NA
BRANCH  82  83
ATOM     83  C   UNL     1       8.596  -3.651   0.364  1.00  0.00     0.104 CG0
ATOM     84  G   UNL     1       8.764  -2.444  -0.564  1.00  0.00     0.000 G0
ENDBRANCH  82  83
BRANCH  82  85
ATOM     85  S   UNL     1       7.424  -6.108   0.520  1.00  0.00     0.214 S 
ATOM     86  O   UNL     1       7.334  -5.958   1.955  1.00  0.00    -0.212 OA
ATOM     87  O   UNL     1       6.419  -6.845  -0.217  1.00  0.00    -0.212 OA
BRANCH  85  88
ATOM     88  C   UNL     1       8.991  -6.862   0.143  1.00  0.00     0.163 C 
BRANCH  88  89
ATOM     89  C   UNL     1       9.213  -7.220  -1.318  1.00  0.00     0.133 C 
BRANCH  89  90
ATOM     90  C   UNL     1       9.335  -6.041  -2.253  1.00  0.00     0.390 C 
ATOM     91  F   UNL     1      10.175  -5.109  -1.754  1.00  0.00    -0.171 F 
ATOM     92  F   UNL     1       9.850  -6.446  -3.437  1.00  0.00    -0.171 F 
ATOM     93  F   UNL     1       8.155  -5.454  -2.520  1.00  0.00    -0.171 F 
ENDBRANCH  89  90
ENDBRANCH  88  89
ENDBRANCH  85  88
ENDBRANCH  82  85
ENDBRANCH  81  82
ENDBRANCH  79  81
BRANCH  80  94
ATOM     94  C   UNL     1       7.721  -1.339  -0.392  1.00  0.00     0.146 C 
BRANCH  94  95
ATOM     95  C   UNL     1       8.764  -2.444  -0.564  1.00  0.00     0.040 CG0
ATOM     96  G   UNL     1       8.596  -3.651   0.364  1.00  0.00     0.000 G0
ENDBRANCH  94  95
ENDBRANCH  80  94
ENDBRANCH  75  76
ENDBRANCH   1  75
TORSDOF 17
