REMARK SMILES CC/C(C)=N/[NH+]=C1/NC(=O)[C@H](CC(=O)OCCOC(=O)c2ccc(-c3c4nc(c(-c5c(F)c(F)c(F)c(F)c5F)c5ccc([nH]5)c(-c5c(F)c(F)c(F)c(F)c5F)c5nc(c(-c6c(F)c(F)c(F)c(F)c6F)c6ccc3[nH]6)C=C5)C=C4)cc2)S1
REMARK SMILES IDX 16 1 15 2 13 3 14 4 12 5 11 6 6 7 7 8 8 10 84 11 9 12 10 14
REMARK SMILES IDX 5 15 3 16 4 17 2 18 1 19 17 20 18 21 19 22 20 23 21 24 22 25
REMARK SMILES IDX 83 26 23 27 82 28 24 29 25 30 26 31 76 32 27 33 81 34 75 35
REMARK SMILES IDX 77 36 28 37 80 38 74 39 73 40 29 42 61 43 41 44 60 45 42 46
REMARK SMILES IDX 45 47 59 48 78 49 43 50 44 51 58 53 79 54 46 55 30 56 31 57
REMARK SMILES IDX 39 58 32 59 33 60 37 61 40 62 34 63 35 64 38 65 36 66 62 67
REMARK SMILES IDX 63 68 71 69 64 70 65 71 69 72 72 73 66 74 67 75 70 76 68 77
REMARK SMILES IDX 47 78 48 79 56 80 49 81 50 82 54 83 57 84 51 85 52 86 55 87
REMARK SMILES IDX 53 88
REMARK H PARENT 6 9 8 13 77 41 45 52
REMARK Flexibility Score: inf
ROOT
ATOM      1  C   UNL     1       1.938 -10.999  -3.834  1.00  0.00     0.274 C 
ENDROOT
BRANCH   1   2
ATOM      2  O   UNL     1       2.295  -9.621  -3.628  1.00  0.00    -0.462 OA
BRANCH   2   3
ATOM      3  C   UNL     1       1.890  -8.715  -4.546  1.00  0.00     0.307 C 
ATOM      4  O   UNL     1       1.226  -8.968  -5.543  1.00  0.00    -0.252 OA
BRANCH   3   5
ATOM      5  C   UNL     1       2.391  -7.332  -4.214  1.00  0.00     0.150 C 
BRANCH   5   6
ATOM      6  C   UNL     1       1.793  -6.808  -2.923  1.00  0.00     0.184 C 
ATOM      7  N   UNL     1       2.415  -3.889  -0.469  1.00  0.00    -0.142 N 
ATOM      8  C   UNL     1       2.345  -4.897  -1.269  1.00  0.00     0.337 C 
ATOM      9  H   UNL     1       2.708  -3.986   0.466  1.00  0.00     0.343 HD
ATOM     10  N   UNL     1       2.731  -6.117  -0.839  1.00  0.00    -0.202 N 
ATOM     11  S   UNL     1       1.784  -4.971  -2.911  1.00  0.00    -0.020 SA
ATOM     12  C   UNL     1       2.588  -7.179  -1.679  1.00  0.00     0.322 C 
ATOM     13  H   UNL     1       3.107  -6.237   0.063  1.00  0.00     0.316 HD
ATOM     14  O   UNL     1       3.040  -8.283  -1.409  1.00  0.00    -0.246 OA
BRANCH   7  15
ATOM     15  N   UNL     1       2.052  -2.657  -1.002  1.00  0.00    -0.095 NA
ATOM     16  C   UNL     1       0.838  -2.277  -0.728  1.00  0.00     0.058 C 
ATOM     17  C   UNL     1      -0.180  -3.129  -0.006  1.00  0.00     0.066 C 
BRANCH  16  18
ATOM     18  C   UNL     1       0.418  -0.892  -1.166  1.00  0.00     0.052 C 
ATOM     19  C   UNL     1       0.812   0.115  -0.100  1.00  0.00     0.010 C 
ENDBRANCH  16  18
ENDBRANCH   7  15
ENDBRANCH   5   6
ENDBRANCH   3   5
ENDBRANCH   2   3
ENDBRANCH   1   2
BRANCH   1  20
ATOM     20  C   UNL     1       0.670 -11.379  -3.067  1.00  0.00     0.275 C 
BRANCH  20  21
ATOM     21  O   UNL     1      -0.509 -10.884  -3.730  1.00  0.00    -0.458 OA
BRANCH  21  22
ATOM     22  C   UNL     1      -0.966  -9.690  -3.289  1.00  0.00     0.338 C 
ATOM     23  O   UNL     1      -0.536  -9.029  -2.360  1.00  0.00    -0.246 OA
BRANCH  22  24
ATOM     24  C   UNL     1      -2.017  -9.200  -4.196  1.00  0.00     0.060 A 
ATOM     25  C   UNL     1      -1.855  -7.936  -4.773  1.00  0.00     0.016 A 
ATOM     26  C   UNL     1      -3.171  -9.948  -4.436  1.00  0.00     0.016 A 
ATOM     27  C   UNL     1      -2.849  -7.413  -5.596  1.00  0.00     0.010 A 
ATOM     28  C   UNL     1      -4.167  -9.423  -5.264  1.00  0.00     0.010 A 
ATOM     29  C   UNL     1      -4.015  -8.150  -5.843  1.00  0.00    -0.014 A 
BRANCH  29  30
ATOM     30  C   UNL     1      -5.085  -7.581  -6.695  1.00  0.00     0.031 A 
ATOM     31  C   UNL     1      -6.342  -7.055  -6.069  1.00  0.00     0.074 A 
ATOM     32  C   UNL     1      -4.924  -7.540  -8.030  1.00  0.00     0.049 A 
ATOM     33  N   UNL     1      -7.420  -6.582  -6.643  1.00  0.00    -0.248 NA
ATOM     34  C   UNL     1      -6.396  -7.062  -4.599  1.00  0.00     0.031 C 
ATOM     35  C   UNL     1      -3.734  -7.994  -8.748  1.00  0.00     0.029 A 
ATOM     36  N   UNL     1      -5.768  -7.103  -9.019  1.00  0.00    -0.354 N 
ATOM     37  C   UNL     1      -8.282  -6.246  -5.609  1.00  0.00     0.074 A 
ATOM     38  C   UNL     1      -7.613  -6.590  -4.372  1.00  0.00     0.031 C 
ATOM     39  C   UNL     1      -3.924  -7.813 -10.065  1.00  0.00     0.029 A 
ATOM     40  C   UNL     1      -5.263  -7.272 -10.284  1.00  0.00     0.049 A 
ATOM     41  H   UNL     1      -6.651  -6.706  -8.838  1.00  0.00     0.167 HD
ATOM     42  C   UNL     1      -9.518  -5.696  -5.689  1.00  0.00     0.037 A 
ATOM     43  C   UNL     1      -5.829  -7.041 -11.483  1.00  0.00     0.037 A 
ATOM     44  C   UNL     1     -10.177  -5.353  -6.922  1.00  0.00     0.049 A 
ATOM     45  C   UNL     1      -7.228  -6.493 -11.545  1.00  0.00     0.074 A 
ATOM     46  C   UNL     1     -11.418  -4.768  -7.105  1.00  0.00     0.029 A 
ATOM     47  N   UNL     1      -9.649  -5.572  -8.187  1.00  0.00    -0.354 N 
ATOM     48  N   UNL     1      -8.031  -6.162 -10.563  1.00  0.00    -0.248 NA
ATOM     49  C   UNL     1      -7.803  -6.293 -12.883  1.00  0.00     0.031 C 
ATOM     50  C   UNL     1     -11.661  -4.676  -8.480  1.00  0.00     0.029 A 
ATOM     51  C   UNL     1     -10.551  -5.159  -9.155  1.00  0.00     0.049 A 
ATOM     52  H   UNL     1      -8.764  -5.962  -8.369  1.00  0.00     0.167 HD
ATOM     53  C   UNL     1      -9.194  -5.696 -11.161  1.00  0.00     0.074 A 
ATOM     54  C   UNL     1      -8.988  -5.775 -12.593  1.00  0.00     0.031 C 
ATOM     55  C   UNL     1     -10.331  -5.245 -10.576  1.00  0.00     0.037 A 
BRANCH  42  56
ATOM     56  C   UNL     1     -10.251  -5.455  -4.402  1.00  0.00     0.064 A 
ATOM     57  C   UNL     1      -9.875  -4.432  -3.520  1.00  0.00     0.173 A 
ATOM     58  C   UNL     1     -11.364  -6.239  -4.064  1.00  0.00     0.173 A 
ATOM     59  F   UNL     1      -8.809  -3.663  -3.791  1.00  0.00    -0.203 F 
ATOM     60  C   UNL     1     -10.572  -4.218  -2.333  1.00  0.00     0.198 A 
ATOM     61  C   UNL     1     -12.075  -6.006  -2.889  1.00  0.00     0.198 A 
ATOM     62  F   UNL     1     -11.768  -7.227  -4.875  1.00  0.00    -0.203 F 
ATOM     63  F   UNL     1     -10.168  -3.264  -1.483  1.00  0.00    -0.200 F 
ATOM     64  C   UNL     1     -11.674  -5.001  -2.022  1.00  0.00     0.200 A 
ATOM     65  F   UNL     1     -13.145  -6.756  -2.595  1.00  0.00    -0.200 F 
ATOM     66  F   UNL     1     -12.345  -4.792  -0.881  1.00  0.00    -0.200 F 
ENDBRANCH  42  56
BRANCH  43  67
ATOM     67  C   UNL     1      -5.072  -7.343 -12.725  1.00  0.00     0.064 A 
ATOM     68  C   UNL     1      -4.612  -6.314 -13.558  1.00  0.00     0.173 A 
ATOM     69  C   UNL     1      -4.791  -8.665 -13.102  1.00  0.00     0.173 A 
ATOM     70  F   UNL     1      -4.880  -5.036 -13.252  1.00  0.00    -0.203 F 
ATOM     71  C   UNL     1      -3.909  -6.596 -14.727  1.00  0.00     0.198 A 
ATOM     72  C   UNL     1      -4.065  -8.944 -14.257  1.00  0.00     0.198 A 
ATOM     73  F   UNL     1      -5.212  -9.684 -12.340  1.00  0.00    -0.203 F 
ATOM     74  F   UNL     1      -3.514  -5.596 -15.526  1.00  0.00    -0.200 F 
ATOM     75  C   UNL     1      -3.629  -7.910 -15.072  1.00  0.00     0.200 A 
ATOM     76  F   UNL     1      -3.788 -10.215 -14.581  1.00  0.00    -0.200 F 
ATOM     77  F   UNL     1      -2.947  -8.180 -16.193  1.00  0.00    -0.200 F 
ENDBRANCH  43  67
BRANCH  55  78
ATOM     78  C   UNL     1     -11.431  -4.780 -11.484  1.00  0.00     0.064 A 
ATOM     79  C   UNL     1     -12.210  -5.686 -12.218  1.00  0.00     0.173 A 
ATOM     80  C   UNL     1     -11.736  -3.414 -11.591  1.00  0.00     0.173 A 
ATOM     81  F   UNL     1     -11.947  -7.001 -12.163  1.00  0.00    -0.203 F 
ATOM     82  C   UNL     1     -13.239  -5.241 -13.043  1.00  0.00     0.198 A 
ATOM     83  C   UNL     1     -12.783  -2.974 -12.395  1.00  0.00     0.198 A 
ATOM     84  F   UNL     1     -11.024  -2.507 -10.905  1.00  0.00    -0.203 F 
ATOM     85  F   UNL     1     -13.943  -6.121 -13.768  1.00  0.00    -0.200 F 
ATOM     86  C   UNL     1     -13.530  -3.887 -13.124  1.00  0.00     0.200 A 
ATOM     87  F   UNL     1     -13.070  -1.667 -12.464  1.00  0.00    -0.200 F 
ATOM     88  F   UNL     1     -14.526  -3.460 -13.913  1.00  0.00    -0.200 F 
ENDBRANCH  55  78
ENDBRANCH  29  30
ENDBRANCH  22  24
ENDBRANCH  21  22
ENDBRANCH  20  21
ENDBRANCH   1  20
TORSDOF 14
