REMARK SMILES COc1ccccc1C[C@@H](C(=O)OCCOC(=O)c1ccc(-c2c3nc(c(-c4c(F)c(F)c(F)c(F)c4F)c4ccc([nH]4)c(-c4c(F)c(F)c(F)c(F)c4F)c4nc(c(-c5c(F)c(F)c(F)c(F)c5F)c5ccc2[nH]5)C=C4)C=C3)cc1)[C@@H]1CCCCC[C@@H]1O
REMARK SMILES IDX 13 1 11 2 12 3 10 4 9 5 8 6 3 7 4 8 5 9 7 10 6 11 2 12 1 13
REMARK SMILES IDX 82 14 83 15 84 16 88 18 87 19 86 20 85 21 89 23 14 25 15 26
REMARK SMILES IDX 16 27 17 28 18 29 19 30 20 31 81 32 21 33 80 34 22 35 23 36
REMARK SMILES IDX 24 37 74 38 25 39 79 40 73 41 75 42 26 43 78 44 72 45 71 46
REMARK SMILES IDX 27 48 59 49 39 50 58 51 40 52 43 53 57 54 76 55 41 56 42 57
REMARK SMILES IDX 56 59 77 60 44 61 28 62 29 63 37 64 30 65 31 66 35 67 38 68
REMARK SMILES IDX 32 69 33 70 36 71 34 72 60 73 61 74 69 75 62 76 63 77 67 78
REMARK SMILES IDX 70 79 64 80 65 81 68 82 66 83 45 84 46 85 54 86 47 87 48 88
REMARK SMILES IDX 52 89 55 90 49 91 50 92 53 93 51 94
REMARK H PARENT 89 24 75 47 43 58
REMARK Flexibility Score: 90.00
ROOT
ATOM      1  O   UNL     1       4.410  -2.205   3.482  1.00  0.00    -0.462 OA
ENDROOT
BRANCH   1   2
ATOM      2  C   UNL     1       5.144  -2.279   2.343  1.00  0.00     0.309 C 
ATOM      3  O   UNL     1       5.514  -3.343   1.861  1.00  0.00    -0.252 OA
BRANCH   2   4
ATOM      4  C   UNL     1       5.439  -0.887   1.724  1.00  0.00     0.109 C 
BRANCH   4   5
ATOM      5  C   UNL     1       4.125  -0.046   1.753  1.00  0.00     0.055 C 
BRANCH   5   6
ATOM      6  C   UNL     1       3.869   0.702   3.050  1.00  0.00    -0.005 A 
ATOM      7  C   UNL     1       4.558   1.876   3.380  1.00  0.00     0.122 A 
ATOM      8  C   UNL     1       4.393   2.491   4.624  1.00  0.00     0.047 A 
ATOM      9  C   UNL     1       3.485   1.970   5.541  1.00  0.00     0.004 A 
ATOM     10  C   UNL     1       2.913   0.231   3.964  1.00  0.00     0.007 A 
ATOM     11  C   UNL     1       2.732   0.849   5.204  1.00  0.00     0.001 A 
BRANCH   7  12
ATOM     12  O   UNL     1       5.425   2.453   2.492  1.00  0.00    -0.496 OA
ATOM     13  C   UNL     1       4.729   3.404   1.676  1.00  0.00     0.278 C 
ENDBRANCH   7  12
ENDBRANCH   5   6
ENDBRANCH   4   5
BRANCH   4  14
ATOM     14  C   UNL     1       6.014  -1.097   0.256  1.00  0.00     0.032 C 
BRANCH  14  15
ATOM     15  C   UNL     1       7.399  -1.812   0.277  1.00  0.00     0.007 C 
BRANCH  15  16
ATOM     16  C   UNL     1       7.588  -2.730  -0.935  1.00  0.00     0.000 CG0
ATOM     17  G   UNL     1       8.090  -2.062  -2.212  1.00  0.00     0.000 G0
ENDBRANCH  15  16
ENDBRANCH  14  15
BRANCH  14  18
ATOM     18  C   UNL     1       6.048   0.160  -0.645  1.00  0.00     0.118 C 
BRANCH  18  19
ATOM     19  C   UNL     1       6.459  -0.091  -2.106  1.00  0.00     0.032 C 
BRANCH  19  20
ATOM     20  C   UNL     1       7.893  -0.555  -2.331  1.00  0.00     0.003 C 
BRANCH  20  21
ATOM     21  C   UNL     1       8.090  -2.062  -2.212  1.00  0.00     0.000 CG0
ATOM     22  G   UNL     1       7.588  -2.730  -0.935  1.00  0.00     0.000 G0
ENDBRANCH  20  21
ENDBRANCH  19  20
ENDBRANCH  18  19
BRANCH  18  23
ATOM     23  O   UNL     1       6.833   1.207  -0.091  1.00  0.00    -0.393 OA
ATOM     24  H   UNL     1       7.763   0.933  -0.062  1.00  0.00     0.210 HD
ENDBRANCH  18  23
ENDBRANCH  14  18
ENDBRANCH   4  14
ENDBRANCH   2   4
ENDBRANCH   1   2
BRANCH   1  25
ATOM     25  C   UNL     1       3.943  -3.450   4.050  1.00  0.00     0.274 C 
BRANCH  25  26
ATOM     26  C   UNL     1       2.550  -3.799   3.519  1.00  0.00     0.275 C 
BRANCH  26  27
ATOM     27  O   UNL     1       2.649  -4.161   2.130  1.00  0.00    -0.458 OA
BRANCH  27  28
ATOM     28  C   UNL     1       1.656  -3.737   1.315  1.00  0.00     0.338 C 
ATOM     29  O   UNL     1       0.643  -3.139   1.626  1.00  0.00    -0.246 OA
BRANCH  28  30
ATOM     30  C   UNL     1       2.011  -4.082  -0.076  1.00  0.00     0.060 A 
ATOM     31  C   UNL     1       3.244  -3.670  -0.577  1.00  0.00     0.016 A 
ATOM     32  C   UNL     1       1.109  -4.730  -0.915  1.00  0.00     0.016 A 
ATOM     33  C   UNL     1       3.571  -3.851  -1.917  1.00  0.00     0.010 A 
ATOM     34  C   UNL     1       1.466  -4.983  -2.248  1.00  0.00     0.010 A 
ATOM     35  C   UNL     1       2.692  -4.525  -2.768  1.00  0.00    -0.014 A 
BRANCH  35  36
ATOM     36  C   UNL     1       3.025  -4.669  -4.211  1.00  0.00     0.031 A 
ATOM     37  C   UNL     1       2.165  -3.988  -5.240  1.00  0.00     0.074 A 
ATOM     38  C   UNL     1       4.125  -5.340  -4.610  1.00  0.00     0.049 A 
ATOM     39  N   UNL     1       2.164  -4.118  -6.542  1.00  0.00    -0.248 NA
ATOM     40  C   UNL     1       1.176  -3.024  -4.731  1.00  0.00     0.031 C 
ATOM     41  C   UNL     1       5.112  -5.957  -3.725  1.00  0.00     0.029 A 
ATOM     42  N   UNL     1       4.604  -5.600  -5.872  1.00  0.00    -0.354 N 
ATOM     43  C   UNL     1       1.149  -3.291  -7.003  1.00  0.00     0.074 A 
ATOM     44  C   UNL     1       0.556  -2.659  -5.844  1.00  0.00     0.031 C 
ATOM     45  C   UNL     1       6.095  -6.494  -4.467  1.00  0.00     0.029 A 
ATOM     46  C   UNL     1       5.765  -6.335  -5.880  1.00  0.00     0.049 A 
ATOM     47  H   UNL     1       4.159  -5.288  -6.692  1.00  0.00     0.167 HD
ATOM     48  C   UNL     1       0.746  -3.081  -8.279  1.00  0.00     0.037 A 
ATOM     49  C   UNL     1       6.461  -6.858  -6.908  1.00  0.00     0.037 A 
ATOM     50  C   UNL     1       1.354  -3.686  -9.433  1.00  0.00     0.049 A 
ATOM     51  C   UNL     1       5.948  -6.673  -8.312  1.00  0.00     0.074 A 
ATOM     52  C   UNL     1       0.966  -3.611 -10.759  1.00  0.00     0.029 A 
ATOM     53  N   UNL     1       2.503  -4.462  -9.396  1.00  0.00    -0.354 N 
ATOM     54  N   UNL     1       4.911  -5.992  -8.732  1.00  0.00    -0.248 NA
ATOM     55  C   UNL     1       6.692  -7.353  -9.383  1.00  0.00     0.031 C 
ATOM     56  C   UNL     1       1.874  -4.352 -11.525  1.00  0.00     0.029 A 
ATOM     57  C   UNL     1       2.844  -4.862 -10.678  1.00  0.00     0.049 A 
ATOM     58  H   UNL     1       3.003  -4.693  -8.581  1.00  0.00     0.167 HD
ATOM     59  C   UNL     1       4.888  -6.144 -10.112  1.00  0.00     0.074 A 
ATOM     60  C   UNL     1       6.027  -6.967 -10.462  1.00  0.00     0.031 C 
ATOM     61  C   UNL     1       3.997  -5.656 -11.009  1.00  0.00     0.037 A 
BRANCH  48  62
ATOM     62  C   UNL     1      -0.439  -2.188  -8.486  1.00  0.00     0.064 A 
ATOM     63  C   UNL     1      -0.342  -0.794  -8.368  1.00  0.00     0.173 A 
ATOM     64  C   UNL     1      -1.686  -2.736  -8.822  1.00  0.00     0.173 A 
ATOM     65  F   UNL     1       0.825  -0.226  -8.027  1.00  0.00    -0.203 F 
ATOM     66  C   UNL     1      -1.456   0.018  -8.561  1.00  0.00     0.198 A 
ATOM     67  C   UNL     1      -2.793  -1.919  -9.037  1.00  0.00     0.198 A 
ATOM     68  F   UNL     1      -1.830  -4.064  -8.946  1.00  0.00    -0.203 F 
ATOM     69  F   UNL     1      -1.352   1.345  -8.404  1.00  0.00    -0.200 F 
ATOM     70  C   UNL     1      -2.678  -0.544  -8.901  1.00  0.00     0.200 A 
ATOM     71  F   UNL     1      -3.971  -2.464  -9.371  1.00  0.00    -0.200 F 
ATOM     72  F   UNL     1      -3.749   0.240  -9.088  1.00  0.00    -0.200 F 
ENDBRANCH  48  62
BRANCH  49  73
ATOM     73  C   UNL     1       7.692  -7.654  -6.658  1.00  0.00     0.064 A 
ATOM     74  C   UNL     1       8.947  -7.199  -7.089  1.00  0.00     0.173 A 
ATOM     75  C   UNL     1       7.637  -8.904  -6.024  1.00  0.00     0.173 A 
ATOM     76  F   UNL     1       9.048  -6.025  -7.730  1.00  0.00    -0.203 F 
ATOM     77  C   UNL     1      10.093  -7.972  -6.913  1.00  0.00     0.198 A 
ATOM     78  C   UNL     1       8.788  -9.662  -5.820  1.00  0.00     0.198 A 
ATOM     79  F   UNL     1       6.461  -9.391  -5.600  1.00  0.00    -0.203 F 
ATOM     80  F   UNL     1      11.270  -7.538  -7.385  1.00  0.00    -0.200 F 
ATOM     81  C   UNL     1      10.014  -9.200  -6.274  1.00  0.00     0.200 A 
ATOM     82  F   UNL     1       8.707 -10.844  -5.195  1.00  0.00    -0.200 F 
ATOM     83  F   UNL     1      11.115  -9.944  -6.108  1.00  0.00    -0.200 F 
ENDBRANCH  49  73
BRANCH  61  84
ATOM     84  C   UNL     1       4.249  -5.954 -12.456  1.00  0.00     0.064 A 
ATOM     85  C   UNL     1       4.002  -7.223 -12.998  1.00  0.00     0.173 A 
ATOM     86  C   UNL     1       4.715  -4.947 -13.314  1.00  0.00     0.173 A 
ATOM     87  F   UNL     1       3.572  -8.221 -12.211  1.00  0.00    -0.203 F 
ATOM     88  C   UNL     1       4.235  -7.480 -14.346  1.00  0.00     0.198 A 
ATOM     89  C   UNL     1       4.925  -5.202 -14.666  1.00  0.00     0.198 A 
ATOM     90  F   UNL     1       4.962  -3.716 -12.842  1.00  0.00    -0.203 F 
ATOM     91  F   UNL     1       4.032  -8.711 -14.836  1.00  0.00    -0.200 F 
ATOM     92  C   UNL     1       4.691  -6.469 -15.180  1.00  0.00     0.200 A 
ATOM     93  F   UNL     1       5.359  -4.223 -15.472  1.00  0.00    -0.200 F 
ATOM     94  F   UNL     1       4.913  -6.719 -16.477  1.00  0.00    -0.200 F 
ENDBRANCH  61  84
ENDBRANCH  35  36
ENDBRANCH  28  30
ENDBRANCH  27  28
ENDBRANCH  26  27
ENDBRANCH  25  26
ENDBRANCH   1  25
TORSDOF 16
