REMARK SMILES Cc1ccc(C(=O)C[C@@H](C(=O)OCCOC(=O)c2ccc(-c3c4nc(c(-c5c(F)c(F)c(F)c(F)c5F)c5ccc([nH]5)c(-c5c(F)c(F)c(F)c(F)c5F)c5nc(c(-c6c(F)c(F)c(F)c(F)c6F)c6ccc3[nH]6)C=C5)C=C4)cc2)[NH+]2CC[NH+](Cc3ccccc3)CC2)cc1
REMARK SMILES IDX 13 1 12 2 10 3 11 4 9 5 8 6 6 7 7 8 5 9 1 10 2 11 3 12 95 13
REMARK SMILES IDX 4 14 94 15 81 16 82 17 93 18 83 20 92 21 84 22 85 24 86 25
REMARK SMILES IDX 87 26 91 27 88 28 90 29 89 30 14 31 15 32 16 33 17 34 18 35
REMARK SMILES IDX 19 36 80 37 20 38 79 39 21 40 22 41 23 42 73 43 24 44 78 45
REMARK SMILES IDX 72 46 74 47 25 48 77 49 71 50 70 51 26 53 58 54 38 55 57 56
REMARK SMILES IDX 39 57 42 58 56 59 75 60 40 61 41 62 55 64 76 65 43 66 27 67
REMARK SMILES IDX 28 68 36 69 29 70 30 71 34 72 37 73 31 74 32 75 35 76 33 77
REMARK SMILES IDX 59 78 60 79 68 80 61 81 62 82 66 83 69 84 63 85 64 86 67 87
REMARK SMILES IDX 65 88 44 89 45 90 53 91 46 92 47 93 51 94 54 95 48 96 49 97
REMARK SMILES IDX 52 98 50 99
REMARK H PARENT 81 19 84 23 74 52 42 63
REMARK Flexibility Score: inf
ROOT
ATOM      1  C   UNL     1       0.981   2.778   0.137  1.00  0.00     0.274 C 
ENDROOT
BRANCH   1   2
ATOM      2  O   UNL     1       0.083   1.774   0.601  1.00  0.00    -0.458 OA
BRANCH   2   3
ATOM      3  C   UNL     1      -1.081   1.826  -0.069  1.00  0.00     0.365 C 
ATOM      4  O   UNL     1      -1.112   1.819  -1.295  1.00  0.00    -0.245 OA
BRANCH   3   5
ATOM      5  C   UNL     1      -2.397   1.851   0.863  1.00  0.00     0.303 C 
BRANCH   5   6
ATOM      6  C   UNL     1      -3.182   0.565  -0.301  1.00  0.00     0.158 C 
BRANCH   6   7
ATOM      7  C   UNL     1      -2.734  -0.893  -0.291  1.00  0.00     0.169 C 
ATOM      8  O   UNL     1      -3.480  -1.780   0.129  1.00  0.00    -0.294 OA
BRANCH   7   9
ATOM      9  C   UNL     1      -1.391  -1.279  -0.755  1.00  0.00     0.018 A 
ATOM     10  C   UNL     1       2.813  -0.919  -0.649  1.00  0.00     0.044 C 
ATOM     11  C   UNL     1       1.359  -1.229  -0.833  1.00  0.00    -0.051 A 
ATOM     12  C   UNL     1       0.707  -2.066   0.077  1.00  0.00     0.004 A 
ATOM     13  C   UNL     1       0.628  -0.631  -1.866  1.00  0.00     0.004 A 
ATOM     14  C   UNL     1      -0.678  -2.091   0.119  1.00  0.00     0.012 A 
ATOM     15  C   UNL     1      -0.765  -0.697  -1.854  1.00  0.00     0.012 A 
ENDBRANCH   7   9
ENDBRANCH   6   7
ENDBRANCH   5   6
BRANCH   5  16
ATOM     16  N   UNL     1      -3.377   3.472   1.872  1.00  0.00    -0.314 N 
ATOM     17  C   UNL     1      -4.469   3.334   3.261  1.00  0.00     0.325 C 
ATOM     18  C   UNL     1      -4.289   4.808   1.230  1.00  0.00     0.325 C 
ATOM     19  H   UNL     1      -2.365   3.569   1.954  1.00  0.00     0.349 HD
ATOM     20  C   UNL     1      -4.944   4.537   4.061  1.00  0.00     0.324 C 
ATOM     21  C   UNL     1      -5.361   5.719   2.031  1.00  0.00     0.324 C 
ATOM     22  N   UNL     1      -5.900   5.298   3.305  1.00  0.00    -0.322 N 
ATOM     23  H   UNL     1      -6.034   6.178   3.804  1.00  0.00     0.348 HD
BRANCH  22  24
ATOM     24  C   UNL     1      -7.312   4.907   3.405  1.00  0.00     0.299 C 
BRANCH  24  25
ATOM     25  C   UNL     1      -8.021   4.194   2.264  1.00  0.00     0.006 A 
ATOM     26  C   UNL     1      -9.414   4.301   2.151  1.00  0.00     0.009 A 
ATOM     27  C   UNL     1      -7.386   3.384   1.324  1.00  0.00     0.009 A 
ATOM     28  C   UNL     1     -10.104   3.681   1.100  1.00  0.00     0.001 A 
ATOM     29  C   UNL     1      -8.054   2.772   0.266  1.00  0.00     0.001 A 
ATOM     30  C   UNL     1      -9.421   2.931   0.147  1.00  0.00     0.000 A 
ENDBRANCH  24  25
ENDBRANCH  22  24
ENDBRANCH   5  16
ENDBRANCH   3   5
ENDBRANCH   2   3
ENDBRANCH   1   2
BRANCH   1  31
ATOM     31  C   UNL     1       0.594   3.653  -1.129  1.00  0.00     0.275 C 
BRANCH  31  32
ATOM     32  O   UNL     1      -0.735   4.422  -1.401  1.00  0.00    -0.458 OA
BRANCH  32  33
ATOM     33  C   UNL     1      -2.125   4.172  -1.433  1.00  0.00     0.338 C 
ATOM     34  O   UNL     1      -2.838   4.525  -2.358  1.00  0.00    -0.246 OA
BRANCH  33  35
ATOM     35  C   UNL     1      -2.730   3.645  -0.160  1.00  0.00     0.060 A 
ATOM     36  C   UNL     1      -4.143   2.527   0.272  1.00  0.00     0.016 A 
ATOM     37  C   UNL     1      -1.478   3.962   0.999  1.00  0.00     0.016 A 
ATOM     38  C   UNL     1      -4.027   1.560   1.890  1.00  0.00     0.010 A 
ATOM     39  C   UNL     1      -1.325   3.060   2.363  1.00  0.00     0.010 A 
ATOM     40  C   UNL     1      -2.545   1.931   2.963  1.00  0.00    -0.014 A 
BRANCH  40  41
ATOM     41  C   UNL     1      -2.103   1.787   4.368  1.00  0.00     0.031 A 
ATOM     42  C   UNL     1      -2.282   0.564   5.106  1.00  0.00     0.074 A 
ATOM     43  C   UNL     1      -1.357   2.799   4.936  1.00  0.00     0.049 A 
ATOM     44  N   UNL     1      -2.456   0.552   6.384  1.00  0.00    -0.248 NA
ATOM     45  C   UNL     1      -2.376  -0.732   4.460  1.00  0.00     0.031 C 
ATOM     46  C   UNL     1      -0.073   2.577   5.606  1.00  0.00     0.029 A 
ATOM     47  N   UNL     1      -1.309   4.182   4.662  1.00  0.00    -0.354 N 
ATOM     48  C   UNL     1      -2.209  -0.746   6.741  1.00  0.00     0.074 A 
ATOM     49  C   UNL     1      -2.499  -1.506   5.543  1.00  0.00     0.031 C 
ATOM     50  C   UNL     1       0.622   3.733   5.674  1.00  0.00     0.029 A 
ATOM     51  C   UNL     1      -0.183   4.841   5.159  1.00  0.00     0.049 A 
ATOM     52  H   UNL     1      -2.016   4.647   4.158  1.00  0.00     0.167 HD
ATOM     53  C   UNL     1      -1.423  -0.987   7.835  1.00  0.00     0.037 A 
ATOM     54  C   UNL     1      -0.141   6.109   5.684  1.00  0.00     0.037 A 
ATOM     55  C   UNL     1      -0.879   0.277   8.395  1.00  0.00     0.049 A 
ATOM     56  C   UNL     1      -0.648   5.951   7.101  1.00  0.00     0.074 A 
ATOM     57  C   UNL     1       0.410   0.791   8.437  1.00  0.00     0.029 A 
ATOM     58  N   UNL     1      -1.712   1.340   8.757  1.00  0.00    -0.354 N 
ATOM     59  N   UNL     1      -0.618   4.801   7.707  1.00  0.00    -0.248 NA
ATOM     60  C   UNL     1      -1.246   6.992   7.931  1.00  0.00     0.031 C 
ATOM     61  C   UNL     1       0.347   2.150   8.837  1.00  0.00     0.029 A 
ATOM     62  C   UNL     1      -0.979   2.484   9.044  1.00  0.00     0.049 A 
ATOM     63  H   UNL     1      -2.694   1.285   8.801  1.00  0.00     0.167 HD
ATOM     64  C   UNL     1      -1.331   4.858   8.858  1.00  0.00     0.074 A 
ATOM     65  C   UNL     1      -1.621   6.275   9.008  1.00  0.00     0.031 C 
ATOM     66  C   UNL     1      -1.625   3.708   9.531  1.00  0.00     0.037 A 
BRANCH  53  67
ATOM     67  C   UNL     1      -0.832  -2.348   8.193  1.00  0.00     0.064 A 
ATOM     68  C   UNL     1       0.174  -2.454   9.180  1.00  0.00     0.173 A 
ATOM     69  C   UNL     1      -1.209  -3.587   7.634  1.00  0.00     0.173 A 
ATOM     70  F   UNL     1       0.555  -1.399   9.910  1.00  0.00    -0.203 F 
ATOM     71  C   UNL     1       0.810  -3.661   9.492  1.00  0.00     0.198 A 
ATOM     72  C   UNL     1      -0.553  -4.789   7.919  1.00  0.00     0.198 A 
ATOM     73  F   UNL     1      -2.280  -3.721   6.850  1.00  0.00    -0.203 F 
ATOM     74  F   UNL     1       1.760  -3.683  10.436  1.00  0.00    -0.200 F 
ATOM     75  C   UNL     1       0.461  -4.826   8.845  1.00  0.00     0.200 A 
ATOM     76  F   UNL     1      -0.939  -5.915   7.301  1.00  0.00    -0.200 F 
ATOM     77  F   UNL     1       1.065  -5.983   9.145  1.00  0.00    -0.200 F 
ENDBRANCH  53  67
BRANCH  54  78
ATOM     78  C   UNL     1      -0.566   7.212   4.766  1.00  0.00     0.064 A 
ATOM     79  C   UNL     1       0.346   7.718   3.809  1.00  0.00     0.173 A 
ATOM     80  C   UNL     1      -1.896   7.227   4.428  1.00  0.00     0.173 A 
ATOM     81  F   UNL     1       1.638   7.865   4.131  1.00  0.00    -0.203 F 
ATOM     82  C   UNL     1      -0.031   7.934   2.478  1.00  0.00     0.198 A 
ATOM     83  C   UNL     1      -2.168   7.167   3.080  1.00  0.00     0.198 A 
ATOM     84  F   UNL     1      -2.828   6.805   5.293  1.00  0.00    -0.203 F 
ATOM     85  F   UNL     1       0.865   8.301   1.552  1.00  0.00    -0.200 F 
ATOM     86  C   UNL     1      -1.284   7.542   2.090  1.00  0.00     0.200 A 
ATOM     87  F   UNL     1      -3.115   6.317   2.758  1.00  0.00    -0.200 F 
ATOM     88  F   UNL     1      -1.586   7.340   0.799  1.00  0.00    -0.200 F 
ENDBRANCH  54  78
BRANCH  66  89
ATOM     89  C   UNL     1      -2.428   3.648  10.793  1.00  0.00     0.064 A 
ATOM     90  C   UNL     1      -3.444   4.550  11.135  1.00  0.00     0.173 A 
ATOM     91  C   UNL     1      -2.202   2.592  11.707  1.00  0.00     0.173 A 
ATOM     92  F   UNL     1      -3.852   5.500  10.283  1.00  0.00    -0.203 F 
ATOM     93  C   UNL     1      -4.103   4.472  12.362  1.00  0.00     0.198 A 
ATOM     94  C   UNL     1      -2.917   2.470  12.890  1.00  0.00     0.198 A 
ATOM     95  F   UNL     1      -1.280   1.645  11.479  1.00  0.00    -0.203 F 
ATOM     96  F   UNL     1      -5.002   5.409  12.691  1.00  0.00    -0.200 F 
ATOM     97  C   UNL     1      -3.842   3.431  13.236  1.00  0.00     0.200 A 
ATOM     98  F   UNL     1      -2.698   1.418  13.690  1.00  0.00    -0.200 F 
ATOM     99  F   UNL     1      -4.491   3.347  14.403  1.00  0.00    -0.200 F 
ENDBRANCH  66  89
ENDBRANCH  40  41
ENDBRANCH  33  35
ENDBRANCH  32  33
ENDBRANCH  31  32
ENDBRANCH   1  31
TORSDOF 17
