REMARK SMILES O=C(OCCOC(=O)[C@H]1C[C@H](O)CN1C(=O)CS[C@H]1CCS(=O)(=O)C1)c1ccc(-c2c3nc(c(-c4c(F)c(F)c(F)c(F)c4F)c4ccc([nH]4)c(-c4c(F)c(F)c(F)c(F)c4F)c4nc(c(-c5c(F)c(F)c(F)c(F)c5F)c5ccc2[nH]5)C=C4)C=C3)cc1
REMARK SMILES IDX 5 1 4 2 3 3 2 4 1 5 26 6 27 7 88 8 28 9 87 10 29 11 30 12
REMARK SMILES IDX 31 13 81 14 32 15 86 16 80 17 82 18 33 19 85 20 79 21 78 22
REMARK SMILES IDX 34 24 66 25 46 26 65 27 47 28 50 29 64 30 83 31 48 32 49 33
REMARK SMILES IDX 63 35 84 36 51 37 35 38 36 39 44 40 37 41 38 42 42 43 45 44
REMARK SMILES IDX 39 45 40 46 43 47 41 48 67 49 68 50 76 51 69 52 70 53 74 54
REMARK SMILES IDX 77 55 71 56 72 57 75 58 73 59 52 60 53 61 61 62 54 63 55 64
REMARK SMILES IDX 59 65 62 66 56 67 57 68 60 69 58 70 6 71 7 72 8 73 9 74
REMARK SMILES IDX 10 75 14 76 11 77 13 78 15 79 16 80 17 81 18 82 19 83 20 84
REMARK SMILES IDX 25 85 21 86 22 87 23 88 24 89 12 90
REMARK H PARENT 82 23 50 34 12 91
REMARK Flexibility Score: inf
ROOT
ATOM      1  C   UNL     1       5.248   2.191   0.109  1.00  0.00     0.274 C 
ENDROOT
BRANCH   1   2
ATOM      2  C   UNL     1       5.451   3.644   0.551  1.00  0.00     0.275 C 
BRANCH   2   3
ATOM      3  O   UNL     1       5.274   3.847   1.962  1.00  0.00    -0.458 OA
BRANCH   3   4
ATOM      4  C   UNL     1       4.159   3.814   2.725  1.00  0.00     0.338 C 
ATOM      5  O   UNL     1       4.311   3.728   3.943  1.00  0.00    -0.246 OA
BRANCH   4   6
ATOM      6  C   UNL     1       2.751   3.822   2.188  1.00  0.00     0.060 A 
ATOM      7  C   UNL     1       2.350   3.967   0.857  1.00  0.00     0.016 A 
ATOM      8  C   UNL     1       1.740   3.561   3.128  1.00  0.00     0.016 A 
ATOM      9  C   UNL     1       1.022   3.757   0.465  1.00  0.00     0.010 A 
ATOM     10  C   UNL     1       0.426   3.278   2.740  1.00  0.00     0.010 A 
ATOM     11  C   UNL     1       0.051   3.399   1.401  1.00  0.00    -0.014 A 
BRANCH  11  12
ATOM     12  C   UNL     1      -1.375   3.407   1.003  1.00  0.00     0.031 A 
ATOM     13  C   UNL     1      -2.203   4.571   1.466  1.00  0.00     0.074 A 
ATOM     14  C   UNL     1      -1.890   2.471   0.183  1.00  0.00     0.049 A 
ATOM     15  N   UNL     1      -3.428   4.896   1.150  1.00  0.00    -0.248 NA
ATOM     16  C   UNL     1      -1.559   5.507   2.405  1.00  0.00     0.031 C 
ATOM     17  C   UNL     1      -1.165   1.318  -0.348  1.00  0.00     0.029 A 
ATOM     18  N   UNL     1      -3.143   2.348  -0.365  1.00  0.00    -0.354 N 
ATOM     19  C   UNL     1      -3.680   6.078   1.831  1.00  0.00     0.074 A 
ATOM     20  C   UNL     1      -2.530   6.364   2.651  1.00  0.00     0.031 C 
ATOM     21  C   UNL     1      -1.982   0.601  -1.140  1.00  0.00     0.029 A 
ATOM     22  C   UNL     1      -3.289   1.251  -1.184  1.00  0.00     0.049 A 
ATOM     23  H   UNL     1      -3.871   2.986  -0.189  1.00  0.00     0.167 HD
ATOM     24  C   UNL     1      -4.758   6.887   1.742  1.00  0.00     0.037 A 
ATOM     25  C   UNL     1      -4.354   0.842  -1.901  1.00  0.00     0.037 A 
ATOM     26  C   UNL     1      -5.901   6.589   0.932  1.00  0.00     0.049 A 
ATOM     27  C   UNL     1      -5.585   1.716  -1.912  1.00  0.00     0.074 A 
ATOM     28  C   UNL     1      -7.059   7.322   0.770  1.00  0.00     0.029 A 
ATOM     29  N   UNL     1      -6.029   5.445   0.156  1.00  0.00    -0.354 N 
ATOM     30  N   UNL     1      -5.786   2.870  -1.319  1.00  0.00    -0.248 NA
ATOM     31  C   UNL     1      -6.726   1.250  -2.713  1.00  0.00     0.031 C 
ATOM     32  C   UNL     1      -7.915   6.591  -0.059  1.00  0.00     0.029 A 
ATOM     33  C   UNL     1      -7.262   5.437  -0.468  1.00  0.00     0.049 A 
ATOM     34  H   UNL     1      -5.343   4.745   0.063  1.00  0.00     0.167 HD
ATOM     35  C   UNL     1      -7.053   3.286  -1.706  1.00  0.00     0.074 A 
ATOM     36  C   UNL     1      -7.569   2.266  -2.596  1.00  0.00     0.031 C 
ATOM     37  C   UNL     1      -7.733   4.409  -1.362  1.00  0.00     0.037 A 
BRANCH  24  38
ATOM     38  C   UNL     1      -4.728   8.141   2.563  1.00  0.00     0.064 A 
ATOM     39  C   UNL     1      -3.832   9.187   2.279  1.00  0.00     0.173 A 
ATOM     40  C   UNL     1      -5.560   8.276   3.682  1.00  0.00     0.173 A 
ATOM     41  F   UNL     1      -2.990   9.091   1.239  1.00  0.00    -0.203 F 
ATOM     42  C   UNL     1      -3.743  10.299   3.111  1.00  0.00     0.198 A 
ATOM     43  C   UNL     1      -5.492   9.406   4.492  1.00  0.00     0.198 A 
ATOM     44  F   UNL     1      -6.425   7.301   4.003  1.00  0.00    -0.203 F 
ATOM     45  F   UNL     1      -2.826  11.245   2.866  1.00  0.00    -0.200 F 
ATOM     46  C   UNL     1      -4.576  10.409   4.214  1.00  0.00     0.200 A 
ATOM     47  F   UNL     1      -6.301   9.514   5.555  1.00  0.00    -0.200 F 
ATOM     48  F   UNL     1      -4.484  11.476   5.019  1.00  0.00    -0.200 F 
ENDBRANCH  24  38
BRANCH  25  49
ATOM     49  C   UNL     1      -4.307  -0.423  -2.692  1.00  0.00     0.064 A 
ATOM     50  C   UNL     1      -4.380  -0.416  -4.093  1.00  0.00     0.173 A 
ATOM     51  C   UNL     1      -4.232  -1.673  -2.058  1.00  0.00     0.173 A 
ATOM     52  F   UNL     1      -4.468   0.748  -4.753  1.00  0.00    -0.203 F 
ATOM     53  C   UNL     1      -4.416  -1.605  -4.824  1.00  0.00     0.198 A 
ATOM     54  C   UNL     1      -4.240  -2.860  -2.790  1.00  0.00     0.198 A 
ATOM     55  F   UNL     1      -4.150  -1.743  -0.721  1.00  0.00    -0.203 F 
ATOM     56  F   UNL     1      -4.543  -1.565  -6.157  1.00  0.00    -0.200 F 
ATOM     57  C   UNL     1      -4.344  -2.826  -4.172  1.00  0.00     0.200 A 
ATOM     58  F   UNL     1      -4.154  -4.037  -2.156  1.00  0.00    -0.200 F 
ATOM     59  F   UNL     1      -4.383  -3.967  -4.873  1.00  0.00    -0.200 F 
ENDBRANCH  25  49
BRANCH  37  60
ATOM     60  C   UNL     1      -9.084   4.615  -1.981  1.00  0.00     0.064 A 
ATOM     61  C   UNL     1     -10.189   3.832  -1.620  1.00  0.00     0.173 A 
ATOM     62  C   UNL     1      -9.286   5.660  -2.896  1.00  0.00     0.173 A 
ATOM     63  F   UNL     1     -10.044   2.816  -0.756  1.00  0.00    -0.203 F 
ATOM     64  C   UNL     1     -11.443   4.072  -2.173  1.00  0.00     0.198 A 
ATOM     65  C   UNL     1     -10.549   5.920  -3.417  1.00  0.00     0.198 A 
ATOM     66  F   UNL     1      -8.262   6.445  -3.264  1.00  0.00    -0.203 F 
ATOM     67  F   UNL     1     -12.476   3.281  -1.851  1.00  0.00    -0.200 F 
ATOM     68  C   UNL     1     -11.624   5.121  -3.062  1.00  0.00     0.200 A 
ATOM     69  F   UNL     1     -10.725   6.949  -4.258  1.00  0.00    -0.200 F 
ATOM     70  F   UNL     1     -12.836   5.360  -3.579  1.00  0.00    -0.200 F 
ENDBRANCH  37  60
ENDBRANCH  11  12
ENDBRANCH   4   6
ENDBRANCH   3   4
ENDBRANCH   2   3
ENDBRANCH   1   2
BRANCH   1  71
ATOM     71  O   UNL     1       4.001   1.649   0.584  1.00  0.00    -0.461 OA
BRANCH  71  72
ATOM     72  C   UNL     1       4.045   0.609   1.475  1.00  0.00     0.329 C 
ATOM     73  O   UNL     1       5.055  -0.007   1.783  1.00  0.00    -0.250 OA
BRANCH  72  74
ATOM     74  C   UNL     1       2.616   0.244   1.926  1.00  0.00     0.197 C 
ATOM     75  C   UNL     1       1.970  -0.661   0.885  1.00  0.00     0.070 C 
ATOM     76  N   UNL     1       2.533  -0.539   3.171  1.00  0.00    -0.325 N 
ATOM     77  C   UNL     1       2.362  -2.058   1.347  1.00  0.00     0.136 C 
ATOM     78  C   UNL     1       2.341  -1.933   2.864  1.00  0.00     0.152 C 
BRANCH  76  79
ATOM     79  C   UNL     1       2.328   0.015   4.421  1.00  0.00     0.233 C 
ATOM     80  O   UNL     1       2.055   1.205   4.551  1.00  0.00    -0.274 OA
BRANCH  79  81
ATOM     81  C   UNL     1       2.466  -0.870   5.657  1.00  0.00     0.169 C 
BRANCH  81  82
ATOM     82  S   UNL     1       0.928  -1.041   6.639  1.00  0.00    -0.148 SA
BRANCH  82  83
ATOM     83  C   UNL     1      -0.073  -2.183   5.638  1.00  0.00     0.063 C 
ATOM     84  C   UNL     1       0.594  -3.529   5.321  1.00  0.00     0.031 C 
ATOM     85  C   UNL     1      -1.361  -2.591   6.370  1.00  0.00     0.151 C 
ATOM     86  C   UNL     1      -0.462  -4.272   4.509  1.00  0.00     0.138 C 
ATOM     87  S   UNL     1      -1.969  -3.990   5.421  1.00  0.00     0.151 S 
ATOM     88  O   UNL     1      -2.981  -3.534   4.498  1.00  0.00    -0.229 OA
ATOM     89  O   UNL     1      -2.172  -5.117   6.311  1.00  0.00    -0.229 OA
ENDBRANCH  82  83
ENDBRANCH  81  82
ENDBRANCH  79  81
ENDBRANCH  76  79
BRANCH  77  90
ATOM     90  O   UNL     1       1.422  -3.020   0.893  1.00  0.00    -0.391 OA
ATOM     91  H   UNL     1       0.536  -2.779   1.205  1.00  0.00     0.211 HD
ENDBRANCH  77  90
ENDBRANCH  72  74
ENDBRANCH  71  72
ENDBRANCH   1  71
TORSDOF 16
