REMARK SMILES CCc1ccsc1C(=O)N(CC(=O)OCCOC(=O)c1ccc(-c2c3nc(c(-c4c(F)c(F)c(F)c(F)c4F)c4ccc([nH]4)c(-c4c(F)c(F)c(F)c(F)c4F)c4nc(c(-c5c(F)c(F)c(F)c(F)c5F)c5ccc2[nH]5)C=C4)C=C3)cc1)c1ccccc1N
REMARK SMILES IDX 15 1 14 2 12 3 13 4 11 5 10 6 8 7 9 8 7 9 3 10 4 11 5 12
REMARK SMILES IDX 6 13 2 14 1 15 83 16 84 17 88 18 85 19 87 20 86 21 89 22
REMARK SMILES IDX 16 25 17 26 18 27 19 28 20 29 21 30 82 31 22 32 81 33 23 34
REMARK SMILES IDX 24 35 25 36 75 37 26 38 80 39 74 40 76 41 27 42 79 43 73 44
REMARK SMILES IDX 72 45 28 47 60 48 40 49 59 50 41 51 44 52 58 53 77 54 42 55
REMARK SMILES IDX 43 56 57 58 78 59 45 60 29 61 30 62 38 63 31 64 32 65 36 66
REMARK SMILES IDX 39 67 33 68 34 69 37 70 35 71 61 72 62 73 70 74 63 75 64 76
REMARK SMILES IDX 68 77 71 78 65 79 66 80 69 81 67 82 46 83 47 84 55 85 48 86
REMARK SMILES IDX 49 87 53 88 56 89 50 90 51 91 54 92 52 93
REMARK H PARENT 89 23 89 24 76 46 44 57
REMARK Flexibility Score: inf
ROOT
ATOM      1  C   UNL     1       1.374   0.244   5.753  1.00  0.00     0.274 C 
ENDROOT
BRANCH   1   2
ATOM      2  O   UNL     1       0.662   1.182   4.919  1.00  0.00    -0.461 OA
BRANCH   2   3
ATOM      3  C   UNL     1       0.373   0.705   3.689  1.00  0.00     0.326 C 
ATOM      4  O   UNL     1       0.673  -0.428   3.307  1.00  0.00    -0.250 OA
BRANCH   3   5
ATOM      5  C   UNL     1      -0.129   1.717   2.672  1.00  0.00     0.248 C 
BRANCH   5   6
ATOM      6  N   UNL     1      -0.874   2.965   2.595  1.00  0.00    -0.294 N 
BRANCH   6   7
ATOM      7  C   UNL     1      -0.606   3.879   1.532  1.00  0.00     0.269 C 
ATOM      8  O   UNL     1      -1.248   4.934   1.461  1.00  0.00    -0.268 OA
BRANCH   7   9
ATOM      9  C   UNL     1       0.479   3.646   0.534  1.00  0.00     0.096 A 
ATOM     10  C   UNL     1       0.942   2.568  -0.246  1.00  0.00    -0.025 A 
ATOM     11  C   UNL     1       2.050   2.982  -1.077  1.00  0.00     0.016 A 
ATOM     12  C   UNL     1       2.360   4.311  -0.969  1.00  0.00     0.066 A 
ATOM     13  S   UNL     1       1.378   5.093   0.164  1.00  0.00    -0.138 S 
BRANCH  10  14
ATOM     14  C   UNL     1       0.425   1.141  -0.280  1.00  0.00     0.034 C 
ATOM     15  C   UNL     1       0.858   0.278  -1.458  1.00  0.00     0.009 C 
ENDBRANCH  10  14
ENDBRANCH   7   9
ENDBRANCH   6   7
BRANCH   6  16
ATOM     16  C   UNL     1      -2.095   3.070   3.380  1.00  0.00     0.068 A 
ATOM     17  C   UNL     1      -2.050   2.734   4.742  1.00  0.00     0.028 A 
ATOM     18  C   UNL     1      -3.357   3.469   2.852  1.00  0.00     0.056 A 
ATOM     19  C   UNL     1      -3.196   2.722   5.545  1.00  0.00     0.002 A 
ATOM     20  C   UNL     1      -4.507   3.401   3.665  1.00  0.00     0.028 A 
ATOM     21  C   UNL     1      -4.429   3.039   5.004  1.00  0.00     0.002 A 
BRANCH  18  22
ATOM     22  N   UNL     1      -3.574   3.768   1.496  1.00  0.00    -0.397 N 
ATOM     23  H   UNL     1      -2.811   3.829   0.877  1.00  0.00     0.156 HD
ATOM     24  H   UNL     1      -4.489   3.917   1.165  1.00  0.00     0.156 HD
ENDBRANCH  18  22
ENDBRANCH   6  16
ENDBRANCH   5   6
ENDBRANCH   3   5
ENDBRANCH   2   3
ENDBRANCH   1   2
BRANCH   1  25
ATOM     25  C   UNL     1       0.445  -0.690   6.530  1.00  0.00     0.275 C 
BRANCH  25  26
ATOM     26  O   UNL     1      -0.472  -1.385   5.664  1.00  0.00    -0.458 OA
BRANCH  26  27
ATOM     27  C   UNL     1      -1.760  -0.991   5.755  1.00  0.00     0.338 C 
ATOM     28  O   UNL     1      -2.219  -0.145   6.510  1.00  0.00    -0.246 OA
BRANCH  27  29
ATOM     29  C   UNL     1      -2.614  -1.784   4.861  1.00  0.00     0.060 A 
ATOM     30  C   UNL     1      -2.638  -1.561   3.480  1.00  0.00     0.016 A 
ATOM     31  C   UNL     1      -3.514  -2.674   5.449  1.00  0.00     0.016 A 
ATOM     32  C   UNL     1      -3.591  -2.211   2.687  1.00  0.00     0.010 A 
ATOM     33  C   UNL     1      -4.443  -3.343   4.654  1.00  0.00     0.010 A 
ATOM     34  C   UNL     1      -4.506  -3.100   3.272  1.00  0.00    -0.014 A 
BRANCH  34  35
ATOM     35  C   UNL     1      -5.566  -3.777   2.485  1.00  0.00     0.031 A 
ATOM     36  C   UNL     1      -7.003  -3.388   2.681  1.00  0.00     0.074 A 
ATOM     37  C   UNL     1      -5.251  -4.803   1.675  1.00  0.00     0.049 A 
ATOM     38  N   UNL     1      -8.091  -4.013   2.311  1.00  0.00    -0.248 NA
ATOM     39  C   UNL     1      -7.245  -2.129   3.402  1.00  0.00     0.031 C 
ATOM     40  C   UNL     1      -3.895  -5.252   1.369  1.00  0.00     0.029 A 
ATOM     41  N   UNL     1      -6.060  -5.676   0.990  1.00  0.00    -0.354 N 
ATOM     42  C   UNL     1      -9.147  -3.243   2.779  1.00  0.00     0.074 A 
ATOM     43  C   UNL     1      -8.569  -2.104   3.462  1.00  0.00     0.031 C 
ATOM     44  C   UNL     1      -3.962  -6.332   0.575  1.00  0.00     0.029 A 
ATOM     45  C   UNL     1      -5.365  -6.683   0.366  1.00  0.00     0.049 A 
ATOM     46  H   UNL     1      -7.040  -5.589   0.951  1.00  0.00     0.167 HD
ATOM     47  C   UNL     1     -10.477  -3.472   2.653  1.00  0.00     0.037 A 
ATOM     48  C   UNL     1      -5.809  -7.789  -0.259  1.00  0.00     0.037 A 
ATOM     49  C   UNL     1     -11.046  -4.601   1.962  1.00  0.00     0.049 A 
ATOM     50  C   UNL     1      -7.287  -8.056  -0.335  1.00  0.00     0.074 A 
ATOM     51  C   UNL     1     -12.380  -4.918   1.773  1.00  0.00     0.029 A 
ATOM     52  N   UNL     1     -10.307  -5.597   1.341  1.00  0.00    -0.354 N 
ATOM     53  N   UNL     1      -8.280  -7.344   0.138  1.00  0.00    -0.248 NA
ATOM     54  C   UNL     1      -7.703  -9.288  -1.019  1.00  0.00     0.031 C 
ATOM     55  C   UNL     1     -12.448  -6.123   1.064  1.00  0.00     0.029 A 
ATOM     56  C   UNL     1     -11.157  -6.537   0.779  1.00  0.00     0.049 A 
ATOM     57  H   UNL     1      -9.324  -5.632   1.305  1.00  0.00     0.167 HD
ATOM     58  C   UNL     1      -9.438  -8.027  -0.208  1.00  0.00     0.074 A 
ATOM     59  C   UNL     1      -9.024  -9.209  -0.936  1.00  0.00     0.031 C 
ATOM     60  C   UNL     1     -10.727  -7.703   0.053  1.00  0.00     0.037 A 
BRANCH  47  61
ATOM     61  C   UNL     1     -11.413  -2.496   3.301  1.00  0.00     0.064 A 
ATOM     62  C   UNL     1     -11.642  -1.224   2.758  1.00  0.00     0.173 A 
ATOM     63  C   UNL     1     -12.121  -2.855   4.458  1.00  0.00     0.173 A 
ATOM     64  F   UNL     1     -10.980  -0.830   1.660  1.00  0.00    -0.203 F 
ATOM     65  C   UNL     1     -12.532  -0.339   3.361  1.00  0.00     0.198 A 
ATOM     66  C   UNL     1     -13.027  -1.976   5.046  1.00  0.00     0.198 A 
ATOM     67  F   UNL     1     -11.941  -4.063   5.014  1.00  0.00    -0.203 F 
ATOM     68  F   UNL     1     -12.710   0.886   2.846  1.00  0.00    -0.200 F 
ATOM     69  C   UNL     1     -13.227  -0.717   4.500  1.00  0.00     0.200 A 
ATOM     70  F   UNL     1     -13.705  -2.347   6.141  1.00  0.00    -0.200 F 
ATOM     71  F   UNL     1     -14.088   0.134   5.076  1.00  0.00    -0.200 F 
ENDBRANCH  47  61
BRANCH  48  72
ATOM     72  C   UNL     1      -4.832  -8.740  -0.842  1.00  0.00     0.064 A 
ATOM     73  C   UNL     1      -4.666  -8.835  -2.230  1.00  0.00     0.173 A 
ATOM     74  C   UNL     1      -4.028  -9.552  -0.028  1.00  0.00     0.173 A 
ATOM     75  F   UNL     1      -5.432  -8.097  -3.046  1.00  0.00    -0.203 F 
ATOM     76  C   UNL     1      -3.733  -9.709  -2.783  1.00  0.00     0.198 A 
ATOM     77  C   UNL     1      -3.079 -10.408  -0.581  1.00  0.00     0.198 A 
ATOM     78  F   UNL     1      -4.152  -9.497   1.306  1.00  0.00    -0.203 F 
ATOM     79  F   UNL     1      -3.612  -9.801  -4.114  1.00  0.00    -0.200 F 
ATOM     80  C   UNL     1      -2.934 -10.487  -1.958  1.00  0.00     0.200 A 
ATOM     81  F   UNL     1      -2.302 -11.150   0.218  1.00  0.00    -0.200 F 
ATOM     82  F   UNL     1      -2.027 -11.318  -2.491  1.00  0.00    -0.200 F 
ENDBRANCH  48  72
BRANCH  60  83
ATOM     83  C   UNL     1     -11.784  -8.620  -0.485  1.00  0.00     0.064 A 
ATOM     84  C   UNL     1     -12.063  -9.852   0.121  1.00  0.00     0.173 A 
ATOM     85  C   UNL     1     -12.544  -8.245  -1.603  1.00  0.00     0.173 A 
ATOM     86  F   UNL     1     -11.350 -10.260   1.181  1.00  0.00    -0.203 F 
ATOM     87  C   UNL     1     -13.056 -10.687  -0.386  1.00  0.00     0.198 A 
ATOM     88  C   UNL     1     -13.549  -9.073  -2.094  1.00  0.00     0.198 A 
ATOM     89  F   UNL     1     -12.315  -7.073  -2.214  1.00  0.00    -0.203 F 
ATOM     90  F   UNL     1     -13.282 -11.879   0.185  1.00  0.00    -0.200 F 
ATOM     91  C   UNL     1     -13.801 -10.295  -1.488  1.00  0.00     0.200 A 
ATOM     92  F   UNL     1     -14.272  -8.690  -3.155  1.00  0.00    -0.200 F 
ATOM     93  F   UNL     1     -14.756 -11.100  -1.973  1.00  0.00    -0.200 F 
ENDBRANCH  60  83
ENDBRANCH  34  35
ENDBRANCH  27  29
ENDBRANCH  26  27
ENDBRANCH  25  26
ENDBRANCH   1  25
TORSDOF 17
