REMARK SMILES COc1ccc(CSc2ncccc2C(=O)OCCOC(=O)c2ccc(-c3c4nc(c(-c5c(F)c(F)c(F)c(F)c5F)c5ccc([nH]5)c(-c5c(F)c(F)c(F)c(F)c5F)c5nc(c(-c6c(F)c(F)c(F)c(F)c6F)c6ccc3[nH]6)C=C5)C=C4)cc2)cc1
REMARK SMILES IDX 18 1 17 2 15 3 16 4 14 5 9 6 10 7 11 8 13 9 12 10 8 11 7 12
REMARK SMILES IDX 6 13 3 14 4 15 87 16 5 17 86 18 2 19 1 20 19 21 20 22 21 23
REMARK SMILES IDX 22 24 23 25 24 26 85 27 25 28 84 29 26 30 27 31 28 32 78 33
REMARK SMILES IDX 29 34 83 35 77 36 79 37 30 38 82 39 76 40 75 41 31 43 63 44
REMARK SMILES IDX 43 45 62 46 44 47 47 48 61 49 80 50 45 51 46 52 60 54 81 55
REMARK SMILES IDX 48 56 32 57 33 58 41 59 34 60 35 61 39 62 42 63 36 64 37 65
REMARK SMILES IDX 40 66 38 67 64 68 65 69 73 70 66 71 67 72 71 73 74 74 68 75
REMARK SMILES IDX 69 76 72 77 70 78 49 79 50 80 58 81 51 82 52 83 56 84 59 85
REMARK SMILES IDX 53 86 54 87 57 88 55 89
REMARK H PARENT 79 42 47 53
REMARK Flexibility Score: inf
ROOT
ATOM      1  C   UNL     1      -0.227   2.264  -4.298  1.00  0.00     0.275 C 
ENDROOT
BRANCH   1   2
ATOM      2  O   UNL     1       1.208   2.347  -4.501  1.00  0.00    -0.458 OA
BRANCH   2   3
ATOM      3  C   UNL     1       1.642   3.451  -5.159  1.00  0.00     0.341 C 
ATOM      4  O   UNL     1       0.932   4.285  -5.707  1.00  0.00    -0.246 OA
BRANCH   3   5
ATOM      5  C   UNL     1       3.125   3.532  -5.183  1.00  0.00     0.092 A 
ATOM      6  C   UNL     1       3.738   4.628  -4.540  1.00  0.00     0.111 A 
ATOM      7  N   UNL     1       4.480   5.528  -5.254  1.00  0.00    -0.249 NA
ATOM      8  C   UNL     1       4.875   5.161  -6.496  1.00  0.00     0.112 A 
ATOM      9  C   UNL     1       3.611   3.150  -6.443  1.00  0.00     0.020 A 
ATOM     10  C   UNL     1       4.538   3.957  -7.092  1.00  0.00     0.021 A 
BRANCH   6  11
ATOM     11  S   UNL     1       4.756   4.187  -3.045  1.00  0.00    -0.101 SA
BRANCH  11  12
ATOM     12  C   UNL     1       3.893   4.915  -1.579  1.00  0.00     0.112 C 
BRANCH  12  13
ATOM     13  C   UNL     1       3.227   3.856  -0.706  1.00  0.00    -0.037 A 
ATOM     14  C   UNL     1       1.692   1.756   0.389  1.00  0.00     0.118 A 
ATOM     15  C   UNL     1       1.235   3.072   0.449  1.00  0.00     0.047 A 
ATOM     16  C   UNL     1       2.983   1.518  -0.068  1.00  0.00     0.047 A 
ATOM     17  C   UNL     1       2.018   4.120  -0.048  1.00  0.00     0.008 A 
ATOM     18  C   UNL     1       3.747   2.561  -0.598  1.00  0.00     0.008 A 
BRANCH  14  19
ATOM     19  O   UNL     1       0.775   0.811   0.752  1.00  0.00    -0.497 OA
ATOM     20  C   UNL     1       1.218  -0.536   0.854  1.00  0.00     0.278 C 
ENDBRANCH  14  19
ENDBRANCH  12  13
ENDBRANCH  11  12
ENDBRANCH   6  11
ENDBRANCH   3   5
ENDBRANCH   2   3
ENDBRANCH   1   2
BRANCH   1  21
ATOM     21  C   UNL     1      -0.681   2.812  -2.927  1.00  0.00     0.275 C 
BRANCH  21  22
ATOM     22  O   UNL     1      -0.845   4.257  -2.881  1.00  0.00    -0.458 OA
BRANCH  22  23
ATOM     23  C   UNL     1       0.342   4.880  -2.780  1.00  0.00     0.338 C 
ATOM     24  O   UNL     1       1.421   4.313  -2.786  1.00  0.00    -0.246 OA
BRANCH  23  25
ATOM     25  C   UNL     1       0.395   6.333  -2.621  1.00  0.00     0.060 A 
ATOM     26  C   UNL     1       1.208   7.006  -3.544  1.00  0.00     0.016 A 
ATOM     27  C   UNL     1       0.136   6.895  -1.368  1.00  0.00     0.016 A 
ATOM     28  C   UNL     1       1.818   8.207  -3.194  1.00  0.00     0.010 A 
ATOM     29  C   UNL     1       0.725   8.120  -1.028  1.00  0.00     0.010 A 
ATOM     30  C   UNL     1       1.573   8.781  -1.936  1.00  0.00    -0.014 A 
BRANCH  30  31
ATOM     31  C   UNL     1       1.926  10.205  -1.731  1.00  0.00     0.031 A 
ATOM     32  C   UNL     1       3.105  10.685  -0.941  1.00  0.00     0.074 A 
ATOM     33  C   UNL     1       1.089  11.078  -2.320  1.00  0.00     0.049 A 
ATOM     34  N   UNL     1       3.480  11.920  -0.706  1.00  0.00    -0.248 NA
ATOM     35  C   UNL     1       3.972   9.670  -0.328  1.00  0.00     0.031 C 
ATOM     36  C   UNL     1      -0.086  10.692  -3.109  1.00  0.00     0.029 A 
ATOM     37  N   UNL     1       1.082  12.444  -2.356  1.00  0.00    -0.354 N 
ATOM     38  C   UNL     1       4.620  11.839   0.083  1.00  0.00     0.074 A 
ATOM     39  C   UNL     1       4.870  10.426   0.300  1.00  0.00     0.031 C 
ATOM     40  C   UNL     1      -0.692  11.792  -3.561  1.00  0.00     0.029 A 
ATOM     41  C   UNL     1       0.016  12.956  -3.050  1.00  0.00     0.049 A 
ATOM     42  H   UNL     1       1.770  13.002  -1.928  1.00  0.00     0.167 HD
ATOM     43  C   UNL     1       5.372  12.858   0.575  1.00  0.00     0.037 A 
ATOM     44  C   UNL     1      -0.373  14.227  -3.239  1.00  0.00     0.037 A 
ATOM     45  C   UNL     1       5.093  14.260   0.339  1.00  0.00     0.049 A 
ATOM     46  C   UNL     1       0.467  15.323  -2.670  1.00  0.00     0.074 A 
ATOM     47  C   UNL     1       5.821  15.367   0.745  1.00  0.00     0.029 A 
ATOM     48  N   UNL     1       3.991  14.748  -0.352  1.00  0.00    -0.354 N 
ATOM     49  N   UNL     1       1.565  15.233  -1.961  1.00  0.00    -0.248 NA
ATOM     50  C   UNL     1       0.021  16.694  -2.933  1.00  0.00     0.031 C 
ATOM     51  C   UNL     1       5.129  16.520   0.356  1.00  0.00     0.029 A 
ATOM     52  C   UNL     1       4.002  16.137  -0.351  1.00  0.00     0.049 A 
ATOM     53  H   UNL     1       3.302  14.190  -0.781  1.00  0.00     0.167 HD
ATOM     54  C   UNL     1       1.952  16.536  -1.698  1.00  0.00     0.074 A 
ATOM     55  C   UNL     1       0.982  17.396  -2.350  1.00  0.00     0.031 C 
ATOM     56  C   UNL     1       3.014  16.979  -0.981  1.00  0.00     0.037 A 
BRANCH  43  57
ATOM     57  C   UNL     1       6.564  12.527   1.437  1.00  0.00     0.064 A 
ATOM     58  C   UNL     1       7.730  11.956   0.906  1.00  0.00     0.173 A 
ATOM     59  C   UNL     1       6.582  12.896   2.793  1.00  0.00     0.173 A 
ATOM     60  F   UNL     1       7.776  11.591  -0.384  1.00  0.00    -0.203 F 
ATOM     61  C   UNL     1       8.860  11.754   1.700  1.00  0.00     0.198 A 
ATOM     62  C   UNL     1       7.722  12.717   3.577  1.00  0.00     0.198 A 
ATOM     63  F   UNL     1       5.505  13.464   3.354  1.00  0.00    -0.203 F 
ATOM     64  F   UNL     1       9.954  11.186   1.173  1.00  0.00    -0.200 F 
ATOM     65  C   UNL     1       8.858  12.143   3.031  1.00  0.00     0.200 A 
ATOM     66  F   UNL     1       7.724  13.117   4.856  1.00  0.00    -0.200 F 
ATOM     67  F   UNL     1       9.952  11.968   3.785  1.00  0.00    -0.200 F 
ENDBRANCH  43  57
BRANCH  44  68
ATOM     68  C   UNL     1      -1.611  14.485  -4.012  1.00  0.00     0.064 A 
ATOM     69  C   UNL     1      -1.554  15.024  -5.301  1.00  0.00     0.173 A 
ATOM     70  C   UNL     1      -2.866  14.101  -3.513  1.00  0.00     0.173 A 
ATOM     71  F   UNL     1      -0.377  15.409  -5.815  1.00  0.00    -0.203 F 
ATOM     72  C   UNL     1      -2.708  15.173  -6.065  1.00  0.00     0.198 A 
ATOM     73  C   UNL     1      -4.013  14.218  -4.290  1.00  0.00     0.198 A 
ATOM     74  F   UNL     1      -2.966  13.557  -2.290  1.00  0.00    -0.203 F 
ATOM     75  F   UNL     1      -2.632  15.712  -7.289  1.00  0.00    -0.200 F 
ATOM     76  C   UNL     1      -3.934  14.758  -5.564  1.00  0.00     0.200 A 
ATOM     77  F   UNL     1      -5.189  13.787  -3.814  1.00  0.00    -0.200 F 
ATOM     78  F   UNL     1      -5.040  14.875  -6.312  1.00  0.00    -0.200 F 
ENDBRANCH  44  68
BRANCH  56  79
ATOM     79  C   UNL     1       3.171  18.467  -0.877  1.00  0.00     0.064 A 
ATOM     80  C   UNL     1       2.290  19.246  -0.112  1.00  0.00     0.173 A 
ATOM     81  C   UNL     1       4.204  19.124  -1.562  1.00  0.00     0.173 A 
ATOM     82  F   UNL     1       1.272  18.667   0.543  1.00  0.00    -0.203 F 
ATOM     83  C   UNL     1       2.413  20.632  -0.068  1.00  0.00     0.198 A 
ATOM     84  C   UNL     1       4.344  20.507  -1.490  1.00  0.00     0.198 A 
ATOM     85  F   UNL     1       5.074  18.426  -2.307  1.00  0.00    -0.203 F 
ATOM     86  F   UNL     1       1.520  21.361   0.615  1.00  0.00    -0.200 F 
ATOM     87  C   UNL     1       3.443  21.260  -0.753  1.00  0.00     0.200 A 
ATOM     88  F   UNL     1       5.344  21.113  -2.145  1.00  0.00    -0.200 F 
ATOM     89  F   UNL     1       3.557  22.595  -0.714  1.00  0.00    -0.200 F 
ENDBRANCH  56  79
ENDBRANCH  30  31
ENDBRANCH  23  25
ENDBRANCH  22  23
ENDBRANCH  21  22
ENDBRANCH   1  21
TORSDOF 15
