REMARK SMILES NC(=O)C[C@@H](CC(=O)OCCOC(=O)c1ccc(-c2c3nc(c(-c4c(F)c(F)c(F)c(F)c4F)c4ccc([nH]4)c(-c4c(F)c(F)c(F)c(F)c4F)c4nc(c(-c5c(F)c(F)c(F)c(F)c5F)c5ccc2[nH]5)C=C4)C=C3)cc1)c1cccc(Br)c1
REMARK SMILES IDX 10 1 9 2 7 3 8 4 6 5 5 6 4 7 2 8 1 9 3 12 78 13 79 14 84 15
REMARK SMILES IDX 80 16 82 17 81 18 83 19 11 20 12 21 13 22 14 23 15 24 16 25
REMARK SMILES IDX 77 26 17 27 76 28 18 29 19 30 20 31 70 32 21 33 75 34 69 35
REMARK SMILES IDX 71 36 22 37 74 38 68 39 67 40 23 42 55 43 35 44 54 45 36 46
REMARK SMILES IDX 39 47 53 48 72 49 37 50 38 51 52 53 73 54 40 55 24 56 25 57
REMARK SMILES IDX 33 58 26 59 27 60 31 61 34 62 28 63 29 64 32 65 30 66 56 67
REMARK SMILES IDX 57 68 65 69 58 70 59 71 63 72 66 73 60 74 61 75 64 76 62 77
REMARK SMILES IDX 41 78 42 79 50 80 43 81 44 82 48 83 51 84 45 85 46 86 49 87
REMARK SMILES IDX 47 88
REMARK H PARENT 1 10 1 11 71 41 39 52
REMARK Flexibility Score: inf
ROOT
ATOM      1  C   UNL     1       4.057   2.163   1.318  1.00  0.00     0.274 C 
ENDROOT
BRANCH   1   2
ATOM      2  O   UNL     1       3.175   1.092   1.716  1.00  0.00    -0.462 OA
BRANCH   2   3
ATOM      3  C   UNL     1       3.352  -0.090   1.079  1.00  0.00     0.306 C 
ATOM      4  O   UNL     1       4.162  -0.276   0.176  1.00  0.00    -0.252 OA
BRANCH   3   5
ATOM      5  C   UNL     1       2.434  -1.198   1.544  1.00  0.00     0.131 C 
BRANCH   5   6
ATOM      6  C   UNL     1       1.455  -0.958   2.711  1.00  0.00     0.039 C 
BRANCH   6   7
ATOM      7  C   UNL     1       0.458   0.196   2.482  1.00  0.00     0.108 C 
BRANCH   7   8
ATOM      8  C   UNL     1      -0.315  -0.009   1.200  1.00  0.00     0.218 C 
ATOM      9  N   UNL     1       0.165   0.660   0.115  1.00  0.00    -0.370 N 
ATOM     10  H   UNL     1      -0.287   0.575  -0.756  1.00  0.00     0.159 HD
ATOM     11  H   UNL     1       0.964   1.229   0.201  1.00  0.00     0.159 HD
ATOM     12  O   UNL     1      -1.268  -0.772   1.104  1.00  0.00    -0.275 OA
ENDBRANCH   7   8
ENDBRANCH   6   7
BRANCH   6  13
ATOM     13  C   UNL     1       2.159  -0.964   4.067  1.00  0.00    -0.043 A 
ATOM     14  C   UNL     1       2.692  -2.177   4.549  1.00  0.00     0.004 A 
ATOM     15  C   UNL     1       2.267   0.171   4.883  1.00  0.00     0.019 A 
ATOM     16  C   UNL     1       3.312  -2.254   5.798  1.00  0.00     0.001 A 
ATOM     17  C   UNL     1       2.876   0.085   6.140  1.00  0.00     0.018 A 
ATOM     18  C   UNL     1       3.402  -1.120   6.599  1.00  0.00     0.016 A 
ATOM     19  Br  UNL     1       2.969   1.621   7.241  1.00  0.00    -0.051 Br
ENDBRANCH   6  13
ENDBRANCH   5   6
ENDBRANCH   3   5
ENDBRANCH   2   3
ENDBRANCH   1   2
BRANCH   1  20
ATOM     20  C   UNL     1       5.221   2.292   2.295  1.00  0.00     0.275 C 
BRANCH  20  21
ATOM     21  O   UNL     1       5.898   1.029   2.388  1.00  0.00    -0.458 OA
BRANCH  21  22
ATOM     22  C   UNL     1       6.056   0.547   3.642  1.00  0.00     0.338 C 
ATOM     23  O   UNL     1       5.782   1.102   4.690  1.00  0.00    -0.246 OA
BRANCH  22  24
ATOM     24  C   UNL     1       6.701  -0.774   3.578  1.00  0.00     0.060 A 
ATOM     25  C   UNL     1       6.168  -1.806   2.802  1.00  0.00     0.016 A 
ATOM     26  C   UNL     1       7.832  -0.992   4.364  1.00  0.00     0.016 A 
ATOM     27  C   UNL     1       6.744  -3.075   2.842  1.00  0.00     0.010 A 
ATOM     28  C   UNL     1       8.445  -2.244   4.354  1.00  0.00     0.010 A 
ATOM     29  C   UNL     1       7.896  -3.299   3.607  1.00  0.00    -0.014 A 
BRANCH  29  30
ATOM     30  C   UNL     1       8.550  -4.630   3.635  1.00  0.00     0.031 A 
ATOM     31  C   UNL     1       8.585  -5.422   4.909  1.00  0.00     0.074 A 
ATOM     32  C   UNL     1       9.156  -5.095   2.528  1.00  0.00     0.049 A 
ATOM     33  N   UNL     1       9.258  -6.509   5.191  1.00  0.00    -0.248 NA
ATOM     34  C   UNL     1       7.763  -4.918   6.020  1.00  0.00     0.031 C 
ATOM     35  C   UNL     1       9.168  -4.424   1.228  1.00  0.00     0.029 A 
ATOM     36  N   UNL     1       9.895  -6.232   2.325  1.00  0.00    -0.354 N 
ATOM     37  C   UNL     1       8.970  -6.800   6.517  1.00  0.00     0.074 A 
ATOM     38  C   UNL     1       8.064  -5.773   6.989  1.00  0.00     0.031 C 
ATOM     39  C   UNL     1       9.876  -5.163   0.360  1.00  0.00     0.029 A 
ATOM     40  C   UNL     1      10.419  -6.323   1.059  1.00  0.00     0.049 A 
ATOM     41  H   UNL     1      10.036  -6.916   3.018  1.00  0.00     0.167 HD
ATOM     42  C   UNL     1       9.425  -7.830   7.269  1.00  0.00     0.037 A 
ATOM     43  C   UNL     1      11.275  -7.218   0.533  1.00  0.00     0.037 A 
ATOM     44  C   UNL     1      10.309  -8.858   6.784  1.00  0.00     0.049 A 
ATOM     45  C   UNL     1      11.791  -8.333   1.397  1.00  0.00     0.074 A 
ATOM     46  C   UNL     1      10.812  -9.957   7.459  1.00  0.00     0.029 A 
ATOM     47  N   UNL     1      10.821  -8.913   5.495  1.00  0.00    -0.354 N 
ATOM     48  N   UNL     1      11.527  -8.591   2.654  1.00  0.00    -0.248 NA
ATOM     49  C   UNL     1      12.732  -9.272   0.772  1.00  0.00     0.031 C 
ATOM     50  C   UNL     1      11.654 -10.658   6.589  1.00  0.00     0.029 A 
ATOM     51  C   UNL     1      11.646 -10.018   5.360  1.00  0.00     0.049 A 
ATOM     52  H   UNL     1      10.627  -8.262   4.782  1.00  0.00     0.167 HD
ATOM     53  C   UNL     1      12.258  -9.727   2.971  1.00  0.00     0.074 A 
ATOM     54  C   UNL     1      12.964 -10.118   1.767  1.00  0.00     0.031 C 
ATOM     55  C   UNL     1      12.341 -10.385   4.153  1.00  0.00     0.037 A 
BRANCH  42  56
ATOM     56  C   UNL     1       8.999  -7.882   8.706  1.00  0.00     0.064 A 
ATOM     57  C   UNL     1       7.698  -8.250   9.077  1.00  0.00     0.173 A 
ATOM     58  C   UNL     1       9.917  -7.594   9.727  1.00  0.00     0.173 A 
ATOM     59  F   UNL     1       6.779  -8.520   8.138  1.00  0.00    -0.203 F 
ATOM     60  C   UNL     1       7.326  -8.310  10.419  1.00  0.00     0.198 A 
ATOM     61  C   UNL     1       9.549  -7.677  11.067  1.00  0.00     0.198 A 
ATOM     62  F   UNL     1      11.175  -7.239   9.425  1.00  0.00    -0.203 F 
ATOM     63  F   UNL     1       6.067  -8.627  10.750  1.00  0.00    -0.200 F 
ATOM     64  C   UNL     1       8.253  -8.029  11.412  1.00  0.00     0.200 A 
ATOM     65  F   UNL     1      10.448  -7.413  12.026  1.00  0.00    -0.200 F 
ATOM     66  F   UNL     1       7.895  -8.092  12.702  1.00  0.00    -0.200 F 
ENDBRANCH  42  56
BRANCH  43  67
ATOM     67  C   UNL     1      11.708  -7.073  -0.879  1.00  0.00     0.064 A 
ATOM     68  C   UNL     1      11.256  -7.961  -1.864  1.00  0.00     0.173 A 
ATOM     69  C   UNL     1      12.554  -6.027  -1.278  1.00  0.00     0.173 A 
ATOM     70  F   UNL     1      10.465  -8.989  -1.525  1.00  0.00    -0.203 F 
ATOM     71  C   UNL     1      11.636  -7.810  -3.196  1.00  0.00     0.198 A 
ATOM     72  C   UNL     1      12.912  -5.862  -2.613  1.00  0.00     0.198 A 
ATOM     73  F   UNL     1      13.012  -5.151  -0.372  1.00  0.00    -0.203 F 
ATOM     74  F   UNL     1      11.212  -8.688  -4.114  1.00  0.00    -0.200 F 
ATOM     75  C   UNL     1      12.456  -6.755  -3.571  1.00  0.00     0.200 A 
ATOM     76  F   UNL     1      13.693  -4.835  -2.973  1.00  0.00    -0.200 F 
ATOM     77  F   UNL     1      12.809  -6.603  -4.854  1.00  0.00    -0.200 F 
ENDBRANCH  43  67
BRANCH  55  78
ATOM     78  C   UNL     1      13.209 -11.605   4.190  1.00  0.00     0.064 A 
ATOM     79  C   UNL     1      14.608 -11.507   4.217  1.00  0.00     0.173 A 
ATOM     80  C   UNL     1      12.636 -12.885   4.224  1.00  0.00     0.173 A 
ATOM     81  F   UNL     1      15.200 -10.304   4.168  1.00  0.00    -0.203 F 
ATOM     82  C   UNL     1      15.402 -12.649   4.255  1.00  0.00     0.198 A 
ATOM     83  C   UNL     1      13.433 -14.023   4.284  1.00  0.00     0.198 A 
ATOM     84  F   UNL     1      11.302 -13.028   4.203  1.00  0.00    -0.203 F 
ATOM     85  F   UNL     1      16.738 -12.535   4.237  1.00  0.00    -0.200 F 
ATOM     86  C   UNL     1      14.815 -13.905   4.294  1.00  0.00     0.200 A 
ATOM     87  F   UNL     1      12.864 -15.236   4.329  1.00  0.00    -0.200 F 
ATOM     88  F   UNL     1      15.582 -15.003   4.331  1.00  0.00    -0.200 F 
ENDBRANCH  55  78
ENDBRANCH  29  30
ENDBRANCH  22  24
ENDBRANCH  21  22
ENDBRANCH  20  21
ENDBRANCH   1  20
TORSDOF 15
