REMARK SMILES C[C@H]1CCc2sc3ncn4nc(/C=C\C(=O)OCCOC(=O)c5ccc(-c6c7nc(c(-c8c(F)c(F)c(F)c(F)c8F)c8ccc([nH]8)c(-c8c(F)c(F)c(F)c(F)c8F)c8nc(c(-c9c(F)c(F)c(F)c(F)c9F)c9ccc6[nH]9)C=C8)C=C7)cc5)nc4c3c2C1
REMARK SMILES IDX 19 1 18 2 17 3 15 4 16 5 14 6 13 7 12 8 1 9 2 10 3 11 90 12
REMARK SMILES IDX 4 13 89 14 5 15 88 16 6 17 7 18 87 19 8 20 10 21 86 22 9 23
REMARK SMILES IDX 11 24 20 25 21 26 22 27 23 28 24 29 85 30 25 31 84 32 26 33
REMARK SMILES IDX 27 34 28 35 78 36 29 37 83 38 77 39 79 40 30 41 82 42 76 43
REMARK SMILES IDX 75 44 31 46 63 47 43 48 62 49 44 50 47 51 61 52 80 53 45 54
REMARK SMILES IDX 46 55 60 57 81 58 48 59 32 60 33 61 41 62 34 63 35 64 39 65
REMARK SMILES IDX 42 66 36 67 37 68 40 69 38 70 64 71 65 72 73 73 66 74 67 75
REMARK SMILES IDX 71 76 74 77 68 78 69 79 72 80 70 81 49 82 50 83 58 84 51 85
REMARK SMILES IDX 52 86 56 87 59 88 53 89 54 90 57 91 55 92
REMARK H PARENT 79 45 47 56
REMARK Flexibility Score: inf
ROOT
ATOM      1  C   UNL     1       1.475  -1.772   2.210  1.00  0.00     0.275 C 
ENDROOT
BRANCH   1   2
ATOM      2  C   UNL     1       0.039  -1.850   2.647  1.00  0.00     0.275 C 
BRANCH   2   3
ATOM      3  O   UNL     1       0.006  -2.389   3.954  1.00  0.00    -0.459 OA
BRANCH   3   4
ATOM      4  C   UNL     1      -1.026  -3.192   4.243  1.00  0.00     0.331 C 
ATOM      5  O   UNL     1      -1.732  -3.796   3.476  1.00  0.00    -0.247 OA
BRANCH   4   6
ATOM      6  C   UNL     1      -1.130  -3.260   5.707  1.00  0.00     0.097 C 
ATOM      7  C   UNL     1      -1.041  -2.220   6.553  1.00  0.00     0.058 C 
BRANCH   7   8
ATOM      8  C   UNL     1      -0.850  -0.810   6.336  1.00  0.00     0.175 A 
ATOM      9  C   UNL     1      -1.026   2.139   0.007  1.00  0.00     0.008 C 
ATOM     10  C   UNL     1       0.353   1.867   0.611  1.00  0.00    -0.009 C 
ATOM     11  C   UNL     1       1.300   3.074   0.539  1.00  0.00     0.009 C 
ATOM     12  C   UNL     1       0.209   1.357   2.051  1.00  0.00     0.041 C 
ATOM     13  C   UNL     1       0.908   4.219   1.491  1.00  0.00     0.047 C 
ATOM     14  C   UNL     1       0.185   2.386   3.119  1.00  0.00    -0.020 A 
ATOM     15  C   UNL     1       0.534   3.693   2.847  1.00  0.00     0.011 A 
ATOM     16  C   UNL     1      -0.094   2.207   4.506  1.00  0.00     0.060 A 
ATOM     17  S   UNL     1       0.477   4.686   4.231  1.00  0.00    -0.120 S 
ATOM     18  C   UNL     1       0.033   3.377   5.245  1.00  0.00     0.129 A 
ATOM     19  C   UNL     1      -0.454   1.024   5.340  1.00  0.00     0.168 A 
ATOM     20  N   UNL     1      -0.136   3.546   6.600  1.00  0.00    -0.225 NA
ATOM     21  N   UNL     1      -0.566   1.224   6.683  1.00  0.00    -0.201 N 
ATOM     22  N   UNL     1      -0.690  -0.240   5.080  1.00  0.00    -0.207 NA
ATOM     23  C   UNL     1      -0.420   2.469   7.287  1.00  0.00     0.227 A 
ATOM     24  N   UNL     1      -0.814   0.080   7.345  1.00  0.00    -0.145 NA
ENDBRANCH   7   8
ENDBRANCH   4   6
ENDBRANCH   3   4
ENDBRANCH   2   3
ENDBRANCH   1   2
BRANCH   1  25
ATOM     25  O   UNL     1       1.854  -3.095   1.908  1.00  0.00    -0.458 OA
BRANCH  25  26
ATOM     26  C   UNL     1       2.273  -3.827   2.956  1.00  0.00     0.338 C 
ATOM     27  O   UNL     1       2.275  -3.565   4.146  1.00  0.00    -0.246 OA
BRANCH  26  28
ATOM     28  C   UNL     1       3.008  -4.934   2.377  1.00  0.00     0.060 A 
ATOM     29  C   UNL     1       3.534  -5.854   3.279  1.00  0.00     0.016 A 
ATOM     30  C   UNL     1       3.433  -4.823   1.039  1.00  0.00     0.016 A 
ATOM     31  C   UNL     1       4.646  -6.540   2.882  1.00  0.00     0.010 A 
ATOM     32  C   UNL     1       4.550  -5.494   0.652  1.00  0.00     0.010 A 
ATOM     33  C   UNL     1       5.169  -6.286   1.604  1.00  0.00    -0.014 A 
BRANCH  33  34
ATOM     34  C   UNL     1       6.304  -7.056   1.194  1.00  0.00     0.031 A 
ATOM     35  C   UNL     1       5.939  -8.475   1.049  1.00  0.00     0.074 A 
ATOM     36  C   UNL     1       7.496  -6.505   0.932  1.00  0.00     0.049 A 
ATOM     37  N   UNL     1       6.264  -9.427   1.854  1.00  0.00    -0.248 NA
ATOM     38  C   UNL     1       4.897  -8.832   0.071  1.00  0.00     0.031 C 
ATOM     39  C   UNL     1       7.868  -5.098   0.799  1.00  0.00     0.029 A 
ATOM     40  N   UNL     1       8.646  -7.159   0.661  1.00  0.00    -0.354 N 
ATOM     41  C   UNL     1       5.620 -10.554   1.371  1.00  0.00     0.074 A 
ATOM     42  C   UNL     1       4.654 -10.099   0.407  1.00  0.00     0.031 C 
ATOM     43  C   UNL     1       9.107  -5.020   0.257  1.00  0.00     0.029 A 
ATOM     44  C   UNL     1       9.654  -6.363   0.150  1.00  0.00     0.049 A 
ATOM     45  H   UNL     1       8.757  -8.125   0.814  1.00  0.00     0.167 HD
ATOM     46  C   UNL     1       6.138 -11.783   1.623  1.00  0.00     0.037 A 
ATOM     47  C   UNL     1      10.806  -6.833  -0.385  1.00  0.00     0.037 A 
ATOM     48  C   UNL     1       7.045 -11.737   2.744  1.00  0.00     0.049 A 
ATOM     49  C   UNL     1      11.000  -8.212   0.152  1.00  0.00     0.074 A 
ATOM     50  C   UNL     1       6.899 -11.430   4.083  1.00  0.00     0.029 A 
ATOM     51  N   UNL     1       8.387 -11.616   2.470  1.00  0.00    -0.354 N 
ATOM     52  N   UNL     1      11.247  -8.464   1.409  1.00  0.00    -0.248 NA
ATOM     53  C   UNL     1      10.434  -9.322  -0.604  1.00  0.00     0.031 C 
ATOM     54  C   UNL     1       8.077 -10.707   4.431  1.00  0.00     0.029 A 
ATOM     55  C   UNL     1       8.910 -10.667   3.311  1.00  0.00     0.049 A 
ATOM     56  H   UNL     1       8.886 -12.122   1.788  1.00  0.00     0.167 HD
ATOM     57  C   UNL     1      10.491  -9.591   1.704  1.00  0.00     0.074 A 
ATOM     58  C   UNL     1      10.075 -10.121   0.407  1.00  0.00     0.031 C 
ATOM     59  C   UNL     1      10.029  -9.816   2.969  1.00  0.00     0.037 A 
BRANCH  46  60
ATOM     60  C   UNL     1       6.146 -12.892   0.609  1.00  0.00     0.064 A 
ATOM     61  C   UNL     1       6.622 -14.157   0.998  1.00  0.00     0.173 A 
ATOM     62  C   UNL     1       6.004 -12.692  -0.783  1.00  0.00     0.173 A 
ATOM     63  F   UNL     1       6.812 -14.446   2.294  1.00  0.00    -0.203 F 
ATOM     64  C   UNL     1       7.005 -15.116   0.059  1.00  0.00     0.198 A 
ATOM     65  C   UNL     1       6.336 -13.670  -1.713  1.00  0.00     0.198 A 
ATOM     66  F   UNL     1       5.655 -11.513  -1.310  1.00  0.00    -0.203 F 
ATOM     67  F   UNL     1       7.577 -16.255   0.471  1.00  0.00    -0.200 F 
ATOM     68  C   UNL     1       6.869 -14.869  -1.295  1.00  0.00     0.200 A 
ATOM     69  F   UNL     1       6.217 -13.401  -3.021  1.00  0.00    -0.200 F 
ATOM     70  F   UNL     1       7.296 -15.761  -2.197  1.00  0.00    -0.200 F 
ENDBRANCH  46  60
BRANCH  47  71
ATOM     71  C   UNL     1      11.510  -6.336  -1.589  1.00  0.00     0.064 A 
ATOM     72  C   UNL     1      12.809  -6.775  -1.889  1.00  0.00     0.173 A 
ATOM     73  C   UNL     1      10.827  -5.652  -2.615  1.00  0.00     0.173 A 
ATOM     74  F   UNL     1      13.509  -7.472  -0.983  1.00  0.00    -0.203 F 
ATOM     75  C   UNL     1      13.379  -6.573  -3.151  1.00  0.00     0.198 A 
ATOM     76  C   UNL     1      11.399  -5.446  -3.871  1.00  0.00     0.198 A 
ATOM     77  F   UNL     1       9.557  -5.256  -2.455  1.00  0.00    -0.203 F 
ATOM     78  F   UNL     1      14.595  -7.067  -3.421  1.00  0.00    -0.200 F 
ATOM     79  C   UNL     1      12.669  -5.919  -4.144  1.00  0.00     0.200 A 
ATOM     80  F   UNL     1      10.687  -4.844  -4.835  1.00  0.00    -0.200 F 
ATOM     81  F   UNL     1      13.188  -5.784  -5.372  1.00  0.00    -0.200 F 
ENDBRANCH  47  71
BRANCH  59  82
ATOM     82  C   UNL     1      10.570  -8.954   4.077  1.00  0.00     0.064 A 
ATOM     83  C   UNL     1      10.337  -7.571   4.186  1.00  0.00     0.173 A 
ATOM     84  C   UNL     1      11.193  -9.589   5.159  1.00  0.00     0.173 A 
ATOM     85  F   UNL     1       9.668  -6.907   3.236  1.00  0.00    -0.203 F 
ATOM     86  C   UNL     1      10.732  -6.859   5.318  1.00  0.00     0.198 A 
ATOM     87  C   UNL     1      11.553  -8.883   6.303  1.00  0.00     0.198 A 
ATOM     88  F   UNL     1      11.394 -10.916   5.132  1.00  0.00    -0.203 F 
ATOM     89  F   UNL     1      10.497  -5.540   5.401  1.00  0.00    -0.200 F 
ATOM     90  C   UNL     1      11.329  -7.518   6.380  1.00  0.00     0.200 A 
ATOM     91  F   UNL     1      12.084  -9.534   7.347  1.00  0.00    -0.200 F 
ATOM     92  F   UNL     1      11.659  -6.845   7.492  1.00  0.00    -0.200 F 
ENDBRANCH  59  82
ENDBRANCH  33  34
ENDBRANCH  26  28
ENDBRANCH  25  26
ENDBRANCH   1  25
TORSDOF 12
