REMARK SMILES C[C@H]1SC[C@H](C(=O)OCCOC(=O)c2ccc(-c3c4nc(c(-c5c(F)c(F)c(F)c(F)c5F)c5ccc([nH]5)c(-c5c(F)c(F)c(F)c(F)c5F)c5nc(c(-c6c(F)c(F)c(F)c(F)c6F)c6ccc3[nH]6)C=C5)C=C4)cc2)N1C(=O)[C@@H]1CSc2ccccc21
REMARK SMILES IDX 9 1 8 2 6 3 7 4 5 5 1 6 2 7 3 8 77 9 4 10 78 11 79 12 80 13
REMARK SMILES IDX 81 14 88 15 82 16 83 17 87 18 84 19 86 20 85 21 10 22 11 23
REMARK SMILES IDX 12 24 13 25 14 26 15 27 76 28 16 29 75 30 17 31 18 32 19 33
REMARK SMILES IDX 69 34 20 35 74 36 68 37 70 38 21 39 73 40 67 41 66 42 22 44
REMARK SMILES IDX 54 45 34 46 53 47 35 48 38 49 52 50 71 51 36 52 37 53 51 55
REMARK SMILES IDX 72 56 39 57 23 58 24 59 32 60 25 61 26 62 30 63 33 64 27 65
REMARK SMILES IDX 28 66 31 67 29 68 55 69 56 70 64 71 57 72 58 73 62 74 65 75
REMARK SMILES IDX 59 76 60 77 63 78 61 79 40 80 41 81 49 82 42 83 43 84 47 85
REMARK SMILES IDX 50 86 44 87 45 88 48 89 46 90
REMARK H PARENT 70 43 38 54
REMARK Flexibility Score: inf
ROOT
ATOM      1  C   UNL     1       7.735  -5.157   1.608  1.00  0.00     0.274 C 
ENDROOT
BRANCH   1   2
ATOM      2  O   UNL     1       7.264  -3.828   1.903  1.00  0.00    -0.461 OA
BRANCH   2   3
ATOM      3  C   UNL     1       6.154  -3.752   2.684  1.00  0.00     0.329 C 
ATOM      4  O   UNL     1       5.523  -4.723   3.093  1.00  0.00    -0.250 OA
BRANCH   3   5
ATOM      5  C   UNL     1       5.786  -2.307   3.065  1.00  0.00     0.206 C 
ATOM      6  C   UNL     1       3.923  -0.102   4.246  1.00  0.00     0.043 C 
ATOM      7  C   UNL     1       4.671  -0.175   2.912  1.00  0.00     0.141 C 
ATOM      8  S   UNL     1       6.399   0.304   3.218  1.00  0.00    -0.135 SA
ATOM      9  N   UNL     1       4.742  -1.529   2.374  1.00  0.00    -0.316 N 
ATOM     10  C   UNL     1       7.013  -1.405   3.230  1.00  0.00     0.109 C 
BRANCH   9  11
ATOM     11  C   UNL     1       3.911  -2.106   1.434  1.00  0.00     0.232 C 
ATOM     12  O   UNL     1       4.064  -3.286   1.102  1.00  0.00    -0.274 OA
BRANCH  11  13
ATOM     13  C   UNL     1       2.825  -1.312   0.702  1.00  0.00     0.120 C 
ATOM     14  C   UNL     1       3.418  -0.239  -0.224  1.00  0.00     0.093 C 
ATOM     15  C   UNL     1       1.773  -0.696   1.583  1.00  0.00    -0.021 A 
ATOM     16  S   UNL     1       2.567   1.344   0.095  1.00  0.00    -0.125 SA
ATOM     17  C   UNL     1       1.581   0.673   1.397  1.00  0.00     0.011 A 
ATOM     18  C   UNL     1       1.004  -1.392   2.516  1.00  0.00     0.006 A 
ATOM     19  C   UNL     1       0.700   1.384   2.197  1.00  0.00     0.015 A 
ATOM     20  C   UNL     1       0.104  -0.685   3.315  1.00  0.00     0.000 A 
ATOM     21  C   UNL     1      -0.033   0.700   3.170  1.00  0.00     0.001 A 
ENDBRANCH  11  13
ENDBRANCH   9  11
ENDBRANCH   3   5
ENDBRANCH   2   3
ENDBRANCH   1   2
BRANCH   1  22
ATOM     22  C   UNL     1       8.816  -5.610   2.598  1.00  0.00     0.275 C 
BRANCH  22  23
ATOM     23  O   UNL     1       8.287  -5.872   3.915  1.00  0.00    -0.458 OA
BRANCH  23  24
ATOM     24  C   UNL     1       8.304  -4.817   4.762  1.00  0.00     0.338 C 
ATOM     25  O   UNL     1       8.738  -3.701   4.533  1.00  0.00    -0.246 OA
BRANCH  24  26
ATOM     26  C   UNL     1       7.565  -5.129   5.997  1.00  0.00     0.060 A 
ATOM     27  C   UNL     1       6.473  -4.319   6.321  1.00  0.00     0.016 A 
ATOM     28  C   UNL     1       7.983  -6.128   6.875  1.00  0.00     0.016 A 
ATOM     29  C   UNL     1       5.786  -4.498   7.515  1.00  0.00     0.010 A 
ATOM     30  C   UNL     1       7.298  -6.305   8.084  1.00  0.00     0.010 A 
ATOM     31  C   UNL     1       6.202  -5.486   8.412  1.00  0.00    -0.014 A 
BRANCH  31  32
ATOM     32  C   UNL     1       5.517  -5.608   9.719  1.00  0.00     0.031 A 
ATOM     33  C   UNL     1       6.176  -5.071  10.955  1.00  0.00     0.074 A 
ATOM     34  C   UNL     1       4.290  -6.154   9.785  1.00  0.00     0.049 A 
ATOM     35  N   UNL     1       5.788  -5.151  12.202  1.00  0.00    -0.248 NA
ATOM     36  C   UNL     1       7.439  -4.343  10.760  1.00  0.00     0.031 C 
ATOM     37  C   UNL     1       3.522  -6.643   8.640  1.00  0.00     0.029 A 
ATOM     38  N   UNL     1       3.475  -6.389  10.863  1.00  0.00    -0.354 N 
ATOM     39  C   UNL     1       6.768  -4.505  12.943  1.00  0.00     0.074 A 
ATOM     40  C   UNL     1       7.773  -4.045  12.008  1.00  0.00     0.031 C 
ATOM     41  C   UNL     1       2.348  -7.125   9.078  1.00  0.00     0.029 A 
ATOM     42  C   UNL     1       2.303  -7.023  10.534  1.00  0.00     0.049 A 
ATOM     43  H   UNL     1       3.708  -6.128  11.783  1.00  0.00     0.167 HD
ATOM     44  C   UNL     1       6.821  -4.317  14.283  1.00  0.00     0.037 A 
ATOM     45  C   UNL     1       1.321  -7.497  11.324  1.00  0.00     0.037 A 
ATOM     46  C   UNL     1       5.810  -4.764  15.204  1.00  0.00     0.049 A 
ATOM     47  C   UNL     1       1.438  -7.336  12.816  1.00  0.00     0.074 A 
ATOM     48  C   UNL     1       5.771  -4.624  16.581  1.00  0.00     0.029 A 
ATOM     49  N   UNL     1       4.654  -5.440  14.839  1.00  0.00    -0.354 N 
ATOM     50  N   UNL     1       2.379  -6.748  13.513  1.00  0.00    -0.248 NA
ATOM     51  C   UNL     1       0.358  -7.912  13.630  1.00  0.00     0.031 C 
ATOM     52  C   UNL     1       4.611  -5.248  17.052  1.00  0.00     0.029 A 
ATOM     53  C   UNL     1       3.905  -5.740  15.965  1.00  0.00     0.049 A 
ATOM     54  H   UNL     1       4.404  -5.673  13.916  1.00  0.00     0.167 HD
ATOM     55  C   UNL     1       2.000  -6.867  14.843  1.00  0.00     0.074 A 
ATOM     56  C   UNL     1       0.734  -7.570  14.855  1.00  0.00     0.031 C 
ATOM     57  C   UNL     1       2.644  -6.435  15.955  1.00  0.00     0.037 A 
BRANCH  44  58
ATOM     58  C   UNL     1       8.032  -3.628  14.836  1.00  0.00     0.064 A 
ATOM     59  C   UNL     1       8.231  -2.249  14.686  1.00  0.00     0.173 A 
ATOM     60  C   UNL     1       8.993  -4.358  15.552  1.00  0.00     0.173 A 
ATOM     61  F   UNL     1       7.349  -1.511  13.995  1.00  0.00    -0.203 F 
ATOM     62  C   UNL     1       9.360  -1.628  15.215  1.00  0.00     0.198 A 
ATOM     63  C   UNL     1      10.108  -3.730  16.100  1.00  0.00     0.198 A 
ATOM     64  F   UNL     1       8.847  -5.681  15.725  1.00  0.00    -0.203 F 
ATOM     65  F   UNL     1       9.551  -0.315  15.025  1.00  0.00    -0.200 F 
ATOM     66  C   UNL     1      10.293  -2.367  15.926  1.00  0.00     0.200 A 
ATOM     67  F   UNL     1      11.004  -4.445  16.794  1.00  0.00    -0.200 F 
ATOM     68  F   UNL     1      11.377  -1.767  16.438  1.00  0.00    -0.200 F 
ENDBRANCH  44  58
BRANCH  45  69
ATOM     69  C   UNL     1       0.159  -8.198  10.721  1.00  0.00     0.064 A 
ATOM     70  C   UNL     1      -1.119  -7.626  10.740  1.00  0.00     0.173 A 
ATOM     71  C   UNL     1       0.304  -9.457  10.119  1.00  0.00     0.173 A 
ATOM     72  F   UNL     1      -1.312  -6.436  11.328  1.00  0.00    -0.203 F 
ATOM     73  C   UNL     1      -2.213  -8.292  10.189  1.00  0.00     0.198 A 
ATOM     74  C   UNL     1      -0.784 -10.110   9.545  1.00  0.00     0.198 A 
ATOM     75  F   UNL     1       1.507 -10.049  10.080  1.00  0.00    -0.203 F 
ATOM     76  F   UNL     1      -3.433  -7.742  10.256  1.00  0.00    -0.200 F 
ATOM     77  C   UNL     1      -2.043  -9.530   9.586  1.00  0.00     0.200 A 
ATOM     78  F   UNL     1      -0.614 -11.301   8.956  1.00  0.00    -0.200 F 
ATOM     79  F   UNL     1      -3.094 -10.168   9.054  1.00  0.00    -0.200 F 
ENDBRANCH  45  69
BRANCH  57  80
ATOM     80  C   UNL     1       1.974  -6.685  17.273  1.00  0.00     0.064 A 
ATOM     81  C   UNL     1       1.941  -7.964  17.848  1.00  0.00     0.173 A 
ATOM     82  C   UNL     1       1.394  -5.626  17.986  1.00  0.00     0.173 A 
ATOM     83  F   UNL     1       2.469  -9.011  17.196  1.00  0.00    -0.203 F 
ATOM     84  C   UNL     1       1.331  -8.177  19.081  1.00  0.00     0.198 A 
ATOM     85  C   UNL     1       0.807  -5.838  19.230  1.00  0.00     0.198 A 
ATOM     86  F   UNL     1       1.405  -4.383  17.480  1.00  0.00    -0.203 F 
ATOM     87  F   UNL     1       1.273  -9.414  19.593  1.00  0.00    -0.200 F 
ATOM     88  C   UNL     1       0.770  -7.113  19.773  1.00  0.00     0.200 A 
ATOM     89  F   UNL     1       0.274  -4.808  19.903  1.00  0.00    -0.200 F 
ATOM     90  F   UNL     1       0.188  -7.320  20.963  1.00  0.00    -0.200 F 
ENDBRANCH  57  80
ENDBRANCH  31  32
ENDBRANCH  24  26
ENDBRANCH  23  24
ENDBRANCH  22  23
ENDBRANCH   1  22
TORSDOF 13
