REMARK SMILES CC1(C)S[C@H]2[C@H](NC(=O)[C@H](NN3CCNC3=O)c3ccccc3)C(=O)N2[C@H]1C(=O)OCCOC(=O)c1ccc(-c2c3nc(c(-c4c(F)c(F)c(F)c(F)c4F)c4ccc([nH]4)c(-c4c(F)c(F)c(F)c(F)c4F)c4nc(c(-c5c(F)c(F)c(F)c(F)c5F)c5ccc2[nH]5)C=C4)C=C3)cc1
REMARK SMILES IDX 31 1 30 2 28 3 29 4 27 5 1 6 2 7 3 8 4 9 5 10 26 11 6 12
REMARK SMILES IDX 24 13 25 14 7 15 8 16 9 18 10 19 18 20 19 21 23 22 20 23
REMARK SMILES IDX 22 24 21 25 11 26 12 28 13 29 16 30 14 31 15 32 17 33 32 35
REMARK SMILES IDX 33 36 34 37 35 38 36 39 37 40 98 41 38 42 97 43 39 44 40 45
REMARK SMILES IDX 41 46 91 47 42 48 96 49 90 50 92 51 43 52 95 53 89 54 88 55
REMARK SMILES IDX 44 57 76 58 56 59 75 60 57 61 60 62 74 63 93 64 58 65 59 66
REMARK SMILES IDX 73 68 94 69 61 70 45 71 46 72 54 73 47 74 48 75 52 76 55 77
REMARK SMILES IDX 49 78 50 79 53 80 51 81 77 82 78 83 86 84 79 85 80 86 84 87
REMARK SMILES IDX 87 88 81 89 82 90 85 91 83 92 62 93 63 94 71 95 64 96 65 97
REMARK SMILES IDX 69 98 72 99 66 100 67 101 70 102 68 103
REMARK H PARENT 7 17 11 27 15 34 92 56 60 67
REMARK Flexibility Score: inf
ROOT
ATOM      1  C   UNL     1      -7.152   1.064  -0.185  1.00  0.00     0.274 C 
ENDROOT
BRANCH   1   2
ATOM      2  O   UNL     1      -7.053   2.152   0.757  1.00  0.00    -0.460 OA
BRANCH   2   3
ATOM      3  C   UNL     1      -6.665   3.344   0.242  1.00  0.00     0.330 C 
ATOM      4  O   UNL     1      -6.431   3.542  -0.948  1.00  0.00    -0.250 OA
BRANCH   3   5
ATOM      5  C   UNL     1      -6.431   4.437   1.300  1.00  0.00     0.212 C 
ATOM      6  C   UNL     1      -8.489   5.089   2.719  1.00  0.00     0.026 C 
ATOM      7  C   UNL     1      -7.098   4.446   2.693  1.00  0.00     0.044 C 
ATOM      8  C   UNL     1      -7.159   3.099   3.415  1.00  0.00     0.026 C 
ATOM      9  S   UNL     1      -6.012   5.632   3.671  1.00  0.00    -0.125 SA
ATOM     10  C   UNL     1      -4.523   5.390   2.604  1.00  0.00     0.176 C 
ATOM     11  N   UNL     1      -5.000   4.583   1.481  1.00  0.00    -0.311 N 
ATOM     12  C   UNL     1      -3.700   4.178   3.065  1.00  0.00     0.205 C 
ATOM     13  C   UNL     1      -4.228   3.500   1.780  1.00  0.00     0.250 C 
ATOM     14  O   UNL     1      -4.162   2.413   1.278  1.00  0.00    -0.272 OA
BRANCH  12  15
ATOM     15  N   UNL     1      -2.230   4.192   3.097  1.00  0.00    -0.340 N 
ATOM     16  C   UNL     1      -1.542   3.086   3.564  1.00  0.00     0.244 C 
ATOM     17  H   UNL     1      -1.736   4.985   2.787  1.00  0.00     0.164 HD
ATOM     18  O   UNL     1      -0.550   2.742   2.918  1.00  0.00    -0.273 OA
BRANCH  16  19
ATOM     19  C   UNL     1      -2.065   2.376   4.860  1.00  0.00     0.194 C 
BRANCH  19  20
ATOM     20  C   UNL     1      -2.730   1.033   4.562  1.00  0.00    -0.020 A 
ATOM     21  C   UNL     1      -4.124   0.980   4.364  1.00  0.00     0.006 A 
ATOM     22  C   UNL     1      -2.026  -0.159   4.386  1.00  0.00     0.006 A 
ATOM     23  C   UNL     1      -4.770  -0.177   3.922  1.00  0.00     0.000 A 
ATOM     24  C   UNL     1      -2.678  -1.343   4.017  1.00  0.00     0.000 A 
ATOM     25  C   UNL     1      -4.044  -1.346   3.754  1.00  0.00     0.000 A 
ENDBRANCH  19  20
BRANCH  19  26
ATOM     26  N   UNL     1      -1.083   2.434   5.987  1.00  0.00    -0.213 NA
ATOM     27  H   UNL     1      -1.367   1.750   6.688  1.00  0.00     0.149 HD
BRANCH  26  28
ATOM     28  N   UNL     1       0.240   2.170   5.639  1.00  0.00    -0.257 N 
ATOM     29  C   UNL     1       1.186   3.145   5.147  1.00  0.00     0.163 C 
ATOM     30  C   UNL     1       0.898   0.949   5.878  1.00  0.00     0.331 C 
ATOM     31  C   UNL     1       2.203   2.246   4.455  1.00  0.00     0.141 C 
ATOM     32  N   UNL     1       2.121   1.022   5.216  1.00  0.00    -0.335 N 
ATOM     33  O   UNL     1       0.482  -0.012   6.501  1.00  0.00    -0.247 OA
ATOM     34  H   UNL     1       2.828   0.339   5.261  1.00  0.00     0.165 HD
ENDBRANCH  26  28
ENDBRANCH  19  26
ENDBRANCH  16  19
ENDBRANCH  12  15
ENDBRANCH   3   5
ENDBRANCH   2   3
ENDBRANCH   1   2
BRANCH   1  35
ATOM     35  C   UNL     1      -8.612   0.818  -0.563  1.00  0.00     0.275 C 
BRANCH  35  36
ATOM     36  O   UNL     1      -9.197   1.998  -1.150  1.00  0.00    -0.458 OA
BRANCH  36  37
ATOM     37  C   UNL     1      -9.828   2.803  -0.267  1.00  0.00     0.338 C 
ATOM     38  O   UNL     1     -10.007   2.601   0.923  1.00  0.00    -0.246 OA
BRANCH  37  39
ATOM     39  C   UNL     1     -10.199   4.077  -0.896  1.00  0.00     0.060 A 
ATOM     40  C   UNL     1      -9.308   5.148  -0.842  1.00  0.00     0.016 A 
ATOM     41  C   UNL     1     -11.489   4.268  -1.375  1.00  0.00     0.016 A 
ATOM     42  C   UNL     1      -9.703   6.426  -1.202  1.00  0.00     0.010 A 
ATOM     43  C   UNL     1     -11.867   5.539  -1.816  1.00  0.00     0.010 A 
ATOM     44  C   UNL     1     -10.982   6.630  -1.717  1.00  0.00    -0.014 A 
BRANCH  44  45
ATOM     45  C   UNL     1     -11.392   7.987  -2.142  1.00  0.00     0.031 A 
ATOM     46  C   UNL     1     -12.522   8.677  -1.440  1.00  0.00     0.074 A 
ATOM     47  C   UNL     1     -10.744   8.588  -3.159  1.00  0.00     0.049 A 
ATOM     48  N   UNL     1     -13.162   9.767  -1.776  1.00  0.00    -0.248 NA
ATOM     49  C   UNL     1     -13.005   8.053  -0.197  1.00  0.00     0.031 C 
ATOM     50  C   UNL     1      -9.588   8.039  -3.872  1.00  0.00     0.029 A 
ATOM     51  N   UNL     1     -10.976   9.789  -3.780  1.00  0.00    -0.354 N 
ATOM     52  C   UNL     1     -14.143   9.941  -0.809  1.00  0.00     0.074 A 
ATOM     53  C   UNL     1     -14.027   8.836   0.119  1.00  0.00     0.031 C 
ATOM     54  C   UNL     1      -9.216   8.896  -4.835  1.00  0.00     0.029 A 
ATOM     55  C   UNL     1     -10.154  10.010  -4.859  1.00  0.00     0.049 A 
ATOM     56  H   UNL     1     -11.662  10.428  -3.482  1.00  0.00     0.167 HD
ATOM     57  C   UNL     1     -15.053  10.938  -0.713  1.00  0.00     0.037 A 
ATOM     58  C   UNL     1     -10.193  10.973  -5.798  1.00  0.00     0.037 A 
ATOM     59  C   UNL     1     -15.140  12.038  -1.639  1.00  0.00     0.049 A 
ATOM     60  C   UNL     1     -11.267  12.022  -5.711  1.00  0.00     0.074 A 
ATOM     61  C   UNL     1     -16.030  13.097  -1.640  1.00  0.00     0.029 A 
ATOM     62  N   UNL     1     -14.299  12.220  -2.728  1.00  0.00    -0.354 N 
ATOM     63  N   UNL     1     -12.211  12.168  -4.813  1.00  0.00    -0.248 NA
ATOM     64  C   UNL     1     -11.286  13.037  -6.771  1.00  0.00     0.031 C 
ATOM     65  C   UNL     1     -15.758  13.895  -2.755  1.00  0.00     0.029 A 
ATOM     66  C   UNL     1     -14.660  13.368  -3.416  1.00  0.00     0.049 A 
ATOM     67  H   UNL     1     -13.557  11.623  -2.975  1.00  0.00     0.167 HD
ATOM     68  C   UNL     1     -12.914  13.307  -5.180  1.00  0.00     0.074 A 
ATOM     69  C   UNL     1     -12.275  13.823  -6.373  1.00  0.00     0.031 C 
ATOM     70  C   UNL     1     -13.994  13.873  -4.589  1.00  0.00     0.037 A 
BRANCH  57  71
ATOM     71  C   UNL     1     -16.042  10.879   0.414  1.00  0.00     0.064 A 
ATOM     72  C   UNL     1     -15.662  11.114   1.744  1.00  0.00     0.173 A 
ATOM     73  C   UNL     1     -17.401  10.642   0.153  1.00  0.00     0.173 A 
ATOM     74  F   UNL     1     -14.374  11.329   2.050  1.00  0.00    -0.203 F 
ATOM     75  C   UNL     1     -16.603  11.098   2.771  1.00  0.00     0.198 A 
ATOM     76  C   UNL     1     -18.342  10.657   1.178  1.00  0.00     0.198 A 
ATOM     77  F   UNL     1     -17.818  10.413  -1.101  1.00  0.00    -0.203 F 
ATOM     78  F   UNL     1     -16.211  11.288   4.038  1.00  0.00    -0.200 F 
ATOM     79  C   UNL     1     -17.942  10.881   2.486  1.00  0.00     0.200 A 
ATOM     80  F   UNL     1     -19.638  10.460   0.898  1.00  0.00    -0.200 F 
ATOM     81  F   UNL     1     -18.848  10.883   3.474  1.00  0.00    -0.200 F 
ENDBRANCH  57  71
BRANCH  58  82
ATOM     82  C   UNL     1      -9.223  10.963  -6.926  1.00  0.00     0.064 A 
ATOM     83  C   UNL     1      -8.287  11.993  -7.085  1.00  0.00     0.173 A 
ATOM     84  C   UNL     1      -9.236   9.942  -7.891  1.00  0.00     0.173 A 
ATOM     85  F   UNL     1      -8.247  13.002  -6.202  1.00  0.00    -0.203 F 
ATOM     86  C   UNL     1      -7.427  12.023  -8.181  1.00  0.00     0.198 A 
ATOM     87  C   UNL     1      -8.350   9.953  -8.965  1.00  0.00     0.198 A 
ATOM     88  F   UNL     1     -10.108   8.928  -7.787  1.00  0.00    -0.203 F 
ATOM     89  F   UNL     1      -6.590  13.056  -8.342  1.00  0.00    -0.200 F 
ATOM     90  C   UNL     1      -7.456  11.001  -9.118  1.00  0.00     0.200 A 
ATOM     91  F   UNL     1      -8.370   8.954  -9.857  1.00  0.00    -0.200 F 
ATOM     92  F   UNL     1      -6.632  11.034 -10.174  1.00  0.00    -0.200 F 
ENDBRANCH  58  82
BRANCH  70  93
ATOM     93  C   UNL     1     -14.512  15.148  -5.189  1.00  0.00     0.064 A 
ATOM     94  C   UNL     1     -15.170  15.170  -6.427  1.00  0.00     0.173 A 
ATOM     95  C   UNL     1     -14.371  16.361  -4.497  1.00  0.00     0.173 A 
ATOM     96  F   UNL     1     -15.314  14.039  -7.135  1.00  0.00    -0.203 F 
ATOM     97  C   UNL     1     -15.642  16.364  -6.964  1.00  0.00     0.198 A 
ATOM     98  C   UNL     1     -14.876  17.547  -5.020  1.00  0.00     0.198 A 
ATOM     99  F   UNL     1     -13.755  16.393  -3.306  1.00  0.00    -0.203 F 
ATOM    100  F   UNL     1     -16.217  16.370  -8.174  1.00  0.00    -0.200 F 
ATOM    101  C   UNL     1     -15.502  17.549  -6.257  1.00  0.00     0.200 A 
ATOM    102  F   UNL     1     -14.754  18.688  -4.328  1.00  0.00    -0.200 F 
ATOM    103  F   UNL     1     -15.964  18.697  -6.773  1.00  0.00    -0.200 F 
ENDBRANCH  70  93
ENDBRANCH  44  45
ENDBRANCH  37  39
ENDBRANCH  36  37
ENDBRANCH  35  36
ENDBRANCH   1  35
TORSDOF 16
