REMARK SMILES Cc1sc(-c2ccco2)nc1C(=O)N[C@@H](C(=O)OCCOC(=O)c1ccc(-c2c3nc(c(-c4c(F)c(F)c(F)c(F)c4F)c4ccc([nH]4)c(-c4c(F)c(F)c(F)c(F)c4F)c4nc(c(-c5c(F)c(F)c(F)c(F)c5F)c5ccc2[nH]5)C=C4)C=C3)cc1)C(C)C
REMARK SMILES IDX 19 1 18 2 16 3 17 4 15 5 14 6 12 7 13 8 11 10 1 11 2 12 3 13
REMARK SMILES IDX 4 14 10 15 5 16 6 17 9 18 7 19 8 20 87 21 88 22 89 23 20 24
REMARK SMILES IDX 21 25 22 26 23 27 24 28 25 29 86 30 26 31 85 32 27 33 28 34
REMARK SMILES IDX 29 35 79 36 30 37 84 38 78 39 80 40 31 41 83 42 77 43 76 44
REMARK SMILES IDX 32 46 64 47 44 48 63 49 45 50 48 51 62 52 81 53 46 54 47 55
REMARK SMILES IDX 61 57 82 58 49 59 33 60 34 61 42 62 35 63 36 64 40 65 43 66
REMARK SMILES IDX 37 67 38 68 41 69 39 70 65 71 66 72 74 73 67 74 68 75 72 76
REMARK SMILES IDX 75 77 69 78 70 79 73 80 71 81 50 82 51 83 59 84 52 85 53 86
REMARK SMILES IDX 57 87 60 88 54 89 55 90 58 91 56 92
REMARK H PARENT 14 9 80 45 48 56
REMARK Flexibility Score: inf
ROOT
ATOM      1  C   UNL     1       3.813  -2.665   3.148  1.00  0.00     0.274 C 
ENDROOT
BRANCH   1   2
ATOM      2  O   UNL     1       3.080  -2.645   1.902  1.00  0.00    -0.461 OA
BRANCH   2   3
ATOM      3  C   UNL     1       3.517  -1.805   0.916  1.00  0.00     0.329 C 
ATOM      4  O   UNL     1       4.556  -1.159   0.972  1.00  0.00    -0.250 OA
BRANCH   3   5
ATOM      5  C   UNL     1       2.535  -1.753  -0.292  1.00  0.00     0.195 C 
BRANCH   5   6
ATOM      6  N   UNL     1       1.324  -2.467   0.084  1.00  0.00    -0.337 N 
ATOM      7  C   UNL     1       0.130  -1.997   0.574  1.00  0.00     0.271 C 
ATOM      8  O   UNL     1      -0.603  -2.844   1.091  1.00  0.00    -0.267 OA
ATOM      9  H   UNL     1       1.368  -3.443  -0.030  1.00  0.00     0.164 HD
BRANCH   7  10
ATOM     10  C   UNL     1      -0.322  -0.601   0.396  1.00  0.00     0.142 A 
ATOM     11  C   UNL     1       1.672   1.014   1.095  1.00  0.00     0.059 C 
ATOM     12  C   UNL     1       0.339   0.618   0.559  1.00  0.00     0.035 A 
ATOM     13  S   UNL     1      -0.690   1.910   0.045  1.00  0.00    -0.115 S 
ATOM     14  C   UNL     1      -2.006   0.833   0.005  1.00  0.00     0.160 A 
ATOM     15  N   UNL     1      -1.694  -0.433   0.143  1.00  0.00    -0.227 NA
BRANCH  14  16
ATOM     16  C   UNL     1      -3.356   1.301  -0.051  1.00  0.00     0.162 A 
ATOM     17  C   UNL     1      -4.434   0.846   0.692  1.00  0.00     0.053 A 
ATOM     18  O   UNL     1      -3.772   2.356  -0.825  1.00  0.00    -0.462 OA
ATOM     19  C   UNL     1      -5.539   1.670   0.377  1.00  0.00     0.043 A 
ATOM     20  C   UNL     1      -5.089   2.557  -0.570  1.00  0.00     0.196 A 
ENDBRANCH  14  16
ENDBRANCH   7  10
ENDBRANCH   5   6
BRANCH   5  21
ATOM     21  C   UNL     1       3.148  -2.250  -1.619  1.00  0.00     0.017 C 
ATOM     22  C   UNL     1       2.090  -2.371  -2.724  1.00  0.00     0.010 C 
ATOM     23  C   UNL     1       4.231  -1.275  -2.112  1.00  0.00     0.010 C 
ENDBRANCH   5  21
ENDBRANCH   3   5
ENDBRANCH   2   3
ENDBRANCH   1   2
BRANCH   1  24
ATOM     24  C   UNL     1       4.518  -4.006   3.336  1.00  0.00     0.275 C 
BRANCH  24  25
ATOM     25  O   UNL     1       5.494  -4.145   2.293  1.00  0.00    -0.458 OA
BRANCH  25  26
ATOM     26  C   UNL     1       5.473  -5.301   1.599  1.00  0.00     0.338 C 
ATOM     27  O   UNL     1       4.822  -6.310   1.837  1.00  0.00    -0.246 OA
BRANCH  26  28
ATOM     28  C   UNL     1       6.320  -5.146   0.407  1.00  0.00     0.060 A 
ATOM     29  C   UNL     1       6.094  -4.060  -0.436  1.00  0.00     0.016 A 
ATOM     30  C   UNL     1       7.248  -6.121   0.055  1.00  0.00     0.016 A 
ATOM     31  C   UNL     1       6.723  -3.984  -1.671  1.00  0.00     0.010 A 
ATOM     32  C   UNL     1       7.954  -5.992  -1.147  1.00  0.00     0.010 A 
ATOM     33  C   UNL     1       7.671  -4.941  -2.040  1.00  0.00    -0.014 A 
BRANCH  33  34
ATOM     34  C   UNL     1       8.296  -4.886  -3.389  1.00  0.00     0.031 A 
ATOM     35  C   UNL     1       8.113  -6.041  -4.334  1.00  0.00     0.074 A 
ATOM     36  C   UNL     1       8.981  -3.800  -3.797  1.00  0.00     0.049 A 
ATOM     37  N   UNL     1       8.745  -6.311  -5.447  1.00  0.00    -0.248 NA
ATOM     38  C   UNL     1       7.082  -7.028  -3.973  1.00  0.00     0.031 C 
ATOM     39  C   UNL     1       9.156  -2.565  -3.032  1.00  0.00     0.029 A 
ATOM     40  N   UNL     1       9.650  -3.557  -4.972  1.00  0.00    -0.354 N 
ATOM     41  C   UNL     1       8.246  -7.533  -5.876  1.00  0.00     0.074 A 
ATOM     42  C   UNL     1       7.241  -7.943  -4.918  1.00  0.00     0.031 C 
ATOM     43  C   UNL     1       9.851  -1.684  -3.768  1.00  0.00     0.029 A 
ATOM     44  C   UNL     1      10.259  -2.326  -5.013  1.00  0.00     0.049 A 
ATOM     45  H   UNL     1       9.690  -4.203  -5.714  1.00  0.00     0.167 HD
ATOM     46  C   UNL     1       8.608  -8.252  -6.965  1.00  0.00     0.037 A 
ATOM     47  C   UNL     1      11.098  -1.795  -5.923  1.00  0.00     0.037 A 
ATOM     48  C   UNL     1       9.557  -7.806  -7.949  1.00  0.00     0.049 A 
ATOM     49  C   UNL     1      11.514  -2.624  -7.106  1.00  0.00     0.074 A 
ATOM     50  C   UNL     1      10.004  -8.464  -9.081  1.00  0.00     0.029 A 
ATOM     51  N   UNL     1      10.185  -6.569  -7.929  1.00  0.00    -0.354 N 
ATOM     52  N   UNL     1      11.131  -3.830  -7.446  1.00  0.00    -0.248 NA
ATOM     53  C   UNL     1      12.506  -2.030  -8.013  1.00  0.00     0.031 C 
ATOM     54  C   UNL     1      10.921  -7.633  -9.735  1.00  0.00     0.029 A 
ATOM     55  C   UNL     1      11.019  -6.446  -9.027  1.00  0.00     0.049 A 
ATOM     56  H   UNL     1      10.056  -5.881  -7.237  1.00  0.00     0.167 HD
ATOM     57  C   UNL     1      11.833  -4.141  -8.601  1.00  0.00     0.074 A 
ATOM     58  C   UNL     1      12.647  -2.986  -8.921  1.00  0.00     0.031 C 
ATOM     59  C   UNL     1      11.817  -5.286  -9.326  1.00  0.00     0.037 A 
BRANCH  46  60
ATOM     60  C   UNL     1       8.014  -9.619  -7.118  1.00  0.00     0.064 A 
ATOM     61  C   UNL     1       6.692  -9.816  -7.537  1.00  0.00     0.173 A 
ATOM     62  C   UNL     1       8.800 -10.753  -6.858  1.00  0.00     0.173 A 
ATOM     63  F   UNL     1       5.896  -8.762  -7.776  1.00  0.00    -0.203 F 
ATOM     64  C   UNL     1       6.170 -11.100  -7.673  1.00  0.00     0.198 A 
ATOM     65  C   UNL     1       8.283 -12.035  -7.018  1.00  0.00     0.198 A 
ATOM     66  F   UNL     1      10.072 -10.616  -6.454  1.00  0.00    -0.203 F 
ATOM     67  F   UNL     1       4.891 -11.267  -8.037  1.00  0.00    -0.200 F 
ATOM     68  C   UNL     1       6.967 -12.208  -7.420  1.00  0.00     0.200 A 
ATOM     69  F   UNL     1       9.056 -13.103  -6.779  1.00  0.00    -0.200 F 
ATOM     70  F   UNL     1       6.464 -13.442  -7.556  1.00  0.00    -0.200 F 
ENDBRANCH  46  60
BRANCH  47  71
ATOM     71  C   UNL     1      11.656  -0.434  -5.712  1.00  0.00     0.064 A 
ATOM     72  C   UNL     1      11.298   0.631  -6.548  1.00  0.00     0.173 A 
ATOM     73  C   UNL     1      12.560  -0.172  -4.671  1.00  0.00     0.173 A 
ATOM     74  F   UNL     1      10.460   0.424  -7.575  1.00  0.00    -0.203 F 
ATOM     75  C   UNL     1      11.826   1.906  -6.355  1.00  0.00     0.198 A 
ATOM     76  C   UNL     1      13.065   1.109  -4.460  1.00  0.00     0.198 A 
ATOM     77  F   UNL     1      12.940  -1.158  -3.846  1.00  0.00    -0.203 F 
ATOM     78  F   UNL     1      11.497   2.900  -7.191  1.00  0.00    -0.200 F 
ATOM     79  C   UNL     1      12.702   2.146  -5.306  1.00  0.00     0.200 A 
ATOM     80  F   UNL     1      13.900   1.338  -3.438  1.00  0.00    -0.200 F 
ATOM     81  F   UNL     1      13.203   3.374  -5.115  1.00  0.00    -0.200 F 
ENDBRANCH  47  71
BRANCH  59  82
ATOM     82  C   UNL     1      12.690  -5.335 -10.542  1.00  0.00     0.064 A 
ATOM     83  C   UNL     1      14.076  -5.513 -10.436  1.00  0.00     0.173 A 
ATOM     84  C   UNL     1      12.130  -5.240 -11.824  1.00  0.00     0.173 A 
ATOM     85  F   UNL     1      14.656  -5.592  -9.229  1.00  0.00    -0.203 F 
ATOM     86  C   UNL     1      14.876  -5.577 -11.574  1.00  0.00     0.198 A 
ATOM     87  C   UNL     1      12.930  -5.325 -12.960  1.00  0.00     0.198 A 
ATOM     88  F   UNL     1      10.808  -5.071 -11.973  1.00  0.00    -0.203 F 
ATOM     89  F   UNL     1      16.203  -5.712 -11.451  1.00  0.00    -0.200 F 
ATOM     90  C   UNL     1      14.301  -5.489 -12.834  1.00  0.00     0.200 A 
ATOM     91  F   UNL     1      12.374  -5.247 -14.176  1.00  0.00    -0.200 F 
ATOM     92  F   UNL     1      15.072  -5.554 -13.928  1.00  0.00    -0.200 F 
ENDBRANCH  59  82
ENDBRANCH  33  34
ENDBRANCH  26  28
ENDBRANCH  25  26
ENDBRANCH  24  25
ENDBRANCH   1  24
TORSDOF 15
