REMARK SMILES Cc1cccc(NC(=O)C[C@@H]2CCCCO2)c1C(=O)OCCOC(=O)c1ccc(-c2c3nc(c(-c4c(F)c(F)c(F)c(F)c4F)c4ccc([nH]4)c(-c4c(F)c(F)c(F)c(F)c4F)c4nc(c(-c5c(F)c(F)c(F)c(F)c5F)c5ccc2[nH]5)C=C4)C=C3)cc1
REMARK SMILES IDX 21 1 20 2 18 3 19 4 17 5 1 6 2 7 3 8 4 9 6 10 5 11 7 12 8 13
REMARK SMILES IDX 9 15 10 16 11 17 12 18 16 19 13 20 15 21 14 22 22 23 23 24
REMARK SMILES IDX 24 25 25 26 26 27 27 28 88 29 28 30 87 31 29 32 30 33 31 34
REMARK SMILES IDX 81 35 32 36 86 37 80 38 82 39 33 40 85 41 79 42 78 43 34 45
REMARK SMILES IDX 66 46 46 47 65 48 47 49 50 50 64 51 83 52 48 53 49 54 63 56
REMARK SMILES IDX 84 57 51 58 35 59 36 60 44 61 37 62 38 63 42 64 45 65 39 66
REMARK SMILES IDX 40 67 43 68 41 69 67 70 68 71 76 72 69 73 70 74 74 75 77 76
REMARK SMILES IDX 71 77 72 78 75 79 73 80 52 81 53 82 61 83 54 84 55 85 59 86
REMARK SMILES IDX 62 87 56 88 57 89 60 90 58 91
REMARK H PARENT 7 14 82 44 50 55
REMARK Flexibility Score: inf
ROOT
ATOM      1  C   UNL     1       3.116   2.783  -2.165  1.00  0.00     0.275 C 
ENDROOT
BRANCH   1   2
ATOM      2  O   UNL     1       1.887   2.024  -1.988  1.00  0.00    -0.458 OA
BRANCH   2   3
ATOM      3  C   UNL     1       1.843   1.437  -0.763  1.00  0.00     0.340 C 
ATOM      4  O   UNL     1       2.653   1.671   0.127  1.00  0.00    -0.246 OA
BRANCH   3   5
ATOM      5  C   UNL     1       0.915   0.304  -0.526  1.00  0.00     0.086 A 
ATOM      6  C   UNL     1       2.985  -1.222  -0.658  1.00  0.00     0.045 C 
ATOM      7  C   UNL     1       1.580  -0.913  -0.204  1.00  0.00    -0.034 A 
ATOM      8  C   UNL     1       0.923  -1.879   0.568  1.00  0.00     0.004 A 
ATOM      9  C   UNL     1      -0.300  -1.583   1.147  1.00  0.00     0.002 A 
ATOM     10  C   UNL     1      -0.428   0.499  -0.117  1.00  0.00     0.056 A 
ATOM     11  C   UNL     1      -0.942  -0.384   0.840  1.00  0.00     0.027 A 
BRANCH  10  12
ATOM     12  N   UNL     1      -1.245   1.486  -0.723  1.00  0.00    -0.325 N 
ATOM     13  C   UNL     1      -2.604   1.673  -0.833  1.00  0.00     0.227 C 
ATOM     14  H   UNL     1      -0.724   2.196  -1.163  1.00  0.00     0.169 HD
ATOM     15  O   UNL     1      -2.981   2.734  -1.343  1.00  0.00    -0.275 OA
BRANCH  13  16
ATOM     16  C   UNL     1      -3.657   0.648  -0.444  1.00  0.00     0.132 C 
BRANCH  16  17
ATOM     17  C   UNL     1      -4.292  -0.061  -1.656  1.00  0.00     0.127 C 
ATOM     18  C   UNL     1      -5.115  -1.297  -1.258  1.00  0.00     0.033 C 
ATOM     19  O   UNL     1      -3.355  -0.456  -2.663  1.00  0.00    -0.378 OA
ATOM     20  C   UNL     1      -4.228  -2.441  -0.768  1.00  0.00     0.005 C 
ATOM     21  C   UNL     1      -2.435  -1.464  -2.273  1.00  0.00     0.160 C 
ATOM     22  C   UNL     1      -3.097  -2.726  -1.749  1.00  0.00     0.029 C 
ENDBRANCH  16  17
ENDBRANCH  13  16
ENDBRANCH  10  12
ENDBRANCH   3   5
ENDBRANCH   2   3
ENDBRANCH   1   2
BRANCH   1  23
ATOM     23  C   UNL     1       3.034   4.010  -3.092  1.00  0.00     0.275 C 
BRANCH  23  24
ATOM     24  O   UNL     1       2.249   5.151  -2.685  1.00  0.00    -0.458 OA
BRANCH  24  25
ATOM     25  C   UNL     1       1.074   4.912  -2.077  1.00  0.00     0.338 C 
ATOM     26  O   UNL     1       0.014   4.691  -2.654  1.00  0.00    -0.246 OA
BRANCH  25  27
ATOM     27  C   UNL     1       1.271   4.829  -0.618  1.00  0.00     0.060 A 
ATOM     28  C   UNL     1       0.309   4.152   0.141  1.00  0.00     0.016 A 
ATOM     29  C   UNL     1       2.506   5.187  -0.071  1.00  0.00     0.016 A 
ATOM     30  C   UNL     1       0.625   3.693   1.410  1.00  0.00     0.010 A 
ATOM     31  C   UNL     1       2.848   4.693   1.162  1.00  0.00     0.010 A 
ATOM     32  C   UNL     1       1.902   3.961   1.899  1.00  0.00    -0.014 A 
BRANCH  32  33
ATOM     33  C   UNL     1       2.212   3.875   3.311  1.00  0.00     0.031 A 
ATOM     34  C   UNL     1       2.764   2.665   3.939  1.00  0.00     0.074 A 
ATOM     35  C   UNL     1       2.052   5.093   3.873  1.00  0.00     0.049 A 
ATOM     36  N   UNL     1       2.759   2.454   5.208  1.00  0.00    -0.248 NA
ATOM     37  C   UNL     1       3.310   1.529   3.203  1.00  0.00     0.031 C 
ATOM     38  C   UNL     1       2.518   5.654   5.122  1.00  0.00     0.029 A 
ATOM     39  N   UNL     1       1.205   6.091   3.345  1.00  0.00    -0.354 N 
ATOM     40  C   UNL     1       3.571   1.363   5.462  1.00  0.00     0.074 A 
ATOM     41  C   UNL     1       3.753   0.735   4.184  1.00  0.00     0.031 C 
ATOM     42  C   UNL     1       1.748   6.723   5.413  1.00  0.00     0.029 A 
ATOM     43  C   UNL     1       0.661   6.762   4.435  1.00  0.00     0.049 A 
ATOM     44  H   UNL     1       1.033   6.276   2.393  1.00  0.00     0.167 HD
ATOM     45  C   UNL     1       4.132   1.257   6.703  1.00  0.00     0.037 A 
ATOM     46  C   UNL     1      -0.661   6.549   4.713  1.00  0.00     0.037 A 
ATOM     47  C   UNL     1       3.580   2.309   7.553  1.00  0.00     0.049 A 
ATOM     48  C   UNL     1      -0.807   5.841   6.034  1.00  0.00     0.074 A 
ATOM     49  C   UNL     1       4.023   3.596   7.808  1.00  0.00     0.029 A 
ATOM     50  N   UNL     1       2.231   2.274   7.884  1.00  0.00    -0.354 N 
ATOM     51  N   UNL     1       0.015   4.927   6.475  1.00  0.00    -0.248 NA
ATOM     52  C   UNL     1      -1.861   6.179   6.979  1.00  0.00     0.031 C 
ATOM     53  C   UNL     1       2.895   4.368   8.190  1.00  0.00     0.029 A 
ATOM     54  C   UNL     1       1.780   3.545   8.188  1.00  0.00     0.049 A 
ATOM     55  H   UNL     1       1.676   1.461   7.900  1.00  0.00     0.167 HD
ATOM     56  C   UNL     1      -0.327   4.619   7.763  1.00  0.00     0.074 A 
ATOM     57  C   UNL     1      -1.519   5.409   8.024  1.00  0.00     0.031 C 
ATOM     58  C   UNL     1       0.394   3.771   8.552  1.00  0.00     0.037 A 
BRANCH  45  59
ATOM     59  C   UNL     1       5.381   0.474   7.075  1.00  0.00     0.064 A 
ATOM     60  C   UNL     1       6.125   0.848   8.222  1.00  0.00     0.173 A 
ATOM     61  C   UNL     1       5.950  -0.584   6.340  1.00  0.00     0.173 A 
ATOM     62  F   UNL     1       5.679   1.784   9.070  1.00  0.00    -0.203 F 
ATOM     63  C   UNL     1       7.362   0.282   8.547  1.00  0.00     0.198 A 
ATOM     64  C   UNL     1       7.199  -1.141   6.657  1.00  0.00     0.198 A 
ATOM     65  F   UNL     1       5.314  -1.153   5.313  1.00  0.00    -0.203 F 
ATOM     66  F   UNL     1       8.024   0.707   9.633  1.00  0.00    -0.200 F 
ATOM     67  C   UNL     1       7.910  -0.700   7.752  1.00  0.00     0.200 A 
ATOM     68  F   UNL     1       7.705  -2.115   5.886  1.00  0.00    -0.200 F 
ATOM     69  F   UNL     1       9.104  -1.231   8.050  1.00  0.00    -0.200 F 
ENDBRANCH  45  59
BRANCH  46  70
ATOM     70  C   UNL     1      -1.538   6.303   3.519  1.00  0.00     0.064 A 
ATOM     71  C   UNL     1      -1.519   7.229   2.451  1.00  0.00     0.173 A 
ATOM     72  C   UNL     1      -2.197   5.089   3.283  1.00  0.00     0.173 A 
ATOM     73  F   UNL     1      -0.918   8.420   2.606  1.00  0.00    -0.203 F 
ATOM     74  C   UNL     1      -2.039   6.919   1.194  1.00  0.00     0.198 A 
ATOM     75  C   UNL     1      -2.736   4.786   2.025  1.00  0.00     0.198 A 
ATOM     76  F   UNL     1      -2.264   4.152   4.239  1.00  0.00    -0.203 F 
ATOM     77  F   UNL     1      -1.901   7.786   0.180  1.00  0.00    -0.200 F 
ATOM     78  C   UNL     1      -2.640   5.693   0.979  1.00  0.00     0.200 A 
ATOM     79  F   UNL     1      -3.278   3.577   1.808  1.00  0.00    -0.200 F 
ATOM     80  F   UNL     1      -3.080   5.372  -0.244  1.00  0.00    -0.200 F 
ENDBRANCH  46  70
BRANCH  58  81
ATOM     81  C   UNL     1      -0.121   3.160   9.825  1.00  0.00     0.064 A 
ATOM     82  C   UNL     1      -1.481   2.900  10.051  1.00  0.00     0.173 A 
ATOM     83  C   UNL     1       0.774   2.659  10.799  1.00  0.00     0.173 A 
ATOM     84  F   UNL     1      -2.411   3.188   9.130  1.00  0.00    -0.203 F 
ATOM     85  C   UNL     1      -1.924   2.275  11.214  1.00  0.00     0.198 A 
ATOM     86  C   UNL     1       0.333   1.965  11.921  1.00  0.00     0.198 A 
ATOM     87  F   UNL     1       2.102   2.796  10.676  1.00  0.00    -0.203 F 
ATOM     88  F   UNL     1      -3.239   2.111  11.416  1.00  0.00    -0.200 F 
ATOM     89  C   UNL     1      -1.018   1.798  12.143  1.00  0.00     0.200 A 
ATOM     90  F   UNL     1       1.226   1.441  12.771  1.00  0.00    -0.200 F 
ATOM     91  F   UNL     1      -1.446   1.155  13.236  1.00  0.00    -0.200 F 
ENDBRANCH  58  81
ENDBRANCH  32  33
ENDBRANCH  25  27
ENDBRANCH  24  25
ENDBRANCH  23  24
ENDBRANCH   1  23
TORSDOF 14
