REMARK SMILES C[C@H]1[C@H](C(=O)OCCOC(=O)c2ccc(-c3c4nc(c(-c5c(F)c(F)c(F)c(F)c5F)c5ccc([nH]5)c(-c5c(F)c(F)c(F)c(F)c5F)c5nc(c(-c6c(F)c(F)c(F)c(F)c6F)c6ccc3[nH]6)C=C5)C=C4)cc2)CCN1S(=O)(=O)/C=C/c1ccc(Cl)cc1
REMARK SMILES IDX 7 1 6 2 4 3 5 4 3 5 1 6 2 7 77 8 75 9 76 10 78 11 79 12
REMARK SMILES IDX 80 13 81 14 82 15 83 16 84 17 89 18 85 19 88 20 86 21 87 22
REMARK SMILES IDX 8 23 9 24 10 25 11 26 12 27 13 28 74 29 14 30 73 31 15 32
REMARK SMILES IDX 16 33 17 34 67 35 18 36 72 37 66 38 68 39 19 40 71 41 65 42
REMARK SMILES IDX 64 43 20 45 52 46 32 47 51 48 33 49 36 50 50 51 69 52 34 53
REMARK SMILES IDX 35 54 49 56 70 57 37 58 21 59 22 60 30 61 23 62 24 63 28 64
REMARK SMILES IDX 31 65 25 66 26 67 29 68 27 69 53 70 54 71 62 72 55 73 56 74
REMARK SMILES IDX 60 75 63 76 57 77 58 78 61 79 59 80 38 81 39 82 47 83 40 84
REMARK SMILES IDX 41 85 45 86 48 87 42 88 43 89 46 90 44 91
REMARK H PARENT 68 44 36 55
REMARK Flexibility Score: inf
ROOT
ATOM      1  C   UNL     1      -0.452   2.933   3.367  1.00  0.00     0.274 C 
ENDROOT
BRANCH   1   2
ATOM      2  O   UNL     1      -0.410   1.863   2.404  1.00  0.00    -0.462 OA
BRANCH   2   3
ATOM      3  C   UNL     1      -0.815   2.149   1.144  1.00  0.00     0.310 C 
ATOM      4  O   UNL     1      -1.271   3.228   0.783  1.00  0.00    -0.252 OA
BRANCH   3   5
ATOM      5  C   UNL     1      -0.652   0.992   0.183  1.00  0.00     0.118 C 
ATOM      6  C   UNL     1       1.578   0.023  -0.519  1.00  0.00     0.027 C 
ATOM      7  C   UNL     1       0.467  -0.005   0.538  1.00  0.00     0.084 C 
ATOM      8  N   UNL     1      -0.164  -1.369   0.491  1.00  0.00    -0.195 NA
ATOM      9  C   UNL     1      -1.927   0.172   0.074  1.00  0.00     0.034 C 
ATOM     10  C   UNL     1      -1.427  -1.213  -0.285  1.00  0.00     0.104 C 
BRANCH   8  11
ATOM     11  S   UNL     1      -0.403  -2.142   2.011  1.00  0.00     0.236 S 
ATOM     12  O   UNL     1      -1.168  -1.217   2.822  1.00  0.00    -0.207 OA
ATOM     13  O   UNL     1      -0.945  -3.453   1.716  1.00  0.00    -0.207 OA
BRANCH  11  14
ATOM     14  C   UNL     1       1.139  -2.357   2.765  1.00  0.00     0.123 C 
ATOM     15  C   UNL     1       2.230  -2.614   2.032  1.00  0.00     0.021 C 
BRANCH  15  16
ATOM     16  C   UNL     1       3.527  -2.855   2.658  1.00  0.00    -0.025 A 
ATOM     17  C   UNL     1       4.559  -1.917   2.531  1.00  0.00     0.009 A 
ATOM     18  C   UNL     1       3.753  -4.040   3.369  1.00  0.00     0.009 A 
ATOM     19  C   UNL     1       5.810  -2.170   3.102  1.00  0.00     0.021 A 
ATOM     20  C   UNL     1       5.004  -4.293   3.937  1.00  0.00     0.021 A 
ATOM     21  C   UNL     1       6.028  -3.359   3.797  1.00  0.00     0.041 A 
ATOM     22  Cl  UNL     1       7.573  -3.679   4.482  1.00  0.00    -0.084 Cl
ENDBRANCH  15  16
ENDBRANCH  11  14
ENDBRANCH   8  11
ENDBRANCH   3   5
ENDBRANCH   2   3
ENDBRANCH   1   2
BRANCH   1  23
ATOM     23  C   UNL     1       0.946   3.511   3.604  1.00  0.00     0.275 C 
BRANCH  23  24
ATOM     24  O   UNL     1       1.429   4.215   2.444  1.00  0.00    -0.458 OA
BRANCH  24  25
ATOM     25  C   UNL     1       2.162   3.474   1.585  1.00  0.00     0.338 C 
ATOM     26  O   UNL     1       2.484   2.304   1.694  1.00  0.00    -0.246 OA
BRANCH  25  27
ATOM     27  C   UNL     1       2.438   4.260   0.375  1.00  0.00     0.060 A 
ATOM     28  C   UNL     1       1.796   3.901  -0.813  1.00  0.00     0.016 A 
ATOM     29  C   UNL     1       3.394   5.274   0.390  1.00  0.00     0.016 A 
ATOM     30  C   UNL     1       2.123   4.537  -2.005  1.00  0.00     0.010 A 
ATOM     31  C   UNL     1       3.707   5.928  -0.804  1.00  0.00     0.010 A 
ATOM     32  C   UNL     1       3.084   5.553  -2.009  1.00  0.00    -0.014 A 
BRANCH  32  33
ATOM     33  C   UNL     1       3.474   6.211  -3.275  1.00  0.00     0.031 A 
ATOM     34  C   UNL     1       4.821   5.931  -3.869  1.00  0.00     0.074 A 
ATOM     35  C   UNL     1       2.631   7.073  -3.871  1.00  0.00     0.049 A 
ATOM     36  N   UNL     1       5.444   6.548  -4.838  1.00  0.00    -0.248 NA
ATOM     37  C   UNL     1       5.569   4.805  -3.288  1.00  0.00     0.031 C 
ATOM     38  C   UNL     1       1.270   7.368  -3.423  1.00  0.00     0.029 A 
ATOM     39  N   UNL     1       2.806   7.875  -4.969  1.00  0.00    -0.354 N 
ATOM     40  C   UNL     1       6.671   5.913  -4.960  1.00  0.00     0.074 A 
ATOM     41  C   UNL     1       6.706   4.858  -3.969  1.00  0.00     0.031 C 
ATOM     42  C   UNL     1       0.739   8.302  -4.229  1.00  0.00     0.029 A 
ATOM     43  C   UNL     1       1.744   8.713  -5.205  1.00  0.00     0.049 A 
ATOM     44  H   UNL     1       3.613   7.853  -5.532  1.00  0.00     0.167 HD
ATOM     45  C   UNL     1       7.678   6.196  -5.820  1.00  0.00     0.037 A 
ATOM     46  C   UNL     1       1.619   9.732  -6.075  1.00  0.00     0.037 A 
ATOM     47  C   UNL     1       7.620   7.235  -6.814  1.00  0.00     0.049 A 
ATOM     48  C   UNL     1       2.776  10.071  -6.975  1.00  0.00     0.074 A 
ATOM     49  C   UNL     1       8.584   7.604  -7.735  1.00  0.00     0.029 A 
ATOM     50  N   UNL     1       6.530   8.069  -7.016  1.00  0.00    -0.354 N 
ATOM     51  N   UNL     1       3.950   9.495  -7.064  1.00  0.00    -0.248 NA
ATOM     52  C   UNL     1       2.598  11.212  -7.885  1.00  0.00     0.031 C 
ATOM     53  C   UNL     1       8.090   8.685  -8.473  1.00  0.00     0.029 A 
ATOM     54  C   UNL     1       6.803   8.962  -8.039  1.00  0.00     0.049 A 
ATOM     55  H   UNL     1       5.688   8.032  -6.508  1.00  0.00     0.167 HD
ATOM     56  C   UNL     1       4.640  10.182  -8.052  1.00  0.00     0.074 A 
ATOM     57  C   UNL     1       3.752  11.219  -8.537  1.00  0.00     0.031 C 
ATOM     58  C   UNL     1       5.895   9.972  -8.517  1.00  0.00     0.037 A 
BRANCH  45  59
ATOM     59  C   UNL     1       8.941   5.399  -5.697  1.00  0.00     0.064 A 
ATOM     60  C   UNL     1       9.021   4.069  -6.134  1.00  0.00     0.173 A 
ATOM     61  C   UNL     1      10.097   5.989  -5.165  1.00  0.00     0.173 A 
ATOM     62  F   UNL     1       7.938   3.456  -6.634  1.00  0.00    -0.203 F 
ATOM     63  C   UNL     1      10.210   3.352  -6.025  1.00  0.00     0.198 A 
ATOM     64  C   UNL     1      11.290   5.277  -5.080  1.00  0.00     0.198 A 
ATOM     65  F   UNL     1      10.072   7.259  -4.734  1.00  0.00    -0.203 F 
ATOM     66  F   UNL     1      10.256   2.070  -6.413  1.00  0.00    -0.200 F 
ATOM     67  C   UNL     1      11.345   3.958  -5.505  1.00  0.00     0.200 A 
ATOM     68  F   UNL     1      12.387   5.867  -4.583  1.00  0.00    -0.200 F 
ATOM     69  F   UNL     1      12.489   3.268  -5.405  1.00  0.00    -0.200 F 
ENDBRANCH  45  59
BRANCH  46  70
ATOM     70  C   UNL     1       0.366  10.527  -6.104  1.00  0.00     0.064 A 
ATOM     71  C   UNL     1      -0.515  10.444  -7.189  1.00  0.00     0.173 A 
ATOM     72  C   UNL     1       0.019  11.376  -5.042  1.00  0.00     0.173 A 
ATOM     73  F   UNL     1      -0.214   9.664  -8.238  1.00  0.00    -0.203 F 
ATOM     74  C   UNL     1      -1.694  11.187  -7.215  1.00  0.00     0.198 A 
ATOM     75  C   UNL     1      -1.171  12.098  -5.058  1.00  0.00     0.198 A 
ATOM     76  F   UNL     1       0.831  11.491  -3.981  1.00  0.00    -0.203 F 
ATOM     77  F   UNL     1      -2.503  11.117  -8.281  1.00  0.00    -0.200 F 
ATOM     78  C   UNL     1      -2.025  12.007  -6.147  1.00  0.00     0.200 A 
ATOM     79  F   UNL     1      -1.492  12.881  -4.018  1.00  0.00    -0.200 F 
ATOM     80  F   UNL     1      -3.162  12.715  -6.170  1.00  0.00    -0.200 F 
ENDBRANCH  46  70
BRANCH  58  81
ATOM     81  C   UNL     1       6.369  10.845  -9.638  1.00  0.00     0.064 A 
ATOM     82  C   UNL     1       6.785  12.165  -9.415  1.00  0.00     0.173 A 
ATOM     83  C   UNL     1       6.473  10.329 -10.938  1.00  0.00     0.173 A 
ATOM     84  F   UNL     1       6.689  12.704  -8.190  1.00  0.00    -0.203 F 
ATOM     85  C   UNL     1       7.282  12.941 -10.458  1.00  0.00     0.198 A 
ATOM     86  C   UNL     1       6.991  11.101 -11.974  1.00  0.00     0.198 A 
ATOM     87  F   UNL     1       6.091   9.070 -11.198  1.00  0.00    -0.203 F 
ATOM     88  F   UNL     1       7.652  14.209 -10.230  1.00  0.00    -0.200 F 
ATOM     89  C   UNL     1       7.393  12.406 -11.733  1.00  0.00     0.200 A 
ATOM     90  F   UNL     1       7.106  10.579 -13.203  1.00  0.00    -0.200 F 
ATOM     91  F   UNL     1       7.886  13.150 -12.733  1.00  0.00    -0.200 F 
ENDBRANCH  58  81
ENDBRANCH  32  33
ENDBRANCH  25  27
ENDBRANCH  24  25
ENDBRANCH  23  24
ENDBRANCH   1  23
TORSDOF 14
