REMARK SMILES Cc1[nH]c2c(C(=O)N3CC[C@H](O)C[C@@H]3C(=O)OCCOC(=O)c3ccc(-c4c5nc(c(-c6c(F)c(F)c(F)c(F)c6F)c6ccc([nH]6)c(-c6c(F)c(F)c(F)c(F)c6F)c6nc(c(-c7c(F)c(F)c(F)c(F)c7F)c7ccc4[nH]7)C=C6)C=C5)cc3)cccc2c1C
REMARK SMILES IDX 18 1 17 2 15 3 16 4 14 5 8 6 9 7 10 8 13 9 11 10 6 11 7 12
REMARK SMILES IDX 5 13 1 14 2 15 3 16 90 17 4 18 89 20 91 21 88 22 86 23 87 24
REMARK SMILES IDX 12 25 19 27 20 28 21 29 22 30 23 31 24 32 85 33 25 34 84 35
REMARK SMILES IDX 26 36 27 37 28 38 78 39 29 40 83 41 77 42 79 43 30 44 82 45
REMARK SMILES IDX 76 46 75 47 31 49 63 50 43 51 62 52 44 53 47 54 61 55 80 56
REMARK SMILES IDX 45 57 46 58 60 60 81 61 48 62 32 63 33 64 41 65 34 66 35 67
REMARK SMILES IDX 39 68 42 69 36 70 37 71 40 72 38 73 64 74 65 75 73 76 66 77
REMARK SMILES IDX 67 78 71 79 74 80 68 81 69 82 72 83 70 84 49 85 50 86 58 87
REMARK SMILES IDX 51 88 52 89 56 90 59 91 53 92 54 93 57 94 55 95
REMARK H PARENT 3 19 12 26 79 48 47 59
REMARK Flexibility Score: inf
ROOT
ATOM      1  C   UNL     1      -3.169  -3.815   1.672  1.00  0.00     0.274 C 
ENDROOT
BRANCH   1   2
ATOM      2  O   UNL     1      -1.994  -4.171   0.914  1.00  0.00    -0.461 OA
BRANCH   2   3
ATOM      3  C   UNL     1      -0.808  -4.138   1.574  1.00  0.00     0.329 C 
ATOM      4  O   UNL     1      -0.689  -3.761   2.736  1.00  0.00    -0.250 OA
BRANCH   3   5
ATOM      5  C   UNL     1       0.393  -4.546   0.702  1.00  0.00     0.198 C 
ATOM      6  N   UNL     1       0.654  -3.529  -0.315  1.00  0.00    -0.325 N 
ATOM      7  C   UNL     1      -0.018  -3.659  -1.610  1.00  0.00     0.123 C 
ATOM      8  C   UNL     1       0.130  -5.072  -2.177  1.00  0.00     0.053 C 
ATOM      9  C   UNL     1       0.426  -5.968   0.148  1.00  0.00     0.069 C 
ATOM     10  C   UNL     1      -0.312  -6.136  -1.172  1.00  0.00     0.118 C 
BRANCH   6  11
ATOM     11  C   UNL     1       1.729  -2.680  -0.089  1.00  0.00     0.256 C 
ATOM     12  O   UNL     1       2.788  -3.102   0.373  1.00  0.00    -0.269 OA
BRANCH  11  13
ATOM     13  C   UNL     1       1.549  -1.214  -0.248  1.00  0.00     0.064 A 
ATOM     14  C   UNL     1      -3.360  -0.355  -0.095  1.00  0.00     0.064 C 
ATOM     15  C   UNL     1      -1.907  -0.053  -0.100  1.00  0.00     0.016 A 
ATOM     16  N   UNL     1      -0.976  -1.055  -0.050  1.00  0.00    -0.358 N 
ATOM     17  C   UNL     1      -1.218   1.146  -0.119  1.00  0.00    -0.023 A 
ATOM     18  C   UNL     1       0.300  -0.565  -0.185  1.00  0.00     0.059 A 
ATOM     19  H   UNL     1      -1.194  -2.008   0.068  1.00  0.00     0.166 HD
ATOM     20  C   UNL     1       0.179   0.827  -0.183  1.00  0.00     0.003 A 
ATOM     21  C   UNL     1      -1.799   2.514  -0.085  1.00  0.00     0.047 C 
ATOM     22  C   UNL     1       1.352   1.610  -0.225  1.00  0.00     0.010 A 
ATOM     23  C   UNL     1       2.696  -0.401  -0.284  1.00  0.00     0.016 A 
ATOM     24  C   UNL     1       2.602   0.987  -0.272  1.00  0.00     0.002 A 
ENDBRANCH  11  13
ENDBRANCH   6  11
BRANCH  10  25
ATOM     25  O   UNL     1      -1.720  -6.075  -0.984  1.00  0.00    -0.393 OA
ATOM     26  H   UNL     1      -1.961  -5.205  -0.630  1.00  0.00     0.210 HD
ENDBRANCH  10  25
ENDBRANCH   3   5
ENDBRANCH   2   3
ENDBRANCH   1   2
BRANCH   1  27
ATOM     27  C   UNL     1      -3.867  -5.040   2.274  1.00  0.00     0.275 C 
BRANCH  27  28
ATOM     28  O   UNL     1      -3.083  -5.641   3.320  1.00  0.00    -0.458 OA
BRANCH  28  29
ATOM     29  C   UNL     1      -2.243  -6.622   2.916  1.00  0.00     0.338 C 
ATOM     30  O   UNL     1      -2.132  -7.078   1.790  1.00  0.00    -0.246 OA
BRANCH  29  31
ATOM     31  C   UNL     1      -1.335  -6.966   4.024  1.00  0.00     0.060 A 
ATOM     32  C   UNL     1       0.026  -6.675   3.886  1.00  0.00     0.016 A 
ATOM     33  C   UNL     1      -1.803  -7.618   5.164  1.00  0.00     0.016 A 
ATOM     34  C   UNL     1       0.931  -7.040   4.872  1.00  0.00     0.010 A 
ATOM     35  C   UNL     1      -0.893  -7.984   6.161  1.00  0.00     0.010 A 
ATOM     36  C   UNL     1       0.478  -7.707   6.013  1.00  0.00    -0.014 A 
BRANCH  36  37
ATOM     37  C   UNL     1       1.458  -8.165   7.019  1.00  0.00     0.031 A 
ATOM     38  C   UNL     1       1.831  -9.615   7.075  1.00  0.00     0.074 A 
ATOM     39  C   UNL     1       2.028  -7.275   7.851  1.00  0.00     0.049 A 
ATOM     40  N   UNL     1       2.589 -10.243   7.936  1.00  0.00    -0.248 NA
ATOM     41  C   UNL     1       1.275 -10.475   6.019  1.00  0.00     0.031 C 
ATOM     42  C   UNL     1       1.790  -5.832   7.834  1.00  0.00     0.029 A 
ATOM     43  N   UNL     1       2.922  -7.458   8.874  1.00  0.00    -0.354 N 
ATOM     44  C   UNL     1       2.580 -11.574   7.543  1.00  0.00     0.074 A 
ATOM     45  C   UNL     1       1.736 -11.667   6.371  1.00  0.00     0.031 C 
ATOM     46  C   UNL     1       2.515  -5.259   8.808  1.00  0.00     0.029 A 
ATOM     47  C   UNL     1       3.228  -6.300   9.544  1.00  0.00     0.049 A 
ATOM     48  H   UNL     1       3.307  -8.334   9.105  1.00  0.00     0.167 HD
ATOM     49  C   UNL     1       3.221 -12.620   8.114  1.00  0.00     0.037 A 
ATOM     50  C   UNL     1       3.975  -6.111  10.648  1.00  0.00     0.037 A 
ATOM     51  C   UNL     1       4.073 -12.510   9.269  1.00  0.00     0.049 A 
ATOM     52  C   UNL     1       4.622  -7.301  11.301  1.00  0.00     0.074 A 
ATOM     53  C   UNL     1       4.779 -13.505   9.921  1.00  0.00     0.029 A 
ATOM     54  N   UNL     1       4.333 -11.326   9.945  1.00  0.00    -0.354 N 
ATOM     55  N   UNL     1       4.599  -8.560  10.936  1.00  0.00    -0.248 NA
ATOM     56  C   UNL     1       5.394  -7.045  12.525  1.00  0.00     0.031 C 
ATOM     57  C   UNL     1       5.434 -12.931  11.016  1.00  0.00     0.029 A 
ATOM     58  C   UNL     1       5.172 -11.569  11.020  1.00  0.00     0.049 A 
ATOM     59  H   UNL     1       3.975 -10.443   9.697  1.00  0.00     0.167 HD
ATOM     60  C   UNL     1       5.368  -9.243  11.868  1.00  0.00     0.074 A 
ATOM     61  C   UNL     1       5.855  -8.255  12.810  1.00  0.00     0.031 C 
ATOM     62  C   UNL     1       5.647 -10.568  11.939  1.00  0.00     0.037 A 
BRANCH  49  63
ATOM     63  C   UNL     1       2.993 -13.978   7.523  1.00  0.00     0.064 A 
ATOM     64  C   UNL     1       3.558 -14.356   6.296  1.00  0.00     0.173 A 
ATOM     65  C   UNL     1       2.218 -14.925   8.209  1.00  0.00     0.173 A 
ATOM     66  F   UNL     1       4.291 -13.481   5.592  1.00  0.00    -0.203 F 
ATOM     67  C   UNL     1       3.337 -15.626   5.768  1.00  0.00     0.198 A 
ATOM     68  C   UNL     1       2.020 -16.201   7.691  1.00  0.00     0.198 A 
ATOM     69  F   UNL     1       1.656 -14.613   9.386  1.00  0.00    -0.203 F 
ATOM     70  F   UNL     1       3.850 -15.952   4.574  1.00  0.00    -0.200 F 
ATOM     71  C   UNL     1       2.574 -16.549   6.468  1.00  0.00     0.200 A 
ATOM     72  F   UNL     1       1.289 -17.094   8.372  1.00  0.00    -0.200 F 
ATOM     73  F   UNL     1       2.366 -17.772   5.960  1.00  0.00    -0.200 F 
ENDBRANCH  49  63
BRANCH  50  74
ATOM     74  C   UNL     1       4.127  -4.747  11.216  1.00  0.00     0.064 A 
ATOM     75  C   UNL     1       5.359  -4.082  11.177  1.00  0.00     0.173 A 
ATOM     76  C   UNL     1       3.045  -4.085  11.816  1.00  0.00     0.173 A 
ATOM     77  F   UNL     1       6.428  -4.686  10.638  1.00  0.00    -0.203 F 
ATOM     78  C   UNL     1       5.507  -2.811  11.727  1.00  0.00     0.198 A 
ATOM     79  C   UNL     1       3.188  -2.803  12.342  1.00  0.00     0.198 A 
ATOM     80  F   UNL     1       1.845  -4.681  11.884  1.00  0.00    -0.203 F 
ATOM     81  F   UNL     1       6.707  -2.214  11.715  1.00  0.00    -0.200 F 
ATOM     82  C   UNL     1       4.421  -2.170  12.303  1.00  0.00     0.200 A 
ATOM     83  F   UNL     1       2.133  -2.184  12.890  1.00  0.00    -0.200 F 
ATOM     84  F   UNL     1       4.564  -0.946  12.830  1.00  0.00    -0.200 F 
ENDBRANCH  50  74
BRANCH  62  85
ATOM     85  C   UNL     1       6.544 -11.016  13.054  1.00  0.00     0.064 A 
ATOM     86  C   UNL     1       6.091 -11.083  14.379  1.00  0.00     0.173 A 
ATOM     87  C   UNL     1       7.861 -11.418  12.786  1.00  0.00     0.173 A 
ATOM     88  F   UNL     1       4.844 -10.694  14.686  1.00  0.00    -0.203 F 
ATOM     89  C   UNL     1       6.932 -11.515  15.400  1.00  0.00     0.198 A 
ATOM     90  C   UNL     1       8.691 -11.875  13.805  1.00  0.00     0.198 A 
ATOM     91  F   UNL     1       8.339 -11.378  11.533  1.00  0.00    -0.203 F 
ATOM     92  F   UNL     1       6.493 -11.531  16.666  1.00  0.00    -0.200 F 
ATOM     93  C   UNL     1       8.228 -11.917  15.112  1.00  0.00     0.200 A 
ATOM     94  F   UNL     1       9.939 -12.273  13.523  1.00  0.00    -0.200 F 
ATOM     95  F   UNL     1       9.035 -12.338  16.096  1.00  0.00    -0.200 F 
ENDBRANCH  62  85
ENDBRANCH  36  37
ENDBRANCH  29  31
ENDBRANCH  28  29
ENDBRANCH  27  28
ENDBRANCH   1  27
TORSDOF 14
