REMARK SMILES CN(C)C(=O)c1nnc(C(=O)OCCOC(=O)c2ccc(-c3c4nc(c(-c5c(F)c(F)c(F)c(F)c5F)c5ccc([nH]5)c(-c5c(F)c(F)c(F)c(F)c5F)c5nc(c(-c6c(F)c(F)c(F)c(F)c6F)c6ccc3[nH]6)C=C5)C=C4)cc2)s1
REMARK SMILES IDX 14 1 13 2 12 3 10 4 11 5 9 6 6 7 7 8 81 9 8 10 4 11 1 12
REMARK SMILES IDX 2 13 3 14 5 15 15 16 16 17 17 18 18 19 19 20 80 21 20 22
REMARK SMILES IDX 79 23 21 24 22 25 23 26 73 27 24 28 78 29 72 30 74 31 25 32
REMARK SMILES IDX 77 33 71 34 70 35 26 37 58 38 38 39 57 40 39 41 42 42 56 43
REMARK SMILES IDX 75 44 40 45 41 46 55 48 76 49 43 50 27 51 28 52 36 53 29 54
REMARK SMILES IDX 30 55 34 56 37 57 31 58 32 59 35 60 33 61 59 62 60 63 68 64
REMARK SMILES IDX 61 65 62 66 66 67 69 68 63 69 64 70 67 71 65 72 44 73 45 74
REMARK SMILES IDX 53 75 46 76 47 77 51 78 54 79 48 80 49 81 52 82 50 83
REMARK H PARENT 74 36 42 47
REMARK Flexibility Score: inf
ROOT
ATOM      1  C   UNL     1      -3.854  -4.590  -7.235  1.00  0.00     0.275 C 
ENDROOT
BRANCH   1   2
ATOM      2  C   UNL     1      -3.790  -5.188  -5.825  1.00  0.00     0.275 C 
BRANCH   2   3
ATOM      3  O   UNL     1      -2.975  -4.389  -4.948  1.00  0.00    -0.457 OA
BRANCH   3   4
ATOM      4  C   UNL     1      -1.686  -4.818  -4.780  1.00  0.00     0.369 C 
ATOM      5  O   UNL     1      -1.268  -5.880  -5.232  1.00  0.00    -0.243 OA
BRANCH   4   6
ATOM      6  C   UNL     1      -0.878  -3.853  -4.057  1.00  0.00     0.226 A 
ATOM      7  C   UNL     1       0.159  -2.049  -2.934  1.00  0.00     0.206 A 
ATOM      8  N   UNL     1       1.009  -3.027  -3.168  1.00  0.00    -0.132 NA
ATOM      9  S   UNL     1      -1.433  -2.326  -3.496  1.00  0.00    -0.080 S 
ATOM     10  N   UNL     1       0.402  -4.078  -3.818  1.00  0.00    -0.130 NA
BRANCH   7  11
ATOM     11  C   UNL     1       0.523  -0.855  -2.198  1.00  0.00     0.284 C 
ATOM     12  C   UNL     1       0.888   0.200  -0.008  1.00  0.00     0.146 C 
ATOM     13  N   UNL     1       0.393  -0.911  -0.800  1.00  0.00    -0.343 N 
ATOM     14  C   UNL     1      -0.124  -2.071  -0.088  1.00  0.00     0.146 C 
ATOM     15  O   UNL     1       0.954   0.154  -2.760  1.00  0.00    -0.266 OA
ENDBRANCH   7  11
ENDBRANCH   4   6
ENDBRANCH   3   4
ENDBRANCH   2   3
ENDBRANCH   1   2
BRANCH   1  16
ATOM     16  O   UNL     1      -2.580  -4.622  -7.910  1.00  0.00    -0.458 OA
BRANCH  16  17
ATOM     17  C   UNL     1      -1.798  -3.534  -7.712  1.00  0.00     0.338 C 
ATOM     18  O   UNL     1      -2.059  -2.564  -7.019  1.00  0.00    -0.246 OA
BRANCH  17  19
ATOM     19  C   UNL     1      -0.480  -3.724  -8.340  1.00  0.00     0.060 A 
ATOM     20  C   UNL     1       0.652  -3.605  -7.528  1.00  0.00     0.016 A 
ATOM     21  C   UNL     1      -0.345  -3.924  -9.715  1.00  0.00     0.016 A 
ATOM     22  C   UNL     1       1.925  -3.679  -8.087  1.00  0.00     0.010 A 
ATOM     23  C   UNL     1       0.937  -3.999 -10.276  1.00  0.00     0.010 A 
ATOM     24  C   UNL     1       2.079  -3.867  -9.466  1.00  0.00    -0.014 A 
BRANCH  24  25
ATOM     25  C   UNL     1       3.443  -3.876 -10.050  1.00  0.00     0.031 A 
ATOM     26  C   UNL     1       3.936  -2.689 -10.828  1.00  0.00     0.074 A 
ATOM     27  C   UNL     1       4.254  -4.928  -9.839  1.00  0.00     0.049 A 
ATOM     28  N   UNL     1       5.072  -2.523 -11.458  1.00  0.00    -0.248 NA
ATOM     29  C   UNL     1       3.030  -1.533 -10.906  1.00  0.00     0.031 C 
ATOM     30  C   UNL     1       3.907  -6.116  -9.059  1.00  0.00     0.029 A 
ATOM     31  N   UNL     1       5.539  -5.167 -10.260  1.00  0.00    -0.354 N 
ATOM     32  C   UNL     1       5.017  -1.249 -12.008  1.00  0.00     0.074 A 
ATOM     33  C   UNL     1       3.724  -0.696 -11.665  1.00  0.00     0.031 C 
ATOM     34  C   UNL     1       4.953  -6.958  -9.056  1.00  0.00     0.029 A 
ATOM     35  C   UNL     1       6.026  -6.390  -9.868  1.00  0.00     0.049 A 
ATOM     36  H   UNL     1       6.061  -4.523 -10.791  1.00  0.00     0.167 HD
ATOM     37  C   UNL     1       5.966  -0.598 -12.724  1.00  0.00     0.037 A 
ATOM     38  C   UNL     1       7.195  -6.994 -10.155  1.00  0.00     0.037 A 
ATOM     39  C   UNL     1       7.254  -1.149 -13.058  1.00  0.00     0.049 A 
ATOM     40  C   UNL     1       8.203  -6.275 -11.011  1.00  0.00     0.074 A 
ATOM     41  C   UNL     1       8.275  -0.576 -13.796  1.00  0.00     0.029 A 
ATOM     42  N   UNL     1       7.700  -2.404 -12.668  1.00  0.00    -0.354 N 
ATOM     43  N   UNL     1       8.136  -5.078 -11.542  1.00  0.00    -0.248 NA
ATOM     44  C   UNL     1       9.450  -6.993 -11.311  1.00  0.00     0.031 C 
ATOM     45  C   UNL     1       9.324  -1.497 -13.884  1.00  0.00     0.029 A 
ATOM     46  C   UNL     1       8.976  -2.627 -13.162  1.00  0.00     0.049 A 
ATOM     47  H   UNL     1       7.187  -3.042 -12.121  1.00  0.00     0.167 HD
ATOM     48  C   UNL     1       9.335  -4.890 -12.214  1.00  0.00     0.074 A 
ATOM     49  C   UNL     1      10.121  -6.089 -12.011  1.00  0.00     0.031 C 
ATOM     50  C   UNL     1       9.748  -3.822 -12.940  1.00  0.00     0.037 A 
BRANCH  37  51
ATOM     51  C   UNL     1       5.640   0.783 -13.212  1.00  0.00     0.064 A 
ATOM     52  C   UNL     1       5.586   1.878 -12.336  1.00  0.00     0.173 A 
ATOM     53  C   UNL     1       5.424   1.023 -14.577  1.00  0.00     0.173 A 
ATOM     54  F   UNL     1       5.775   1.699 -11.020  1.00  0.00    -0.203 F 
ATOM     55  C   UNL     1       5.307   3.158 -12.807  1.00  0.00     0.198 A 
ATOM     56  C   UNL     1       5.171   2.309 -15.048  1.00  0.00     0.198 A 
ATOM     57  F   UNL     1       5.470   0.012 -15.457  1.00  0.00    -0.203 F 
ATOM     58  F   UNL     1       5.222   4.183 -11.948  1.00  0.00    -0.200 F 
ATOM     59  C   UNL     1       5.107   3.374 -14.163  1.00  0.00     0.200 A 
ATOM     60  F   UNL     1       4.991   2.517 -16.360  1.00  0.00    -0.200 F 
ATOM     61  F   UNL     1       4.848   4.608 -14.616  1.00  0.00    -0.200 F 
ENDBRANCH  37  51
BRANCH  38  62
ATOM     62  C   UNL     1       7.465  -8.367  -9.654  1.00  0.00     0.064 A 
ATOM     63  C   UNL     1       8.472  -8.613  -8.710  1.00  0.00     0.173 A 
ATOM     64  C   UNL     1       6.738  -9.468 -10.133  1.00  0.00     0.173 A 
ATOM     65  F   UNL     1       9.213  -7.598  -8.243  1.00  0.00    -0.203 F 
ATOM     66  C   UNL     1       8.757  -9.908  -8.283  1.00  0.00     0.198 A 
ATOM     67  C   UNL     1       7.003 -10.758  -9.682  1.00  0.00     0.198 A 
ATOM     68  F   UNL     1       5.767  -9.288 -11.041  1.00  0.00    -0.203 F 
ATOM     69  F   UNL     1       9.762 -10.122  -7.424  1.00  0.00    -0.200 F 
ATOM     70  C   UNL     1       8.019 -10.979  -8.765  1.00  0.00     0.200 A 
ATOM     71  F   UNL     1       6.280 -11.788 -10.143  1.00  0.00    -0.200 F 
ATOM     72  F   UNL     1       8.295 -12.225  -8.356  1.00  0.00    -0.200 F 
ENDBRANCH  38  62
BRANCH  50  73
ATOM     73  C   UNL     1      11.124  -3.888 -13.535  1.00  0.00     0.064 A 
ATOM     74  C   UNL     1      11.414  -4.717 -14.629  1.00  0.00     0.173 A 
ATOM     75  C   UNL     1      12.158  -3.087 -13.024  1.00  0.00     0.173 A 
ATOM     76  F   UNL     1      10.464  -5.512 -15.143  1.00  0.00    -0.203 F 
ATOM     77  C   UNL     1      12.694  -4.761 -15.173  1.00  0.00     0.198 A 
ATOM     78  C   UNL     1      13.430  -3.114 -13.589  1.00  0.00     0.198 A 
ATOM     79  F   UNL     1      11.931  -2.273 -11.983  1.00  0.00    -0.203 F 
ATOM     80  F   UNL     1      12.960  -5.595 -16.188  1.00  0.00    -0.200 F 
ATOM     81  C   UNL     1      13.699  -3.955 -14.658  1.00  0.00     0.200 A 
ATOM     82  F   UNL     1      14.396  -2.326 -13.098  1.00  0.00    -0.200 F 
ATOM     83  F   UNL     1      14.930  -3.996 -15.187  1.00  0.00    -0.200 F 
ENDBRANCH  50  73
ENDBRANCH  24  25
ENDBRANCH  17  19
ENDBRANCH  16  17
ENDBRANCH   1  16
TORSDOF 12
