REMARK SMILES CC[NH2+][C@]1(C(=O)OCCOC(=O)c2ccc(-c3c4nc(c(-c5c(F)c(F)c(F)c(F)c5F)c5ccc([nH]5)c(-c5c(F)c(F)c(F)c(F)c5F)c5nc(c(-c6c(F)c(F)c(F)c(F)c6F)c6ccc3[nH]6)C=C5)C=C4)cc2)CCC[C@H]1CC[N@H+]1CCC[C@@H](CC)C1
REMARK SMILES IDX 8 1 7 2 5 3 6 4 4 5 76 6 79 7 77 8 78 9 3 10 2 13 1 14 80 15
REMARK SMILES IDX 81 16 82 17 83 18 89 19 84 21 86 22 85 23 87 24 88 25 9 26
REMARK SMILES IDX 10 27 11 28 12 29 13 30 14 31 75 32 15 33 74 34 16 35 17 36
REMARK SMILES IDX 18 37 68 38 19 39 73 40 67 41 69 42 20 43 72 44 66 45 65 46
REMARK SMILES IDX 21 48 53 49 33 50 52 51 34 52 37 53 51 54 70 55 35 56 36 57
REMARK SMILES IDX 50 59 71 60 38 61 22 62 23 63 31 64 24 65 25 66 29 67 32 68
REMARK SMILES IDX 26 69 27 70 30 71 28 72 54 73 55 74 63 75 56 76 57 77 61 78
REMARK SMILES IDX 64 79 58 80 59 81 62 82 60 83 39 84 40 85 48 86 41 87 42 88
REMARK SMILES IDX 46 89 49 90 43 91 44 92 47 93 45 94
REMARK H PARENT 3 11 3 12 82 20 69 47 37 58
REMARK Flexibility Score: inf
ROOT
ATOM      1  C   UNL     1       1.753  -0.836  -0.811  1.00  0.00     0.274 C 
ENDROOT
BRANCH   1   2
ATOM      2  O   UNL     1       1.553   0.133  -1.871  1.00  0.00    -0.457 OA
BRANCH   2   3
ATOM      3  C   UNL     1       0.526  -0.183  -2.706  1.00  0.00     0.368 C 
ATOM      4  O   UNL     1      -0.214  -1.151  -2.524  1.00  0.00    -0.245 OA
BRANCH   3   5
ATOM      5  C   UNL     1       0.351   0.771  -3.929  1.00  0.00     0.197 C 
ATOM      6  C   UNL     1       0.711   2.264  -3.817  1.00  0.00     0.081 C 
ATOM      7  C   UNL     1       1.272   0.356  -5.120  1.00  0.00     0.068 C 
ATOM      8  C   UNL     1       0.899   2.757  -5.258  1.00  0.00     0.008 C 
ATOM      9  C   UNL     1       1.017   1.504  -6.121  1.00  0.00     0.011 C 
BRANCH   5  10
ATOM     10  N   UNL     1      -1.089   0.626  -4.384  1.00  0.00    -0.332 N 
ATOM     11  H   UNL     1      -1.171   1.030  -5.317  1.00  0.00     0.347 HD
ATOM     12  H   UNL     1      -1.303  -0.370  -4.362  1.00  0.00     0.347 HD
BRANCH  10  13
ATOM     13  C   UNL     1      -2.067   1.285  -3.512  1.00  0.00     0.257 C 
ATOM     14  C   UNL     1      -3.458   0.698  -3.714  1.00  0.00     0.071 C 
ENDBRANCH  10  13
ENDBRANCH   5  10
BRANCH   7  15
ATOM     15  C   UNL     1       2.810   0.314  -4.856  1.00  0.00     0.072 C 
BRANCH  15  16
ATOM     16  C   UNL     1       3.403  -0.963  -4.248  1.00  0.00     0.262 C 
BRANCH  16  17
ATOM     17  N   UNL     1       2.799  -2.201  -4.744  1.00  0.00    -0.335 N 
ATOM     18  C   UNL     1       3.092  -2.418  -6.170  1.00  0.00     0.262 C 
ATOM     19  C   UNL     1       3.257  -3.347  -3.943  1.00  0.00     0.265 C 
ATOM     20  H   UNL     1       1.788  -2.112  -4.650  1.00  0.00     0.348 HD
ATOM     21  C   UNL     1       2.375  -3.666  -6.681  1.00  0.00     0.062 C 
ATOM     22  C   UNL     1       2.552  -4.643  -4.375  1.00  0.00     0.044 C 
ATOM     23  C   UNL     1       2.771  -4.897  -5.872  1.00  0.00     0.015 C 
BRANCH  22  24
ATOM     24  C   UNL     1       2.955  -5.858  -3.519  1.00  0.00     0.006 C 
ATOM     25  C   UNL     1       4.452  -6.044  -3.309  1.00  0.00     0.004 C 
ENDBRANCH  22  24
ENDBRANCH  16  17
ENDBRANCH  15  16
ENDBRANCH   7  15
ENDBRANCH   3   5
ENDBRANCH   2   3
ENDBRANCH   1   2
BRANCH   1  26
ATOM     26  C   UNL     1       2.553  -0.236   0.343  1.00  0.00     0.275 C 
BRANCH  26  27
ATOM     27  O   UNL     1       1.750   0.783   0.964  1.00  0.00    -0.458 OA
BRANCH  27  28
ATOM     28  C   UNL     1       2.027   2.035   0.543  1.00  0.00     0.338 C 
ATOM     29  O   UNL     1       3.007   2.426  -0.064  1.00  0.00    -0.246 OA
BRANCH  28  30
ATOM     30  C   UNL     1       0.802   2.832   0.670  1.00  0.00     0.060 A 
ATOM     31  C   UNL     1       0.022   2.932  -0.478  1.00  0.00     0.016 A 
ATOM     32  C   UNL     1       0.472   3.549   1.813  1.00  0.00     0.016 A 
ATOM     33  C   UNL     1      -1.040   3.820  -0.541  1.00  0.00     0.010 A 
ATOM     34  C   UNL     1      -0.633   4.408   1.773  1.00  0.00     0.010 A 
ATOM     35  C   UNL     1      -1.371   4.580   0.584  1.00  0.00    -0.014 A 
BRANCH  35  36
ATOM     36  C   UNL     1      -2.410   5.631   0.456  1.00  0.00     0.031 A 
ATOM     37  C   UNL     1      -2.001   7.077   0.502  1.00  0.00     0.074 A 
ATOM     38  C   UNL     1      -3.690   5.303   0.196  1.00  0.00     0.049 A 
ATOM     39  N   UNL     1      -2.748   8.151   0.528  1.00  0.00    -0.248 NA
ATOM     40  C   UNL     1      -0.555   7.350   0.510  1.00  0.00     0.031 C 
ATOM     41  C   UNL     1      -4.197   3.942   0.012  1.00  0.00     0.029 A 
ATOM     42  N   UNL     1      -4.797   6.096   0.023  1.00  0.00    -0.354 N 
ATOM     43  C   UNL     1      -1.866   9.222   0.583  1.00  0.00     0.074 A 
ATOM     44  C   UNL     1      -0.528   8.672   0.597  1.00  0.00     0.031 C 
ATOM     45  C   UNL     1      -5.510   3.997  -0.267  1.00  0.00     0.029 A 
ATOM     46  C   UNL     1      -5.950   5.387  -0.209  1.00  0.00     0.049 A 
ATOM     47  H   UNL     1      -4.767   7.080   0.061  1.00  0.00     0.167 HD
ATOM     48  C   UNL     1      -2.150  10.546   0.616  1.00  0.00     0.037 A 
ATOM     49  C   UNL     1      -7.223   5.811  -0.322  1.00  0.00     0.037 A 
ATOM     50  C   UNL     1      -3.481  11.089   0.582  1.00  0.00     0.049 A 
ATOM     51  C   UNL     1      -7.518   7.283  -0.189  1.00  0.00     0.074 A 
ATOM     52  C   UNL     1      -3.882  12.410   0.691  1.00  0.00     0.029 A 
ATOM     53  N   UNL     1      -4.631  10.336   0.403  1.00  0.00    -0.354 N 
ATOM     54  N   UNL     1      -6.687   8.284  -0.031  1.00  0.00    -0.248 NA
ATOM     55  C   UNL     1      -8.932   7.679  -0.234  1.00  0.00     0.031 C 
ATOM     56  C   UNL     1      -5.277  12.452   0.599  1.00  0.00     0.029 A 
ATOM     57  C   UNL     1      -5.742  11.163   0.397  1.00  0.00     0.049 A 
ATOM     58  H   UNL     1      -4.655   9.357   0.296  1.00  0.00     0.167 HD
ATOM     59  C   UNL     1      -7.473   9.427   0.026  1.00  0.00     0.074 A 
ATOM     60  C   UNL     1      -8.846   8.998  -0.142  1.00  0.00     0.031 C 
ATOM     61  C   UNL     1      -7.097  10.715   0.212  1.00  0.00     0.037 A 
BRANCH  48  62
ATOM     62  C   UNL     1      -0.997  11.495   0.730  1.00  0.00     0.064 A 
ATOM     63  C   UNL     1      -0.166  11.777  -0.364  1.00  0.00     0.173 A 
ATOM     64  C   UNL     1      -0.738  12.154   1.941  1.00  0.00     0.173 A 
ATOM     65  F   UNL     1      -0.360  11.156  -1.537  1.00  0.00    -0.203 F 
ATOM     66  C   UNL     1       0.892  12.675  -0.244  1.00  0.00     0.198 A 
ATOM     67  C   UNL     1       0.306  13.068   2.050  1.00  0.00     0.198 A 
ATOM     68  F   UNL     1      -1.504  11.917   3.016  1.00  0.00    -0.203 F 
ATOM     69  F   UNL     1       1.697  12.904  -1.292  1.00  0.00    -0.200 F 
ATOM     70  C   UNL     1       1.123  13.324   0.960  1.00  0.00     0.200 A 
ATOM     71  F   UNL     1       0.523  13.699   3.213  1.00  0.00    -0.200 F 
ATOM     72  F   UNL     1       2.138  14.193   1.071  1.00  0.00    -0.200 F 
ENDBRANCH  48  62
BRANCH  49  73
ATOM     73  C   UNL     1      -8.329   4.836  -0.515  1.00  0.00     0.064 A 
ATOM     74  C   UNL     1      -9.095   4.830  -1.689  1.00  0.00     0.173 A 
ATOM     75  C   UNL     1      -8.678   3.926   0.495  1.00  0.00     0.173 A 
ATOM     76  F   UNL     1      -8.821   5.701  -2.671  1.00  0.00    -0.203 F 
ATOM     77  C   UNL     1     -10.183   3.971  -1.834  1.00  0.00     0.198 A 
ATOM     78  C   UNL     1      -9.745   3.046   0.335  1.00  0.00     0.198 A 
ATOM     79  F   UNL     1      -7.983   3.895   1.641  1.00  0.00    -0.203 F 
ATOM     80  F   UNL     1     -10.937   4.030  -2.940  1.00  0.00    -0.200 F 
ATOM     81  C   UNL     1     -10.505   3.077  -0.824  1.00  0.00     0.200 A 
ATOM     82  F   UNL     1     -10.046   2.178   1.311  1.00  0.00    -0.200 F 
ATOM     83  F   UNL     1     -11.556   2.257  -0.961  1.00  0.00    -0.200 F 
ENDBRANCH  49  73
BRANCH  61  84
ATOM     84  C   UNL     1      -8.183  11.749   0.206  1.00  0.00     0.064 A 
ATOM     85  C   UNL     1      -9.074  11.882   1.281  1.00  0.00     0.173 A 
ATOM     86  C   UNL     1      -8.323  12.626  -0.880  1.00  0.00     0.173 A 
ATOM     87  F   UNL     1      -8.989  11.056   2.334  1.00  0.00    -0.203 F 
ATOM     88  C   UNL     1     -10.086  12.838   1.255  1.00  0.00     0.198 A 
ATOM     89  C   UNL     1      -9.319  13.597  -0.891  1.00  0.00     0.198 A 
ATOM     90  F   UNL     1      -7.491  12.541  -1.929  1.00  0.00    -0.203 F 
ATOM     91  F   UNL     1     -10.958  12.914   2.269  1.00  0.00    -0.200 F 
ATOM     92  C   UNL     1     -10.205  13.696   0.172  1.00  0.00     0.200 A 
ATOM     93  F   UNL     1      -9.428  14.432  -1.933  1.00  0.00    -0.200 F 
ATOM     94  F   UNL     1     -11.181  14.614   0.148  1.00  0.00    -0.200 F 
ENDBRANCH  61  84
ENDBRANCH  35  36
ENDBRANCH  28  30
ENDBRANCH  27  28
ENDBRANCH  26  27
ENDBRANCH   1  26
TORSDOF 17
