REMARK SMILES O=C(OCCOC(=O)[C@@H]1[C@@H](C(=O)N2CC[NH+](C/C=C/c3ccccc3)CC2)[C@@H]2C=C[C@H]1C2)c1ccc(-c2c3nc(c(-c4c(F)c(F)c(F)c(F)c4F)c4ccc([nH]4)c(-c4c(F)c(F)c(F)c(F)c4F)c4nc(c(-c5c(F)c(F)c(F)c(F)c5F)c5ccc2[nH]5)C=C4)C=C3)cc1
REMARK SMILES IDX 5 1 4 2 3 3 2 4 1 5 33 6 34 7 95 8 35 9 94 10 36 11 37 12
REMARK SMILES IDX 38 13 88 14 39 15 93 16 87 17 89 18 40 19 92 20 86 21 85 22
REMARK SMILES IDX 41 24 73 25 53 26 72 27 54 28 57 29 71 30 90 31 55 32 56 33
REMARK SMILES IDX 70 35 91 36 58 37 42 38 43 39 51 40 44 41 45 42 49 43 52 44
REMARK SMILES IDX 46 45 47 46 50 47 48 48 74 49 75 50 83 51 76 52 77 53 81 54
REMARK SMILES IDX 84 55 78 56 79 57 82 58 80 59 59 60 60 61 68 62 61 63 62 64
REMARK SMILES IDX 66 65 69 66 63 67 64 68 67 69 65 70 6 71 7 72 8 73 9 74
REMARK SMILES IDX 10 75 31 76 28 77 30 78 32 79 29 80 11 81 12 82 13 83 14 84
REMARK SMILES IDX 27 85 15 86 26 87 16 88 17 90 18 91 19 92 20 93 21 94 25 95
REMARK SMILES IDX 22 96 24 97 23 98
REMARK H PARENT 89 23 57 34 16 89
REMARK Flexibility Score: inf
ROOT
ATOM      1  C   UNL     1       4.267  -1.913  -0.637  1.00  0.00     0.274 C 
ENDROOT
BRANCH   1   2
ATOM      2  C   UNL     1       4.536  -1.242   0.718  1.00  0.00     0.275 C 
BRANCH   2   3
ATOM      3  O   UNL     1       3.410  -0.506   1.243  1.00  0.00    -0.458 OA
BRANCH   3   4
ATOM      4  C   UNL     1       3.247   0.821   1.494  1.00  0.00     0.338 C 
ATOM      5  O   UNL     1       2.451   1.156   2.371  1.00  0.00    -0.246 OA
BRANCH   4   6
ATOM      6  C   UNL     1       3.769   1.913   0.598  1.00  0.00     0.060 A 
ATOM      7  C   UNL     1       4.944   1.893  -0.132  1.00  0.00     0.016 A 
ATOM      8  C   UNL     1       2.941   3.050   0.426  1.00  0.00     0.016 A 
ATOM      9  C   UNL     1       5.170   2.891  -1.107  1.00  0.00     0.010 A 
ATOM     10  C   UNL     1       3.132   3.994  -0.615  1.00  0.00     0.010 A 
ATOM     11  C   UNL     1       4.195   3.861  -1.495  1.00  0.00    -0.014 A 
BRANCH  11  12
ATOM     12  C   UNL     1       4.495   4.839  -2.640  1.00  0.00     0.031 A 
ATOM     13  C   UNL     1       5.525   5.905  -2.200  1.00  0.00     0.074 A 
ATOM     14  C   UNL     1       3.975   4.949  -3.917  1.00  0.00     0.049 A 
ATOM     15  N   UNL     1       6.028   6.960  -2.799  1.00  0.00    -0.248 NA
ATOM     16  C   UNL     1       5.893   5.820  -0.774  1.00  0.00     0.031 C 
ATOM     17  C   UNL     1       2.782   4.575  -4.701  1.00  0.00     0.029 A 
ATOM     18  N   UNL     1       4.795   5.197  -4.978  1.00  0.00    -0.354 N 
ATOM     19  C   UNL     1       6.624   7.723  -1.795  1.00  0.00     0.074 A 
ATOM     20  C   UNL     1       6.429   7.000  -0.560  1.00  0.00     0.031 C 
ATOM     21  C   UNL     1       3.006   4.554  -6.044  1.00  0.00     0.029 A 
ATOM     22  C   UNL     1       4.307   5.149  -6.318  1.00  0.00     0.049 A 
ATOM     23  H   UNL     1       5.742   5.412  -4.817  1.00  0.00     0.167 HD
ATOM     24  C   UNL     1       7.240   8.933  -1.821  1.00  0.00     0.037 A 
ATOM     25  C   UNL     1       4.876   5.737  -7.555  1.00  0.00     0.037 A 
ATOM     26  C   UNL     1       7.532   9.739  -2.983  1.00  0.00     0.049 A 
ATOM     27  C   UNL     1       6.227   7.394  -7.873  1.00  0.00     0.074 A 
ATOM     28  C   UNL     1       8.150  10.980  -2.993  1.00  0.00     0.029 A 
ATOM     29  N   UNL     1       7.271   9.425  -4.316  1.00  0.00    -0.354 N 
ATOM     30  N   UNL     1       6.852   8.264  -6.951  1.00  0.00    -0.248 NA
ATOM     31  C   UNL     1       6.819   8.200  -9.231  1.00  0.00     0.031 C 
ATOM     32  C   UNL     1       8.215  11.440  -4.312  1.00  0.00     0.029 A 
ATOM     33  C   UNL     1       7.731  10.451  -5.152  1.00  0.00     0.049 A 
ATOM     34  H   UNL     1       6.828   8.602  -4.625  1.00  0.00     0.167 HD
ATOM     35  C   UNL     1       7.375   9.416  -7.404  1.00  0.00     0.074 A 
ATOM     36  C   UNL     1       7.402   9.323  -8.823  1.00  0.00     0.031 C 
ATOM     37  C   UNL     1       7.726  10.451  -6.605  1.00  0.00     0.037 A 
BRANCH  24  38
ATOM     38  C   UNL     1       7.540   9.520  -0.450  1.00  0.00     0.064 A 
ATOM     39  C   UNL     1       8.483   8.961   0.433  1.00  0.00     0.173 A 
ATOM     40  C   UNL     1       6.755  10.582   0.031  1.00  0.00     0.173 A 
ATOM     41  F   UNL     1       9.219   7.904   0.053  1.00  0.00    -0.203 F 
ATOM     42  C   UNL     1       8.567   9.387   1.759  1.00  0.00     0.198 A 
ATOM     43  C   UNL     1       6.886  11.045   1.338  1.00  0.00     0.198 A 
ATOM     44  F   UNL     1       5.830  11.150  -0.758  1.00  0.00    -0.203 F 
ATOM     45  F   UNL     1       9.367   8.741   2.619  1.00  0.00    -0.200 F 
ATOM     46  C   UNL     1       7.773  10.431   2.208  1.00  0.00     0.200 A 
ATOM     47  F   UNL     1       6.125  12.061   1.767  1.00  0.00    -0.200 F 
ATOM     48  F   UNL     1       7.842  10.826   3.487  1.00  0.00    -0.200 F 
ENDBRANCH  24  38
BRANCH  25  49
ATOM     49  C   UNL     1       4.137   4.670  -8.802  1.00  0.00     0.064 A 
ATOM     50  C   UNL     1       4.852   3.703  -9.609  1.00  0.00     0.173 A 
ATOM     51  C   UNL     1       2.789   4.813  -9.207  1.00  0.00     0.173 A 
ATOM     52  F   UNL     1       6.128   3.363  -9.394  1.00  0.00    -0.203 F 
ATOM     53  C   UNL     1       4.346   3.116 -10.771  1.00  0.00     0.198 A 
ATOM     54  C   UNL     1       2.254   4.121 -10.320  1.00  0.00     0.198 A 
ATOM     55  F   UNL     1       1.970   5.654  -8.561  1.00  0.00    -0.203 F 
ATOM     56  F   UNL     1       5.162   2.395 -11.558  1.00  0.00    -0.200 F 
ATOM     57  C   UNL     1       3.042   3.319 -11.127  1.00  0.00     0.200 A 
ATOM     58  F   UNL     1       0.957   4.259 -10.630  1.00  0.00    -0.200 F 
ATOM     59  F   UNL     1       2.556   2.750 -12.239  1.00  0.00    -0.200 F 
ENDBRANCH  25  49
BRANCH  37  60
ATOM     60  C   UNL     1       8.210  11.646  -7.340  1.00  0.00     0.064 A 
ATOM     61  C   UNL     1       7.327  12.476  -8.043  1.00  0.00     0.173 A 
ATOM     62  C   UNL     1       9.584  11.887  -7.429  1.00  0.00     0.173 A 
ATOM     63  F   UNL     1       6.003  12.268  -7.982  1.00  0.00    -0.203 F 
ATOM     64  C   UNL     1       7.817  13.472  -8.876  1.00  0.00     0.198 A 
ATOM     65  C   UNL     1      10.068  12.898  -8.246  1.00  0.00     0.198 A 
ATOM     66  F   UNL     1      10.453  11.115  -6.759  1.00  0.00    -0.203 F 
ATOM     67  F   UNL     1       6.970  14.203  -9.615  1.00  0.00    -0.200 F 
ATOM     68  C   UNL     1       9.187  13.674  -8.985  1.00  0.00     0.200 A 
ATOM     69  F   UNL     1      11.389  13.092  -8.351  1.00  0.00    -0.200 F 
ATOM     70  F   UNL     1       9.661  14.602  -9.826  1.00  0.00    -0.200 F 
ENDBRANCH  37  60
ENDBRANCH  11  12
ENDBRANCH   4   6
ENDBRANCH   3   4
ENDBRANCH   2   3
ENDBRANCH   1   2
BRANCH   1  71
ATOM     71  O   UNL     1       3.437  -1.136  -1.500  1.00  0.00    -0.462 OA
BRANCH  71  72
ATOM     72  C   UNL     1       2.110  -1.477  -1.625  1.00  0.00     0.310 C 
ATOM     73  O   UNL     1       1.585  -2.466  -1.142  1.00  0.00    -0.252 OA
BRANCH  72  74
ATOM     74  C   UNL     1       1.432  -0.475  -2.543  1.00  0.00     0.119 C 
ATOM     75  C   UNL     1       2.017   0.887  -2.198  1.00  0.00     0.100 C 
ATOM     76  C   UNL     1      -0.093  -0.208  -2.394  1.00  0.00     0.027 C 
ATOM     77  C   UNL     1       0.756   1.784  -1.901  1.00  0.00     0.025 C 
ATOM     78  C   UNL     1      -0.448   0.086  -0.956  1.00  0.00    -0.027 C 
ATOM     79  C   UNL     1      -0.210   1.232  -2.940  1.00  0.00     0.017 C 
ATOM     80  C   UNL     1       0.069   1.283  -0.654  1.00  0.00    -0.027 C 
BRANCH  75  81
ATOM     81  C   UNL     1       2.866   1.499  -3.266  1.00  0.00     0.227 C 
ATOM     82  O   UNL     1       2.696   2.700  -3.340  1.00  0.00    -0.275 OA
ATOM     83  N   UNL     1       3.863   0.907  -4.018  1.00  0.00    -0.331 N 
ATOM     84  C   UNL     1       5.137   1.638  -4.050  1.00  0.00     0.181 C 
ATOM     85  C   UNL     1       3.518   0.598  -5.404  1.00  0.00     0.181 C 
ATOM     86  C   UNL     1       6.311   0.862  -4.626  1.00  0.00     0.284 C 
ATOM     87  C   UNL     1       4.707  -0.039  -6.190  1.00  0.00     0.284 C 
ATOM     88  N   UNL     1       6.059   0.543  -6.016  1.00  0.00    -0.329 N 
ATOM     89  H   UNL     1       6.630  -0.245  -6.323  1.00  0.00     0.348 HD
BRANCH  88  90
ATOM     90  C   UNL     1       6.685   1.433  -7.009  1.00  0.00     0.291 C 
BRANCH  90  91
ATOM     91  C   UNL     1       6.538   2.959  -6.941  1.00  0.00     0.034 C 
ATOM     92  C   UNL     1       7.431   3.977  -7.171  1.00  0.00     0.009 C 
BRANCH  92  93
ATOM     93  C   UNL     1       7.022   5.446  -7.486  1.00  0.00    -0.026 A 
ATOM     94  C   UNL     1       6.348   5.790  -9.126  1.00  0.00     0.008 A 
ATOM     95  C   UNL     1       6.369   6.384  -6.109  1.00  0.00     0.008 A 
ATOM     96  C   UNL     1       4.888   6.893  -9.362  1.00  0.00     0.001 A 
ATOM     97  C   UNL     1       4.890   7.499  -6.313  1.00  0.00     0.001 A 
ATOM     98  C   UNL     1       4.169   7.735  -7.946  1.00  0.00     0.000 A 
ENDBRANCH  92  93
ENDBRANCH  90  91
ENDBRANCH  88  90
ENDBRANCH  75  81
ENDBRANCH  72  74
ENDBRANCH  71  72
ENDBRANCH   1  71
TORSDOF 15
