REMARK SMILES O=C(OCCOC(=O)c1cccnc1NC[C@H](c1ccccc1)[NH+]1CCOCC1)c1ccc(-c2c3nc(c(-c4c(F)c(F)c(F)c(F)c4F)c4ccc([nH]4)c(-c4c(F)c(F)c(F)c(F)c4F)c4nc(c(-c5c(F)c(F)c(F)c(F)c5F)c5ccc2[nH]5)C=C4)C=C3)cc1
REMARK SMILES IDX 5 1 4 2 3 3 2 4 1 5 30 6 31 7 92 8 32 9 91 10 33 11 34 12
REMARK SMILES IDX 35 13 85 14 36 15 90 16 84 17 86 18 37 19 89 20 83 21 82 22
REMARK SMILES IDX 38 24 70 25 50 26 69 27 51 28 54 29 68 30 87 31 52 32 53 33
REMARK SMILES IDX 67 35 88 36 55 37 39 38 40 39 48 40 41 41 42 42 46 43 49 44
REMARK SMILES IDX 43 45 44 46 47 47 45 48 71 49 72 50 80 51 73 52 74 53 78 54
REMARK SMILES IDX 81 55 75 56 76 57 79 58 77 59 56 60 57 61 65 62 58 63 59 64
REMARK SMILES IDX 63 65 66 66 60 67 61 68 64 69 62 70 6 71 7 72 8 73 9 74
REMARK SMILES IDX 10 75 14 76 11 77 13 78 12 79 15 80 16 82 17 83 24 84 25 85
REMARK SMILES IDX 29 86 26 88 28 89 27 90 18 91 19 92 23 93 20 94 22 95 21 96
REMARK H PARENT 86 23 54 34 15 81 24 87
REMARK Flexibility Score: inf
ROOT
ATOM      1  C   UNL     1      -7.020   1.545   1.449  1.00  0.00     0.275 C 
ENDROOT
BRANCH   1   2
ATOM      2  C   UNL     1      -7.074   3.065   1.729  1.00  0.00     0.275 C 
BRANCH   2   3
ATOM      3  O   UNL     1      -5.875   3.859   1.731  1.00  0.00    -0.458 OA
BRANCH   3   4
ATOM      4  C   UNL     1      -4.723   3.228   1.450  1.00  0.00     0.338 C 
ATOM      5  O   UNL     1      -4.456   2.714   0.380  1.00  0.00    -0.246 OA
BRANCH   4   6
ATOM      6  C   UNL     1      -3.916   3.059   2.683  1.00  0.00     0.060 A 
ATOM      7  C   UNL     1      -4.523   3.177   3.939  1.00  0.00     0.016 A 
ATOM      8  C   UNL     1      -2.617   2.554   2.579  1.00  0.00     0.016 A 
ATOM      9  C   UNL     1      -3.869   2.721   5.071  1.00  0.00     0.010 A 
ATOM     10  C   UNL     1      -1.968   2.071   3.708  1.00  0.00     0.010 A 
ATOM     11  C   UNL     1      -2.604   2.143   4.952  1.00  0.00    -0.014 A 
BRANCH  11  12
ATOM     12  C   UNL     1      -1.914   1.710   6.173  1.00  0.00     0.031 A 
ATOM     13  C   UNL     1      -0.897   2.627   6.758  1.00  0.00     0.074 A 
ATOM     14  C   UNL     1      -2.267   0.559   6.770  1.00  0.00     0.049 A 
ATOM     15  N   UNL     1      -0.272   2.534   7.898  1.00  0.00    -0.248 NA
ATOM     16  C   UNL     1      -0.573   3.835   5.980  1.00  0.00     0.031 C 
ATOM     17  C   UNL     1      -3.311  -0.348   6.299  1.00  0.00     0.029 A 
ATOM     18  N   UNL     1      -1.786  -0.047   7.898  1.00  0.00    -0.354 N 
ATOM     19  C   UNL     1       0.458   3.705   8.008  1.00  0.00     0.074 A 
ATOM     20  C   UNL     1       0.281   4.449   6.782  1.00  0.00     0.031 C 
ATOM     21  C   UNL     1      -3.344  -1.435   7.089  1.00  0.00     0.029 A 
ATOM     22  C   UNL     1      -2.341  -1.280   8.135  1.00  0.00     0.049 A 
ATOM     23  H   UNL     1      -1.108   0.361   8.482  1.00  0.00     0.167 HD
ATOM     24  C   UNL     1       1.167   4.137   9.073  1.00  0.00     0.037 A 
ATOM     25  C   UNL     1      -2.059  -2.175   9.098  1.00  0.00     0.037 A 
ATOM     26  C   UNL     1       1.363   3.350  10.257  1.00  0.00     0.049 A 
ATOM     27  C   UNL     1      -1.110  -1.753  10.184  1.00  0.00     0.074 A 
ATOM     28  C   UNL     1       2.075   3.663  11.398  1.00  0.00     0.029 A 
ATOM     29  N   UNL     1       0.858   2.066  10.432  1.00  0.00    -0.354 N 
ATOM     30  N   UNL     1      -0.480  -0.610  10.327  1.00  0.00    -0.248 NA
ATOM     31  C   UNL     1      -0.867  -2.714  11.266  1.00  0.00     0.031 C 
ATOM     32  C   UNL     1       2.047   2.545  12.240  1.00  0.00     0.029 A 
ATOM     33  C   UNL     1       1.274   1.556  11.648  1.00  0.00     0.049 A 
ATOM     34  H   UNL     1       0.287   1.591   9.786  1.00  0.00     0.167 HD
ATOM     35  C   UNL     1       0.185  -0.688  11.540  1.00  0.00     0.074 A 
ATOM     36  C   UNL     1      -0.108  -2.000  12.086  1.00  0.00     0.031 C 
ATOM     37  C   UNL     1       0.952   0.245  12.158  1.00  0.00     0.037 A 
BRANCH  24  38
ATOM     38  C   UNL     1       1.769   5.503   8.968  1.00  0.00     0.064 A 
ATOM     39  C   UNL     1       0.965   6.656   8.981  1.00  0.00     0.173 A 
ATOM     40  C   UNL     1       3.149   5.665   8.801  1.00  0.00     0.173 A 
ATOM     41  F   UNL     1      -0.367   6.550   9.107  1.00  0.00    -0.203 F 
ATOM     42  C   UNL     1       1.522   7.918   8.798  1.00  0.00     0.198 A 
ATOM     43  C   UNL     1       3.705   6.932   8.643  1.00  0.00     0.198 A 
ATOM     44  F   UNL     1       3.956   4.594   8.768  1.00  0.00    -0.203 F 
ATOM     45  F   UNL     1       0.730   8.998   8.751  1.00  0.00    -0.200 F 
ATOM     46  C   UNL     1       2.892   8.055   8.632  1.00  0.00     0.200 A 
ATOM     47  F   UNL     1       5.029   7.064   8.481  1.00  0.00    -0.200 F 
ATOM     48  F   UNL     1       3.426   9.270   8.444  1.00  0.00    -0.200 F 
ENDBRANCH  24  38
BRANCH  25  49
ATOM     49  C   UNL     1      -2.696  -3.516   9.084  1.00  0.00     0.064 A 
ATOM     50  C   UNL     1      -3.648  -3.889  10.042  1.00  0.00     0.173 A 
ATOM     51  C   UNL     1      -2.356  -4.462   8.104  1.00  0.00     0.173 A 
ATOM     52  F   UNL     1      -4.004  -3.024  11.003  1.00  0.00    -0.203 F 
ATOM     53  C   UNL     1      -4.215  -5.163  10.037  1.00  0.00     0.198 A 
ATOM     54  C   UNL     1      -2.936  -5.729   8.088  1.00  0.00     0.198 A 
ATOM     55  F   UNL     1      -1.462  -4.151   7.152  1.00  0.00    -0.203 F 
ATOM     56  F   UNL     1      -5.095  -5.506  10.987  1.00  0.00    -0.200 F 
ATOM     57  C   UNL     1      -3.859  -6.082   9.060  1.00  0.00     0.200 A 
ATOM     58  F   UNL     1      -2.600  -6.606   7.133  1.00  0.00    -0.200 F 
ATOM     59  F   UNL     1      -4.402  -7.307   9.058  1.00  0.00    -0.200 F 
ENDBRANCH  25  49
BRANCH  37  60
ATOM     60  C   UNL     1       1.486  -0.108  13.511  1.00  0.00     0.064 A 
ATOM     61  C   UNL     1       2.527  -1.033  13.672  1.00  0.00     0.173 A 
ATOM     62  C   UNL     1       0.985   0.533  14.654  1.00  0.00     0.173 A 
ATOM     63  F   UNL     1       3.022  -1.683  12.609  1.00  0.00    -0.203 F 
ATOM     64  C   UNL     1       3.035  -1.318  14.935  1.00  0.00     0.198 A 
ATOM     65  C   UNL     1       1.519   0.270  15.911  1.00  0.00     0.198 A 
ATOM     66  F   UNL     1      -0.007   1.429  14.547  1.00  0.00    -0.203 F 
ATOM     67  F   UNL     1       4.000  -2.237  15.074  1.00  0.00    -0.200 F 
ATOM     68  C   UNL     1       2.539  -0.659  16.051  1.00  0.00     0.200 A 
ATOM     69  F   UNL     1       1.048   0.918  16.985  1.00  0.00    -0.200 F 
ATOM     70  F   UNL     1       3.041  -0.924  17.265  1.00  0.00    -0.200 F 
ENDBRANCH  37  60
ENDBRANCH  11  12
ENDBRANCH   4   6
ENDBRANCH   3   4
ENDBRANCH   2   3
ENDBRANCH   1   2
BRANCH   1  71
ATOM     71  O   UNL     1      -5.878   0.855   1.998  1.00  0.00    -0.458 OA
BRANCH  71  72
ATOM     72  C   UNL     1      -5.341  -0.093   1.169  1.00  0.00     0.342 C 
ATOM     73  O   UNL     1      -5.827  -0.499   0.125  1.00  0.00    -0.246 OA
BRANCH  72  74
ATOM     74  C   UNL     1      -4.082  -0.616   1.725  1.00  0.00     0.102 A 
ATOM     75  C   UNL     1      -4.166  -1.419   2.870  1.00  0.00     0.021 A 
ATOM     76  C   UNL     1      -2.835  -0.392   1.120  1.00  0.00     0.140 A 
ATOM     77  C   UNL     1      -3.008  -1.974   3.401  1.00  0.00     0.021 A 
ATOM     78  N   UNL     1      -1.707  -0.901   1.684  1.00  0.00    -0.239 NA
ATOM     79  C   UNL     1      -1.809  -1.669   2.792  1.00  0.00     0.113 A 
BRANCH  76  80
ATOM     80  N   UNL     1      -2.680   0.296  -0.076  1.00  0.00    -0.363 N 
ATOM     81  H   UNL     1      -3.466   0.647  -0.553  1.00  0.00     0.162 HD
BRANCH  80  82
ATOM     82  C   UNL     1      -1.328   0.496  -0.622  1.00  0.00     0.184 C 
BRANCH  82  83
ATOM     83  C   UNL     1      -1.329   0.993  -2.108  1.00  0.00     0.234 C 
BRANCH  83  84
ATOM     84  N   UNL     1      -1.938   2.286  -2.424  1.00  0.00    -0.323 N 
ATOM     85  C   UNL     1      -1.992   2.767  -3.798  1.00  0.00     0.291 C 
ATOM     86  C   UNL     1      -2.345   3.266  -1.446  1.00  0.00     0.291 C 
ATOM     87  H   UNL     1      -2.529   1.515  -2.114  1.00  0.00     0.348 HD
ATOM     88  C   UNL     1      -1.352   4.164  -3.936  1.00  0.00     0.221 C 
ATOM     89  C   UNL     1      -1.702   4.639  -1.657  1.00  0.00     0.221 C 
ATOM     90  O   UNL     1      -1.893   5.106  -2.997  1.00  0.00    -0.370 OA
ENDBRANCH  83  84
BRANCH  83  91
ATOM     91  C   UNL     1       0.094   0.913  -2.679  1.00  0.00     0.011 A 
ATOM     92  C   UNL     1       1.018   1.957  -2.507  1.00  0.00     0.010 A 
ATOM     93  C   UNL     1       0.461  -0.178  -3.484  1.00  0.00     0.010 A 
ATOM     94  C   UNL     1       2.222   1.968  -3.213  1.00  0.00     0.001 A 
ATOM     95  C   UNL     1       1.679  -0.179  -4.167  1.00  0.00     0.001 A 
ATOM     96  C   UNL     1       2.545   0.906  -4.053  1.00  0.00     0.000 A 
ENDBRANCH  83  91
ENDBRANCH  82  83
ENDBRANCH  80  82
ENDBRANCH  76  80
ENDBRANCH  72  74
ENDBRANCH  71  72
ENDBRANCH   1  71
TORSDOF 16
