REMARK SMILES CC(C)C[C@H](NC(=O)[C@H](C)NC(=O)[C@@H](NC(=O)CNC(=O)OCc1ccccc1)C(C)C)C(=O)OCCOC(=O)c1ccc(-c2c3nc(c(-c4c(F)c(F)c(F)c(F)c4F)c4ccc([nH]4)c(-c4c(F)c(F)c(F)c(F)c4F)c4nc(c(-c5c(F)c(F)c(F)c(F)c5F)c5ccc2[nH]5)C=C4)C=C3)cc1
REMARK SMILES IDX 6 1 7 2 8 3 5 5 4 6 2 7 1 8 3 9 33 10 34 11 35 12 36 13
REMARK SMILES IDX 37 14 38 15 39 16 40 17 41 18 42 19 103 20 43 21 102 22
REMARK SMILES IDX 44 23 45 24 46 25 96 26 47 27 101 28 95 29 97 30 48 31
REMARK SMILES IDX 100 32 94 33 93 34 49 36 81 37 61 38 80 39 62 40 65 41 79 42
REMARK SMILES IDX 98 43 63 44 64 45 78 47 99 48 66 49 50 50 51 51 59 52 52 53
REMARK SMILES IDX 53 54 57 55 60 56 54 57 55 58 58 59 56 60 82 61 83 62 91 63
REMARK SMILES IDX 84 64 85 65 89 66 92 67 86 68 87 69 90 70 88 71 67 72 68 73
REMARK SMILES IDX 76 74 69 75 70 76 74 77 77 78 71 79 72 80 75 81 73 82 9 83
REMARK SMILES IDX 10 84 11 85 12 86 13 88 14 89 15 90 16 91 17 93 18 94 19 95
REMARK SMILES IDX 20 96 21 98 22 99 23 100 24 101 25 102 29 103 26 104 28 105
REMARK SMILES IDX 27 106 30 107 31 108 32 109
REMARK H PARENT 6 4 97 35 65 46 11 87 15 92 19 97
REMARK Flexibility Score: inf
ROOT
ATOM      1  N   UNL     1       1.715   3.371  -1.227  1.00  0.00    -0.341 N 
ATOM      2  C   UNL     1       0.797   2.409  -1.598  1.00  0.00     0.242 C 
ATOM      3  O   UNL     1      -0.223   2.771  -2.187  1.00  0.00    -0.273 OA
ATOM      4  H   UNL     1       2.301   3.752  -1.920  1.00  0.00     0.164 HD
ENDROOT
BRANCH   1   5
ATOM      5  C   UNL     1       1.863   3.859   0.166  1.00  0.00     0.192 C 
BRANCH   5   6
ATOM      6  C   UNL     1       2.698   2.948   1.078  1.00  0.00     0.040 C 
BRANCH   6   7
ATOM      7  C   UNL     1       3.628   3.515   2.160  1.00  0.00    -0.015 C 
ATOM      8  C   UNL     1       2.850   3.936   3.404  1.00  0.00     0.007 C 
ATOM      9  C   UNL     1       4.663   2.459   2.585  1.00  0.00     0.007 C 
ENDBRANCH   6   7
ENDBRANCH   5   6
BRANCH   5  10
ATOM     10  C   UNL     1       2.274   5.353   0.246  1.00  0.00     0.328 C 
ATOM     11  O   UNL     1       2.328   5.976   1.300  1.00  0.00    -0.250 OA
BRANCH  10  12
ATOM     12  O   UNL     1       2.557   5.917  -0.962  1.00  0.00    -0.461 OA
BRANCH  12  13
ATOM     13  C   UNL     1       2.988   7.297  -0.891  1.00  0.00     0.274 C 
BRANCH  13  14
ATOM     14  C   UNL     1       1.843   8.314  -1.038  1.00  0.00     0.275 C 
BRANCH  14  15
ATOM     15  O   UNL     1       0.855   8.216   0.009  1.00  0.00    -0.458 OA
BRANCH  15  16
ATOM     16  C   UNL     1      -0.174   7.384  -0.277  1.00  0.00     0.338 C 
ATOM     17  O   UNL     1      -0.335   6.758  -1.313  1.00  0.00    -0.246 OA
BRANCH  16  18
ATOM     18  C   UNL     1      -0.971   7.102   0.929  1.00  0.00     0.060 A 
ATOM     19  C   UNL     1      -0.916   5.790   1.387  1.00  0.00     0.016 A 
ATOM     20  C   UNL     1      -1.836   8.002   1.536  1.00  0.00     0.016 A 
ATOM     21  C   UNL     1      -1.671   5.343   2.451  1.00  0.00     0.010 A 
ATOM     22  C   UNL     1      -2.623   7.560   2.614  1.00  0.00     0.010 A 
ATOM     23  C   UNL     1      -2.540   6.229   3.075  1.00  0.00    -0.014 A 
BRANCH  23  24
ATOM     24  C   UNL     1      -3.432   5.689   4.123  1.00  0.00     0.031 A 
ATOM     25  C   UNL     1      -4.892   5.543   3.825  1.00  0.00     0.074 A 
ATOM     26  C   UNL     1      -2.918   5.236   5.282  1.00  0.00     0.049 A 
ATOM     27  N   UNL     1      -5.878   5.256   4.631  1.00  0.00    -0.248 NA
ATOM     28  C   UNL     1      -5.296   5.749   2.424  1.00  0.00     0.031 C 
ATOM     29  C   UNL     1      -1.492   5.196   5.616  1.00  0.00     0.029 A 
ATOM     30  N   UNL     1      -3.533   4.713   6.390  1.00  0.00    -0.354 N 
ATOM     31  C   UNL     1      -7.025   5.309   3.852  1.00  0.00     0.074 A 
ATOM     32  C   UNL     1      -6.614   5.642   2.506  1.00  0.00     0.031 C 
ATOM     33  C   UNL     1      -1.344   4.680   6.846  1.00  0.00     0.029 A 
ATOM     34  C   UNL     1      -2.663   4.436   7.416  1.00  0.00     0.049 A 
ATOM     35  H   UNL     1      -4.503   4.553   6.444  1.00  0.00     0.167 HD
ATOM     36  C   UNL     1      -8.305   5.109   4.243  1.00  0.00     0.037 A 
ATOM     37  C   UNL     1      -2.914   4.087   8.691  1.00  0.00     0.037 A 
ATOM     38  C   UNL     1      -8.676   4.739   5.584  1.00  0.00     0.049 A 
ATOM     39  C   UNL     1      -4.348   3.947   9.123  1.00  0.00     0.074 A 
ATOM     40  C   UNL     1      -9.939   4.526   6.105  1.00  0.00     0.029 A 
ATOM     41  N   UNL     1      -7.772   4.517   6.615  1.00  0.00    -0.354 N 
ATOM     42  N   UNL     1      -5.442   4.082   8.412  1.00  0.00    -0.248 NA
ATOM     43  C   UNL     1      -4.585   3.623  10.535  1.00  0.00     0.031 C 
ATOM     44  C   UNL     1      -9.801   4.222   7.464  1.00  0.00     0.029 A 
ATOM     45  C   UNL     1      -8.450   4.188   7.776  1.00  0.00     0.049 A 
ATOM     46  H   UNL     1      -6.793   4.583   6.532  1.00  0.00     0.167 HD
ATOM     47  C   UNL     1      -6.496   3.843   9.281  1.00  0.00     0.074 A 
ATOM     48  C   UNL     1      -5.907   3.535  10.570  1.00  0.00     0.031 C 
ATOM     49  C   UNL     1      -7.830   3.877   9.041  1.00  0.00     0.037 A 
BRANCH  36  50
ATOM     50  C   UNL     1      -9.386   5.360   3.233  1.00  0.00     0.064 A 
ATOM     51  C   UNL     1      -9.604   4.510   2.140  1.00  0.00     0.173 A 
ATOM     52  C   UNL     1     -10.222   6.480   3.369  1.00  0.00     0.173 A 
ATOM     53  F   UNL     1      -8.820   3.438   1.951  1.00  0.00    -0.203 F 
ATOM     54  C   UNL     1     -10.600   4.787   1.205  1.00  0.00     0.198 A 
ATOM     55  C   UNL     1     -11.235   6.737   2.450  1.00  0.00     0.198 A 
ATOM     56  F   UNL     1     -10.055   7.328   4.395  1.00  0.00    -0.203 F 
ATOM     57  F   UNL     1     -10.755   3.991   0.138  1.00  0.00    -0.200 F 
ATOM     58  C   UNL     1     -11.418   5.896   1.364  1.00  0.00     0.200 A 
ATOM     59  F   UNL     1     -12.029   7.804   2.612  1.00  0.00    -0.200 F 
ATOM     60  F   UNL     1     -12.377   6.159   0.465  1.00  0.00    -0.200 F 
ENDBRANCH  36  50
BRANCH  37  61
ATOM     61  C   UNL     1      -1.792   3.918   9.653  1.00  0.00     0.064 A 
ATOM     62  C   UNL     1      -1.500   2.669  10.218  1.00  0.00     0.173 A 
ATOM     63  C   UNL     1      -0.987   5.005  10.031  1.00  0.00     0.173 A 
ATOM     64  F   UNL     1      -2.254   1.603   9.911  1.00  0.00    -0.203 F 
ATOM     65  C   UNL     1      -0.458   2.517  11.132  1.00  0.00     0.198 A 
ATOM     66  C   UNL     1       0.075   4.846  10.918  1.00  0.00     0.198 A 
ATOM     67  F   UNL     1      -1.223   6.224   9.525  1.00  0.00    -0.203 F 
ATOM     68  F   UNL     1      -0.229   1.321  11.691  1.00  0.00    -0.200 F 
ATOM     69  C   UNL     1       0.334   3.603  11.474  1.00  0.00     0.200 A 
ATOM     70  F   UNL     1       0.846   5.895  11.233  1.00  0.00    -0.200 F 
ATOM     71  F   UNL     1       1.341   3.454  12.345  1.00  0.00    -0.200 F 
ENDBRANCH  37  61
BRANCH  49  72
ATOM     72  C   UNL     1      -8.737   3.532  10.185  1.00  0.00     0.064 A 
ATOM     73  C   UNL     1      -8.925   4.405  11.265  1.00  0.00     0.173 A 
ATOM     74  C   UNL     1      -9.458   2.328  10.175  1.00  0.00     0.173 A 
ATOM     75  F   UNL     1      -8.245   5.560  11.328  1.00  0.00    -0.203 F 
ATOM     76  C   UNL     1      -9.785   4.073  12.308  1.00  0.00     0.198 A 
ATOM     77  C   UNL     1     -10.341   2.016  11.202  1.00  0.00     0.198 A 
ATOM     78  F   UNL     1      -9.316   1.464   9.159  1.00  0.00    -0.203 F 
ATOM     79  F   UNL     1      -9.913   4.899  13.356  1.00  0.00    -0.200 F 
ATOM     80  C   UNL     1     -10.498   2.884  12.271  1.00  0.00     0.200 A 
ATOM     81  F   UNL     1     -11.041   0.874  11.157  1.00  0.00    -0.200 F 
ATOM     82  F   UNL     1     -11.333   2.572  13.272  1.00  0.00    -0.200 F 
ENDBRANCH  49  72
ENDBRANCH  23  24
ENDBRANCH  16  18
ENDBRANCH  15  16
ENDBRANCH  14  15
ENDBRANCH  13  14
ENDBRANCH  12  13
ENDBRANCH  10  12
ENDBRANCH   5  10
ENDBRANCH   1   5
BRANCH   2  83
ATOM     83  C   UNL     1       1.249   0.929  -1.595  1.00  0.00     0.168 C 
ATOM     84  C   UNL     1       0.085  -0.009  -1.914  1.00  0.00     0.041 C 
BRANCH  83  85
ATOM     85  N   UNL     1       1.913   0.487  -0.386  1.00  0.00    -0.343 N 
ATOM     86  C   UNL     1       3.213   0.178  -0.140  1.00  0.00     0.243 C 
ATOM     87  H   UNL     1       1.318   0.394   0.393  1.00  0.00     0.164 HD
ATOM     88  O   UNL     1       3.478  -0.115   1.034  1.00  0.00    -0.273 OA
BRANCH  86  89
ATOM     89  C   UNL     1       4.343   0.161  -1.212  1.00  0.00     0.174 C 
BRANCH  89  90
ATOM     90  N   UNL     1       3.910  -0.799  -2.263  1.00  0.00    -0.343 N 
ATOM     91  C   UNL     1       3.610  -0.751  -3.589  1.00  0.00     0.240 C 
ATOM     92  H   UNL     1       3.815  -1.711  -1.903  1.00  0.00     0.164 HD
ATOM     93  O   UNL     1       2.942  -1.702  -4.015  1.00  0.00    -0.273 OA
BRANCH  91  94
ATOM     94  C   UNL     1       3.967   0.411  -4.549  1.00  0.00     0.219 C 
BRANCH  94  95
ATOM     95  N   UNL     1       2.936   1.437  -4.597  1.00  0.00    -0.312 N 
ATOM     96  C   UNL     1       3.042   2.797  -4.477  1.00  0.00     0.407 C 
ATOM     97  H   UNL     1       2.021   1.101  -4.737  1.00  0.00     0.167 HD
ATOM     98  O   UNL     1       2.047   3.453  -4.256  1.00  0.00    -0.225 OA
BRANCH  96  99
ATOM     99  O   UNL     1       4.310   3.284  -4.542  1.00  0.00    -0.445 OA
BRANCH  99 100
ATOM    100  C   UNL     1       4.532   4.583  -3.947  1.00  0.00     0.270 C 
BRANCH 100 101
ATOM    101  C   UNL     1       4.008   5.824  -4.642  1.00  0.00    -0.011 A 
ATOM    102  C   UNL     1       4.827   6.593  -5.480  1.00  0.00     0.007 A 
ATOM    103  C   UNL     1       2.713   6.295  -4.371  1.00  0.00     0.007 A 
ATOM    104  C   UNL     1       4.357   7.794  -6.027  1.00  0.00     0.000 A 
ATOM    105  C   UNL     1       2.238   7.482  -4.929  1.00  0.00     0.000 A 
ATOM    106  C   UNL     1       3.063   8.236  -5.755  1.00  0.00     0.000 A 
ENDBRANCH 100 101
ENDBRANCH  99 100
ENDBRANCH  96  99
ENDBRANCH  94  95
ENDBRANCH  91  94
ENDBRANCH  89  90
BRANCH  89 107
ATOM    107  C   UNL     1       5.091   1.399  -1.760  1.00  0.00     0.015 C 
ATOM    108  C   UNL     1       5.277   2.718  -1.019  1.00  0.00     0.010 C 
ATOM    109  C   UNL     1       6.509   0.951  -2.161  1.00  0.00     0.010 C 
ENDBRANCH  89 107
ENDBRANCH  86  89
ENDBRANCH  83  85
ENDBRANCH   2  83
TORSDOF 24
