REMARK SMILES Cc1cc(OC(F)(F)F)cc2c1O[C@H](C(F)(F)F)C(C(=O)OCCOC(=O)c1ccc(-c3c4nc(c(-c5c(F)c(F)c(F)c(F)c5F)c5ccc([nH]5)c(-c5c(F)c(F)c(F)c(F)c5F)c5nc(c(-c6c(F)c(F)c(F)c(F)c6F)c6ccc3[nH]6)C=C5)C=C4)cc1)=C2
REMARK SMILES IDX 23 1 22 2 20 3 21 4 19 5 1 6 2 7 3 8 12 9 4 10 11 11 13 12
REMARK SMILES IDX 10 13 91 14 14 15 5 16 6 17 7 18 8 19 9 20 15 21 16 22 17 23
REMARK SMILES IDX 18 24 24 25 25 26 26 27 27 28 28 29 29 30 90 31 30 32 89 33
REMARK SMILES IDX 31 34 32 35 33 36 83 37 34 38 88 39 82 40 84 41 35 42 87 43
REMARK SMILES IDX 81 44 80 45 36 47 68 48 48 49 67 50 49 51 52 52 66 53 85 54
REMARK SMILES IDX 50 55 51 56 65 58 86 59 53 60 37 61 38 62 46 63 39 64 40 65
REMARK SMILES IDX 44 66 47 67 41 68 42 69 45 70 43 71 69 72 70 73 78 74 71 75
REMARK SMILES IDX 72 76 76 77 79 78 73 79 74 80 77 81 75 82 54 83 55 84 63 85
REMARK SMILES IDX 56 86 57 87 61 88 64 89 58 90 59 91 62 92 60 93
REMARK H PARENT 84 46 52 57
REMARK Flexibility Score: inf
ROOT
ATOM      1  C   UNL     1      -6.055   1.424  -4.361  1.00  0.00     0.275 C 
ENDROOT
BRANCH   1   2
ATOM      2  O   UNL     1      -4.938   1.226  -3.469  1.00  0.00    -0.459 OA
BRANCH   2   3
ATOM      3  C   UNL     1      -3.829   1.947  -3.760  1.00  0.00     0.338 C 
ATOM      4  O   UNL     1      -3.680   2.707  -4.699  1.00  0.00    -0.246 OA
BRANCH   3   5
ATOM      5  C   UNL     1      -2.785   1.713  -2.745  1.00  0.00     0.087 C 
ATOM      6  C   UNL     1       0.974  -0.310   0.114  1.00  0.00     0.048 C 
ATOM      7  C   UNL     1       0.509   1.072  -0.254  1.00  0.00    -0.005 A 
ATOM      8  C   UNL     1       1.225   2.186   0.230  1.00  0.00     0.054 A 
ATOM      9  C   UNL     1      -0.638   1.273  -1.034  1.00  0.00     0.131 A 
ATOM     10  C   UNL     1       0.817   3.485  -0.075  1.00  0.00     0.130 A 
ATOM     11  C   UNL     1      -1.036   2.570  -1.354  1.00  0.00     0.021 A 
ATOM     12  O   UNL     1      -1.336   0.166  -1.434  1.00  0.00    -0.475 OA
ATOM     13  C   UNL     1      -0.317   3.668  -0.867  1.00  0.00     0.058 A 
ATOM     14  C   UNL     1      -2.174   2.783  -2.228  1.00  0.00     0.027 C 
ATOM     15  C   UNL     1      -2.368   0.303  -2.449  1.00  0.00     0.316 C 
BRANCH  10  16
ATOM     16  O   UNL     1       1.418   4.646   0.319  1.00  0.00    -0.406 OA
BRANCH  16  17
ATOM     17  C   UNL     1       2.627   4.553   1.054  1.00  0.00     0.573 C 
ATOM     18  F   UNL     1       2.429   3.931   2.235  1.00  0.00    -0.132 F 
ATOM     19  F   UNL     1       3.574   3.897   0.351  1.00  0.00    -0.132 F 
ATOM     20  F   UNL     1       3.078   5.801   1.305  1.00  0.00    -0.132 F 
ENDBRANCH  16  17
ENDBRANCH  10  16
BRANCH  15  21
ATOM     21  C   UNL     1      -1.913  -0.428  -3.722  1.00  0.00     0.430 C 
ATOM     22  F   UNL     1      -1.515  -1.694  -3.450  1.00  0.00    -0.167 F 
ATOM     23  F   UNL     1      -2.918  -0.526  -4.626  1.00  0.00    -0.167 F 
ATOM     24  F   UNL     1      -0.882   0.201  -4.330  1.00  0.00    -0.167 F 
ENDBRANCH  15  21
ENDBRANCH   3   5
ENDBRANCH   2   3
ENDBRANCH   1   2
BRANCH   1  25
ATOM     25  C   UNL     1      -7.084   2.377  -3.755  1.00  0.00     0.275 C 
BRANCH  25  26
ATOM     26  O   UNL     1      -6.534   3.703  -3.636  1.00  0.00    -0.458 OA
BRANCH  26  27
ATOM     27  C   UNL     1      -6.179   4.068  -2.385  1.00  0.00     0.338 C 
ATOM     28  O   UNL     1      -6.301   3.420  -1.358  1.00  0.00    -0.246 OA
BRANCH  27  29
ATOM     29  C   UNL     1      -5.549   5.396  -2.399  1.00  0.00     0.060 A 
ATOM     30  C   UNL     1      -4.329   5.568  -3.047  1.00  0.00     0.016 A 
ATOM     31  C   UNL     1      -6.070   6.414  -1.602  1.00  0.00     0.016 A 
ATOM     32  C   UNL     1      -3.554   6.693  -2.779  1.00  0.00     0.010 A 
ATOM     33  C   UNL     1      -5.346   7.599  -1.439  1.00  0.00     0.010 A 
ATOM     34  C   UNL     1      -4.054   7.728  -1.977  1.00  0.00    -0.014 A 
BRANCH  34  35
ATOM     35  C   UNL     1      -3.213   8.917  -1.665  1.00  0.00     0.031 A 
ATOM     36  C   UNL     1      -2.890   9.262  -0.233  1.00  0.00     0.074 A 
ATOM     37  C   UNL     1      -2.716   9.677  -2.663  1.00  0.00     0.049 A 
ATOM     38  N   UNL     1      -2.317  10.335   0.253  1.00  0.00    -0.248 NA
ATOM     39  C   UNL     1      -3.270   8.275   0.791  1.00  0.00     0.031 C 
ATOM     40  C   UNL     1      -2.901   9.424  -4.092  1.00  0.00     0.029 A 
ATOM     41  N   UNL     1      -1.946  10.814  -2.627  1.00  0.00    -0.354 N 
ATOM     42  C   UNL     1      -2.304  10.169   1.632  1.00  0.00     0.074 A 
ATOM     43  C   UNL     1      -2.943   8.902   1.913  1.00  0.00     0.031 C 
ATOM     44  C   UNL     1      -2.230  10.347  -4.795  1.00  0.00     0.029 A 
ATOM     45  C   UNL     1      -1.648  11.314  -3.872  1.00  0.00     0.049 A 
ATOM     46  H   UNL     1      -1.638  11.231  -1.790  1.00  0.00     0.167 HD
ATOM     47  C   UNL     1      -1.795  10.996   2.576  1.00  0.00     0.037 A 
ATOM     48  C   UNL     1      -1.014  12.446  -4.234  1.00  0.00     0.037 A 
ATOM     49  C   UNL     1      -1.115  12.232   2.288  1.00  0.00     0.049 A 
ATOM     50  C   UNL     1      -0.528  13.383  -3.164  1.00  0.00     0.074 A 
ATOM     51  C   UNL     1      -0.556  13.135   3.175  1.00  0.00     0.029 A 
ATOM     52  N   UNL     1      -0.888  12.729   1.013  1.00  0.00    -0.354 N 
ATOM     53  N   UNL     1      -0.565  13.240  -1.862  1.00  0.00    -0.248 NA
ATOM     54  C   UNL     1       0.068  14.649  -3.613  1.00  0.00     0.031 C 
ATOM     55  C   UNL     1      -0.027  14.199   2.439  1.00  0.00     0.029 A 
ATOM     56  C   UNL     1      -0.215  13.938   1.092  1.00  0.00     0.049 A 
ATOM     57  H   UNL     1      -1.164  12.289   0.177  1.00  0.00     0.167 HD
ATOM     58  C   UNL     1       0.010  14.389  -1.337  1.00  0.00     0.074 A 
ATOM     59  C   UNL     1       0.411  15.208  -2.461  1.00  0.00     0.031 C 
ATOM     60  C   UNL     1       0.180  14.737  -0.038  1.00  0.00     0.037 A 
BRANCH  47  61
ATOM     61  C   UNL     1      -1.954  10.609   4.019  1.00  0.00     0.064 A 
ATOM     62  C   UNL     1      -1.202   9.573   4.591  1.00  0.00     0.173 A 
ATOM     63  C   UNL     1      -2.806  11.342   4.859  1.00  0.00     0.173 A 
ATOM     64  F   UNL     1      -0.382   8.834   3.829  1.00  0.00    -0.203 F 
ATOM     65  C   UNL     1      -1.304   9.280   5.950  1.00  0.00     0.198 A 
ATOM     66  C   UNL     1      -2.885  11.065   6.222  1.00  0.00     0.198 A 
ATOM     67  F   UNL     1      -3.543  12.348   4.364  1.00  0.00    -0.203 F 
ATOM     68  F   UNL     1      -0.595   8.268   6.470  1.00  0.00    -0.200 F 
ATOM     69  C   UNL     1      -2.136  10.033   6.765  1.00  0.00     0.200 A 
ATOM     70  F   UNL     1      -3.678  11.803   7.010  1.00  0.00    -0.200 F 
ATOM     71  F   UNL     1      -2.216   9.763   8.075  1.00  0.00    -0.200 F 
ENDBRANCH  47  61
BRANCH  48  72
ATOM     72  C   UNL     1      -0.838  12.770  -5.675  1.00  0.00     0.064 A 
ATOM     73  C   UNL     1       0.437  12.792  -6.255  1.00  0.00     0.173 A 
ATOM     74  C   UNL     1      -1.935  13.054  -6.502  1.00  0.00     0.173 A 
ATOM     75  F   UNL     1       1.520  12.554  -5.501  1.00  0.00    -0.203 F 
ATOM     76  C   UNL     1       0.609  13.094  -7.605  1.00  0.00     0.198 A 
ATOM     77  C   UNL     1      -1.766  13.322  -7.859  1.00  0.00     0.198 A 
ATOM     78  F   UNL     1      -3.178  13.049  -5.997  1.00  0.00    -0.203 F 
ATOM     79  F   UNL     1       1.843  13.148  -8.125  1.00  0.00    -0.200 F 
ATOM     80  C   UNL     1      -0.493  13.349  -8.407  1.00  0.00     0.200 A 
ATOM     81  F   UNL     1      -2.835  13.552  -8.633  1.00  0.00    -0.200 F 
ATOM     82  F   UNL     1      -0.328  13.627  -9.708  1.00  0.00    -0.200 F 
ENDBRANCH  48  72
BRANCH  60  83
ATOM     83  C   UNL     1       0.836  16.056   0.243  1.00  0.00     0.064 A 
ATOM     84  C   UNL     1       0.155  17.265   0.045  1.00  0.00     0.173 A 
ATOM     85  C   UNL     1       2.130  16.108   0.783  1.00  0.00     0.173 A 
ATOM     86  F   UNL     1      -1.078  17.267  -0.484  1.00  0.00    -0.203 F 
ATOM     87  C   UNL     1       0.751  18.481   0.367  1.00  0.00     0.198 A 
ATOM     88  C   UNL     1       2.711  17.323   1.132  1.00  0.00     0.198 A 
ATOM     89  F   UNL     1       2.819  14.977   0.998  1.00  0.00    -0.203 F 
ATOM     90  F   UNL     1       0.095  19.627   0.139  1.00  0.00    -0.200 F 
ATOM     91  C   UNL     1       2.023  18.509   0.920  1.00  0.00     0.200 A 
ATOM     92  F   UNL     1       3.933  17.348   1.680  1.00  0.00    -0.200 F 
ATOM     93  F   UNL     1       2.587  19.680   1.247  1.00  0.00    -0.200 F 
ENDBRANCH  60  83
ENDBRANCH  34  35
ENDBRANCH  27  29
ENDBRANCH  26  27
ENDBRANCH  25  26
ENDBRANCH   1  25
TORSDOF 14
