REMARK SMILES Nc1cc(F)c([C@H]([NH3+])C(=O)OCCOC(=O)c2ccc(-c3c4nc(c(-c5c(F)c(F)c(F)c(F)c5F)c5ccc([nH]5)c(-c5c(F)c(F)c(F)c(F)c5F)c5nc(c(-c6c(F)c(F)c(F)c(F)c6F)c6ccc3[nH]6)C=C5)C=C4)cc2)cc1F
REMARK SMILES IDX 12 1 11 2 9 3 10 4 7 5 6 6 2 7 3 8 81 9 4 10 80 11 82 12
REMARK SMILES IDX 5 13 1 14 8 17 13 21 14 22 15 23 16 24 17 25 18 26 79 27
REMARK SMILES IDX 19 28 78 29 20 30 21 31 22 32 72 33 23 34 77 35 71 36 73 37
REMARK SMILES IDX 24 38 76 39 70 40 69 41 25 43 57 44 37 45 56 46 38 47 41 48
REMARK SMILES IDX 55 49 74 50 39 51 40 52 54 54 75 55 42 56 26 57 27 58 35 59
REMARK SMILES IDX 28 60 29 61 33 62 36 63 30 64 31 65 34 66 32 67 58 68 59 69
REMARK SMILES IDX 67 70 60 71 61 72 65 73 68 74 62 75 63 76 66 77 64 78 43 79
REMARK SMILES IDX 44 80 52 81 45 82 46 83 50 84 53 85 47 86 48 87 51 88 49 89
REMARK H PARENT 1 15 1 16 8 18 8 19 8 20 73 42 41 53
REMARK Flexibility Score: inf
ROOT
ATOM      1  C   UNL     1      -1.457   4.252   5.713  1.00  0.00     0.274 C 
ENDROOT
BRANCH   1   2
ATOM      2  O   UNL     1      -0.844   2.989   5.395  1.00  0.00    -0.457 OA
BRANCH   2   3
ATOM      3  C   UNL     1      -1.427   1.890   5.966  1.00  0.00     0.369 C 
ATOM      4  O   UNL     1      -2.352   1.946   6.769  1.00  0.00    -0.245 OA
BRANCH   3   5
ATOM      5  C   UNL     1      -0.834   0.570   5.412  1.00  0.00     0.326 C 
BRANCH   5   6
ATOM      6  C   UNL     1       0.220  -0.046   6.307  1.00  0.00     0.060 A 
ATOM      7  C   UNL     1       2.083  -1.315   8.041  1.00  0.00     0.071 A 
ATOM      8  C   UNL     1       0.857  -0.872   8.524  1.00  0.00     0.068 A 
ATOM      9  C   UNL     1       2.371  -1.104   6.686  1.00  0.00     0.146 A 
ATOM     10  C   UNL     1      -0.062  -0.275   7.662  1.00  0.00     0.135 A 
ATOM     11  C   UNL     1       1.459  -0.493   5.825  1.00  0.00     0.055 A 
ATOM     12  F   UNL     1       3.548  -1.517   6.190  1.00  0.00    -0.205 F 
ATOM     13  F   UNL     1      -1.258   0.054   8.165  1.00  0.00    -0.206 F 
BRANCH   7  14
ATOM     14  N   UNL     1       3.027  -1.854   8.904  1.00  0.00    -0.396 N 
ATOM     15  H   UNL     1       2.803  -1.994   9.853  1.00  0.00     0.156 HD
ATOM     16  H   UNL     1       3.920  -2.098   8.568  1.00  0.00     0.156 HD
ENDBRANCH   7  14
ENDBRANCH   5   6
BRANCH   5  17
ATOM     17  N   UNL     1      -0.393   0.752   4.002  1.00  0.00    -0.342 N 
ATOM     18  H   UNL     1       0.357   1.442   3.967  1.00  0.00     0.345 HD
ATOM     19  H   UNL     1      -1.179   1.074   3.438  1.00  0.00     0.345 HD
ATOM     20  H   UNL     1      -0.053  -0.137   3.635  1.00  0.00     0.345 HD
ENDBRANCH   5  17
ENDBRANCH   3   5
ENDBRANCH   2   3
ENDBRANCH   1   2
BRANCH   1  21
ATOM     21  C   UNL     1      -2.526   4.648   4.684  1.00  0.00     0.275 C 
BRANCH  21  22
ATOM     22  O   UNL     1      -3.715   3.839   4.773  1.00  0.00    -0.458 OA
BRANCH  22  23
ATOM     23  C   UNL     1      -3.712   2.701   4.035  1.00  0.00     0.338 C 
ATOM     24  O   UNL     1      -2.828   2.308   3.297  1.00  0.00    -0.246 OA
BRANCH  23  25
ATOM     25  C   UNL     1      -4.885   1.879   4.393  1.00  0.00     0.060 A 
ATOM     26  C   UNL     1      -6.181   2.392   4.365  1.00  0.00     0.016 A 
ATOM     27  C   UNL     1      -4.665   0.542   4.743  1.00  0.00     0.016 A 
ATOM     28  C   UNL     1      -7.253   1.565   4.718  1.00  0.00     0.010 A 
ATOM     29  C   UNL     1      -5.730  -0.281   5.097  1.00  0.00     0.010 A 
ATOM     30  C   UNL     1      -7.033   0.228   5.096  1.00  0.00    -0.014 A 
BRANCH  30  31
ATOM     31  C   UNL     1      -8.167  -0.659   5.445  1.00  0.00     0.031 A 
ATOM     32  C   UNL     1      -8.408  -1.075   6.867  1.00  0.00     0.074 A 
ATOM     33  C   UNL     1      -8.963  -1.113   4.460  1.00  0.00     0.049 A 
ATOM     34  N   UNL     1      -9.395  -1.780   7.361  1.00  0.00    -0.248 NA
ATOM     35  C   UNL     1      -7.408  -0.660   7.862  1.00  0.00     0.031 C 
ATOM     36  C   UNL     1      -8.777  -0.830   3.037  1.00  0.00     0.029 A 
ATOM     37  N   UNL     1     -10.085  -1.899   4.503  1.00  0.00    -0.354 N 
ATOM     38  C   UNL     1      -9.148  -1.873   8.724  1.00  0.00     0.074 A 
ATOM     39  C   UNL     1      -7.886  -1.209   8.971  1.00  0.00     0.031 C 
ATOM     40  C   UNL     1      -9.775  -1.400   2.345  1.00  0.00     0.029 A 
ATOM     41  C   UNL     1     -10.657  -2.105   3.272  1.00  0.00     0.049 A 
ATOM     42  H   UNL     1     -10.446  -2.280   5.336  1.00  0.00     0.167 HD
ATOM     43  C   UNL     1      -9.922  -2.436   9.682  1.00  0.00     0.037 A 
ATOM     44  C   UNL     1     -11.775  -2.773   2.933  1.00  0.00     0.037 A 
ATOM     45  C   UNL     1     -11.174  -3.100   9.423  1.00  0.00     0.049 A 
ATOM     46  C   UNL     1     -12.605  -3.410   4.014  1.00  0.00     0.074 A 
ATOM     47  C   UNL     1     -12.059  -3.657  10.331  1.00  0.00     0.029 A 
ATOM     48  N   UNL     1     -11.713  -3.309   8.162  1.00  0.00    -0.354 N 
ATOM     49  N   UNL     1     -12.417  -3.405   5.311  1.00  0.00    -0.248 NA
ATOM     50  C   UNL     1     -13.808  -4.136   3.585  1.00  0.00     0.031 C 
ATOM     51  C   UNL     1     -13.106  -4.246   9.617  1.00  0.00     0.029 A 
ATOM     52  C   UNL     1     -12.903  -4.011   8.266  1.00  0.00     0.049 A 
ATOM     53  H   UNL     1     -11.309  -3.003   7.317  1.00  0.00     0.167 HD
ATOM     54  C   UNL     1     -13.481  -4.111   5.855  1.00  0.00     0.074 A 
ATOM     55  C   UNL     1     -14.326  -4.509   4.748  1.00  0.00     0.031 C 
ATOM     56  C   UNL     1     -13.732  -4.404   7.154  1.00  0.00     0.037 A 
BRANCH  43  57
ATOM     57  C   UNL     1      -9.460  -2.338  11.107  1.00  0.00     0.064 A 
ATOM     58  C   UNL     1      -9.475  -1.114  11.793  1.00  0.00     0.173 A 
ATOM     59  C   UNL     1      -9.082  -3.485  11.822  1.00  0.00     0.173 A 
ATOM     60  F   UNL     1      -9.825   0.013  11.156  1.00  0.00    -0.203 F 
ATOM     61  C   UNL     1      -9.114  -1.039  13.136  1.00  0.00     0.198 A 
ATOM     62  C   UNL     1      -8.749  -3.411  13.172  1.00  0.00     0.198 A 
ATOM     63  F   UNL     1      -9.061  -4.683  11.218  1.00  0.00    -0.203 F 
ATOM     64  F   UNL     1      -9.110   0.146  13.762  1.00  0.00    -0.200 F 
ATOM     65  C   UNL     1      -8.762  -2.188  13.827  1.00  0.00     0.200 A 
ATOM     66  F   UNL     1      -8.427  -4.525  13.844  1.00  0.00    -0.200 F 
ATOM     67  F   UNL     1      -8.436  -2.118  15.125  1.00  0.00    -0.200 F 
ENDBRANCH  43  57
BRANCH  44  68
ATOM     68  C   UNL     1     -12.198  -2.819   1.510  1.00  0.00     0.064 A 
ATOM     69  C   UNL     1     -13.327  -2.112   1.075  1.00  0.00     0.173 A 
ATOM     70  C   UNL     1     -11.468  -3.538   0.552  1.00  0.00     0.173 A 
ATOM     71  F   UNL     1     -14.067  -1.424   1.957  1.00  0.00    -0.203 F 
ATOM     72  C   UNL     1     -13.716  -2.129  -0.263  1.00  0.00     0.198 A 
ATOM     73  C   UNL     1     -11.841  -3.531  -0.790  1.00  0.00     0.198 A 
ATOM     74  F   UNL     1     -10.376  -4.225   0.916  1.00  0.00    -0.203 F 
ATOM     75  F   UNL     1     -14.818  -1.470  -0.647  1.00  0.00    -0.200 F 
ATOM     76  C   UNL     1     -12.967  -2.831  -1.196  1.00  0.00     0.200 A 
ATOM     77  F   UNL     1     -11.106  -4.197  -1.692  1.00  0.00    -0.200 F 
ATOM     78  F   UNL     1     -13.333  -2.835  -2.485  1.00  0.00    -0.200 F 
ENDBRANCH  44  68
BRANCH  56  79
ATOM     79  C   UNL     1     -14.971  -5.196   7.460  1.00  0.00     0.064 A 
ATOM     80  C   UNL     1     -15.062  -6.560   7.148  1.00  0.00     0.173 A 
ATOM     81  C   UNL     1     -16.047  -4.604   8.141  1.00  0.00     0.173 A 
ATOM     82  F   UNL     1     -14.066  -7.169   6.486  1.00  0.00    -0.203 F 
ATOM     83  C   UNL     1     -16.190  -7.299   7.494  1.00  0.00     0.198 A 
ATOM     84  C   UNL     1     -17.159  -5.353   8.512  1.00  0.00     0.198 A 
ATOM     85  F   UNL     1     -16.006  -3.304   8.470  1.00  0.00    -0.203 F 
ATOM     86  F   UNL     1     -16.270  -8.593   7.154  1.00  0.00    -0.200 F 
ATOM     87  C   UNL     1     -17.232  -6.699   8.184  1.00  0.00     0.200 A 
ATOM     88  F   UNL     1     -18.157  -4.776   9.194  1.00  0.00    -0.200 F 
ATOM     89  F   UNL     1     -18.308  -7.417   8.533  1.00  0.00    -0.200 F 
ENDBRANCH  56  79
ENDBRANCH  30  31
ENDBRANCH  23  25
ENDBRANCH  22  23
ENDBRANCH  21  22
ENDBRANCH   1  21
TORSDOF 14
