REMARK SMILES CN(C)c1c(Cl)cccc1NS(=O)(=O)c1ccc(F)c(C(=O)OCCOC(=O)c2ccc(-c3c4nc(c(-c5c(F)c(F)c(F)c(F)c5F)c5ccc([nH]5)c(-c5c(F)c(F)c(F)c(F)c5F)c5nc(c(-c6c(F)c(F)c(F)c(F)c6F)c6ccc3[nH]6)C=C5)C=C4)cc2)c1
REMARK SMILES IDX 24 1 23 2 21 3 22 4 20 5 15 6 16 7 92 8 17 9 18 10 19 11
REMARK SMILES IDX 12 12 13 13 14 14 11 15 10 17 4 18 5 19 6 20 7 21 9 22 8 23
REMARK SMILES IDX 2 24 1 25 3 26 25 27 26 28 27 29 28 30 29 31 30 32 91 33
REMARK SMILES IDX 31 34 90 35 32 36 33 37 34 38 84 39 35 40 89 41 83 42 85 43
REMARK SMILES IDX 36 44 88 45 82 46 81 47 37 49 69 50 49 51 68 52 50 53 53 54
REMARK SMILES IDX 67 55 86 56 51 57 52 58 66 60 87 61 54 62 38 63 39 64 47 65
REMARK SMILES IDX 40 66 41 67 45 68 48 69 42 70 43 71 46 72 44 73 70 74 71 75
REMARK SMILES IDX 79 76 72 77 73 78 77 79 80 80 74 81 75 82 78 83 76 84 55 85
REMARK SMILES IDX 56 86 64 87 57 88 58 89 62 90 65 91 59 92 60 93 63 94 61 95
REMARK H PARENT 11 16 85 48 53 59
REMARK Flexibility Score: inf
ROOT
ATOM      1  C   UNL     1      -1.458 -10.536  -5.441  1.00  0.00     0.275 C 
ENDROOT
BRANCH   1   2
ATOM      2  O   UNL     1      -1.179  -9.119  -5.440  1.00  0.00    -0.458 OA
BRANCH   2   3
ATOM      3  C   UNL     1      -2.227  -8.305  -5.171  1.00  0.00     0.341 C 
ATOM      4  O   UNL     1      -3.358  -8.646  -4.865  1.00  0.00    -0.246 OA
BRANCH   3   5
ATOM      5  C   UNL     1      -1.810  -6.889  -5.149  1.00  0.00     0.097 A 
ATOM      6  C   UNL     1      -1.890  -4.737  -4.029  1.00  0.00     0.088 A 
ATOM      7  C   UNL     1      -1.061  -4.182  -5.006  1.00  0.00     0.025 A 
ATOM      8  C   UNL     1      -2.313  -6.067  -4.133  1.00  0.00     0.041 A 
ATOM      9  C   UNL     1      -0.582  -5.000  -6.037  1.00  0.00     0.041 A 
ATOM     10  C   UNL     1      -0.939  -6.351  -6.091  1.00  0.00     0.137 A 
ATOM     11  F   UNL     1      -0.435  -7.105  -7.078  1.00  0.00    -0.206 F 
BRANCH   6  12
ATOM     12  S   UNL     1      -2.236  -3.890  -2.496  1.00  0.00     0.261 S 
ATOM     13  O   UNL     1      -2.162  -4.877  -1.442  1.00  0.00    -0.201 OA
ATOM     14  O   UNL     1      -3.440  -3.122  -2.728  1.00  0.00    -0.201 OA
BRANCH  12  15
ATOM     15  N   UNL     1      -0.999  -2.807  -2.263  1.00  0.00    -0.277 N 
ATOM     16  H   UNL     1      -1.217  -1.851  -2.361  1.00  0.00     0.180 HD
BRANCH  15  17
ATOM     17  C   UNL     1       0.360  -3.136  -1.930  1.00  0.00     0.074 A 
ATOM     18  C   UNL     1       1.077  -2.136  -1.208  1.00  0.00     0.080 A 
ATOM     19  C   UNL     1       2.487  -2.179  -1.288  1.00  0.00     0.066 A 
ATOM     20  Cl  UNL     1       3.540  -1.027  -0.541  1.00  0.00    -0.082 Cl
ATOM     21  C   UNL     1       3.137  -3.212  -1.981  1.00  0.00     0.023 A 
ATOM     22  C   UNL     1       1.024  -4.216  -2.516  1.00  0.00     0.029 A 
ATOM     23  C   UNL     1       2.412  -4.250  -2.551  1.00  0.00     0.004 A 
BRANCH  18  24
ATOM     24  N   UNL     1       0.315  -1.252  -0.409  1.00  0.00    -0.375 N 
ATOM     25  C   UNL     1       0.694   0.141  -0.222  1.00  0.00     0.143 C 
ATOM     26  C   UNL     1      -0.264  -1.919   0.769  1.00  0.00     0.143 C 
ENDBRANCH  18  24
ENDBRANCH  15  17
ENDBRANCH  12  15
ENDBRANCH   6  12
ENDBRANCH   3   5
ENDBRANCH   2   3
ENDBRANCH   1   2
BRANCH   1  27
ATOM     27  C   UNL     1      -0.898 -11.205  -4.186  1.00  0.00     0.275 C 
BRANCH  27  28
ATOM     28  O   UNL     1      -1.593 -10.698  -3.035  1.00  0.00    -0.458 OA
BRANCH  28  29
ATOM     29  C   UNL     1      -0.829 -10.401  -1.959  1.00  0.00     0.338 C 
ATOM     30  O   UNL     1       0.365 -10.591  -1.815  1.00  0.00    -0.246 OA
BRANCH  29  31
ATOM     31  C   UNL     1      -1.671  -9.732  -0.951  1.00  0.00     0.060 A 
ATOM     32  C   UNL     1      -2.335  -8.564  -1.307  1.00  0.00     0.016 A 
ATOM     33  C   UNL     1      -1.710 -10.182   0.368  1.00  0.00     0.016 A 
ATOM     34  C   UNL     1      -2.981  -7.802  -0.338  1.00  0.00     0.010 A 
ATOM     35  C   UNL     1      -2.423  -9.450   1.329  1.00  0.00     0.010 A 
ATOM     36  C   UNL     1      -3.030  -8.225   0.998  1.00  0.00    -0.014 A 
BRANCH  36  37
ATOM     37  C   UNL     1      -3.634  -7.330   2.031  1.00  0.00     0.031 A 
ATOM     38  C   UNL     1      -2.794  -6.806   3.169  1.00  0.00     0.074 A 
ATOM     39  C   UNL     1      -4.909  -6.905   1.917  1.00  0.00     0.049 A 
ATOM     40  N   UNL     1      -3.154  -6.088   4.207  1.00  0.00    -0.248 NA
ATOM     41  C   UNL     1      -1.361  -7.138   3.147  1.00  0.00     0.031 C 
ATOM     42  C   UNL     1      -5.830  -7.275   0.843  1.00  0.00     0.029 A 
ATOM     43  N   UNL     1      -5.640  -6.036   2.693  1.00  0.00    -0.354 N 
ATOM     44  C   UNL     1      -2.012  -5.939   4.983  1.00  0.00     0.074 A 
ATOM     45  C   UNL     1      -0.944  -6.638   4.302  1.00  0.00     0.031 C 
ATOM     46  C   UNL     1      -6.969  -6.580   0.981  1.00  0.00     0.029 A 
ATOM     47  C   UNL     1      -6.896  -5.778   2.199  1.00  0.00     0.049 A 
ATOM     48  H   UNL     1      -5.295  -5.636   3.524  1.00  0.00     0.167 HD
ATOM     49  C   UNL     1      -1.865  -5.276   6.155  1.00  0.00     0.037 A 
ATOM     50  C   UNL     1      -7.886  -4.997   2.675  1.00  0.00     0.037 A 
ATOM     51  C   UNL     1      -2.901  -4.513   6.802  1.00  0.00     0.049 A 
ATOM     52  C   UNL     1      -7.697  -4.268   3.975  1.00  0.00     0.074 A 
ATOM     53  C   UNL     1      -2.837  -3.809   7.994  1.00  0.00     0.029 A 
ATOM     54  N   UNL     1      -4.178  -4.328   6.299  1.00  0.00    -0.354 N 
ATOM     55  N   UNL     1      -6.640  -4.211   4.746  1.00  0.00    -0.248 NA
ATOM     56  C   UNL     1      -8.853  -3.515   4.486  1.00  0.00     0.031 C 
ATOM     57  C   UNL     1      -4.084  -3.219   8.223  1.00  0.00     0.029 A 
ATOM     58  C   UNL     1      -4.913  -3.523   7.157  1.00  0.00     0.049 A 
ATOM     59  H   UNL     1      -4.515  -4.712   5.457  1.00  0.00     0.167 HD
ATOM     60  C   UNL     1      -7.003  -3.430   5.834  1.00  0.00     0.074 A 
ATOM     61  C   UNL     1      -8.366  -3.000   5.607  1.00  0.00     0.031 C 
ATOM     62  C   UNL     1      -6.273  -3.112   6.931  1.00  0.00     0.037 A 
BRANCH  49  63
ATOM     63  C   UNL     1      -0.533  -5.359   6.841  1.00  0.00     0.064 A 
ATOM     64  C   UNL     1      -0.393  -6.123   8.011  1.00  0.00     0.173 A 
ATOM     65  C   UNL     1       0.581  -4.641   6.387  1.00  0.00     0.173 A 
ATOM     66  F   UNL     1      -1.433  -6.822   8.491  1.00  0.00    -0.203 F 
ATOM     67  C   UNL     1       0.812  -6.153   8.708  1.00  0.00     0.198 A 
ATOM     68  C   UNL     1       1.792  -4.694   7.073  1.00  0.00     0.198 A 
ATOM     69  F   UNL     1       0.500  -3.907   5.267  1.00  0.00    -0.203 F 
ATOM     70  F   UNL     1       0.913  -6.865   9.839  1.00  0.00    -0.200 F 
ATOM     71  C   UNL     1       1.904  -5.442   8.236  1.00  0.00     0.200 A 
ATOM     72  F   UNL     1       2.854  -4.024   6.605  1.00  0.00    -0.200 F 
ATOM     73  F   UNL     1       3.067  -5.479   8.902  1.00  0.00    -0.200 F 
ENDBRANCH  49  63
BRANCH  50  74
ATOM     74  C   UNL     1      -9.159  -4.881   1.918  1.00  0.00     0.064 A 
ATOM     75  C   UNL     1     -10.039  -5.967   1.799  1.00  0.00     0.173 A 
ATOM     76  C   UNL     1      -9.514  -3.682   1.285  1.00  0.00     0.173 A 
ATOM     77  F   UNL     1      -9.751  -7.133   2.395  1.00  0.00    -0.203 F 
ATOM     78  C   UNL     1     -11.209  -5.867   1.050  1.00  0.00     0.198 A 
ATOM     79  C   UNL     1     -10.699  -3.574   0.560  1.00  0.00     0.198 A 
ATOM     80  F   UNL     1      -8.723  -2.605   1.401  1.00  0.00    -0.203 F 
ATOM     81  F   UNL     1     -12.014  -6.931   0.924  1.00  0.00    -0.200 F 
ATOM     82  C   UNL     1     -11.540  -4.670   0.434  1.00  0.00     0.200 A 
ATOM     83  F   UNL     1     -11.032  -2.407  -0.007  1.00  0.00    -0.200 F 
ATOM     84  F   UNL     1     -12.673  -4.570  -0.274  1.00  0.00    -0.200 F 
ENDBRANCH  50  74
BRANCH  62  85
ATOM     85  C   UNL     1      -6.937  -2.267   7.977  1.00  0.00     0.064 A 
ATOM     86  C   UNL     1      -6.562  -0.927   8.159  1.00  0.00     0.173 A 
ATOM     87  C   UNL     1      -7.918  -2.798   8.826  1.00  0.00     0.173 A 
ATOM     88  F   UNL     1      -5.623  -0.375   7.377  1.00  0.00    -0.203 F 
ATOM     89  C   UNL     1      -7.146  -0.151   9.157  1.00  0.00     0.198 A 
ATOM     90  C   UNL     1      -8.517  -2.012   9.807  1.00  0.00     0.198 A 
ATOM     91  F   UNL     1      -8.319  -4.070   8.682  1.00  0.00    -0.203 F 
ATOM     92  F   UNL     1      -6.760   1.121   9.326  1.00  0.00    -0.200 F 
ATOM     93  C   UNL     1      -8.126  -0.692   9.976  1.00  0.00     0.200 A 
ATOM     94  F   UNL     1      -9.481  -2.529  10.582  1.00  0.00    -0.200 F 
ATOM     95  F   UNL     1      -8.700   0.062  10.923  1.00  0.00    -0.200 F 
ENDBRANCH  62  85
ENDBRANCH  36  37
ENDBRANCH  29  31
ENDBRANCH  28  29
ENDBRANCH  27  28
ENDBRANCH   1  27
TORSDOF 15
