REMARK SMILES Cc1ccsc1CNC(=O)N[C@@H]1CCCC[C@H]1C(=O)OCCOC(=O)c1ccc(-c2c3nc(c(-c4c(F)c(F)c(F)c(F)c4F)c4ccc([nH]4)c(-c4c(F)c(F)c(F)c(F)c4F)c4nc(c(-c5c(F)c(F)c(F)c(F)c5F)c5ccc2[nH]5)C=C4)C=C3)cc1
REMARK SMILES IDX 21 1 20 2 18 3 19 4 17 5 12 6 13 7 14 8 16 9 15 10 11 11
REMARK SMILES IDX 8 12 9 13 10 15 7 17 6 18 1 19 2 20 3 21 4 22 5 23 22 24
REMARK SMILES IDX 23 25 24 26 25 27 26 28 27 29 88 30 28 31 87 32 29 33 30 34
REMARK SMILES IDX 31 35 81 36 32 37 86 38 80 39 82 40 33 41 85 42 79 43 78 44
REMARK SMILES IDX 34 46 66 47 46 48 65 49 47 50 50 51 64 52 83 53 48 54 49 55
REMARK SMILES IDX 63 57 84 58 51 59 35 60 36 61 44 62 37 63 38 64 42 65 45 66
REMARK SMILES IDX 39 67 40 68 43 69 41 70 67 71 68 72 76 73 69 74 70 75 74 76
REMARK SMILES IDX 77 77 71 78 72 79 75 80 73 81 52 82 53 83 61 84 54 85 55 86
REMARK SMILES IDX 59 87 62 88 56 89 57 90 60 91 58 92
REMARK H PARENT 8 14 11 16 82 45 50 56
REMARK Flexibility Score: inf
ROOT
ATOM      1  C   UNL     1      -4.886  -2.637  -2.109  1.00  0.00     0.274 C 
ENDROOT
BRANCH   1   2
ATOM      2  O   UNL     1      -3.503  -3.034  -2.234  1.00  0.00    -0.462 OA
BRANCH   2   3
ATOM      3  C   UNL     1      -2.599  -2.054  -1.980  1.00  0.00     0.311 C 
ATOM      4  O   UNL     1      -2.893  -0.893  -1.711  1.00  0.00    -0.252 OA
BRANCH   3   5
ATOM      5  C   UNL     1      -1.157  -2.489  -2.179  1.00  0.00     0.121 C 
ATOM      6  C   UNL     1      -0.829  -3.944  -1.811  1.00  0.00     0.098 C 
ATOM      7  C   UNL     1       0.488  -4.514  -2.374  1.00  0.00     0.026 C 
ATOM      8  C   UNL     1       0.856  -4.011  -3.763  1.00  0.00     0.002 C 
ATOM      9  C   UNL     1      -0.738  -2.098  -3.596  1.00  0.00     0.017 C 
ATOM     10  C   UNL     1       0.697  -2.506  -3.895  1.00  0.00     0.001 C 
BRANCH   6  11
ATOM     11  N   UNL     1      -0.907  -4.232  -0.371  1.00  0.00    -0.335 N 
ATOM     12  N   UNL     1       0.576  -2.862   0.897  1.00  0.00    -0.333 N 
ATOM     13  C   UNL     1      -0.325  -3.837   0.763  1.00  0.00     0.315 C 
ATOM     14  H   UNL     1       0.665  -2.573   1.834  1.00  0.00     0.165 HD
ATOM     15  O   UNL     1      -0.685  -4.412   1.796  1.00  0.00    -0.249 OA
ATOM     16  H   UNL     1      -1.590  -4.918  -0.191  1.00  0.00     0.165 HD
BRANCH  12  17
ATOM     17  C   UNL     1       1.456  -2.122   0.020  1.00  0.00     0.164 C 
BRANCH  17  18
ATOM     18  C   UNL     1       1.365  -0.622   0.204  1.00  0.00     0.027 A 
ATOM     19  C   UNL     1       3.865   0.010   0.228  1.00  0.00     0.045 C 
ATOM     20  C   UNL     1       2.401   0.306   0.267  1.00  0.00    -0.035 A 
ATOM     21  C   UNL     1       1.904   1.653   0.345  1.00  0.00     0.015 A 
ATOM     22  C   UNL     1       0.534   1.720   0.322  1.00  0.00     0.065 A 
ATOM     23  S   UNL     1      -0.158   0.178   0.211  1.00  0.00    -0.147 S 
ENDBRANCH  17  18
ENDBRANCH  12  17
ENDBRANCH   6  11
ENDBRANCH   3   5
ENDBRANCH   2   3
ENDBRANCH   1   2
BRANCH   1  24
ATOM     24  C   UNL     1      -5.453  -3.076  -0.761  1.00  0.00     0.275 C 
BRANCH  24  25
ATOM     25  O   UNL     1      -4.684  -2.492   0.303  1.00  0.00    -0.458 OA
BRANCH  25  26
ATOM     26  C   UNL     1      -4.665  -3.208   1.455  1.00  0.00     0.338 C 
ATOM     27  O   UNL     1      -5.269  -4.244   1.673  1.00  0.00    -0.246 OA
BRANCH  26  28
ATOM     28  C   UNL     1      -3.800  -2.545   2.458  1.00  0.00     0.060 A 
ATOM     29  C   UNL     1      -2.624  -1.904   2.078  1.00  0.00     0.016 A 
ATOM     30  C   UNL     1      -4.112  -2.662   3.815  1.00  0.00     0.016 A 
ATOM     31  C   UNL     1      -1.716  -1.477   3.052  1.00  0.00     0.010 A 
ATOM     32  C   UNL     1      -3.234  -2.159   4.786  1.00  0.00     0.010 A 
ATOM     33  C   UNL     1      -1.999  -1.603   4.416  1.00  0.00    -0.014 A 
BRANCH  33  34
ATOM     34  C   UNL     1      -0.965  -1.264   5.438  1.00  0.00     0.031 A 
ATOM     35  C   UNL     1      -0.462  -2.334   6.371  1.00  0.00     0.074 A 
ATOM     36  C   UNL     1      -0.419  -0.034   5.516  1.00  0.00     0.049 A 
ATOM     37  N   UNL     1       0.251  -2.218   7.465  1.00  0.00    -0.248 NA
ATOM     38  C   UNL     1      -0.807  -3.721   6.024  1.00  0.00     0.031 C 
ATOM     39  C   UNL     1      -0.703   1.085   4.620  1.00  0.00     0.029 A 
ATOM     40  N   UNL     1       0.503   0.477   6.402  1.00  0.00    -0.354 N 
ATOM     41  C   UNL     1       0.381  -3.506   7.970  1.00  0.00     0.074 A 
ATOM     42  C   UNL     1      -0.316  -4.389   7.059  1.00  0.00     0.031 C 
ATOM     43  C   UNL     1       0.039   2.142   4.987  1.00  0.00     0.029 A 
ATOM     44  C   UNL     1       0.785   1.805   6.196  1.00  0.00     0.049 A 
ATOM     45  H   UNL     1       0.920  -0.059   7.115  1.00  0.00     0.167 HD
ATOM     46  C   UNL     1       1.022  -3.914   9.091  1.00  0.00     0.037 A 
ATOM     47  C   UNL     1       1.516   2.671   6.924  1.00  0.00     0.037 A 
ATOM     48  C   UNL     1       1.775  -3.054   9.966  1.00  0.00     0.049 A 
ATOM     49  C   UNL     1       2.172   2.213   8.199  1.00  0.00     0.074 A 
ATOM     50  C   UNL     1       2.435  -3.377  11.140  1.00  0.00     0.029 A 
ATOM     51  N   UNL     1       1.992  -1.703   9.746  1.00  0.00    -0.354 N 
ATOM     52  N   UNL     1       2.191   1.019   8.737  1.00  0.00    -0.248 NA
ATOM     53  C   UNL     1       2.889   3.233   8.979  1.00  0.00     0.031 C 
ATOM     54  C   UNL     1       3.034  -2.216  11.642  1.00  0.00     0.029 A 
ATOM     55  C   UNL     1       2.775  -1.178  10.762  1.00  0.00     0.049 A 
ATOM     56  H   UNL     1       1.642  -1.192   8.981  1.00  0.00     0.167 HD
ATOM     57  C   UNL     1       2.922   1.141   9.911  1.00  0.00     0.074 A 
ATOM     58  C   UNL     1       3.351   2.521   9.998  1.00  0.00     0.031 C 
ATOM     59  C   UNL     1       3.203   0.194  10.838  1.00  0.00     0.037 A 
BRANCH  46  60
ATOM     60  C   UNL     1       0.901  -5.361   9.464  1.00  0.00     0.064 A 
ATOM     61  C   UNL     1       1.616  -6.363   8.793  1.00  0.00     0.173 A 
ATOM     62  C   UNL     1       0.076  -5.743  10.534  1.00  0.00     0.173 A 
ATOM     63  F   UNL     1       2.408  -6.048   7.758  1.00  0.00    -0.203 F 
ATOM     64  C   UNL     1       1.493  -7.699   9.167  1.00  0.00     0.198 A 
ATOM     65  C   UNL     1      -0.025  -7.076  10.920  1.00  0.00     0.198 A 
ATOM     66  F   UNL     1      -0.622  -4.819  11.212  1.00  0.00    -0.203 F 
ATOM     67  F   UNL     1       2.156  -8.646   8.490  1.00  0.00    -0.200 F 
ATOM     68  C   UNL     1       0.677  -8.053  10.232  1.00  0.00     0.200 A 
ATOM     69  F   UNL     1      -0.803  -7.414  11.957  1.00  0.00    -0.200 F 
ATOM     70  F   UNL     1       0.566  -9.339  10.595  1.00  0.00    -0.200 F 
ENDBRANCH  46  60
BRANCH  47  71
ATOM     71  C   UNL     1       1.616   4.091   6.498  1.00  0.00     0.064 A 
ATOM     72  C   UNL     1       2.825   4.625   6.033  1.00  0.00     0.173 A 
ATOM     73  C   UNL     1       0.505   4.946   6.562  1.00  0.00     0.173 A 
ATOM     74  F   UNL     1       3.922   3.855   5.986  1.00  0.00    -0.203 F 
ATOM     75  C   UNL     1       2.921   5.962   5.656  1.00  0.00     0.198 A 
ATOM     76  C   UNL     1       0.595   6.275   6.157  1.00  0.00     0.198 A 
ATOM     77  F   UNL     1      -0.673   4.485   7.009  1.00  0.00    -0.203 F 
ATOM     78  F   UNL     1       4.099   6.459   5.254  1.00  0.00    -0.200 F 
ATOM     79  C   UNL     1       1.805   6.784   5.710  1.00  0.00     0.200 A 
ATOM     80  F   UNL     1      -0.488   7.062   6.203  1.00  0.00    -0.200 F 
ATOM     81  F   UNL     1       1.897   8.069   5.341  1.00  0.00    -0.200 F 
ENDBRANCH  47  71
BRANCH  59  82
ATOM     82  C   UNL     1       4.034   0.608  12.016  1.00  0.00     0.064 A 
ATOM     83  C   UNL     1       3.497   1.381  13.056  1.00  0.00     0.173 A 
ATOM     84  C   UNL     1       5.372   0.202  12.121  1.00  0.00     0.173 A 
ATOM     85  F   UNL     1       2.227   1.808  12.992  1.00  0.00    -0.203 F 
ATOM     86  C   UNL     1       4.276   1.748  14.149  1.00  0.00     0.198 A 
ATOM     87  C   UNL     1       6.142   0.553  13.226  1.00  0.00     0.198 A 
ATOM     88  F   UNL     1       5.932  -0.540  11.153  1.00  0.00    -0.203 F 
ATOM     89  F   UNL     1       3.754   2.520  15.113  1.00  0.00    -0.200 F 
ATOM     90  C   UNL     1       5.596   1.330  14.237  1.00  0.00     0.200 A 
ATOM     91  F   UNL     1       7.415   0.143  13.313  1.00  0.00    -0.200 F 
ATOM     92  F   UNL     1       6.343   1.683  15.291  1.00  0.00    -0.200 F 
ENDBRANCH  59  82
ENDBRANCH  33  34
ENDBRANCH  26  28
ENDBRANCH  25  26
ENDBRANCH  24  25
ENDBRANCH   1  24
TORSDOF 14
