REMARK SMILES O=C(CCn1c(SCc2ccccn2)nc2ccccc2c1=O)OCCOC(=O)c1ccc(-c2c3nc(c(-c4c(F)c(F)c(F)c(F)c4F)c4ccc([nH]4)c(-c4c(F)c(F)c(F)c(F)c4F)c4nc(c(-c5c(F)c(F)c(F)c(F)c5F)c5ccc2[nH]5)C=C4)C=C3)cc1
REMARK SMILES IDX 24 1 2 2 1 3 3 4 4 5 5 6 6 7 22 8 15 9 21 10 23 11 16 12
REMARK SMILES IDX 20 13 17 14 19 15 18 16 7 17 8 18 9 19 10 20 14 21 11 22
REMARK SMILES IDX 13 23 12 24 25 25 26 26 27 27 28 28 29 29 30 30 31 31 92 32
REMARK SMILES IDX 32 33 91 34 33 35 34 36 35 37 85 38 36 39 90 40 84 41 86 42
REMARK SMILES IDX 37 43 89 44 83 45 82 46 38 48 70 49 50 50 69 51 51 52 54 53
REMARK SMILES IDX 68 54 87 55 52 56 53 57 67 59 88 60 55 61 39 62 40 63 48 64
REMARK SMILES IDX 41 65 42 66 46 67 49 68 43 69 44 70 47 71 45 72 71 73 72 74
REMARK SMILES IDX 80 75 73 76 74 77 78 78 81 79 75 80 76 81 79 82 77 83 56 84
REMARK SMILES IDX 57 85 65 86 58 87 59 88 63 89 66 90 60 91 61 92 64 93 62 94
REMARK H PARENT 86 47 54 58
REMARK Flexibility Score: inf
ROOT
ATOM      1  O   UNL     1       3.892  -0.546   1.261  1.00  0.00    -0.462 OA
ENDROOT
BRANCH   1   2
ATOM      2  C   UNL     1       3.182  -0.200   2.368  1.00  0.00     0.307 C 
ATOM      3  O   UNL     1       2.303  -0.921   2.833  1.00  0.00    -0.252 OA
BRANCH   2   4
ATOM      4  C   UNL     1       3.549   1.129   3.054  1.00  0.00     0.144 C 
BRANCH   4   5
ATOM      5  C   UNL     1       4.079   2.404   2.365  1.00  0.00     0.140 C 
BRANCH   5   6
ATOM      6  N   UNL     1       5.219   2.181   1.517  1.00  0.00    -0.286 N 
ATOM      7  C   UNL     1       5.131   1.573   0.296  1.00  0.00     0.171 A 
ATOM      8  C   UNL     1       6.478   2.429   2.031  1.00  0.00     0.262 A 
ATOM      9  N   UNL     1       5.993   0.664  -0.064  1.00  0.00    -0.224 NA
ATOM     10  C   UNL     1       7.375   1.280   1.856  1.00  0.00     0.066 A 
ATOM     11  O   UNL     1       6.796   3.404   2.672  1.00  0.00    -0.269 OA
ATOM     12  C   UNL     1       6.958   0.323   0.928  1.00  0.00     0.079 A 
ATOM     13  C   UNL     1       8.349   1.041   2.828  1.00  0.00     0.016 A 
ATOM     14  C   UNL     1       7.460  -0.970   1.086  1.00  0.00     0.029 A 
ATOM     15  C   UNL     1       8.845  -0.247   2.962  1.00  0.00     0.001 A 
ATOM     16  C   UNL     1       8.372  -1.258   2.120  1.00  0.00     0.002 A 
BRANCH   7  17
ATOM     17  S   UNL     1       3.948   2.262  -0.787  1.00  0.00    -0.081 SA
BRANCH  17  18
ATOM     18  C   UNL     1       2.320   1.550  -0.383  1.00  0.00     0.134 C 
BRANCH  18  19
ATOM     19  C   UNL     1       1.390   2.375   0.472  1.00  0.00     0.051 A 
ATOM     20  C   UNL     1       0.502   1.747   1.348  1.00  0.00     0.025 A 
ATOM     21  N   UNL     1       1.458   3.723   0.356  1.00  0.00    -0.260 NA
ATOM     22  C   UNL     1      -0.263   2.534   2.203  1.00  0.00     0.003 A 
ATOM     23  C   UNL     1       0.694   4.460   1.185  1.00  0.00     0.111 A 
ATOM     24  C   UNL     1      -0.154   3.917   2.132  1.00  0.00     0.020 A 
ENDBRANCH  18  19
ENDBRANCH  17  18
ENDBRANCH   7  17
ENDBRANCH   5   6
ENDBRANCH   4   5
ENDBRANCH   2   4
ENDBRANCH   1   2
BRANCH   1  25
ATOM     25  C   UNL     1       3.453  -1.735   0.530  1.00  0.00     0.274 C 
BRANCH  25  26
ATOM     26  C   UNL     1       3.979  -1.837  -0.935  1.00  0.00     0.275 C 
BRANCH  26  27
ATOM     27  O   UNL     1       3.643  -0.694  -1.767  1.00  0.00    -0.458 OA
BRANCH  27  28
ATOM     28  C   UNL     1       2.978  -0.857  -2.945  1.00  0.00     0.338 C 
ATOM     29  O   UNL     1       2.490  -1.889  -3.364  1.00  0.00    -0.246 OA
BRANCH  28  30
ATOM     30  C   UNL     1       2.776   0.486  -3.580  1.00  0.00     0.060 A 
ATOM     31  C   UNL     1       3.849   1.298  -3.971  1.00  0.00     0.016 A 
ATOM     32  C   UNL     1       1.478   1.008  -3.644  1.00  0.00     0.016 A 
ATOM     33  C   UNL     1       3.633   2.650  -4.329  1.00  0.00     0.010 A 
ATOM     34  C   UNL     1       1.274   2.369  -3.944  1.00  0.00     0.010 A 
ATOM     35  C   UNL     1       2.348   3.219  -4.276  1.00  0.00    -0.014 A 
BRANCH  35  36
ATOM     36  C   UNL     1       2.072   4.618  -4.742  1.00  0.00     0.031 A 
ATOM     37  C   UNL     1       2.262   5.860  -3.898  1.00  0.00     0.074 A 
ATOM     38  C   UNL     1       1.568   4.771  -5.982  1.00  0.00     0.049 A 
ATOM     39  N   UNL     1       2.089   7.121  -4.238  1.00  0.00    -0.248 NA
ATOM     40  C   UNL     1       2.688   5.681  -2.507  1.00  0.00     0.031 C 
ATOM     41  C   UNL     1       1.308   3.677  -6.917  1.00  0.00     0.029 A 
ATOM     42  N   UNL     1       1.163   5.896  -6.660  1.00  0.00    -0.354 N 
ATOM     43  C   UNL     1       2.424   7.882  -3.123  1.00  0.00     0.074 A 
ATOM     44  C   UNL     1       2.769   6.938  -2.077  1.00  0.00     0.031 C 
ATOM     45  C   UNL     1       0.759   4.177  -8.032  1.00  0.00     0.029 A 
ATOM     46  C   UNL     1       0.642   5.628  -7.901  1.00  0.00     0.049 A 
ATOM     47  H   UNL     1       1.240   6.806  -6.292  1.00  0.00     0.167 HD
ATOM     48  C   UNL     1       2.454   9.235  -2.986  1.00  0.00     0.037 A 
ATOM     49  C   UNL     1       0.136   6.444  -8.844  1.00  0.00     0.037 A 
ATOM     50  C   UNL     1       2.076  10.193  -4.004  1.00  0.00     0.049 A 
ATOM     51  C   UNL     1       0.136   7.932  -8.650  1.00  0.00     0.074 A 
ATOM     52  C   UNL     1       2.135  11.579  -3.949  1.00  0.00     0.029 A 
ATOM     53  N   UNL     1       1.551   9.876  -5.247  1.00  0.00    -0.354 N 
ATOM     54  N   UNL     1       0.566   8.633  -7.633  1.00  0.00    -0.248 NA
ATOM     55  C   UNL     1      -0.392   8.743  -9.758  1.00  0.00     0.031 C 
ATOM     56  C   UNL     1       1.601  12.100  -5.133  1.00  0.00     0.029 A 
ATOM     57  C   UNL     1       1.260  11.039  -5.951  1.00  0.00     0.049 A 
ATOM     58  H   UNL     1       1.406   8.962  -5.582  1.00  0.00     0.167 HD
ATOM     59  C   UNL     1       0.404   9.964  -7.995  1.00  0.00     0.074 A 
ATOM     60  C   UNL     1      -0.159   9.974  -9.327  1.00  0.00     0.031 C 
ATOM     61  C   UNL     1       0.708  11.073  -7.280  1.00  0.00     0.037 A 
BRANCH  48  62
ATOM     62  C   UNL     1       2.957   9.821  -1.693  1.00  0.00     0.064 A 
ATOM     63  C   UNL     1       4.331   9.850  -1.409  1.00  0.00     0.173 A 
ATOM     64  C   UNL     1       2.099  10.539  -0.843  1.00  0.00     0.173 A 
ATOM     65  F   UNL     1       5.196   9.199  -2.200  1.00  0.00    -0.203 F 
ATOM     66  C   UNL     1       4.826  10.579  -0.330  1.00  0.00     0.198 A 
ATOM     67  C   UNL     1       2.600  11.285   0.222  1.00  0.00     0.198 A 
ATOM     68  F   UNL     1       0.779  10.572  -1.085  1.00  0.00    -0.203 F 
ATOM     69  F   UNL     1       6.144  10.603  -0.087  1.00  0.00    -0.200 F 
ATOM     70  C   UNL     1       3.963  11.307   0.476  1.00  0.00     0.200 A 
ATOM     71  F   UNL     1       1.768  12.012   0.981  1.00  0.00    -0.200 F 
ATOM     72  F   UNL     1       4.447  12.044   1.486  1.00  0.00    -0.200 F 
ENDBRANCH  48  62
BRANCH  49  73
ATOM     73  C   UNL     1      -0.356   5.856 -10.114  1.00  0.00     0.064 A 
ATOM     74  C   UNL     1       0.379   6.006 -11.297  1.00  0.00     0.173 A 
ATOM     75  C   UNL     1      -1.552   5.128 -10.165  1.00  0.00     0.173 A 
ATOM     76  F   UNL     1       1.519   6.712 -11.292  1.00  0.00    -0.203 F 
ATOM     77  C   UNL     1      -0.076   5.464 -12.494  1.00  0.00     0.198 A 
ATOM     78  C   UNL     1      -1.992   4.564 -11.359  1.00  0.00     0.198 A 
ATOM     79  F   UNL     1      -2.282   4.954  -9.054  1.00  0.00    -0.203 F 
ATOM     80  F   UNL     1       0.622   5.657 -13.621  1.00  0.00    -0.200 F 
ATOM     81  C   UNL     1      -1.258   4.738 -12.523  1.00  0.00     0.200 A 
ATOM     82  F   UNL     1      -3.127   3.851 -11.382  1.00  0.00    -0.200 F 
ATOM     83  F   UNL     1      -1.693   4.212 -13.676  1.00  0.00    -0.200 F 
ENDBRANCH  49  73
BRANCH  61  84
ATOM     84  C   UNL     1       0.479  12.408  -7.933  1.00  0.00     0.064 A 
ATOM     85  C   UNL     1      -0.811  12.904  -8.172  1.00  0.00     0.173 A 
ATOM     86  C   UNL     1       1.567  13.211  -8.313  1.00  0.00     0.173 A 
ATOM     87  F   UNL     1      -1.887  12.172  -7.844  1.00  0.00    -0.203 F 
ATOM     88  C   UNL     1      -1.005  14.136  -8.794  1.00  0.00     0.198 A 
ATOM     89  C   UNL     1       1.370  14.456  -8.908  1.00  0.00     0.198 A 
ATOM     90  F   UNL     1       2.824  12.791  -8.105  1.00  0.00    -0.203 F 
ATOM     91  F   UNL     1      -2.247  14.563  -9.060  1.00  0.00    -0.200 F 
ATOM     92  C   UNL     1       0.085  14.913  -9.156  1.00  0.00     0.200 A 
ATOM     93  F   UNL     1       2.425  15.210  -9.248  1.00  0.00    -0.200 F 
ATOM     94  F   UNL     1      -0.103  16.098  -9.753  1.00  0.00    -0.200 F 
ENDBRANCH  61  84
ENDBRANCH  35  36
ENDBRANCH  28  30
ENDBRANCH  27  28
ENDBRANCH  26  27
ENDBRANCH  25  26
ENDBRANCH   1  25
TORSDOF 16
