REMARK SMILES O=C(COc1ccccc1/C=N\N1CC[NH+](Cc2ccc(Cl)cc2)CC1)OCCOC(=O)c1ccc(-c2c3nc(c(-c4c(F)c(F)c(F)c(F)c4F)c4ccc([nH]4)c(-c4c(F)c(F)c(F)c(F)c4F)c4nc(c(-c5c(F)c(F)c(F)c(F)c5F)c5ccc2[nH]5)C=C4)C=C3)cc1
REMARK SMILES IDX 1 1 2 2 3 3 4 4 5 5 6 6 10 7 7 8 9 9 8 10 11 11 12 12 13 13
REMARK SMILES IDX 14 14 26 15 15 16 25 17 16 18 17 20 18 21 19 22 24 23 20 24
REMARK SMILES IDX 23 25 21 26 22 27 27 28 28 29 29 30 30 31 31 32 32 33 33 34
REMARK SMILES IDX 34 35 95 36 35 37 94 38 36 39 37 40 38 41 88 42 39 43 93 44
REMARK SMILES IDX 87 45 89 46 40 47 92 48 86 49 85 50 41 52 73 53 53 54 72 55
REMARK SMILES IDX 54 56 57 57 71 58 90 59 55 60 56 61 70 63 91 64 58 65 42 66
REMARK SMILES IDX 43 67 51 68 44 69 45 70 49 71 52 72 46 73 47 74 50 75 48 76
REMARK SMILES IDX 74 77 75 78 83 79 76 80 77 81 81 82 84 83 78 84 79 85 82 86
REMARK SMILES IDX 80 87 59 88 60 89 68 90 61 91 62 92 66 93 69 94 63 95 64 96
REMARK SMILES IDX 67 97 65 98
REMARK H PARENT 16 19 89 51 57 62
REMARK Flexibility Score: inf
ROOT
ATOM      1  O   UNL     1       1.133  -0.489  -0.118  1.00  0.00    -0.248 OA
ATOM      2  C   UNL     1       2.363  -0.455  -0.079  1.00  0.00     0.344 C 
ENDROOT
BRANCH   2   3
ATOM      3  C   UNL     1       3.170  -1.752  -0.073  1.00  0.00     0.352 C 
BRANCH   3   4
ATOM      4  O   UNL     1       4.216  -1.880  -1.024  1.00  0.00    -0.481 OA
BRANCH   4   5
ATOM      5  C   UNL     1       3.809  -2.529  -2.158  1.00  0.00     0.129 A 
ATOM      6  C   UNL     1       3.975  -3.914  -2.218  1.00  0.00     0.047 A 
ATOM      7  C   UNL     1       3.325  -1.820  -3.263  1.00  0.00     0.037 A 
ATOM      8  C   UNL     1       3.637  -4.599  -3.385  1.00  0.00     0.004 A 
ATOM      9  C   UNL     1       3.057  -2.505  -4.449  1.00  0.00     0.013 A 
ATOM     10  C   UNL     1       3.188  -3.894  -4.502  1.00  0.00     0.001 A 
BRANCH   7  11
ATOM     11  C   UNL     1       3.089  -0.372  -3.102  1.00  0.00     0.145 C 
ATOM     12  N   UNL     1       2.137   0.396  -3.546  1.00  0.00    -0.185 NA
BRANCH  12  13
ATOM     13  N   UNL     1       1.244  -0.107  -4.416  1.00  0.00    -0.286 NA
ATOM     14  C   UNL     1       0.643   0.896  -5.304  1.00  0.00     0.200 C 
ATOM     15  C   UNL     1       0.160  -1.023  -4.004  1.00  0.00     0.200 C 
ATOM     16  C   UNL     1       0.211   0.206  -6.602  1.00  0.00     0.286 C 
ATOM     17  C   UNL     1      -0.361  -1.778  -5.262  1.00  0.00     0.286 C 
ATOM     18  N   UNL     1      -0.664  -0.964  -6.455  1.00  0.00    -0.328 N 
ATOM     19  H   UNL     1      -0.418  -1.579  -7.231  1.00  0.00     0.348 HD
BRANCH  18  20
ATOM     20  C   UNL     1      -2.079  -0.715  -6.722  1.00  0.00     0.299 C 
BRANCH  20  21
ATOM     21  C   UNL     1      -2.881  -0.155  -5.573  1.00  0.00     0.006 A 
ATOM     22  C   UNL     1      -3.598  -1.024  -4.735  1.00  0.00     0.011 A 
ATOM     23  C   UNL     1      -2.885   1.217  -5.293  1.00  0.00     0.011 A 
ATOM     24  C   UNL     1      -4.256  -0.539  -3.606  1.00  0.00     0.021 A 
ATOM     25  C   UNL     1      -3.539   1.703  -4.159  1.00  0.00     0.021 A 
ATOM     26  C   UNL     1      -4.211   0.821  -3.315  1.00  0.00     0.041 A 
ATOM     27  Cl  UNL     1      -4.984   1.413  -1.898  1.00  0.00    -0.084 Cl
ENDBRANCH  20  21
ENDBRANCH  18  20
ENDBRANCH  12  13
ENDBRANCH   7  11
ENDBRANCH   4   5
ENDBRANCH   3   4
ENDBRANCH   2   3
BRANCH   2  28
ATOM     28  O   UNL     1       3.011   0.732   0.008  1.00  0.00    -0.460 OA
BRANCH  28  29
ATOM     29  C   UNL     1       4.424   0.913   0.258  1.00  0.00     0.274 C 
BRANCH  29  30
ATOM     30  C   UNL     1       4.685   1.202   1.735  1.00  0.00     0.275 C 
BRANCH  30  31
ATOM     31  O   UNL     1       4.266   0.068   2.511  1.00  0.00    -0.458 OA
BRANCH  31  32
ATOM     32  C   UNL     1       3.030   0.174   3.061  1.00  0.00     0.338 C 
ATOM     33  O   UNL     1       2.344   1.175   3.149  1.00  0.00    -0.246 OA
BRANCH  32  34
ATOM     34  C   UNL     1       2.540  -1.189   3.350  1.00  0.00     0.060 A 
ATOM     35  C   UNL     1       1.216  -1.496   3.011  1.00  0.00     0.016 A 
ATOM     36  C   UNL     1       3.374  -2.165   3.907  1.00  0.00     0.016 A 
ATOM     37  C   UNL     1       0.704  -2.763   3.280  1.00  0.00     0.010 A 
ATOM     38  C   UNL     1       2.859  -3.431   4.188  1.00  0.00     0.010 A 
ATOM     39  C   UNL     1       1.508  -3.715   3.921  1.00  0.00    -0.014 A 
BRANCH  39  40
ATOM     40  C   UNL     1       0.860  -4.874   4.577  1.00  0.00     0.031 A 
ATOM     41  C   UNL     1       0.434  -4.705   6.010  1.00  0.00     0.074 A 
ATOM     42  C   UNL     1       0.631  -6.026   3.927  1.00  0.00     0.049 A 
ATOM     43  N   UNL     1      -0.174  -5.545   6.805  1.00  0.00    -0.248 NA
ATOM     44  C   UNL     1       0.745  -3.406   6.631  1.00  0.00     0.031 C 
ATOM     45  C   UNL     1       0.972  -6.300   2.534  1.00  0.00     0.029 A 
ATOM     46  N   UNL     1       0.047  -7.187   4.368  1.00  0.00    -0.354 N 
ATOM     47  C   UNL     1      -0.323  -4.875   8.012  1.00  0.00     0.074 A 
ATOM     48  C   UNL     1       0.296  -3.577   7.862  1.00  0.00     0.031 C 
ATOM     49  C   UNL     1       0.591  -7.555   2.232  1.00  0.00     0.029 A 
ATOM     50  C   UNL     1      -0.007  -8.173   3.415  1.00  0.00     0.049 A 
ATOM     51  H   UNL     1      -0.300  -7.302   5.282  1.00  0.00     0.167 HD
ATOM     52  C   UNL     1      -0.935  -5.295   9.143  1.00  0.00     0.037 A 
ATOM     53  C   UNL     1      -0.489  -9.429   3.500  1.00  0.00     0.037 A 
ATOM     54  C   UNL     1      -1.541  -6.588   9.297  1.00  0.00     0.049 A 
ATOM     55  C   UNL     1      -1.111  -9.897   4.793  1.00  0.00     0.074 A 
ATOM     56  C   UNL     1      -2.195  -7.111  10.397  1.00  0.00     0.029 A 
ATOM     57  N   UNL     1      -1.557  -7.567   8.315  1.00  0.00    -0.354 N 
ATOM     58  N   UNL     1      -1.295  -9.241   5.914  1.00  0.00    -0.248 NA
ATOM     59  C   UNL     1      -1.606 -11.281   4.824  1.00  0.00     0.031 C 
ATOM     60  C   UNL     1      -2.563  -8.427  10.099  1.00  0.00     0.029 A 
ATOM     61  C   UNL     1      -2.190  -8.702   8.792  1.00  0.00     0.049 A 
ATOM     62  H   UNL     1      -1.175  -7.470   7.413  1.00  0.00     0.167 HD
ATOM     63  C   UNL     1      -1.968 -10.112   6.763  1.00  0.00     0.074 A 
ATOM     64  C   UNL     1      -2.160 -11.344   6.027  1.00  0.00     0.031 C 
ATOM     65  C   UNL     1      -2.396  -9.909   8.034  1.00  0.00     0.037 A 
BRANCH  52  66
ATOM     66  C   UNL     1      -0.942  -4.349  10.306  1.00  0.00     0.064 A 
ATOM     67  C   UNL     1      -1.719  -3.180  10.302  1.00  0.00     0.173 A 
ATOM     68  C   UNL     1      -0.151  -4.609  11.435  1.00  0.00     0.173 A 
ATOM     69  F   UNL     1      -2.474  -2.875   9.236  1.00  0.00    -0.203 F 
ATOM     70  C   UNL     1      -1.679  -2.290  11.372  1.00  0.00     0.198 A 
ATOM     71  C   UNL     1      -0.136  -3.731  12.515  1.00  0.00     0.198 A 
ATOM     72  F   UNL     1       0.613  -5.710  11.486  1.00  0.00    -0.203 F 
ATOM     73  F   UNL     1      -2.383  -1.151  11.321  1.00  0.00    -0.200 F 
ATOM     74  C   UNL     1      -0.892  -2.569  12.479  1.00  0.00     0.200 A 
ATOM     75  F   UNL     1       0.620  -4.006  13.588  1.00  0.00    -0.200 F 
ATOM     76  F   UNL     1      -0.852  -1.711  13.508  1.00  0.00    -0.200 F 
ENDBRANCH  52  66
BRANCH  53  77
ATOM     77  C   UNL     1      -0.432 -10.335   2.323  1.00  0.00     0.064 A 
ATOM     78  C   UNL     1      -1.603 -10.731   1.661  1.00  0.00     0.173 A 
ATOM     79  C   UNL     1       0.786 -10.854   1.860  1.00  0.00     0.173 A 
ATOM     80  F   UNL     1      -2.794 -10.283   2.083  1.00  0.00    -0.203 F 
ATOM     81  C   UNL     1      -1.561 -11.632   0.599  1.00  0.00     0.198 A 
ATOM     82  C   UNL     1       0.829 -11.734   0.780  1.00  0.00     0.198 A 
ATOM     83  F   UNL     1       1.935 -10.508   2.458  1.00  0.00    -0.203 F 
ATOM     84  F   UNL     1      -2.700 -12.035   0.019  1.00  0.00    -0.200 F 
ATOM     85  C   UNL     1      -0.345 -12.130   0.157  1.00  0.00     0.200 A 
ATOM     86  F   UNL     1       2.007 -12.206   0.350  1.00  0.00    -0.200 F 
ATOM     87  F   UNL     1      -0.305 -12.998  -0.863  1.00  0.00    -0.200 F 
ENDBRANCH  53  77
BRANCH  65  88
ATOM     88  C   UNL     1      -3.173 -11.014   8.689  1.00  0.00     0.064 A 
ATOM     89  C   UNL     1      -2.566 -12.210   9.099  1.00  0.00     0.173 A 
ATOM     90  C   UNL     1      -4.543 -10.851   8.950  1.00  0.00     0.173 A 
ATOM     91  F   UNL     1      -1.262 -12.420   8.863  1.00  0.00    -0.203 F 
ATOM     92  C   UNL     1      -3.307 -13.213   9.718  1.00  0.00     0.198 A 
ATOM     93  C   UNL     1      -5.274 -11.842   9.598  1.00  0.00     0.198 A 
ATOM     94  F   UNL     1      -5.171  -9.722   8.589  1.00  0.00    -0.203 F 
ATOM     95  F   UNL     1      -2.717 -14.368  10.055  1.00  0.00    -0.200 F 
ATOM     96  C   UNL     1      -4.658 -13.026   9.973  1.00  0.00     0.200 A 
ATOM     97  F   UNL     1      -6.575 -11.652   9.859  1.00  0.00    -0.200 F 
ATOM     98  F   UNL     1      -5.367 -13.990  10.575  1.00  0.00    -0.200 F 
ENDBRANCH  65  88
ENDBRANCH  39  40
ENDBRANCH  32  34
ENDBRANCH  31  32
ENDBRANCH  30  31
ENDBRANCH  29  30
ENDBRANCH  28  29
ENDBRANCH   2  28
TORSDOF 17
