REMARK SMILES Cc1nnc(-c2ccccc2-c2cc(NCC(=O)OCCOC(=O)c3ccc(-c4c5nc(c(-c6c(F)c(F)c(F)c(F)c6F)c6ccc([nH]6)c(-c6c(F)c(F)c(F)c(F)c6F)c6nc(c(-c7c(F)c(F)c(F)c(F)c7F)c7ccc4[nH]7)C=C6)C=C5)cc3)nc3[nH]ccc23)o1
REMARK SMILES IDX 20 1 19 2 17 3 18 4 16 5 15 6 14 8 12 9 13 10 93 11 89 12
REMARK SMILES IDX 92 13 88 14 90 15 91 16 11 18 6 19 7 20 8 21 10 22 9 23 5 24
REMARK SMILES IDX 1 25 2 26 3 27 94 28 4 29 21 30 22 31 23 32 24 33 25 34
REMARK SMILES IDX 26 35 87 36 27 37 86 38 28 39 29 40 30 41 80 42 31 43 85 44
REMARK SMILES IDX 79 45 81 46 32 47 84 48 78 49 77 50 33 52 65 53 45 54 64 55
REMARK SMILES IDX 46 56 49 57 63 58 82 59 47 60 48 61 62 63 83 64 50 65 34 66
REMARK SMILES IDX 35 67 43 68 36 69 37 70 41 71 44 72 38 73 39 74 42 75 40 76
REMARK SMILES IDX 66 77 67 78 75 79 68 80 69 81 73 82 76 83 70 84 71 85 74 86
REMARK SMILES IDX 72 87 51 88 52 89 60 90 53 91 54 92 58 93 61 94 55 95 56 96
REMARK SMILES IDX 59 97 57 98
REMARK H PARENT 15 7 90 17 81 51 49 62
REMARK Flexibility Score: inf
ROOT
ATOM      1  C   UNL     1      -1.733  -4.097  -3.472  1.00  0.00     0.274 C 
ENDROOT
BRANCH   1   2
ATOM      2  O   UNL     1      -0.542  -3.352  -3.775  1.00  0.00    -0.461 OA
BRANCH   2   3
ATOM      3  C   UNL     1      -0.080  -3.428  -5.055  1.00  0.00     0.325 C 
ATOM      4  O   UNL     1      -0.578  -4.118  -5.939  1.00  0.00    -0.250 OA
BRANCH   3   5
ATOM      5  C   UNL     1       1.154  -2.560  -5.267  1.00  0.00     0.237 C 
BRANCH   5   6
ATOM      6  N   UNL     1       1.128  -1.335  -4.463  1.00  0.00    -0.359 N 
ATOM      7  H   UNL     1       0.335  -0.752  -4.454  1.00  0.00     0.162 HD
BRANCH   6   8
ATOM      8  C   UNL     1       2.256  -1.022  -3.712  1.00  0.00     0.129 A 
ATOM      9  C   UNL     1       3.307   0.409  -2.032  1.00  0.00    -0.003 A 
ATOM     10  C   UNL     1       2.213   0.087  -2.863  1.00  0.00     0.056 A 
ATOM     11  C   UNL     1       4.445  -0.416  -2.149  1.00  0.00     0.027 A 
ATOM     12  C   UNL     1       4.383  -1.447  -3.074  1.00  0.00     0.140 A 
ATOM     13  C   UNL     1       5.729  -0.514  -1.534  1.00  0.00     0.030 A 
ATOM     14  N   UNL     1       3.358  -1.776  -3.869  1.00  0.00    -0.213 NA
ATOM     15  N   UNL     1       5.568  -2.126  -3.047  1.00  0.00    -0.346 N 
ATOM     16  C   UNL     1       6.399  -1.572  -2.110  1.00  0.00     0.085 A 
ATOM     17  H   UNL     1       5.791  -2.898  -3.616  1.00  0.00     0.167 HD
BRANCH   9  18
ATOM     18  C   UNL     1       3.289   1.507  -1.049  1.00  0.00    -0.005 A 
ATOM     19  C   UNL     1       2.344   1.583   0.002  1.00  0.00     0.047 A 
ATOM     20  C   UNL     1       2.406   2.646   0.924  1.00  0.00     0.014 A 
ATOM     21  C   UNL     1       3.390   3.628   0.822  1.00  0.00     0.001 A 
ATOM     22  C   UNL     1       4.258   2.528  -1.141  1.00  0.00     0.009 A 
ATOM     23  C   UNL     1       4.314   3.572  -0.215  1.00  0.00     0.001 A 
BRANCH  19  24
ATOM     24  C   UNL     1       1.299   0.587   0.167  1.00  0.00     0.248 A 
ATOM     25  C   UNL     1      -2.168  -0.005   0.054  1.00  0.00     0.113 C 
ATOM     26  C   UNL     1      -0.705  -0.111   0.166  1.00  0.00     0.213 A 
ATOM     27  N   UNL     1       0.053  -1.175   0.308  1.00  0.00    -0.113 NA
ATOM     28  O   UNL     1       0.011   1.053   0.093  1.00  0.00    -0.421 OA
ATOM     29  N   UNL     1       1.358  -0.722   0.302  1.00  0.00    -0.108 NA
ENDBRANCH  19  24
ENDBRANCH   9  18
ENDBRANCH   6   8
ENDBRANCH   5   6
ENDBRANCH   3   5
ENDBRANCH   2   3
ENDBRANCH   1   2
BRANCH   1  30
ATOM     30  C   UNL     1      -2.960  -3.181  -3.433  1.00  0.00     0.275 C 
BRANCH  30  31
ATOM     31  O   UNL     1      -3.276  -2.647  -4.732  1.00  0.00    -0.458 OA
BRANCH  31  32
ATOM     32  C   UNL     1      -2.647  -1.490  -5.053  1.00  0.00     0.338 C 
ATOM     33  O   UNL     1      -1.890  -0.841  -4.352  1.00  0.00    -0.246 OA
BRANCH  32  34
ATOM     34  C   UNL     1      -2.889  -1.190  -6.476  1.00  0.00     0.060 A 
ATOM     35  C   UNL     1      -1.779  -1.048  -7.314  1.00  0.00     0.016 A 
ATOM     36  C   UNL     1      -4.181  -1.015  -6.977  1.00  0.00     0.016 A 
ATOM     37  C   UNL     1      -1.954  -0.748  -8.663  1.00  0.00     0.010 A 
ATOM     38  C   UNL     1      -4.356  -0.704  -8.330  1.00  0.00     0.010 A 
ATOM     39  C   UNL     1      -3.244  -0.568  -9.180  1.00  0.00    -0.014 A 
BRANCH  39  40
ATOM     40  C   UNL     1      -3.424  -0.202 -10.604  1.00  0.00     0.031 A 
ATOM     41  C   UNL     1      -3.758   1.212 -10.975  1.00  0.00     0.074 A 
ATOM     42  C   UNL     1      -3.274  -1.136 -11.560  1.00  0.00     0.049 A 
ATOM     43  N   UNL     1      -4.040   1.718 -12.148  1.00  0.00    -0.248 NA
ATOM     44  C   UNL     1      -3.776   2.188  -9.875  1.00  0.00     0.031 C 
ATOM     45  C   UNL     1      -2.893  -2.528 -11.326  1.00  0.00     0.029 A 
ATOM     46  N   UNL     1      -3.427  -1.054 -12.922  1.00  0.00    -0.354 N 
ATOM     47  C   UNL     1      -4.285   3.066 -11.928  1.00  0.00     0.074 A 
ATOM     48  C   UNL     1      -4.134   3.298 -10.507  1.00  0.00     0.031 C 
ATOM     49  C   UNL     1      -2.839  -3.170 -12.504  1.00  0.00     0.029 A 
ATOM     50  C   UNL     1      -3.230  -2.248 -13.568  1.00  0.00     0.049 A 
ATOM     51  H   UNL     1      -3.655  -0.218 -13.389  1.00  0.00     0.167 HD
ATOM     52  C   UNL     1      -4.606   4.021 -12.834  1.00  0.00     0.037 A 
ATOM     53  C   UNL     1      -3.380  -2.568 -14.868  1.00  0.00     0.037 A 
ATOM     54  C   UNL     1      -4.741   3.786 -14.248  1.00  0.00     0.049 A 
ATOM     55  C   UNL     1      -3.828  -1.508 -15.838  1.00  0.00     0.074 A 
ATOM     56  C   UNL     1      -5.034   4.694 -15.251  1.00  0.00     0.029 A 
ATOM     57  N   UNL     1      -4.597   2.548 -14.858  1.00  0.00    -0.354 N 
ATOM     58  N   UNL     1      -4.058  -0.235 -15.625  1.00  0.00    -0.248 NA
ATOM     59  C   UNL     1      -4.054  -1.935 -17.226  1.00  0.00     0.031 C 
ATOM     60  C   UNL     1      -5.115   3.996 -16.461  1.00  0.00     0.029 A 
ATOM     61  C   UNL     1      -4.829   2.662 -16.220  1.00  0.00     0.049 A 
ATOM     62  H   UNL     1      -4.364   1.713 -14.393  1.00  0.00     0.167 HD
ATOM     63  C   UNL     1      -4.433   0.295 -16.852  1.00  0.00     0.074 A 
ATOM     64  C   UNL     1      -4.391  -0.792 -17.808  1.00  0.00     0.031 C 
ATOM     65  C   UNL     1      -4.781   1.569 -17.157  1.00  0.00     0.037 A 
BRANCH  52  66
ATOM     66  C   UNL     1      -4.870   5.404 -12.315  1.00  0.00     0.064 A 
ATOM     67  C   UNL     1      -3.837   6.231 -11.850  1.00  0.00     0.173 A 
ATOM     68  C   UNL     1      -6.177   5.915 -12.303  1.00  0.00     0.173 A 
ATOM     69  F   UNL     1      -2.573   5.783 -11.828  1.00  0.00    -0.203 F 
ATOM     70  C   UNL     1      -4.107   7.509 -11.368  1.00  0.00     0.198 A 
ATOM     71  C   UNL     1      -6.439   7.203 -11.845  1.00  0.00     0.198 A 
ATOM     72  F   UNL     1      -7.200   5.166 -12.741  1.00  0.00    -0.203 F 
ATOM     73  F   UNL     1      -3.111   8.266 -10.886  1.00  0.00    -0.200 F 
ATOM     74  C   UNL     1      -5.406   7.996 -11.371  1.00  0.00     0.200 A 
ATOM     75  F   UNL     1      -7.694   7.675 -11.857  1.00  0.00    -0.200 F 
ATOM     76  F   UNL     1      -5.663   9.227 -10.907  1.00  0.00    -0.200 F 
ENDBRANCH  52  66
BRANCH  53  77
ATOM     77  C   UNL     1      -3.127  -3.959 -15.323  1.00  0.00     0.064 A 
ATOM     78  C   UNL     1      -2.031  -4.259 -16.143  1.00  0.00     0.173 A 
ATOM     79  C   UNL     1      -3.974  -5.013 -14.951  1.00  0.00     0.173 A 
ATOM     80  F   UNL     1      -1.210  -3.280 -16.549  1.00  0.00    -0.203 F 
ATOM     81  C   UNL     1      -1.796  -5.561 -16.580  1.00  0.00     0.198 A 
ATOM     82  C   UNL     1      -3.723  -6.319 -15.367  1.00  0.00     0.198 A 
ATOM     83  F   UNL     1      -5.040  -4.777 -14.174  1.00  0.00    -0.203 F 
ATOM     84  F   UNL     1      -0.764  -5.816 -17.395  1.00  0.00    -0.200 F 
ATOM     85  C   UNL     1      -2.638  -6.591 -16.186  1.00  0.00     0.200 A 
ATOM     86  F   UNL     1      -4.535  -7.312 -14.978  1.00  0.00    -0.200 F 
ATOM     87  F   UNL     1      -2.409  -7.844 -16.603  1.00  0.00    -0.200 F 
ENDBRANCH  53  77
BRANCH  65  88
ATOM     88  C   UNL     1      -5.121   1.863 -18.589  1.00  0.00     0.064 A 
ATOM     89  C   UNL     1      -6.336   1.449 -19.153  1.00  0.00     0.173 A 
ATOM     90  C   UNL     1      -4.241   2.607 -19.390  1.00  0.00     0.173 A 
ATOM     91  F   UNL     1      -7.201   0.720 -18.433  1.00  0.00    -0.203 F 
ATOM     92  C   UNL     1      -6.650   1.754 -20.475  1.00  0.00     0.198 A 
ATOM     93  C   UNL     1      -4.571   2.933 -20.703  1.00  0.00     0.198 A 
ATOM     94  F   UNL     1      -3.069   3.030 -18.894  1.00  0.00    -0.203 F 
ATOM     95  F   UNL     1      -7.800   1.316 -21.006  1.00  0.00    -0.200 F 
ATOM     96  C   UNL     1      -5.772   2.502 -21.245  1.00  0.00     0.200 A 
ATOM     97  F   UNL     1      -3.726   3.664 -21.442  1.00  0.00    -0.200 F 
ATOM     98  F   UNL     1      -6.081   2.803 -22.514  1.00  0.00    -0.200 F 
ENDBRANCH  65  88
ENDBRANCH  39  40
ENDBRANCH  32  34
ENDBRANCH  31  32
ENDBRANCH  30  31
ENDBRANCH   1  30
TORSDOF 15
