REMARK SMILES O=C(OCCOC(=O)c1cccc(Cl)c1C(=O)c1ccccc1)c1ccc(-c2c3nc(c(-c4c(F)c(F)c(F)c(F)c4F)c4ccc([nH]4)c(-c4c(F)c(F)c(F)c(F)c4F)c4nc(c(-c5c(F)c(F)c(F)c(F)c5F)c5ccc2[nH]5)C=C4)C=C3)cc1
REMARK SMILES IDX 4 1 3 2 2 3 1 4 24 5 25 6 86 7 26 8 85 9 27 10 28 11 29 12
REMARK SMILES IDX 79 13 30 14 84 15 78 16 80 17 31 18 83 19 77 20 76 21 32 23
REMARK SMILES IDX 64 24 44 25 63 26 45 27 48 28 62 29 81 30 46 31 47 32 61 34
REMARK SMILES IDX 82 35 49 36 33 37 34 38 42 39 35 40 36 41 40 42 43 43 37 44
REMARK SMILES IDX 38 45 41 46 39 47 65 48 66 49 74 50 67 51 68 52 72 53 75 54
REMARK SMILES IDX 69 55 70 56 73 57 71 58 50 59 51 60 59 61 52 62 53 63 57 64
REMARK SMILES IDX 60 65 54 66 55 67 58 68 56 69 5 70 6 71 7 72 8 73 9 74 10 75
REMARK SMILES IDX 15 76 11 77 13 78 12 79 14 80 16 81 17 82 18 83 19 84 23 85
REMARK SMILES IDX 20 86 22 87 21 88
REMARK H PARENT 80 22 48 33
REMARK Flexibility Score: inf
ROOT
ATOM      1  C   UNL     1       4.546   0.749  -1.639  1.00  0.00     0.275 C 
ENDROOT
BRANCH   1   2
ATOM      2  O   UNL     1       4.332  -0.663  -1.427  1.00  0.00    -0.458 OA
BRANCH   2   3
ATOM      3  C   UNL     1       3.681  -1.207  -0.373  1.00  0.00     0.338 C 
ATOM      4  O   UNL     1       2.839  -2.081  -0.535  1.00  0.00    -0.246 OA
BRANCH   3   5
ATOM      5  C   UNL     1       4.150  -0.859   1.001  1.00  0.00     0.060 A 
ATOM      6  C   UNL     1       5.354  -0.199   1.255  1.00  0.00     0.016 A 
ATOM      7  C   UNL     1       3.347  -1.242   2.086  1.00  0.00     0.016 A 
ATOM      8  C   UNL     1       5.718   0.133   2.558  1.00  0.00     0.010 A 
ATOM      9  C   UNL     1       3.699  -0.899   3.394  1.00  0.00     0.010 A 
ATOM     10  C   UNL     1       4.898  -0.217   3.636  1.00  0.00    -0.014 A 
BRANCH  10  11
ATOM     11  C   UNL     1       5.419  -0.029   5.009  1.00  0.00     0.031 A 
ATOM     12  C   UNL     1       5.947  -1.230   5.734  1.00  0.00     0.074 A 
ATOM     13  C   UNL     1       5.535   1.201   5.542  1.00  0.00     0.049 A 
ATOM     14  N   UNL     1       6.597  -1.290   6.866  1.00  0.00    -0.248 NA
ATOM     15  C   UNL     1       5.755  -2.535   5.080  1.00  0.00     0.031 C 
ATOM     16  C   UNL     1       5.136   2.442   4.884  1.00  0.00     0.029 A 
ATOM     17  N   UNL     1       6.036   1.615   6.750  1.00  0.00    -0.354 N 
ATOM     18  C   UNL     1       6.932  -2.626   7.030  1.00  0.00     0.074 A 
ATOM     19  C   UNL     1       6.342  -3.357   5.932  1.00  0.00     0.031 C 
ATOM     20  C   UNL     1       5.364   3.477   5.709  1.00  0.00     0.029 A 
ATOM     21  C   UNL     1       5.947   2.972   6.948  1.00  0.00     0.049 A 
ATOM     22  H   UNL     1       6.423   0.998   7.412  1.00  0.00     0.167 HD
ATOM     23  C   UNL     1       7.706  -3.185   7.986  1.00  0.00     0.037 A 
ATOM     24  C   UNL     1       6.307   3.720   8.008  1.00  0.00     0.037 A 
ATOM     25  C   UNL     1       8.274  -2.451   9.082  1.00  0.00     0.049 A 
ATOM     26  C   UNL     1       7.044   3.050   9.137  1.00  0.00     0.074 A 
ATOM     27  C   UNL     1       9.067  -2.914  10.114  1.00  0.00     0.029 A 
ATOM     28  N   UNL     1       8.088  -1.091   9.293  1.00  0.00    -0.354 N 
ATOM     29  N   UNL     1       7.406   1.795   9.254  1.00  0.00    -0.248 NA
ATOM     30  C   UNL     1       7.462   3.902  10.257  1.00  0.00     0.031 C 
ATOM     31  C   UNL     1       9.312  -1.846  10.983  1.00  0.00     0.029 A 
ATOM     32  C   UNL     1       8.723  -0.704  10.460  1.00  0.00     0.049 A 
ATOM     33  H   UNL     1       7.581  -0.491   8.700  1.00  0.00     0.167 HD
ATOM     34  C   UNL     1       8.134   1.714  10.432  1.00  0.00     0.074 A 
ATOM     35  C   UNL     1       8.162   3.050  10.993  1.00  0.00     0.031 C 
ATOM     36  C   UNL     1       8.739   0.637  10.991  1.00  0.00     0.037 A 
BRANCH  23  37
ATOM     37  C   UNL     1       7.950  -4.660   7.882  1.00  0.00     0.064 A 
ATOM     38  C   UNL     1       8.754  -5.204   6.867  1.00  0.00     0.173 A 
ATOM     39  C   UNL     1       7.345  -5.545   8.785  1.00  0.00     0.173 A 
ATOM     40  F   UNL     1       9.334  -4.401   5.961  1.00  0.00    -0.203 F 
ATOM     41  C   UNL     1       8.911  -6.581   6.738  1.00  0.00     0.198 A 
ATOM     42  C   UNL     1       7.529  -6.920   8.672  1.00  0.00     0.198 A 
ATOM     43  F   UNL     1       6.563  -5.076   9.769  1.00  0.00    -0.203 F 
ATOM     44  F   UNL     1       9.629  -7.080   5.723  1.00  0.00    -0.200 F 
ATOM     45  C   UNL     1       8.302  -7.437   7.643  1.00  0.00     0.200 A 
ATOM     46  F   UNL     1       6.943  -7.746   9.549  1.00  0.00    -0.200 F 
ATOM     47  F   UNL     1       8.448  -8.763   7.515  1.00  0.00    -0.200 F 
ENDBRANCH  23  37
BRANCH  24  48
ATOM     48  C   UNL     1       5.997   5.175   8.040  1.00  0.00     0.064 A 
ATOM     49  C   UNL     1       7.004   6.147   7.984  1.00  0.00     0.173 A 
ATOM     50  C   UNL     1       4.670   5.620   8.152  1.00  0.00     0.173 A 
ATOM     51  F   UNL     1       8.289   5.775   7.889  1.00  0.00    -0.203 F 
ATOM     52  C   UNL     1       6.700   7.506   8.065  1.00  0.00     0.198 A 
ATOM     53  C   UNL     1       4.366   6.979   8.209  1.00  0.00     0.198 A 
ATOM     54  F   UNL     1       3.665   4.733   8.199  1.00  0.00    -0.203 F 
ATOM     55  F   UNL     1       7.687   8.413   8.053  1.00  0.00    -0.200 F 
ATOM     56  C   UNL     1       5.382   7.921   8.175  1.00  0.00     0.200 A 
ATOM     57  F   UNL     1       3.088   7.374   8.301  1.00  0.00    -0.200 F 
ATOM     58  F   UNL     1       5.091   9.227   8.255  1.00  0.00    -0.200 F 
ENDBRANCH  24  48
BRANCH  36  59
ATOM     59  C   UNL     1       9.514   0.865  12.255  1.00  0.00     0.064 A 
ATOM     60  C   UNL     1       8.875   1.133  13.474  1.00  0.00     0.173 A 
ATOM     61  C   UNL     1      10.913   0.755  12.254  1.00  0.00     0.173 A 
ATOM     62  F   UNL     1       7.540   1.262  13.522  1.00  0.00    -0.203 F 
ATOM     63  C   UNL     1       9.611   1.306  14.642  1.00  0.00     0.198 A 
ATOM     64  C   UNL     1      11.643   0.894  13.430  1.00  0.00     0.198 A 
ATOM     65  F   UNL     1      11.570   0.493  11.114  1.00  0.00    -0.203 F 
ATOM     66  F   UNL     1       8.984   1.609  15.787  1.00  0.00    -0.200 F 
ATOM     67  C   UNL     1      10.992   1.176  14.621  1.00  0.00     0.200 A 
ATOM     68  F   UNL     1      12.975   0.751  13.410  1.00  0.00    -0.200 F 
ATOM     69  F   UNL     1      11.697   1.329  15.750  1.00  0.00    -0.200 F 
ENDBRANCH  36  59
ENDBRANCH  10  11
ENDBRANCH   3   5
ENDBRANCH   2   3
ENDBRANCH   1   2
BRANCH   1  70
ATOM     70  C   UNL     1       3.438   1.725  -1.222  1.00  0.00     0.275 C 
BRANCH  70  71
ATOM     71  O   UNL     1       3.047   1.608   0.155  1.00  0.00    -0.458 OA
BRANCH  71  72
ATOM     72  C   UNL     1       1.775   2.020   0.424  1.00  0.00     0.339 C 
ATOM     73  O   UNL     1       0.993   2.545  -0.346  1.00  0.00    -0.246 OA
BRANCH  72  74
ATOM     74  C   UNL     1       1.549   1.966   1.884  1.00  0.00     0.072 A 
ATOM     75  C   UNL     1       2.123   3.036   2.592  1.00  0.00     0.016 A 
ATOM     76  C   UNL     1       0.790   0.970   2.545  1.00  0.00     0.056 A 
ATOM     77  C   UNL     1       1.980   3.121   3.969  1.00  0.00     0.002 A 
ATOM     78  C   UNL     1       0.753   1.023   3.954  1.00  0.00     0.053 A 
ATOM     79  C   UNL     1       1.327   2.102   4.649  1.00  0.00     0.021 A 
ATOM     80  Cl  UNL     1       0.156  -0.235   4.983  1.00  0.00    -0.084 Cl
BRANCH  76  81
ATOM     81  C   UNL     1       0.157  -0.115   1.732  1.00  0.00     0.195 C 
ATOM     82  O   UNL     1       0.567  -0.330   0.596  1.00  0.00    -0.289 OA
BRANCH  81  83
ATOM     83  C   UNL     1      -0.926  -1.001   2.212  1.00  0.00     0.023 A 
ATOM     84  C   UNL     1      -0.726  -2.387   2.137  1.00  0.00     0.012 A 
ATOM     85  C   UNL     1      -2.136  -0.494   2.695  1.00  0.00     0.012 A 
ATOM     86  C   UNL     1      -1.712  -3.263   2.590  1.00  0.00     0.001 A 
ATOM     87  C   UNL     1      -3.123  -1.378   3.143  1.00  0.00     0.001 A 
ATOM     88  C   UNL     1      -2.909  -2.758   3.096  1.00  0.00     0.000 A 
ENDBRANCH  81  83
ENDBRANCH  76  81
ENDBRANCH  72  74
ENDBRANCH  71  72
ENDBRANCH  70  71
ENDBRANCH   1  70
TORSDOF 13
