REMARK SMILES O=C(C[C@H]1C[N@@H+](Cc2c(F)cccc2F)CCO1)OCCOC(=O)c1ccc(-c2c3nc(c(-c4c(F)c(F)c(F)c(F)c4F)c4ccc([nH]4)c(-c4c(F)c(F)c(F)c(F)c4F)c4nc(c(-c5c(F)c(F)c(F)c(F)c5F)c5ccc2[nH]5)C=C4)C=C3)cc1
REMARK SMILES IDX 20 1 19 2 2 3 1 4 3 5 4 6 5 7 18 8 6 9 17 10 16 11 7 13 8 14
REMARK SMILES IDX 9 15 14 16 10 17 11 18 13 19 15 20 12 21 21 22 22 23 23 24
REMARK SMILES IDX 24 25 25 26 26 27 87 28 27 29 86 30 28 31 29 32 30 33 80 34
REMARK SMILES IDX 31 35 85 36 79 37 81 38 32 39 84 40 78 41 77 42 33 44 65 45
REMARK SMILES IDX 45 46 64 47 46 48 49 49 63 50 82 51 47 52 48 53 62 55 83 56
REMARK SMILES IDX 50 57 34 58 35 59 43 60 36 61 37 62 41 63 44 64 38 65 39 66
REMARK SMILES IDX 42 67 40 68 66 69 67 70 75 71 68 72 69 73 73 74 76 75 70 76
REMARK SMILES IDX 71 77 74 78 72 79 51 80 52 81 60 82 53 83 54 84 58 85 61 86
REMARK SMILES IDX 55 87 56 88 59 89 57 90
REMARK H PARENT 6 12 81 43 49 54
REMARK Flexibility Score: inf
ROOT
ATOM      1  C   UNL     1       3.976   0.548  -1.490  1.00  0.00     0.274 C 
ENDROOT
BRANCH   1   2
ATOM      2  O   UNL     1       4.277   1.925  -1.174  1.00  0.00    -0.462 OA
BRANCH   2   3
ATOM      3  C   UNL     1       3.516   2.536  -0.221  1.00  0.00     0.308 C 
ATOM      4  O   UNL     1       2.833   3.521  -0.462  1.00  0.00    -0.252 OA
BRANCH   3   5
ATOM      5  C   UNL     1       3.768   2.019   1.167  1.00  0.00     0.160 C 
BRANCH   5   6
ATOM      6  C   UNL     1       2.621   1.234   1.789  1.00  0.00     0.184 C 
ATOM      7  C   UNL     1       3.051  -0.209   2.142  1.00  0.00     0.295 C 
ATOM      8  O   UNL     1       2.073   1.882   2.956  1.00  0.00    -0.366 OA
ATOM      9  N   UNL     1       3.959  -0.300   3.293  1.00  0.00    -0.327 N 
ATOM     10  C   UNL     1       2.902   1.793   4.129  1.00  0.00     0.222 C 
ATOM     11  C   UNL     1       3.347   0.357   4.440  1.00  0.00     0.291 C 
ATOM     12  H   UNL     1       4.055  -1.276   3.572  1.00  0.00     0.348 HD
BRANCH   9  13
ATOM     13  C   UNL     1       5.390  -0.123   3.023  1.00  0.00     0.305 C 
BRANCH  13  14
ATOM     14  C   UNL     1       6.165   1.159   3.230  1.00  0.00     0.078 A 
ATOM     15  C   UNL     1       6.402   1.721   4.484  1.00  0.00     0.135 A 
ATOM     16  C   UNL     1       6.837   1.769   2.154  1.00  0.00     0.135 A 
ATOM     17  F   UNL     1       5.930   1.139   5.592  1.00  0.00    -0.206 F 
ATOM     18  C   UNL     1       7.159   2.887   4.643  1.00  0.00     0.040 A 
ATOM     19  C   UNL     1       7.596   2.929   2.290  1.00  0.00     0.040 A 
ATOM     20  F   UNL     1       6.772   1.236   0.927  1.00  0.00    -0.206 F 
ATOM     21  C   UNL     1       7.744   3.504   3.542  1.00  0.00     0.006 A 
ENDBRANCH  13  14
ENDBRANCH   9  13
ENDBRANCH   5   6
ENDBRANCH   3   5
ENDBRANCH   2   3
ENDBRANCH   1   2
BRANCH   1  22
ATOM     22  C   UNL     1       5.252  -0.278  -1.713  1.00  0.00     0.275 C 
BRANCH  22  23
ATOM     23  O   UNL     1       5.713  -0.882  -0.483  1.00  0.00    -0.458 OA
BRANCH  23  24
ATOM     24  C   UNL     1       6.972  -1.407  -0.557  1.00  0.00     0.338 C 
ATOM     25  O   UNL     1       7.691  -1.440  -1.536  1.00  0.00    -0.246 OA
BRANCH  24  26
ATOM     26  C   UNL     1       7.413  -1.855   0.787  1.00  0.00     0.060 A 
ATOM     27  C   UNL     1       8.446  -1.152   1.418  1.00  0.00     0.016 A 
ATOM     28  C   UNL     1       6.801  -2.927   1.445  1.00  0.00     0.016 A 
ATOM     29  C   UNL     1       8.819  -1.473   2.730  1.00  0.00     0.010 A 
ATOM     30  C   UNL     1       7.206  -3.276   2.746  1.00  0.00     0.010 A 
ATOM     31  C   UNL     1       8.209  -2.544   3.407  1.00  0.00    -0.014 A 
BRANCH  31  32
ATOM     32  C   UNL     1       8.745  -2.978   4.731  1.00  0.00     0.031 A 
ATOM     33  C   UNL     1      10.039  -3.740   4.748  1.00  0.00     0.074 A 
ATOM     34  C   UNL     1       8.149  -2.684   5.904  1.00  0.00     0.049 A 
ATOM     35  N   UNL     1      10.757  -4.134   5.769  1.00  0.00    -0.248 NA
ATOM     36  C   UNL     1      10.606  -4.093   3.437  1.00  0.00     0.031 C 
ATOM     37  C   UNL     1       6.916  -1.931   6.062  1.00  0.00     0.029 A 
ATOM     38  N   UNL     1       8.512  -2.975   7.201  1.00  0.00    -0.354 N 
ATOM     39  C   UNL     1      11.877  -4.741   5.224  1.00  0.00     0.074 A 
ATOM     40  C   UNL     1      11.735  -4.691   3.785  1.00  0.00     0.031 C 
ATOM     41  C   UNL     1       6.629  -1.790   7.364  1.00  0.00     0.029 A 
ATOM     42  C   UNL     1       7.638  -2.489   8.147  1.00  0.00     0.049 A 
ATOM     43  H   UNL     1       9.323  -3.484   7.430  1.00  0.00     0.167 HD
ATOM     44  C   UNL     1      12.932  -5.295   5.864  1.00  0.00     0.037 A 
ATOM     45  C   UNL     1       7.629  -2.602   9.490  1.00  0.00     0.037 A 
ATOM     46  C   UNL     1      13.040  -5.438   7.288  1.00  0.00     0.049 A 
ATOM     47  C   UNL     1       8.738  -3.351  10.172  1.00  0.00     0.074 A 
ATOM     48  C   UNL     1      14.049  -6.041   8.017  1.00  0.00     0.029 A 
ATOM     49  N   UNL     1      12.088  -5.006   8.198  1.00  0.00    -0.354 N 
ATOM     50  N   UNL     1       9.814  -3.881   9.647  1.00  0.00    -0.248 NA
ATOM     51  C   UNL     1       8.631  -3.528  11.628  1.00  0.00     0.031 C 
ATOM     52  C   UNL     1      13.679  -6.027   9.366  1.00  0.00     0.029 A 
ATOM     53  C   UNL     1      12.467  -5.365   9.481  1.00  0.00     0.049 A 
ATOM     54  H   UNL     1      11.265  -4.517   7.967  1.00  0.00     0.167 HD
ATOM     55  C   UNL     1      10.523  -4.431  10.704  1.00  0.00     0.074 A 
ATOM     56  C   UNL     1       9.759  -4.170  11.905  1.00  0.00     0.031 C 
ATOM     57  C   UNL     1      11.706  -5.091  10.674  1.00  0.00     0.037 A 
BRANCH  44  58
ATOM     58  C   UNL     1      14.028  -5.837   5.001  1.00  0.00     0.064 A 
ATOM     59  C   UNL     1      14.171  -7.218   4.815  1.00  0.00     0.173 A 
ATOM     60  C   UNL     1      14.926  -4.982   4.345  1.00  0.00     0.173 A 
ATOM     61  F   UNL     1      13.330  -8.072   5.418  1.00  0.00    -0.203 F 
ATOM     62  C   UNL     1      15.175  -7.727   3.998  1.00  0.00     0.198 A 
ATOM     63  C   UNL     1      15.916  -5.494   3.511  1.00  0.00     0.198 A 
ATOM     64  F   UNL     1      14.811  -3.652   4.476  1.00  0.00    -0.203 F 
ATOM     65  F   UNL     1      15.296  -9.052   3.835  1.00  0.00    -0.200 F 
ATOM     66  C   UNL     1      16.041  -6.865   3.341  1.00  0.00     0.200 A 
ATOM     67  F   UNL     1      16.734  -4.660   2.855  1.00  0.00    -0.200 F 
ATOM     68  F   UNL     1      16.990  -7.356   2.533  1.00  0.00    -0.200 F 
ENDBRANCH  44  58
BRANCH  45  69
ATOM     69  C   UNL     1       6.525  -1.989  10.278  1.00  0.00     0.064 A 
ATOM     70  C   UNL     1       5.217  -2.494  10.216  1.00  0.00     0.173 A 
ATOM     71  C   UNL     1       6.754  -0.878  11.101  1.00  0.00     0.173 A 
ATOM     72  F   UNL     1       4.944  -3.560   9.449  1.00  0.00    -0.203 F 
ATOM     73  C   UNL     1       4.178  -1.897  10.928  1.00  0.00     0.198 A 
ATOM     74  C   UNL     1       5.719  -0.296  11.831  1.00  0.00     0.198 A 
ATOM     75  F   UNL     1       7.992  -0.374  11.215  1.00  0.00    -0.203 F 
ATOM     76  F   UNL     1       2.933  -2.382  10.826  1.00  0.00    -0.200 F 
ATOM     77  C   UNL     1       4.430  -0.800  11.737  1.00  0.00     0.200 A 
ATOM     78  F   UNL     1       5.971   0.749  12.632  1.00  0.00    -0.200 F 
ATOM     79  F   UNL     1       3.434  -0.234  12.431  1.00  0.00    -0.200 F 
ENDBRANCH  45  69
BRANCH  57  80
ATOM     80  C   UNL     1      12.280  -5.566  11.973  1.00  0.00     0.064 A 
ATOM     81  C   UNL     1      13.423  -4.951  12.505  1.00  0.00     0.173 A 
ATOM     82  C   UNL     1      11.778  -6.702  12.623  1.00  0.00     0.173 A 
ATOM     83  F   UNL     1      13.943  -3.864  11.914  1.00  0.00    -0.203 F 
ATOM     84  C   UNL     1      14.061  -5.474  13.626  1.00  0.00     0.198 A 
ATOM     85  C   UNL     1      12.405  -7.209  13.758  1.00  0.00     0.198 A 
ATOM     86  F   UNL     1      10.679  -7.315  12.159  1.00  0.00    -0.203 F 
ATOM     87  F   UNL     1      15.178  -4.897  14.090  1.00  0.00    -0.200 F 
ATOM     88  C   UNL     1      13.554  -6.604  14.249  1.00  0.00     0.200 A 
ATOM     89  F   UNL     1      11.905  -8.291  14.371  1.00  0.00    -0.200 F 
ATOM     90  F   UNL     1      14.174  -7.113  15.322  1.00  0.00    -0.200 F 
ENDBRANCH  57  80
ENDBRANCH  31  32
ENDBRANCH  24  26
ENDBRANCH  23  24
ENDBRANCH  22  23
ENDBRANCH   1  22
TORSDOF 14
