REMARK SMILES C[C@@H](C(=O)OCCOC(=O)c1ccc(-c2c3nc(c(-c4c(F)c(F)c(F)c(F)c4F)c4ccc([nH]4)c(-c4c(F)c(F)c(F)c(F)c4F)c4nc(c(-c5c(F)c(F)c(F)c(F)c5F)c5ccc2[nH]5)C=C4)C=C3)cc1)c1ccc(-c2cccc(OC(=O)NCCCc3ccccc3)c2)c(F)c1
REMARK SMILES IDX 1 1 2 2 3 3 4 4 5 5 6 6 7 7 8 8 9 9 10 10 11 11 12 12 73 13
REMARK SMILES IDX 13 14 72 15 14 16 15 17 16 18 66 19 17 20 71 21 65 22 67 23
REMARK SMILES IDX 18 24 70 25 64 26 63 27 19 29 51 30 31 31 50 32 32 33 35 34
REMARK SMILES IDX 49 35 68 36 33 37 34 38 48 40 69 41 36 42 20 43 21 44 29 45
REMARK SMILES IDX 22 46 23 47 27 48 30 49 24 50 25 51 28 52 26 53 52 54 53 55
REMARK SMILES IDX 61 56 54 57 55 58 59 59 62 60 56 61 57 62 60 63 58 64 37 65
REMARK SMILES IDX 38 66 46 67 39 68 40 69 44 70 47 71 41 72 42 73 45 74 43 75
REMARK SMILES IDX 74 76 75 77 99 78 76 79 97 80 77 81 98 82 78 83 79 84 96 85
REMARK SMILES IDX 80 86 82 87 81 88 83 89 84 90 85 91 86 92 87 94 88 95 89 96
REMARK SMILES IDX 90 97 91 98 95 99 92 100 94 101 93 102
REMARK H PARENT 67 28 35 39 86 93
REMARK Flexibility Score: inf
ROOT
ATOM      1  C   UNL     1       1.328  -0.191  -0.013  1.00  0.00     0.025 C 
ATOM      2  C   UNL     1       0.888   0.006   1.449  1.00  0.00     0.126 C 
ENDROOT
BRANCH   2   3
ATOM      3  C   UNL     1       1.438   1.331   2.018  1.00  0.00     0.313 C 
ATOM      4  O   UNL     1       1.330   1.663   3.193  1.00  0.00    -0.252 OA
BRANCH   3   5
ATOM      5  O   UNL     1       2.072   2.088   1.079  1.00  0.00    -0.462 OA
BRANCH   5   6
ATOM      6  C   UNL     1       2.655   3.334   1.514  1.00  0.00     0.274 C 
BRANCH   6   7
ATOM      7  C   UNL     1       2.315   4.431   0.508  1.00  0.00     0.275 C 
BRANCH   7   8
ATOM      8  O   UNL     1       0.898   4.690   0.551  1.00  0.00    -0.458 OA
BRANCH   8   9
ATOM      9  C   UNL     1       0.199   4.333  -0.552  1.00  0.00     0.338 C 
ATOM     10  O   UNL     1       0.632   3.887  -1.600  1.00  0.00    -0.246 OA
BRANCH   9  11
ATOM     11  C   UNL     1      -1.244   4.476  -0.289  1.00  0.00     0.060 A 
ATOM     12  C   UNL     1      -1.803   3.675   0.693  1.00  0.00     0.016 A 
ATOM     13  C   UNL     1      -2.070   5.239  -1.117  1.00  0.00     0.016 A 
ATOM     14  C   UNL     1      -3.188   3.554   0.770  1.00  0.00     0.010 A 
ATOM     15  C   UNL     1      -3.468   5.191  -0.953  1.00  0.00     0.010 A 
ATOM     16  C   UNL     1      -4.056   4.309  -0.029  1.00  0.00    -0.014 A 
BRANCH  16  17
ATOM     17  C   UNL     1      -5.537   4.066   0.065  1.00  0.00     0.031 A 
ATOM     18  C   UNL     1      -6.328   3.677  -1.164  1.00  0.00     0.074 A 
ATOM     19  C   UNL     1      -6.173   4.025   1.259  1.00  0.00     0.049 A 
ATOM     20  N   UNL     1      -7.625   3.547  -1.317  1.00  0.00    -0.248 NA
ATOM     21  C   UNL     1      -5.557   3.365  -2.377  1.00  0.00     0.031 C 
ATOM     22  C   UNL     1      -5.540   4.203   2.567  1.00  0.00     0.029 A 
ATOM     23  N   UNL     1      -7.487   3.752   1.576  1.00  0.00    -0.354 N 
ATOM     24  C   UNL     1      -7.825   3.212  -2.652  1.00  0.00     0.074 A 
ATOM     25  C   UNL     1      -6.516   3.135  -3.263  1.00  0.00     0.031 C 
ATOM     26  C   UNL     1      -6.423   3.913   3.532  1.00  0.00     0.029 A 
ATOM     27  C   UNL     1      -7.732   3.703   2.929  1.00  0.00     0.049 A 
ATOM     28  H   UNL     1      -8.184   3.604   0.897  1.00  0.00     0.167 HD
ATOM     29  C   UNL     1      -8.992   2.995  -3.307  1.00  0.00     0.037 A 
ATOM     30  C   UNL     1      -8.883   3.571   3.620  1.00  0.00     0.037 A 
ATOM     31  C   UNL     1     -10.291   2.993  -2.683  1.00  0.00     0.049 A 
ATOM     32  C   UNL     1     -10.178   3.468   2.862  1.00  0.00     0.074 A 
ATOM     33  C   UNL     1     -11.534   2.839  -3.275  1.00  0.00     0.029 A 
ATOM     34  N   UNL     1     -10.515   3.126  -1.321  1.00  0.00    -0.354 N 
ATOM     35  N   UNL     1     -10.377   3.306   1.578  1.00  0.00    -0.248 NA
ATOM     36  C   UNL     1     -11.416   3.573   3.650  1.00  0.00     0.031 C 
ATOM     37  C   UNL     1     -12.511   2.934  -2.279  1.00  0.00     0.029 A 
ATOM     38  C   UNL     1     -11.876   3.080  -1.057  1.00  0.00     0.049 A 
ATOM     39  H   UNL     1      -9.812   3.237  -0.641  1.00  0.00     0.167 HD
ATOM     40  C   UNL     1     -11.755   3.281   1.405  1.00  0.00     0.074 A 
ATOM     41  C   UNL     1     -12.345   3.405   2.721  1.00  0.00     0.031 C 
ATOM     42  C   UNL     1     -12.463   3.182   0.255  1.00  0.00     0.037 A 
BRANCH  29  43
ATOM     43  C   UNL     1      -8.932   2.827  -4.800  1.00  0.00     0.064 A 
ATOM     44  C   UNL     1      -8.442   1.666  -5.413  1.00  0.00     0.173 A 
ATOM     45  C   UNL     1      -9.413   3.853  -5.630  1.00  0.00     0.173 A 
ATOM     46  F   UNL     1      -7.960   0.661  -4.668  1.00  0.00    -0.203 F 
ATOM     47  C   UNL     1      -8.409   1.551  -6.802  1.00  0.00     0.198 A 
ATOM     48  C   UNL     1      -9.409   3.722  -7.016  1.00  0.00     0.198 A 
ATOM     49  F   UNL     1      -9.904   4.982  -5.095  1.00  0.00    -0.203 F 
ATOM     50  F   UNL     1      -7.889   0.454  -7.370  1.00  0.00    -0.200 F 
ATOM     51  C   UNL     1      -8.897   2.575  -7.601  1.00  0.00     0.200 A 
ATOM     52  F   UNL     1      -9.898   4.706  -7.783  1.00  0.00    -0.200 F 
ATOM     53  F   UNL     1      -8.869   2.460  -8.936  1.00  0.00    -0.200 F 
ENDBRANCH  29  43
BRANCH  30  54
ATOM     54  C   UNL     1      -8.886   3.648   5.111  1.00  0.00     0.064 A 
ATOM     55  C   UNL     1      -9.381   2.598   5.898  1.00  0.00     0.173 A 
ATOM     56  C   UNL     1      -8.450   4.804   5.780  1.00  0.00     0.173 A 
ATOM     57  F   UNL     1      -9.857   1.488   5.315  1.00  0.00    -0.203 F 
ATOM     58  C   UNL     1      -9.454   2.709   7.287  1.00  0.00     0.198 A 
ATOM     59  C   UNL     1      -8.479   4.896   7.169  1.00  0.00     0.198 A 
ATOM     60  F   UNL     1      -7.992   5.855   5.082  1.00  0.00    -0.203 F 
ATOM     61  F   UNL     1     -10.002   1.720   8.007  1.00  0.00    -0.200 F 
ATOM     62  C   UNL     1      -8.994   3.854   7.921  1.00  0.00     0.200 A 
ATOM     63  F   UNL     1      -8.023   6.001   7.774  1.00  0.00    -0.200 F 
ATOM     64  F   UNL     1      -9.070   3.962   9.255  1.00  0.00    -0.200 F 
ENDBRANCH  30  54
BRANCH  42  65
ATOM     65  C   UNL     1     -13.961   3.150   0.363  1.00  0.00     0.064 A 
ATOM     66  C   UNL     1     -14.702   4.282   0.734  1.00  0.00     0.173 A 
ATOM     67  C   UNL     1     -14.669   1.976   0.056  1.00  0.00     0.173 A 
ATOM     68  F   UNL     1     -14.075   5.424   1.055  1.00  0.00    -0.203 F 
ATOM     69  C   UNL     1     -16.092   4.233   0.819  1.00  0.00     0.198 A 
ATOM     70  C   UNL     1     -16.059   1.942   0.108  1.00  0.00     0.198 A 
ATOM     71  F   UNL     1     -14.010   0.865  -0.306  1.00  0.00    -0.203 F 
ATOM     72  F   UNL     1     -16.774   5.312   1.227  1.00  0.00    -0.200 F 
ATOM     73  C   UNL     1     -16.769   3.067   0.497  1.00  0.00     0.200 A 
ATOM     74  F   UNL     1     -16.712   0.817  -0.218  1.00  0.00    -0.200 F 
ATOM     75  F   UNL     1     -18.107   3.025   0.570  1.00  0.00    -0.200 F 
ENDBRANCH  42  65
ENDBRANCH  16  17
ENDBRANCH   9  11
ENDBRANCH   8   9
ENDBRANCH   7   8
ENDBRANCH   6   7
ENDBRANCH   5   6
ENDBRANCH   3   5
ENDBRANCH   2   3
BRANCH   2  76
ATOM     76  C   UNL     1      -0.626  -0.187   1.595  1.00  0.00    -0.031 A 
ATOM     77  C   UNL     1      -1.417   0.652   2.384  1.00  0.00     0.005 A 
ATOM     78  C   UNL     1      -1.286  -1.246   0.939  1.00  0.00     0.044 A 
ATOM     79  C   UNL     1      -2.808   0.547   2.374  1.00  0.00     0.012 A 
ATOM     80  C   UNL     1      -2.682  -1.328   0.909  1.00  0.00     0.131 A 
ATOM     81  C   UNL     1      -3.466  -0.388   1.567  1.00  0.00     0.018 A 
ATOM     82  F   UNL     1      -3.252  -2.340   0.238  1.00  0.00    -0.206 F 
BRANCH  81  83
ATOM     83  C   UNL     1      -4.925  -0.345   1.504  1.00  0.00    -0.012 A 
ATOM     84  C   UNL     1      -5.619   0.175   0.400  1.00  0.00     0.009 A 
ATOM     85  C   UNL     1      -5.646  -0.696   2.647  1.00  0.00     0.056 A 
ATOM     86  C   UNL     1      -7.001   0.383   0.465  1.00  0.00     0.004 A 
ATOM     87  C   UNL     1      -7.012  -0.464   2.717  1.00  0.00     0.133 A 
ATOM     88  C   UNL     1      -7.698   0.080   1.633  1.00  0.00     0.047 A 
BRANCH  87  89
ATOM     89  O   UNL     1      -7.793  -0.820   3.832  1.00  0.00    -0.410 OA
BRANCH  89  90
ATOM     90  C   UNL     1      -7.270  -1.225   5.053  1.00  0.00     0.412 C 
ATOM     91  O   UNL     1      -6.119  -1.070   5.451  1.00  0.00    -0.224 OA
ATOM     92  N   UNL     1      -8.194  -1.847   5.835  1.00  0.00    -0.321 N 
ATOM     93  H   UNL     1      -7.875  -2.280   6.659  1.00  0.00     0.167 HD
BRANCH  92  94
ATOM     94  C   UNL     1      -9.605  -1.920   5.546  1.00  0.00     0.120 C 
BRANCH  94  95
ATOM     95  C   UNL     1     -10.284  -3.195   6.036  1.00  0.00     0.026 C 
BRANCH  95  96
ATOM     96  C   UNL     1      -9.749  -3.863   7.307  1.00  0.00     0.037 C 
BRANCH  96  97
ATOM     97  C   UNL     1      -9.858  -3.175   8.648  1.00  0.00    -0.048 A 
ATOM     98  C   UNL     1     -10.043  -1.801   8.832  1.00  0.00     0.004 A 
ATOM     99  C   UNL     1      -9.690  -3.971   9.796  1.00  0.00     0.004 A 
ATOM    100  C   UNL     1     -10.049  -1.238  10.112  1.00  0.00     0.000 A 
ATOM    101  C   UNL     1      -9.709  -3.413  11.075  1.00  0.00     0.000 A 
ATOM    102  C   UNL     1      -9.882  -2.042  11.233  1.00  0.00     0.000 A 
ENDBRANCH  96  97
ENDBRANCH  95  96
ENDBRANCH  94  95
ENDBRANCH  92  94
ENDBRANCH  89  90
ENDBRANCH  87  89
ENDBRANCH  81  83
ENDBRANCH   2  76
TORSDOF 19
