REMARK SMILES C=C(C(=O)OCCOC(=O)c1ccc(-c2c3nc(c(-c4c(F)c(F)c(F)c(F)c4F)c4ccc([nH]4)c(-c4c(F)c(F)c(F)c(F)c4F)c4nc(c(-c5c(F)c(F)c(F)c(F)c5F)c5ccc2[nH]5)C=C4)C=C3)cc1)[C@@H]1CC[C@]2(C)CCCC(=C)[C@H]2[C@H]1O
REMARK SMILES IDX 6 1 5 2 3 3 4 4 2 5 1 6 74 7 75 8 85 9 76 10 84 11 77 12
REMARK SMILES IDX 82 13 78 14 79 15 81 16 83 17 80 18 86 19 7 21 8 22 9 23
REMARK SMILES IDX 10 24 11 25 12 26 73 27 13 28 72 29 14 30 15 31 16 32 66 33
REMARK SMILES IDX 17 34 71 35 65 36 67 37 18 38 70 39 64 40 63 41 19 43 51 44
REMARK SMILES IDX 31 45 50 46 32 47 35 48 49 49 68 50 33 51 34 52 48 54 69 55
REMARK SMILES IDX 36 56 20 57 21 58 29 59 22 60 23 61 27 62 30 63 24 64 25 65
REMARK SMILES IDX 28 66 26 67 52 68 53 69 61 70 54 71 55 72 59 73 62 74 56 75
REMARK SMILES IDX 57 76 60 77 58 78 37 79 38 80 46 81 39 82 40 83 44 84 47 85
REMARK SMILES IDX 41 86 42 87 45 88 43 89
REMARK H PARENT 86 20 67 42 35 53
REMARK Flexibility Score: inf
ROOT
ATOM      1  C   UNL     1      -2.781   0.335  -0.260  1.00  0.00     0.275 C 
ENDROOT
BRANCH   1   2
ATOM      2  O   UNL     1      -1.383  -0.075  -0.270  1.00  0.00    -0.459 OA
BRANCH   2   3
ATOM      3  C   UNL     1      -0.551   0.582   0.584  1.00  0.00     0.333 C 
ATOM      4  O   UNL     1      -0.874   1.545   1.260  1.00  0.00    -0.247 OA
BRANCH   3   5
ATOM      5  C   UNL     1       0.831  -0.039   0.605  1.00  0.00     0.036 C 
ATOM      6  C   UNL     1       1.524   0.147  -0.529  1.00  0.00     0.020 C 
BRANCH   5   7
ATOM      7  C   UNL     1       1.390  -0.804   1.875  1.00  0.00     0.055 C 
ATOM      8  C   UNL     1       1.864  -2.658   1.514  1.00  0.00     0.012 C 
ATOM      9  C   UNL     1       0.225  -0.362   3.268  1.00  0.00     0.129 C 
ATOM     10  C   UNL     1       0.651  -4.099   2.104  1.00  0.00     0.008 C 
ATOM     11  C   UNL     1      -1.356  -1.455   3.651  1.00  0.00     0.050 C 
ATOM     12  C   UNL     1      -0.751  -3.425   3.441  1.00  0.00    -0.024 C 
ATOM     13  C   UNL     1      -2.804  -1.435   4.891  1.00  0.00    -0.071 C 
ATOM     14  C   UNL     1      -0.433  -2.026   5.003  1.00  0.00     0.012 C 
ATOM     15  C   UNL     1      -1.962  -5.062   3.486  1.00  0.00     0.008 C 
ATOM     16  C   UNL     1      -3.861  -2.941   5.220  1.00  0.00     0.031 C 
ATOM     17  C   UNL     1      -2.927  -0.408   5.755  1.00  0.00     0.008 C 
ATOM     18  C   UNL     1      -3.582  -4.735   4.526  1.00  0.00     0.005 C 
BRANCH   9  19
ATOM     19  O   UNL     1       1.114   0.002   4.364  1.00  0.00    -0.392 OA
ATOM     20  H   UNL     1       1.666  -0.761   4.599  1.00  0.00     0.211 HD
ENDBRANCH   9  19
ENDBRANCH   5   7
ENDBRANCH   3   5
ENDBRANCH   2   3
ENDBRANCH   1   2
BRANCH   1  21
ATOM     21  C   UNL     1      -3.709  -0.885  -0.392  1.00  0.00     0.275 C 
BRANCH  21  22
ATOM     22  O   UNL     1      -3.533  -1.726   0.758  1.00  0.00    -0.458 OA
BRANCH  22  23
ATOM     23  C   UNL     1      -2.474  -2.546   0.630  1.00  0.00     0.338 C 
ATOM     24  O   UNL     1      -1.906  -2.905  -0.387  1.00  0.00    -0.246 OA
BRANCH  23  25
ATOM     25  C   UNL     1      -1.861  -2.694   1.936  1.00  0.00     0.060 A 
ATOM     26  C   UNL     1      -0.177  -2.302   2.122  1.00  0.00     0.016 A 
ATOM     27  C   UNL     1      -2.600  -3.166   3.415  1.00  0.00     0.016 A 
ATOM     28  C   UNL     1       0.963  -2.835   3.633  1.00  0.00     0.010 A 
ATOM     29  C   UNL     1      -1.615  -3.784   5.007  1.00  0.00     0.010 A 
ATOM     30  C   UNL     1       0.245  -3.899   5.005  1.00  0.00    -0.014 A 
BRANCH  30  31
ATOM     31  C   UNL     1       0.929  -4.397   6.286  1.00  0.00     0.031 A 
ATOM     32  C   UNL     1       1.271  -5.881   6.357  1.00  0.00     0.074 A 
ATOM     33  C   UNL     1       1.087  -3.664   7.429  1.00  0.00     0.049 A 
ATOM     34  N   UNL     1       1.808  -6.580   7.330  1.00  0.00    -0.248 NA
ATOM     35  C   UNL     1       0.939  -6.691   5.176  1.00  0.00     0.031 C 
ATOM     36  C   UNL     1       0.759  -2.254   7.664  1.00  0.00     0.029 A 
ATOM     37  N   UNL     1       1.554  -4.036   8.684  1.00  0.00    -0.354 N 
ATOM     38  C   UNL     1       1.898  -7.891   6.865  1.00  0.00     0.074 A 
ATOM     39  C   UNL     1       1.274  -7.914   5.562  1.00  0.00     0.031 C 
ATOM     40  C   UNL     1       0.962  -1.901   8.928  1.00  0.00     0.029 A 
ATOM     41  C   UNL     1       1.488  -3.033   9.633  1.00  0.00     0.049 A 
ATOM     42  H   UNL     1       1.903  -4.936   8.880  1.00  0.00     0.167 HD
ATOM     43  C   UNL     1       2.490  -8.967   7.447  1.00  0.00     0.037 A 
ATOM     44  C   UNL     1       1.826  -2.943  10.931  1.00  0.00     0.037 A 
ATOM     45  C   UNL     1       3.089  -8.941   8.760  1.00  0.00     0.049 A 
ATOM     46  C   UNL     1       2.507  -4.110  11.541  1.00  0.00     0.074 A 
ATOM     47  C   UNL     1       3.778  -9.944   9.421  1.00  0.00     0.029 A 
ATOM     48  N   UNL     1       3.051  -7.854   9.623  1.00  0.00    -0.354 N 
ATOM     49  N   UNL     1       2.716  -5.291  11.021  1.00  0.00    -0.248 NA
ATOM     50  C   UNL     1       3.051  -3.919  12.887  1.00  0.00     0.031 C 
ATOM     51  C   UNL     1       4.106  -9.485  10.701  1.00  0.00     0.029 A 
ATOM     52  C   UNL     1       3.686  -8.171  10.816  1.00  0.00     0.049 A 
ATOM     53  H   UNL     1       2.635  -6.985   9.419  1.00  0.00     0.167 HD
ATOM     54  C   UNL     1       3.438  -5.987  11.969  1.00  0.00     0.074 A 
ATOM     55  C   UNL     1       3.666  -5.076  13.074  1.00  0.00     0.031 C 
ATOM     56  C   UNL     1       3.869  -7.269  11.924  1.00  0.00     0.037 A 
BRANCH  43  57
ATOM     57  C   UNL     1       2.563 -10.254   6.658  1.00  0.00     0.064 A 
ATOM     58  C   UNL     1       3.325 -10.347   5.480  1.00  0.00     0.173 A 
ATOM     59  C   UNL     1       1.936 -11.427   7.112  1.00  0.00     0.173 A 
ATOM     60  F   UNL     1       3.954  -9.265   4.996  1.00  0.00    -0.203 F 
ATOM     61  C   UNL     1       3.428 -11.546   4.775  1.00  0.00     0.198 A 
ATOM     62  C   UNL     1       2.070 -12.633   6.423  1.00  0.00     0.198 A 
ATOM     63  F   UNL     1       1.207 -11.413   8.238  1.00  0.00    -0.203 F 
ATOM     64  F   UNL     1       4.123 -11.589   3.629  1.00  0.00    -0.200 F 
ATOM     65  C   UNL     1       2.808 -12.689   5.251  1.00  0.00     0.200 A 
ATOM     66  F   UNL     1       1.489 -13.744   6.897  1.00  0.00    -0.200 F 
ATOM     67  F   UNL     1       2.920 -13.844   4.580  1.00  0.00    -0.200 F 
ENDBRANCH  43  57
BRANCH  44  68
ATOM     68  C   UNL     1       1.617  -1.660  11.669  1.00  0.00     0.064 A 
ATOM     69  C   UNL     1       2.696  -0.833  12.016  1.00  0.00     0.173 A 
ATOM     70  C   UNL     1       0.325  -1.191  11.960  1.00  0.00     0.173 A 
ATOM     71  F   UNL     1       3.951  -1.222  11.746  1.00  0.00    -0.203 F 
ATOM     72  C   UNL     1       2.495   0.390  12.655  1.00  0.00     0.198 A 
ATOM     73  C   UNL     1       0.123   0.051  12.562  1.00  0.00     0.198 A 
ATOM     74  F   UNL     1      -0.747  -1.917  11.609  1.00  0.00    -0.203 F 
ATOM     75  F   UNL     1       3.548   1.137  13.013  1.00  0.00    -0.200 F 
ATOM     76  C   UNL     1       1.209   0.834  12.921  1.00  0.00     0.200 A 
ATOM     77  F   UNL     1      -1.123   0.494  12.779  1.00  0.00    -0.200 F 
ATOM     78  F   UNL     1       1.016   2.018  13.520  1.00  0.00    -0.200 F 
ENDBRANCH  44  68
BRANCH  56  79
ATOM     79  C   UNL     1       4.632  -7.739  13.122  1.00  0.00     0.064 A 
ATOM     80  C   UNL     1       4.017  -7.868  14.377  1.00  0.00     0.173 A 
ATOM     81  C   UNL     1       6.004  -8.006  13.025  1.00  0.00     0.173 A 
ATOM     82  F   UNL     1       2.711  -7.596  14.523  1.00  0.00    -0.203 F 
ATOM     83  C   UNL     1       4.764  -8.187  15.505  1.00  0.00     0.198 A 
ATOM     84  C   UNL     1       6.738  -8.372  14.147  1.00  0.00     0.198 A 
ATOM     85  F   UNL     1       6.635  -7.895  11.847  1.00  0.00    -0.203 F 
ATOM     86  F   UNL     1       4.178  -8.204  16.710  1.00  0.00    -0.200 F 
ATOM     87  C   UNL     1       6.122  -8.443  15.388  1.00  0.00     0.200 A 
ATOM     88  F   UNL     1       8.047  -8.633  14.031  1.00  0.00    -0.200 F 
ATOM     89  F   UNL     1       6.843  -8.740  16.477  1.00  0.00    -0.200 F 
ENDBRANCH  56  79
ENDBRANCH  30  31
ENDBRANCH  23  25
ENDBRANCH  22  23
ENDBRANCH  21  22
ENDBRANCH   1  21
TORSDOF 13
