REMARK SMILES COc1ccc(-c2noc(CC(=O)OCCOC(=O)c3ccc(-c4c5nc(c(-c6c(F)c(F)c(F)c(F)c6F)c6ccc([nH]6)c(-c6c(F)c(F)c(F)c(F)c6F)c6nc(c(-c7c(F)c(F)c(F)c(F)c7F)c7ccc4[nH]7)C=C6)C=C5)cc3)c2-c2ccc(OC)cc2)cc1
REMARK SMILES IDX 15 1 14 2 12 3 13 4 11 5 10 6 7 7 8 8 83 9 9 10 6 11 3 12
REMARK SMILES IDX 4 13 93 14 5 15 92 16 2 17 1 18 84 19 85 20 91 21 86 22
REMARK SMILES IDX 90 23 87 24 88 25 89 26 16 27 17 28 18 29 19 30 20 31 21 32
REMARK SMILES IDX 82 33 22 34 81 35 23 36 24 37 25 38 75 39 26 40 80 41 74 42
REMARK SMILES IDX 76 43 27 44 79 45 73 46 72 47 28 49 60 50 40 51 59 52 41 53
REMARK SMILES IDX 44 54 58 55 77 56 42 57 43 58 57 60 78 61 45 62 29 63 30 64
REMARK SMILES IDX 38 65 31 66 32 67 36 68 39 69 33 70 34 71 37 72 35 73 61 74
REMARK SMILES IDX 62 75 70 76 63 77 64 78 68 79 71 80 65 81 66 82 69 83 67 84
REMARK SMILES IDX 46 85 47 86 55 87 48 88 49 89 53 90 56 91 50 92 51 93 54 94
REMARK SMILES IDX 52 95
REMARK H PARENT 76 48 44 59
REMARK Flexibility Score: inf
ROOT
ATOM      1  C   UNL     1       1.979   9.706   6.317  1.00  0.00     0.274 C 
ENDROOT
BRANCH   1   2
ATOM      2  O   UNL     1       2.594   8.478   5.884  1.00  0.00    -0.462 OA
BRANCH   2   3
ATOM      3  C   UNL     1       3.810   8.206   6.422  1.00  0.00     0.313 C 
ATOM      4  O   UNL     1       4.414   8.949   7.191  1.00  0.00    -0.252 OA
BRANCH   3   5
ATOM      5  C   UNL     1       4.433   6.931   5.925  1.00  0.00     0.201 C 
BRANCH   5   6
ATOM      6  C   UNL     1       3.479   5.901   5.448  1.00  0.00     0.156 A 
ATOM      7  C   UNL     1       2.258   4.327   4.469  1.00  0.00     0.122 A 
ATOM      8  N   UNL     1       1.670   4.591   5.647  1.00  0.00    -0.079 NA
ATOM      9  C   UNL     1       3.427   5.124   4.313  1.00  0.00     0.053 A 
ATOM     10  O   UNL     1       2.447   5.558   6.263  1.00  0.00    -0.359 OA
BRANCH   7  11
ATOM     11  C   UNL     1       1.713   3.358   3.525  1.00  0.00     0.005 A 
ATOM     12  C   UNL     1       0.726   1.632   1.531  1.00  0.00     0.118 A 
ATOM     13  C   UNL     1      -0.113   2.569   2.142  1.00  0.00     0.047 A 
ATOM     14  C   UNL     1       2.055   1.540   1.941  1.00  0.00     0.047 A 
ATOM     15  C   UNL     1       0.371   3.422   3.139  1.00  0.00     0.014 A 
ATOM     16  C   UNL     1       2.545   2.398   2.932  1.00  0.00     0.014 A 
BRANCH  12  17
ATOM     17  O   UNL     1       0.136   0.886   0.549  1.00  0.00    -0.497 OA
ATOM     18  C   UNL     1       0.921  -0.146  -0.034  1.00  0.00     0.278 C 
ENDBRANCH  12  17
ENDBRANCH   7  11
BRANCH   9  19
ATOM     19  C   UNL     1       4.377   5.240   3.232  1.00  0.00    -0.012 A 
ATOM     20  C   UNL     1       3.964   5.703   1.982  1.00  0.00     0.013 A 
ATOM     21  C   UNL     1       5.724   4.930   3.447  1.00  0.00     0.013 A 
ATOM     22  C   UNL     1       4.904   5.890   0.968  1.00  0.00     0.047 A 
ATOM     23  C   UNL     1       6.662   5.123   2.431  1.00  0.00     0.047 A 
ATOM     24  C   UNL     1       6.257   5.621   1.192  1.00  0.00     0.118 A 
BRANCH  24  25
ATOM     25  O   UNL     1       7.077   5.881   0.130  1.00  0.00    -0.497 OA
ATOM     26  C   UNL     1       8.476   5.835   0.383  1.00  0.00     0.278 C 
ENDBRANCH  24  25
ENDBRANCH   9  19
ENDBRANCH   5   6
ENDBRANCH   3   5
ENDBRANCH   2   3
ENDBRANCH   1   2
BRANCH   1  27
ATOM     27  C   UNL     1       1.064   9.478   7.521  1.00  0.00     0.275 C 
BRANCH  27  28
ATOM     28  O   UNL     1       1.824   8.987   8.640  1.00  0.00    -0.458 OA
BRANCH  28  29
ATOM     29  C   UNL     1       1.477   7.762   9.094  1.00  0.00     0.338 C 
ATOM     30  O   UNL     1       0.550   7.062   8.731  1.00  0.00    -0.246 OA
BRANCH  29  31
ATOM     31  C   UNL     1       2.438   7.343  10.123  1.00  0.00     0.060 A 
ATOM     32  C   UNL     1       3.567   6.615   9.743  1.00  0.00     0.016 A 
ATOM     33  C   UNL     1       2.162   7.576  11.470  1.00  0.00     0.016 A 
ATOM     34  C   UNL     1       4.428   6.108  10.715  1.00  0.00     0.010 A 
ATOM     35  C   UNL     1       3.030   7.075  12.445  1.00  0.00     0.010 A 
ATOM     36  C   UNL     1       4.158   6.323  12.074  1.00  0.00    -0.014 A 
BRANCH  36  37
ATOM     37  C   UNL     1       5.021   5.695  13.104  1.00  0.00     0.031 A 
ATOM     38  C   UNL     1       4.531   4.493  13.859  1.00  0.00     0.074 A 
ATOM     39  C   UNL     1       6.250   6.186  13.344  1.00  0.00     0.049 A 
ATOM     40  N   UNL     1       5.108   3.830  14.830  1.00  0.00    -0.248 NA
ATOM     41  C   UNL     1       3.213   3.967  13.472  1.00  0.00     0.031 C 
ATOM     42  C   UNL     1       6.850   7.329  12.658  1.00  0.00     0.029 A 
ATOM     43  N   UNL     1       7.215   5.782  14.233  1.00  0.00    -0.354 N 
ATOM     44  C   UNL     1       4.218   2.825  15.182  1.00  0.00     0.074 A 
ATOM     45  C   UNL     1       3.056   2.971  14.332  1.00  0.00     0.031 C 
ATOM     46  C   UNL     1       8.085   7.532  13.146  1.00  0.00     0.029 A 
ATOM     47  C   UNL     1       8.347   6.557  14.202  1.00  0.00     0.049 A 
ATOM     48  H   UNL     1       7.105   5.011  14.835  1.00  0.00     0.167 HD
ATOM     49  C   UNL     1       4.361   1.865  16.127  1.00  0.00     0.037 A 
ATOM     50  C   UNL     1       9.463   6.497  14.954  1.00  0.00     0.037 A 
ATOM     51  C   UNL     1       5.525   1.705  16.959  1.00  0.00     0.049 A 
ATOM     52  C   UNL     1       9.586   5.434  16.012  1.00  0.00     0.074 A 
ATOM     53  C   UNL     1       5.768   0.752  17.934  1.00  0.00     0.029 A 
ATOM     54  N   UNL     1       6.646   2.520  16.911  1.00  0.00    -0.354 N 
ATOM     55  N   UNL     1       8.739   4.490  16.340  1.00  0.00    -0.248 NA
ATOM     56  C   UNL     1      10.823   5.433  16.806  1.00  0.00     0.031 C 
ATOM     57  C   UNL     1       7.023   1.009  18.497  1.00  0.00     0.029 A 
ATOM     58  C   UNL     1       7.577   2.100  17.848  1.00  0.00     0.049 A 
ATOM     59  H   UNL     1       6.763   3.284  16.301  1.00  0.00     0.167 HD
ATOM     60  C   UNL     1       9.340   3.777  17.367  1.00  0.00     0.074 A 
ATOM     61  C   UNL     1      10.636   4.383  17.594  1.00  0.00     0.031 C 
ATOM     62  C   UNL     1       8.860   2.717  18.063  1.00  0.00     0.037 A 
BRANCH  49  63
ATOM     63  C   UNL     1       3.213   0.921  16.329  1.00  0.00     0.064 A 
ATOM     64  C   UNL     1       2.933  -0.103  15.414  1.00  0.00     0.173 A 
ATOM     65  C   UNL     1       2.405   1.025  17.471  1.00  0.00     0.173 A 
ATOM     66  F   UNL     1       3.670  -0.235  14.302  1.00  0.00    -0.203 F 
ATOM     67  C   UNL     1       1.870  -0.979  15.625  1.00  0.00     0.198 A 
ATOM     68  C   UNL     1       1.357   0.134  17.690  1.00  0.00     0.198 A 
ATOM     69  F   UNL     1       2.635   1.986  18.378  1.00  0.00    -0.203 F 
ATOM     70  F   UNL     1       1.597  -1.929  14.720  1.00  0.00    -0.200 F 
ATOM     71  C   UNL     1       1.087  -0.863  16.764  1.00  0.00     0.200 A 
ATOM     72  F   UNL     1       0.608   0.241  18.796  1.00  0.00    -0.200 F 
ATOM     73  F   UNL     1       0.069  -1.709  16.968  1.00  0.00    -0.200 F 
ENDBRANCH  49  63
BRANCH  50  74
ATOM     74  C   UNL     1      10.553   7.480  14.735  1.00  0.00     0.064 A 
ATOM     75  C   UNL     1      11.769   7.093  14.158  1.00  0.00     0.173 A 
ATOM     76  C   UNL     1      10.400   8.826  15.100  1.00  0.00     0.173 A 
ATOM     77  F   UNL     1      11.970   5.811  13.818  1.00  0.00    -0.203 F 
ATOM     78  C   UNL     1      12.797   8.012  13.964  1.00  0.00     0.198 A 
ATOM     79  C   UNL     1      11.419   9.749  14.883  1.00  0.00     0.198 A 
ATOM     80  F   UNL     1       9.255   9.244  15.659  1.00  0.00    -0.203 F 
ATOM     81  F   UNL     1      13.965   7.609  13.445  1.00  0.00    -0.200 F 
ATOM     82  C   UNL     1      12.619   9.341  14.320  1.00  0.00     0.200 A 
ATOM     83  F   UNL     1      11.240  11.034  15.220  1.00  0.00    -0.200 F 
ATOM     84  F   UNL     1      13.606  10.226  14.128  1.00  0.00    -0.200 F 
ENDBRANCH  50  74
BRANCH  62  85
ATOM     85  C   UNL     1       9.749   2.141  19.124  1.00  0.00     0.064 A 
ATOM     86  C   UNL     1       9.952   2.800  20.346  1.00  0.00     0.173 A 
ATOM     87  C   UNL     1      10.390   0.909  18.925  1.00  0.00     0.173 A 
ATOM     88  F   UNL     1       9.373   3.988  20.575  1.00  0.00    -0.203 F 
ATOM     89  C   UNL     1      10.785   2.257  21.320  1.00  0.00     0.198 A 
ATOM     90  C   UNL     1      11.204   0.359  19.912  1.00  0.00     0.198 A 
ATOM     91  F   UNL     1      10.225   0.239  17.775  1.00  0.00    -0.203 F 
ATOM     92  F   UNL     1      11.001   2.926  22.462  1.00  0.00    -0.200 F 
ATOM     93  C   UNL     1      11.406   1.036  21.105  1.00  0.00     0.200 A 
ATOM     94  F   UNL     1      11.798  -0.825  19.705  1.00  0.00    -0.200 F 
ATOM     95  F   UNL     1      12.209   0.517  22.043  1.00  0.00    -0.200 F 
ENDBRANCH  62  85
ENDBRANCH  36  37
ENDBRANCH  29  31
ENDBRANCH  28  29
ENDBRANCH  27  28
ENDBRANCH   1  27
TORSDOF 16
