REMARK SMILES Cc1c(CCC(=O)N2CCC(C(=O)OCCOC(=O)c3ccc(-c4c5nc(c(-c6c(F)c(F)c(F)c(F)c6F)c6ccc([nH]6)c(-c6c(F)c(F)c(F)c(F)c6F)c6nc(c(-c7c(F)c(F)c(F)c(F)c7F)c7ccc4[nH]7)C=C6)C=C5)cc3)CC2)c(=O)oc2cc3oc4c(c3cc12)CCCC4
REMARK SMILES IDX 15 1 14 2 12 3 13 4 11 5 6 6 7 7 8 8 9 9 84 10 10 11 83 12
REMARK SMILES IDX 5 13 4 14 3 15 1 16 2 17 96 18 85 19 88 20 95 21 86 22 87 23
REMARK SMILES IDX 89 24 94 25 90 26 93 27 91 28 92 29 97 30 100 31 98 32 99 33
REMARK SMILES IDX 16 34 17 35 18 36 19 37 20 38 21 39 82 40 22 41 81 42 23 43
REMARK SMILES IDX 24 44 25 45 75 46 26 47 80 48 74 49 76 50 27 51 79 52 73 53
REMARK SMILES IDX 72 54 28 56 60 57 40 58 59 59 41 60 44 61 58 62 77 63 42 64
REMARK SMILES IDX 43 65 57 67 78 68 45 69 29 70 30 71 38 72 31 73 32 74 36 75
REMARK SMILES IDX 39 76 33 77 34 78 37 79 35 80 61 81 62 82 70 83 63 84 64 85
REMARK SMILES IDX 68 86 71 87 65 88 66 89 69 90 67 91 46 92 47 93 55 94 48 95
REMARK SMILES IDX 49 96 53 97 56 98 50 99 51 100 54 101 52 102
REMARK H PARENT 76 55 44 66
REMARK Flexibility Score: inf
ROOT
ATOM      1  C   UNL     1       2.297  -4.764   3.356  1.00  0.00     0.274 C 
ENDROOT
BRANCH   1   2
ATOM      2  O   UNL     1       1.131  -4.031   2.954  1.00  0.00    -0.462 OA
BRANCH   2   3
ATOM      3  C   UNL     1       1.298  -2.710   2.688  1.00  0.00     0.309 C 
ATOM      4  O   UNL     1       2.315  -2.072   2.925  1.00  0.00    -0.252 OA
BRANCH   3   5
ATOM      5  C   UNL     1       0.090  -2.193   1.925  1.00  0.00     0.103 C 
ATOM      6  C   UNL     1      -1.377   1.300   0.407  1.00  0.00     0.222 C 
ATOM      7  O   UNL     1      -1.320   2.116   1.328  1.00  0.00    -0.275 OA
ATOM      8  N   UNL     1      -1.431  -0.071   0.655  1.00  0.00    -0.343 N 
ATOM      9  C   UNL     1      -1.942  -0.627   1.915  1.00  0.00     0.120 C 
ATOM     10  C   UNL     1      -0.633  -0.998  -0.104  1.00  0.00     0.120 C 
ATOM     11  C   UNL     1      -0.895  -1.386   2.765  1.00  0.00     0.037 C 
ATOM     12  C   UNL     1       0.570  -1.351   0.754  1.00  0.00     0.037 C 
BRANCH   6  13
ATOM     13  C   UNL     1      -1.583   1.779  -1.051  1.00  0.00     0.105 C 
BRANCH  13  14
ATOM     14  C   UNL     1      -0.386   2.189  -1.938  1.00  0.00     0.053 C 
BRANCH  14  15
ATOM     15  C   UNL     1       0.251   1.055  -2.720  1.00  0.00     0.042 A 
ATOM     16  C   UNL     1       2.442   1.245  -1.483  1.00  0.00     0.046 C 
ATOM     17  C   UNL     1       1.466   0.572  -2.410  1.00  0.00    -0.030 A 
ATOM     18  C   UNL     1       1.698  -0.824  -2.773  1.00  0.00     0.022 A 
ATOM     19  C   UNL     1      -0.547   0.428  -3.824  1.00  0.00     0.339 A 
ATOM     20  C   UNL     1       1.000  -1.436  -3.811  1.00  0.00     0.142 A 
ATOM     21  C   UNL     1       2.430  -1.619  -1.903  1.00  0.00     0.024 A 
ATOM     22  O   UNL     1      -1.609   0.918  -4.194  1.00  0.00    -0.246 OA
ATOM     23  O   UNL     1      -0.014  -0.702  -4.455  1.00  0.00    -0.422 OA
ATOM     24  C   UNL     1       1.215  -2.777  -4.189  1.00  0.00     0.095 A 
ATOM     25  C   UNL     1       2.456  -2.988  -2.111  1.00  0.00     0.025 A 
ATOM     26  C   UNL     1       2.049  -3.489  -3.334  1.00  0.00     0.138 A 
ATOM     27  C   UNL     1       2.915  -4.075  -1.367  1.00  0.00     0.001 A 
ATOM     28  O   UNL     1       2.702  -4.686  -3.522  1.00  0.00    -0.461 OA
ATOM     29  C   UNL     1       3.382  -4.897  -2.355  1.00  0.00     0.108 A 
ATOM     30  C   UNL     1       3.471  -4.162  -0.011  1.00  0.00     0.040 C 
ATOM     31  C   UNL     1       4.764  -5.454  -2.265  1.00  0.00     0.076 C 
ATOM     32  C   UNL     1       4.987  -4.009  -0.076  1.00  0.00     0.005 C 
ATOM     33  C   UNL     1       5.597  -4.412  -1.447  1.00  0.00     0.008 C 
ENDBRANCH  14  15
ENDBRANCH  13  14
ENDBRANCH   6  13
ENDBRANCH   3   5
ENDBRANCH   2   3
ENDBRANCH   1   2
BRANCH   1  34
ATOM     34  C   UNL     1       1.992  -6.263   3.256  1.00  0.00     0.275 C 
BRANCH  34  35
ATOM     35  O   UNL     1       1.945  -6.736   1.890  1.00  0.00    -0.458 OA
BRANCH  35  36
ATOM     36  C   UNL     1       0.767  -6.625   1.223  1.00  0.00     0.338 C 
ATOM     37  O   UNL     1      -0.261  -6.108   1.629  1.00  0.00    -0.246 OA
BRANCH  36  38
ATOM     38  C   UNL     1       0.925  -7.167  -0.151  1.00  0.00     0.060 A 
ATOM     39  C   UNL     1       1.700  -8.302  -0.405  1.00  0.00     0.016 A 
ATOM     40  C   UNL     1       0.298  -6.514  -1.216  1.00  0.00     0.016 A 
ATOM     41  C   UNL     1       1.891  -8.740  -1.724  1.00  0.00     0.010 A 
ATOM     42  C   UNL     1       0.509  -6.945  -2.535  1.00  0.00     0.010 A 
ATOM     43  C   UNL     1       1.332  -8.048  -2.817  1.00  0.00    -0.014 A 
BRANCH  43  44
ATOM     44  C   UNL     1       1.625  -8.516  -4.220  1.00  0.00     0.031 A 
ATOM     45  C   UNL     1       0.828  -7.852  -5.330  1.00  0.00     0.074 A 
ATOM     46  C   UNL     1       2.934  -8.700  -4.501  1.00  0.00     0.049 A 
ATOM     47  N   UNL     1       1.082  -6.771  -6.014  1.00  0.00    -0.248 NA
ATOM     48  C   UNL     1      -0.477  -8.448  -5.645  1.00  0.00     0.031 C 
ATOM     49  C   UNL     1       3.902  -7.622  -4.548  1.00  0.00     0.029 A 
ATOM     50  N   UNL     1       3.626  -9.809  -4.970  1.00  0.00    -0.354 N 
ATOM     51  C   UNL     1      -0.013  -6.544  -6.845  1.00  0.00     0.074 A 
ATOM     52  C   UNL     1      -0.957  -7.604  -6.565  1.00  0.00     0.031 C 
ATOM     53  C   UNL     1       5.071  -8.076  -5.017  1.00  0.00     0.029 A 
ATOM     54  C   UNL     1       4.881  -9.449  -5.479  1.00  0.00     0.049 A 
ATOM     55  H   UNL     1       3.279 -10.730  -4.948  1.00  0.00     0.167 HD
ATOM     56  C   UNL     1      -0.120  -5.547  -7.767  1.00  0.00     0.037 A 
ATOM     57  C   UNL     1       5.408  -9.904  -6.656  1.00  0.00     0.037 A 
ATOM     58  C   UNL     1       1.005  -4.685  -7.938  1.00  0.00     0.049 A 
ATOM     59  C   UNL     1       4.970  -8.827  -7.633  1.00  0.00     0.074 A 
ATOM     60  C   UNL     1       1.383  -3.393  -7.644  1.00  0.00     0.029 A 
ATOM     61  N   UNL     1       2.040  -5.139  -8.718  1.00  0.00    -0.354 N 
ATOM     62  N   UNL     1       5.485  -7.635  -7.804  1.00  0.00    -0.248 NA
ATOM     63  C   UNL     1       3.612  -8.986  -8.157  1.00  0.00     0.031 C 
ATOM     64  C   UNL     1       2.813  -3.392  -7.745  1.00  0.00     0.029 A 
ATOM     65  C   UNL     1       3.196  -4.666  -8.162  1.00  0.00     0.049 A 
ATOM     66  H   UNL     1       1.964  -5.700  -9.524  1.00  0.00     0.167 HD
ATOM     67  C   UNL     1       4.410  -6.824  -8.191  1.00  0.00     0.074 A 
ATOM     68  C   UNL     1       3.303  -7.728  -8.431  1.00  0.00     0.031 C 
ATOM     69  C   UNL     1       4.401  -5.460  -8.097  1.00  0.00     0.037 A 
BRANCH  56  70
ATOM     70  C   UNL     1      -1.228  -5.440  -8.743  1.00  0.00     0.064 A 
ATOM     71  C   UNL     1      -0.990  -5.853 -10.063  1.00  0.00     0.173 A 
ATOM     72  C   UNL     1      -2.418  -4.763  -8.466  1.00  0.00     0.173 A 
ATOM     73  F   UNL     1       0.142  -6.510 -10.367  1.00  0.00    -0.203 F 
ATOM     74  C   UNL     1      -1.883  -5.551 -11.083  1.00  0.00     0.198 A 
ATOM     75  C   UNL     1      -3.320  -4.473  -9.490  1.00  0.00     0.198 A 
ATOM     76  F   UNL     1      -2.686  -4.348  -7.219  1.00  0.00    -0.203 F 
ATOM     77  F   UNL     1      -1.602  -5.912 -12.343  1.00  0.00    -0.200 F 
ATOM     78  C   UNL     1      -3.044  -4.851 -10.798  1.00  0.00     0.200 A 
ATOM     79  F   UNL     1      -4.447  -3.800  -9.219  1.00  0.00    -0.200 F 
ATOM     80  F   UNL     1      -3.891  -4.533 -11.787  1.00  0.00    -0.200 F 
ENDBRANCH  56  70
BRANCH  57  81
ATOM     81  C   UNL     1       5.342 -11.366  -6.951  1.00  0.00     0.064 A 
ATOM     82  C   UNL     1       5.739 -12.277  -5.952  1.00  0.00     0.173 A 
ATOM     83  C   UNL     1       4.914 -11.926  -8.164  1.00  0.00     0.173 A 
ATOM     84  F   UNL     1       6.272 -11.831  -4.804  1.00  0.00    -0.203 F 
ATOM     85  C   UNL     1       5.583 -13.655  -6.107  1.00  0.00     0.198 A 
ATOM     86  C   UNL     1       4.733 -13.303  -8.310  1.00  0.00     0.198 A 
ATOM     87  F   UNL     1       4.643 -11.157  -9.226  1.00  0.00    -0.203 F 
ATOM     88  F   UNL     1       5.930 -14.482  -5.111  1.00  0.00    -0.200 F 
ATOM     89  C   UNL     1       5.047 -14.165  -7.274  1.00  0.00     0.200 A 
ATOM     90  F   UNL     1       4.226 -13.788  -9.452  1.00  0.00    -0.200 F 
ATOM     91  F   UNL     1       4.835 -15.481  -7.403  1.00  0.00    -0.200 F 
ENDBRANCH  57  81
BRANCH  69  92
ATOM     92  C   UNL     1       5.669  -4.804  -7.675  1.00  0.00     0.064 A 
ATOM     93  C   UNL     1       6.760  -4.737  -8.548  1.00  0.00     0.173 A 
ATOM     94  C   UNL     1       5.779  -4.156  -6.433  1.00  0.00     0.173 A 
ATOM     95  F   UNL     1       6.696  -5.317  -9.757  1.00  0.00    -0.203 F 
ATOM     96  C   UNL     1       7.908  -4.031  -8.200  1.00  0.00     0.198 A 
ATOM     97  C   UNL     1       6.918  -3.432  -6.098  1.00  0.00     0.198 A 
ATOM     98  F   UNL     1       4.769  -4.190  -5.551  1.00  0.00    -0.203 F 
ATOM     99  F   UNL     1       8.937  -3.967  -9.056  1.00  0.00    -0.200 F 
ATOM    100  C   UNL     1       7.982  -3.369  -6.983  1.00  0.00     0.200 A 
ATOM    101  F   UNL     1       6.977  -2.777  -4.929  1.00  0.00    -0.200 F 
ATOM    102  F   UNL     1       9.073  -2.656  -6.669  1.00  0.00    -0.200 F 
ENDBRANCH  69  92
ENDBRANCH  43  44
ENDBRANCH  36  38
ENDBRANCH  35  36
ENDBRANCH  34  35
ENDBRANCH   1  34
TORSDOF 14
