REMARK SMILES O=C(OCCOC(=O)c1cccc2cccc([S@@](=O)c3ccccc3CO)c12)c1ccc(-c2c3nc(c(-c4c(F)c(F)c(F)c(F)c4F)c4ccc([nH]4)c(-c4c(F)c(F)c(F)c(F)c4F)c4nc(c(-c5c(F)c(F)c(F)c(F)c5F)c5ccc2[nH]5)C=C4)C=C3)cc1
REMARK SMILES IDX 5 1 4 2 3 3 2 4 1 5 29 6 30 7 91 8 31 9 90 10 32 11 33 12
REMARK SMILES IDX 34 13 84 14 35 15 89 16 83 17 85 18 36 19 88 20 82 21 81 22
REMARK SMILES IDX 37 24 69 25 49 26 68 27 50 28 53 29 67 30 86 31 51 32 52 33
REMARK SMILES IDX 66 35 87 36 54 37 38 38 39 39 47 40 40 41 41 42 45 43 48 44
REMARK SMILES IDX 42 45 43 46 46 47 44 48 70 49 71 50 79 51 72 52 73 53 77 54
REMARK SMILES IDX 80 55 74 56 75 57 78 58 76 59 55 60 56 61 64 62 57 63 58 64
REMARK SMILES IDX 62 65 65 66 59 67 60 68 63 69 61 70 6 71 7 72 8 73 9 74
REMARK SMILES IDX 10 75 28 76 11 77 13 78 17 79 12 80 14 81 16 82 15 83 18 84
REMARK SMILES IDX 19 85 20 86 21 87 25 88 22 89 24 90 23 91 26 92 27 93
REMARK H PARENT 85 23 53 34 27 94
REMARK Flexibility Score: inf
ROOT
ATOM      1  C   UNL     1       1.465   0.978  -3.982  1.00  0.00     0.275 C 
ENDROOT
BRANCH   1   2
ATOM      2  C   UNL     1       1.846   2.474  -4.024  1.00  0.00     0.275 C 
BRANCH   2   3
ATOM      3  O   UNL     1       0.960   3.331  -3.315  1.00  0.00    -0.458 OA
BRANCH   3   4
ATOM      4  C   UNL     1       0.913   3.147  -1.974  1.00  0.00     0.338 C 
ATOM      5  O   UNL     1       1.834   2.802  -1.260  1.00  0.00    -0.246 OA
BRANCH   4   6
ATOM      6  C   UNL     1      -0.530   3.119  -1.620  1.00  0.00     0.060 A 
ATOM      7  C   UNL     1      -1.479   3.541  -2.561  1.00  0.00     0.016 A 
ATOM      8  C   UNL     1      -0.941   2.479  -0.445  1.00  0.00     0.016 A 
ATOM      9  C   UNL     1      -2.820   3.288  -2.358  1.00  0.00     0.010 A 
ATOM     10  C   UNL     1      -2.291   2.188  -0.256  1.00  0.00     0.010 A 
ATOM     11  C   UNL     1      -3.229   2.608  -1.209  1.00  0.00    -0.014 A 
BRANCH  11  12
ATOM     12  C   UNL     1      -4.677   2.535  -0.969  1.00  0.00     0.031 A 
ATOM     13  C   UNL     1      -5.278   3.577  -0.086  1.00  0.00     0.074 A 
ATOM     14  C   UNL     1      -5.437   1.673  -1.666  1.00  0.00     0.049 A 
ATOM     15  N   UNL     1      -6.533   3.904   0.058  1.00  0.00    -0.248 NA
ATOM     16  C   UNL     1      -4.340   4.396   0.700  1.00  0.00     0.031 C 
ATOM     17  C   UNL     1      -4.931   0.676  -2.606  1.00  0.00     0.029 A 
ATOM     18  N   UNL     1      -6.793   1.507  -1.701  1.00  0.00    -0.354 N 
ATOM     19  C   UNL     1      -6.525   5.014   0.886  1.00  0.00     0.074 A 
ATOM     20  C   UNL     1      -5.159   5.248   1.293  1.00  0.00     0.031 C 
ATOM     21  C   UNL     1      -5.960  -0.048  -3.076  1.00  0.00     0.029 A 
ATOM     22  C   UNL     1      -7.196   0.466  -2.497  1.00  0.00     0.049 A 
ATOM     23  H   UNL     1      -7.421   2.080  -1.203  1.00  0.00     0.167 HD
ATOM     24  C   UNL     1      -7.570   5.799   1.229  1.00  0.00     0.037 A 
ATOM     25  C   UNL     1      -8.434  -0.007  -2.730  1.00  0.00     0.037 A 
ATOM     26  C   UNL     1      -8.924   5.512   0.853  1.00  0.00     0.049 A 
ATOM     27  C   UNL     1      -9.598   0.779  -2.197  1.00  0.00     0.074 A 
ATOM     28  C   UNL     1     -10.074   6.216   1.146  1.00  0.00     0.029 A 
ATOM     29  N   UNL     1      -9.306   4.396   0.118  1.00  0.00    -0.354 N 
ATOM     30  N   UNL     1      -9.586   1.886  -1.491  1.00  0.00    -0.248 NA
ATOM     31  C   UNL     1     -10.941   0.292  -2.530  1.00  0.00     0.031 C 
ATOM     32  C   UNL     1     -11.160   5.495   0.635  1.00  0.00     0.029 A 
ATOM     33  C   UNL     1     -10.681   4.366  -0.017  1.00  0.00     0.049 A 
ATOM     34  H   UNL     1      -8.687   3.725  -0.253  1.00  0.00     0.167 HD
ATOM     35  C   UNL     1     -10.912   2.255  -1.331  1.00  0.00     0.074 A 
ATOM     36  C   UNL     1     -11.704   1.244  -2.007  1.00  0.00     0.031 C 
ATOM     37  C   UNL     1     -11.429   3.339  -0.702  1.00  0.00     0.037 A 
BRANCH  24  38
ATOM     38  C   UNL     1      -7.252   7.003   2.059  1.00  0.00     0.064 A 
ATOM     39  C   UNL     1      -6.561   8.100   1.518  1.00  0.00     0.173 A 
ATOM     40  C   UNL     1      -7.566   7.031   3.424  1.00  0.00     0.173 A 
ATOM     41  F   UNL     1      -6.209   8.105   0.223  1.00  0.00    -0.203 F 
ATOM     42  C   UNL     1      -6.163   9.164   2.323  1.00  0.00     0.198 A 
ATOM     43  C   UNL     1      -7.188   8.108   4.221  1.00  0.00     0.198 A 
ATOM     44  F   UNL     1      -8.213   6.002   3.989  1.00  0.00    -0.203 F 
ATOM     45  F   UNL     1      -5.444  10.167   1.800  1.00  0.00    -0.200 F 
ATOM     46  C   UNL     1      -6.476   9.166   3.674  1.00  0.00     0.200 A 
ATOM     47  F   UNL     1      -7.487   8.109   5.527  1.00  0.00    -0.200 F 
ATOM     48  F   UNL     1      -6.076  10.180   4.453  1.00  0.00    -0.200 F 
ENDBRANCH  24  38
BRANCH  25  49
ATOM     49  C   UNL     1      -8.605  -1.262  -3.504  1.00  0.00     0.064 A 
ATOM     50  C   UNL     1      -9.123  -1.270  -4.804  1.00  0.00     0.173 A 
ATOM     51  C   UNL     1      -8.211  -2.492  -2.952  1.00  0.00     0.173 A 
ATOM     52  F   UNL     1      -9.520  -0.123  -5.375  1.00  0.00    -0.203 F 
ATOM     53  C   UNL     1      -9.253  -2.462  -5.520  1.00  0.00     0.198 A 
ATOM     54  C   UNL     1      -8.323  -3.679  -3.673  1.00  0.00     0.198 A 
ATOM     55  F   UNL     1      -7.696  -2.538  -1.714  1.00  0.00    -0.203 F 
ATOM     56  F   UNL     1      -9.771  -2.446  -6.755  1.00  0.00    -0.200 F 
ATOM     57  C   UNL     1      -8.848  -3.663  -4.956  1.00  0.00     0.200 A 
ATOM     58  F   UNL     1      -7.916  -4.833  -3.128  1.00  0.00    -0.200 F 
ATOM     59  F   UNL     1      -8.963  -4.805  -5.648  1.00  0.00    -0.200 F 
ENDBRANCH  25  49
BRANCH  37  60
ATOM     60  C   UNL     1     -12.917   3.500  -0.740  1.00  0.00     0.064 A 
ATOM     61  C   UNL     1     -13.758   2.714   0.057  1.00  0.00     0.173 A 
ATOM     62  C   UNL     1     -13.497   4.504  -1.531  1.00  0.00     0.173 A 
ATOM     63  F   UNL     1     -13.247   1.732   0.815  1.00  0.00    -0.203 F 
ATOM     64  C   UNL     1     -15.134   2.920   0.057  1.00  0.00     0.198 A 
ATOM     65  C   UNL     1     -14.870   4.724  -1.508  1.00  0.00     0.198 A 
ATOM     66  F   UNL     1     -12.728   5.283  -2.306  1.00  0.00    -0.203 F 
ATOM     67  F   UNL     1     -15.926   2.137   0.802  1.00  0.00    -0.200 F 
ATOM     68  C   UNL     1     -15.687   3.931  -0.717  1.00  0.00     0.200 A 
ATOM     69  F   UNL     1     -15.400   5.709  -2.245  1.00  0.00    -0.200 F 
ATOM     70  F   UNL     1     -17.011   4.138  -0.703  1.00  0.00    -0.200 F 
ENDBRANCH  37  60
ENDBRANCH  11  12
ENDBRANCH   4   6
ENDBRANCH   3   4
ENDBRANCH   2   3
ENDBRANCH   1   2
BRANCH   1  71
ATOM     71  O   UNL     1       0.466   0.619  -3.002  1.00  0.00    -0.458 OA
BRANCH  71  72
ATOM     72  C   UNL     1       0.709  -0.507  -2.280  1.00  0.00     0.338 C 
ATOM     73  O   UNL     1       1.717  -1.187  -2.320  1.00  0.00    -0.246 OA
BRANCH  72  74
ATOM     74  C   UNL     1      -0.495  -0.915  -1.516  1.00  0.00     0.069 A 
ATOM     75  C   UNL     1      -1.592  -1.249  -2.335  1.00  0.00     0.016 A 
ATOM     76  C   UNL     1      -0.515  -1.137  -0.089  1.00  0.00     0.013 A 
ATOM     77  C   UNL     1      -2.739  -1.799  -1.787  1.00  0.00     0.002 A 
ATOM     78  C   UNL     1      -1.728  -1.702   0.421  1.00  0.00    -0.016 A 
ATOM     79  C   UNL     1       0.493  -0.836   0.900  1.00  0.00     0.052 A 
ATOM     80  C   UNL     1      -2.807  -2.007  -0.419  1.00  0.00     0.009 A 
ATOM     81  C   UNL     1      -1.901  -1.970   1.786  1.00  0.00     0.009 A 
ATOM     82  C   UNL     1       0.286  -1.145   2.263  1.00  0.00     0.019 A 
ATOM     83  C   UNL     1      -0.897  -1.712   2.704  1.00  0.00     0.002 A 
BRANCH  79  84
ATOM     84  S   UNL     1       1.897   0.254   0.557  1.00  0.00     0.086 S 
ATOM     85  O   UNL     1       2.229   0.921   1.862  1.00  0.00    -0.249 OA
BRANCH  84  86
ATOM     86  C   UNL     1       3.269  -0.892   0.266  1.00  0.00     0.049 A 
ATOM     87  C   UNL     1       3.231  -2.248   0.621  1.00  0.00     0.018 A 
ATOM     88  C   UNL     1       4.440  -0.372  -0.349  1.00  0.00    -0.006 A 
ATOM     89  C   UNL     1       4.312  -3.089   0.343  1.00  0.00     0.001 A 
ATOM     90  C   UNL     1       5.502  -1.245  -0.646  1.00  0.00     0.007 A 
ATOM     91  C   UNL     1       5.441  -2.591  -0.299  1.00  0.00     0.000 A 
BRANCH  88  92
ATOM     92  C   UNL     1       4.546   1.084  -0.757  1.00  0.00     0.192 C 
BRANCH  92  93
ATOM     93  O   UNL     1       5.904   1.520  -0.805  1.00  0.00    -0.392 OA
ATOM     94  H   UNL     1       6.304   1.433   0.074  1.00  0.00     0.211 HD
ENDBRANCH  92  93
ENDBRANCH  88  92
ENDBRANCH  84  86
ENDBRANCH  79  84
ENDBRANCH  72  74
ENDBRANCH  71  72
ENDBRANCH   1  71
TORSDOF 15
