REMARK SMILES CC1=C(CC(=O)OCCOC(=O)c2ccc(-c3c4nc(c(-c5c(F)c(F)c(F)c(F)c5F)c5ccc([nH]5)c(-c5c(F)c(F)c(F)c(F)c5F)c5nc(c(-c6c(F)c(F)c(F)c(F)c6F)c6ccc3[nH]6)C=C5)C=C4)cc2)c2cc(F)ccc2/C1=C\c1ccc([S@@+](C)[O-])cc1
REMARK SMILES IDX 8 1 7 2 5 3 6 4 4 5 3 6 1 7 2 8 83 9 76 10 82 11 84 12 77 13
REMARK SMILES IDX 81 14 78 15 80 16 79 17 85 18 86 19 93 20 87 21 92 22 88 23
REMARK SMILES IDX 89 24 90 25 91 26 9 27 10 28 11 29 12 30 13 31 14 32 75 33
REMARK SMILES IDX 15 34 74 35 16 36 17 37 18 38 68 39 19 40 73 41 67 42 69 43
REMARK SMILES IDX 20 44 72 45 66 46 65 47 21 49 53 50 33 51 52 52 34 53 37 54
REMARK SMILES IDX 51 55 70 56 35 57 36 58 50 60 71 61 38 62 22 63 23 64 31 65
REMARK SMILES IDX 24 66 25 67 29 68 32 69 26 70 27 71 30 72 28 73 54 74 55 75
REMARK SMILES IDX 63 76 56 77 57 78 61 79 64 80 58 81 59 82 62 83 60 84 39 85
REMARK SMILES IDX 40 86 48 87 41 88 42 89 46 90 49 91 43 92 44 93 47 94 45 95
REMARK H PARENT 69 48 37 59
REMARK Flexibility Score: inf
ROOT
ATOM      1  C   UNL     1      -1.171  -4.008   2.489  1.00  0.00     0.274 C 
ENDROOT
BRANCH   1   2
ATOM      2  O   UNL     1      -0.490  -3.275   1.450  1.00  0.00    -0.462 OA
BRANCH   2   3
ATOM      3  C   UNL     1       0.848  -3.115   1.621  1.00  0.00     0.310 C 
ATOM      4  O   UNL     1       1.480  -3.529   2.590  1.00  0.00    -0.252 OA
BRANCH   3   5
ATOM      5  C   UNL     1       1.543  -2.365   0.494  1.00  0.00     0.159 C 
BRANCH   5   6
ATOM      6  C   UNL     1       0.723  -1.993  -0.697  1.00  0.00    -0.025 C 
ATOM      7  C   UNL     1       0.331   0.440  -0.159  1.00  0.00     0.045 C 
ATOM      8  C   UNL     1       0.190  -0.787  -0.998  1.00  0.00    -0.039 C 
ATOM      9  C   UNL     1      -0.497  -0.861  -2.297  1.00  0.00    -0.014 C 
ATOM     10  C   UNL     1       0.463  -2.897  -1.828  1.00  0.00    -0.011 A 
ATOM     11  C   UNL     1      -0.273  -2.228  -2.819  1.00  0.00    -0.010 A 
ATOM     12  C   UNL     1      -1.192   0.145  -2.861  1.00  0.00     0.017 C 
ATOM     13  C   UNL     1       0.877  -4.205  -2.025  1.00  0.00     0.048 A 
ATOM     14  C   UNL     1      -0.595  -2.876  -4.008  1.00  0.00     0.012 A 
ATOM     15  C   UNL     1       0.527  -4.853  -3.204  1.00  0.00     0.123 A 
ATOM     16  C   UNL     1      -0.206  -4.204  -4.193  1.00  0.00     0.040 A 
ATOM     17  F   UNL     1       0.927  -6.116  -3.406  1.00  0.00    -0.207 F 
BRANCH  12  18
ATOM     18  C   UNL     1      -1.877   0.064  -4.152  1.00  0.00    -0.025 A 
ATOM     19  C   UNL     1      -3.089  -0.626  -4.263  1.00  0.00     0.013 A 
ATOM     20  C   UNL     1      -1.250   0.555  -5.299  1.00  0.00     0.013 A 
ATOM     21  C   UNL     1      -3.616  -0.916  -5.525  1.00  0.00     0.061 A 
ATOM     22  C   UNL     1      -1.791   0.284  -6.558  1.00  0.00     0.061 A 
ATOM     23  C   UNL     1      -2.959  -0.480  -6.683  1.00  0.00     0.152 A 
BRANCH  23  24
ATOM     24  S   UNL     1      -3.491  -1.030  -8.324  1.00  0.00    -0.018 S 
ATOM     25  C   UNL     1      -5.249  -0.645  -8.218  1.00  0.00     0.346 C 
ATOM     26  O   UNL     1      -2.843  -0.051  -9.367  1.00  0.00    -0.612 OA
ENDBRANCH  23  24
ENDBRANCH  12  18
ENDBRANCH   5   6
ENDBRANCH   3   5
ENDBRANCH   2   3
ENDBRANCH   1   2
BRANCH   1  27
ATOM     27  C   UNL     1      -1.372  -5.466   2.084  1.00  0.00     0.275 C 
BRANCH  27  28
ATOM     28  O   UNL     1      -0.096  -6.066   1.802  1.00  0.00    -0.458 OA
BRANCH  28  29
ATOM     29  C   UNL     1       0.014  -6.663   0.595  1.00  0.00     0.338 C 
ATOM     30  O   UNL     1      -0.857  -6.813  -0.244  1.00  0.00    -0.246 OA
BRANCH  29  31
ATOM     31  C   UNL     1       1.391  -7.158   0.420  1.00  0.00     0.060 A 
ATOM     32  C   UNL     1       1.581  -8.482   0.031  1.00  0.00     0.016 A 
ATOM     33  C   UNL     1       2.484  -6.296   0.543  1.00  0.00     0.016 A 
ATOM     34  C   UNL     1       2.875  -8.951  -0.193  1.00  0.00     0.010 A 
ATOM     35  C   UNL     1       3.765  -6.739   0.218  1.00  0.00     0.010 A 
ATOM     36  C   UNL     1       3.978  -8.082  -0.114  1.00  0.00    -0.014 A 
BRANCH  36  37
ATOM     37  C   UNL     1       5.351  -8.603  -0.335  1.00  0.00     0.031 A 
ATOM     38  C   UNL     1       6.338  -8.640   0.800  1.00  0.00     0.074 A 
ATOM     39  C   UNL     1       5.699  -9.075  -1.548  1.00  0.00     0.049 A 
ATOM     40  N   UNL     1       7.532  -9.179   0.837  1.00  0.00    -0.248 NA
ATOM     41  C   UNL     1       5.947  -7.975   2.054  1.00  0.00     0.031 C 
ATOM     42  C   UNL     1       4.855  -9.034  -2.743  1.00  0.00     0.029 A 
ATOM     43  N   UNL     1       6.844  -9.704  -1.969  1.00  0.00    -0.354 N 
ATOM     44  C   UNL     1       8.020  -8.929   2.113  1.00  0.00     0.074 A 
ATOM     45  C   UNL     1       7.031  -8.130   2.799  1.00  0.00     0.031 C 
ATOM     46  C   UNL     1       5.487  -9.665  -3.747  1.00  0.00     0.029 A 
ATOM     47  C   UNL     1       6.783 -10.140  -3.270  1.00  0.00     0.049 A 
ATOM     48  H   UNL     1       7.633  -9.831  -1.393  1.00  0.00     0.167 HD
ATOM     49  C   UNL     1       9.170  -9.363   2.678  1.00  0.00     0.037 A 
ATOM     50  C   UNL     1       7.662 -10.867  -3.986  1.00  0.00     0.037 A 
ATOM     51  C   UNL     1      10.144 -10.179   2.007  1.00  0.00     0.049 A 
ATOM     52  C   UNL     1       8.934 -11.338  -3.334  1.00  0.00     0.074 A 
ATOM     53  C   UNL     1      11.318 -10.710   2.510  1.00  0.00     0.029 A 
ATOM     54  N   UNL     1      10.052 -10.585   0.684  1.00  0.00    -0.354 N 
ATOM     55  N   UNL     1       9.343 -11.168  -2.101  1.00  0.00    -0.248 NA
ATOM     56  C   UNL     1       9.861 -12.113  -4.172  1.00  0.00     0.031 C 
ATOM     57  C   UNL     1      11.954 -11.412   1.482  1.00  0.00     0.029 A 
ATOM     58  C   UNL     1      11.158 -11.348   0.350  1.00  0.00     0.049 A 
ATOM     59  H   UNL     1       9.312 -10.363   0.074  1.00  0.00     0.167 HD
ATOM     60  C   UNL     1      10.560 -11.829  -2.008  1.00  0.00     0.074 A 
ATOM     61  C   UNL     1      10.817 -12.418  -3.305  1.00  0.00     0.031 C 
ATOM     62  C   UNL     1      11.391 -11.935  -0.944  1.00  0.00     0.037 A 
BRANCH  49  63
ATOM     63  C   UNL     1       9.423  -8.998   4.109  1.00  0.00     0.064 A 
ATOM     64  C   UNL     1       8.705  -9.609   5.149  1.00  0.00     0.173 A 
ATOM     65  C   UNL     1      10.430  -8.085   4.451  1.00  0.00     0.173 A 
ATOM     66  F   UNL     1       7.724 -10.481   4.871  1.00  0.00    -0.203 F 
ATOM     67  C   UNL     1       8.979  -9.308   6.480  1.00  0.00     0.198 A 
ATOM     68  C   UNL     1      10.716  -7.804   5.785  1.00  0.00     0.198 A 
ATOM     69  F   UNL     1      11.146  -7.477   3.494  1.00  0.00    -0.203 F 
ATOM     70  F   UNL     1       8.261  -9.882   7.456  1.00  0.00    -0.200 F 
ATOM     71  C   UNL     1       9.989  -8.413   6.797  1.00  0.00     0.200 A 
ATOM     72  F   UNL     1      11.700  -6.947   6.091  1.00  0.00    -0.200 F 
ATOM     73  F   UNL     1      10.262  -8.137   8.080  1.00  0.00    -0.200 F 
ENDBRANCH  49  63
BRANCH  50  74
ATOM     74  C   UNL     1       7.340 -11.250  -5.384  1.00  0.00     0.064 A 
ATOM     75  C   UNL     1       7.021 -12.577  -5.708  1.00  0.00     0.173 A 
ATOM     76  C   UNL     1       7.341 -10.307  -6.421  1.00  0.00     0.173 A 
ATOM     77  F   UNL     1       7.028 -13.518  -4.752  1.00  0.00    -0.203 F 
ATOM     78  C   UNL     1       6.731 -12.948  -7.019  1.00  0.00     0.198 A 
ATOM     79  C   UNL     1       7.029 -10.675  -7.728  1.00  0.00     0.198 A 
ATOM     80  F   UNL     1       7.638  -9.025  -6.162  1.00  0.00    -0.203 F 
ATOM     81  F   UNL     1       6.468 -14.230  -7.307  1.00  0.00    -0.200 F 
ATOM     82  C   UNL     1       6.730 -11.996  -8.027  1.00  0.00     0.200 A 
ATOM     83  F   UNL     1       7.020  -9.752  -8.699  1.00  0.00    -0.200 F 
ATOM     84  F   UNL     1       6.449 -12.354  -9.287  1.00  0.00    -0.200 F 
ENDBRANCH  50  74
BRANCH  62  85
ATOM     85  C   UNL     1      12.651 -12.726  -1.123  1.00  0.00     0.064 A 
ATOM     86  C   UNL     1      13.739 -12.209  -1.839  1.00  0.00     0.173 A 
ATOM     87  C   UNL     1      12.801 -13.976  -0.503  1.00  0.00     0.173 A 
ATOM     88  F   UNL     1      13.637 -11.022  -2.457  1.00  0.00    -0.203 F 
ATOM     89  C   UNL     1      14.931 -12.921  -1.939  1.00  0.00     0.198 A 
ATOM     90  C   UNL     1      14.002 -14.674  -0.585  1.00  0.00     0.198 A 
ATOM     91  F   UNL     1      11.790 -14.507   0.201  1.00  0.00    -0.203 F 
ATOM     92  F   UNL     1      15.950 -12.421  -2.651  1.00  0.00    -0.200 F 
ATOM     93  C   UNL     1      15.064 -14.147  -1.304  1.00  0.00     0.200 A 
ATOM     94  F   UNL     1      14.134 -15.852   0.040  1.00  0.00    -0.200 F 
ATOM     95  F   UNL     1      16.218 -14.823  -1.388  1.00  0.00    -0.200 F 
ENDBRANCH  62  85
ENDBRANCH  36  37
ENDBRANCH  29  31
ENDBRANCH  28  29
ENDBRANCH  27  28
ENDBRANCH   1  27
TORSDOF 14
