REMARK SMILES COc1cc(OC)cc(-c2cc3nc(C)c(CCC(=O)OCCOC(=O)c4ccc(-c5c6nc(c(-c7c(F)c(F)c(F)c(F)c7F)c7ccc([nH]7)c(-c7c(F)c(F)c(F)c(F)c7F)c7nc(c(-c8c(F)c(F)c(F)c(F)c8F)c8ccc5[nH]8)C=C7)C=C6)cc4)c(C)n3n2)c1
REMARK SMILES IDX 22 1 21 2 19 3 20 4 18 5 17 6 16 7 10 8 11 9 93 10 12 11
REMARK SMILES IDX 92 12 13 13 90 14 14 15 91 16 15 17 9 18 3 19 4 20 94 21
REMARK SMILES IDX 5 22 8 23 2 24 1 25 6 26 7 27 23 28 24 29 25 30 26 31 27 32
REMARK SMILES IDX 28 33 89 34 29 35 88 36 30 37 31 38 32 39 82 40 33 41 87 42
REMARK SMILES IDX 81 43 83 44 34 45 86 46 80 47 79 48 35 50 67 51 47 52 66 53
REMARK SMILES IDX 48 54 51 55 65 56 84 57 49 58 50 59 64 61 85 62 52 63 36 64
REMARK SMILES IDX 37 65 45 66 38 67 39 68 43 69 46 70 40 71 41 72 44 73 42 74
REMARK SMILES IDX 68 75 69 76 77 77 70 78 71 79 75 80 78 81 72 82 73 83 76 84
REMARK SMILES IDX 74 85 53 86 54 87 62 88 55 89 56 90 60 91 63 92 57 93 58 94
REMARK SMILES IDX 61 95 59 96
REMARK H PARENT 83 49 51 60
REMARK Flexibility Score: inf
ROOT
ATOM      1  C   UNL     1       8.105   2.130   0.215  1.00  0.00     0.274 C 
ENDROOT
BRANCH   1   2
ATOM      2  O   UNL     1       8.561   1.738   1.526  1.00  0.00    -0.462 OA
BRANCH   2   3
ATOM      3  C   UNL     1       9.827   1.260   1.616  1.00  0.00     0.306 C 
ATOM      4  O   UNL     1      10.540   1.013   0.648  1.00  0.00    -0.252 OA
BRANCH   3   5
ATOM      5  C   UNL     1      10.267   0.987   3.049  1.00  0.00     0.127 C 
BRANCH   5   6
ATOM      6  C   UNL     1       9.843   1.950   4.181  1.00  0.00     0.051 C 
BRANCH   6   7
ATOM      7  C   UNL     1       8.421   1.781   4.656  1.00  0.00    -0.005 A 
ATOM      8  C   UNL     1       3.988   1.601   4.234  1.00  0.00     0.095 A 
ATOM      9  C   UNL     1       4.483   0.689   5.190  1.00  0.00     0.080 A 
ATOM     10  N   UNL     1       4.937   2.444   3.825  1.00  0.00    -0.166 NA
ATOM     11  C   UNL     1       5.835   0.939   5.268  1.00  0.00     0.156 A 
ATOM     12  N   UNL     1       6.071   2.024   4.433  1.00  0.00    -0.219 N 
ATOM     13  N   UNL     1       6.835   0.373   5.998  1.00  0.00    -0.234 NA
ATOM     14  C   UNL     1       7.367   2.502   4.206  1.00  0.00     0.046 A 
ATOM     15  C   UNL     1       8.049   0.777   5.738  1.00  0.00     0.045 A 
ATOM     16  C   UNL     1       7.429   3.746   3.372  1.00  0.00     0.067 C 
ATOM     17  C   UNL     1       9.103   0.301   6.720  1.00  0.00     0.067 C 
BRANCH   8  18
ATOM     18  C   UNL     1       2.636   1.760   3.733  1.00  0.00     0.009 A 
ATOM     19  C   UNL     1       1.004   1.526   1.964  1.00  0.00     0.123 A 
ATOM     20  C   UNL     1       0.114   2.302   2.713  1.00  0.00     0.092 A 
ATOM     21  C   UNL     1       2.276   1.263   2.471  1.00  0.00     0.057 A 
ATOM     22  C   UNL     1       0.476   2.813   3.962  1.00  0.00     0.123 A 
ATOM     23  C   UNL     1       1.735   2.525   4.479  1.00  0.00     0.057 A 
BRANCH  19  24
ATOM     24  O   UNL     1       0.540   1.147   0.734  1.00  0.00    -0.497 OA
ATOM     25  C   UNL     1       1.141  -0.003   0.153  1.00  0.00     0.278 C 
ENDBRANCH  19  24
BRANCH  22  26
ATOM     26  O   UNL     1      -0.471   3.584   4.579  1.00  0.00    -0.497 OA
ATOM     27  C   UNL     1      -0.007   4.398   5.652  1.00  0.00     0.278 C 
ENDBRANCH  22  26
ENDBRANCH   8  18
ENDBRANCH   6   7
ENDBRANCH   5   6
ENDBRANCH   3   5
ENDBRANCH   2   3
ENDBRANCH   1   2
BRANCH   1  28
ATOM     28  C   UNL     1       8.296   3.623  -0.043  1.00  0.00     0.275 C 
BRANCH  28  29
ATOM     29  O   UNL     1       9.648   4.010  -0.324  1.00  0.00    -0.458 OA
BRANCH  29  30
ATOM     30  C   UNL     1      10.371   4.351   0.758  1.00  0.00     0.338 C 
ATOM     31  O   UNL     1      10.478   3.735   1.812  1.00  0.00    -0.246 OA
BRANCH  30  32
ATOM     32  C   UNL     1      10.893   5.707   0.662  1.00  0.00     0.060 A 
ATOM     33  C   UNL     1      11.818   6.106   1.635  1.00  0.00     0.016 A 
ATOM     34  C   UNL     1      10.351   6.610  -0.258  1.00  0.00     0.016 A 
ATOM     35  C   UNL     1      12.181   7.431   1.704  1.00  0.00     0.010 A 
ATOM     36  C   UNL     1      10.719   7.936  -0.193  1.00  0.00     0.010 A 
ATOM     37  C   UNL     1      11.620   8.338   0.794  1.00  0.00    -0.014 A 
BRANCH  37  38
ATOM     38  C   UNL     1      12.234   9.649   0.706  1.00  0.00     0.031 A 
ATOM     39  C   UNL     1      13.663   9.560   0.297  1.00  0.00     0.074 A 
ATOM     40  C   UNL     1      11.558  10.806   0.821  1.00  0.00     0.049 A 
ATOM     41  N   UNL     1      14.693   9.931   0.981  1.00  0.00    -0.248 NA
ATOM     42  C   UNL     1      13.998   8.801  -0.924  1.00  0.00     0.031 C 
ATOM     43  C   UNL     1      10.116  11.001   0.959  1.00  0.00     0.029 A 
ATOM     44  N   UNL     1      12.028  12.079   0.731  1.00  0.00    -0.354 N 
ATOM     45  C   UNL     1      15.795   9.643   0.184  1.00  0.00     0.074 A 
ATOM     46  C   UNL     1      15.330   8.789  -0.875  1.00  0.00     0.031 C 
ATOM     47  C   UNL     1       9.817  12.294   0.699  1.00  0.00     0.029 A 
ATOM     48  C   UNL     1      11.050  13.036   0.492  1.00  0.00     0.049 A 
ATOM     49  H   UNL     1      12.982  12.303   0.828  1.00  0.00     0.167 HD
ATOM     50  C   UNL     1      16.933  10.376   0.302  1.00  0.00     0.037 A 
ATOM     51  C   UNL     1      11.262  14.310   0.070  1.00  0.00     0.037 A 
ATOM     52  C   UNL     1      17.012  11.011   1.594  1.00  0.00     0.049 A 
ATOM     53  C   UNL     1      12.679  14.649   0.379  1.00  0.00     0.074 A 
ATOM     54  C   UNL     1      16.953  10.540   2.895  1.00  0.00     0.029 A 
ATOM     55  N   UNL     1      16.750  12.356   1.680  1.00  0.00    -0.354 N 
ATOM     56  N   UNL     1      13.133  14.799   1.593  1.00  0.00    -0.248 NA
ATOM     57  C   UNL     1      13.680  14.326  -0.629  1.00  0.00     0.031 C 
ATOM     58  C   UNL     1      16.151  11.492   3.592  1.00  0.00     0.029 A 
ATOM     59  C   UNL     1      15.857  12.529   2.708  1.00  0.00     0.049 A 
ATOM     60  H   UNL     1      17.131  13.064   1.111  1.00  0.00     0.167 HD
ATOM     61  C   UNL     1      14.356  14.146   1.587  1.00  0.00     0.074 A 
ATOM     62  C   UNL     1      14.671  13.930   0.176  1.00  0.00     0.031 C 
ATOM     63  C   UNL     1      14.857  13.568   2.718  1.00  0.00     0.037 A 
BRANCH  50  64
ATOM     64  C   UNL     1      17.722  10.844  -0.894  1.00  0.00     0.064 A 
ATOM     65  C   UNL     1      18.953  11.494  -0.692  1.00  0.00     0.173 A 
ATOM     66  C   UNL     1      17.179  10.959  -2.195  1.00  0.00     0.173 A 
ATOM     67  F   UNL     1      19.539  11.481   0.515  1.00  0.00    -0.203 F 
ATOM     68  C   UNL     1      19.555  12.259  -1.695  1.00  0.00     0.198 A 
ATOM     69  C   UNL     1      17.810  11.674  -3.208  1.00  0.00     0.198 A 
ATOM     70  F   UNL     1      15.964  10.495  -2.510  1.00  0.00    -0.203 F 
ATOM     71  F   UNL     1      20.656  12.969  -1.417  1.00  0.00    -0.200 F 
ATOM     72  C   UNL     1      18.981  12.350  -2.950  1.00  0.00     0.200 A 
ATOM     73  F   UNL     1      17.221  11.772  -4.409  1.00  0.00    -0.200 F 
ATOM     74  F   UNL     1      19.523  13.132  -3.893  1.00  0.00    -0.200 F 
ENDBRANCH  50  64
BRANCH  51  75
ATOM     75  C   UNL     1      10.446  15.111  -0.882  1.00  0.00     0.064 A 
ATOM     76  C   UNL     1      10.700  16.480  -1.081  1.00  0.00     0.173 A 
ATOM     77  C   UNL     1       9.588  14.501  -1.819  1.00  0.00     0.173 A 
ATOM     78  F   UNL     1      11.542  17.135  -0.268  1.00  0.00    -0.203 F 
ATOM     79  C   UNL     1      10.153  17.184  -2.161  1.00  0.00     0.198 A 
ATOM     80  C   UNL     1       9.036  15.205  -2.890  1.00  0.00     0.198 A 
ATOM     81  F   UNL     1       9.339  13.185  -1.776  1.00  0.00    -0.203 F 
ATOM     82  F   UNL     1      10.473  18.471  -2.353  1.00  0.00    -0.200 F 
ATOM     83  C   UNL     1       9.329  16.543  -3.071  1.00  0.00     0.200 A 
ATOM     84  F   UNL     1       8.269  14.561  -3.782  1.00  0.00    -0.200 F 
ATOM     85  F   UNL     1       8.855  17.198  -4.139  1.00  0.00    -0.200 F 
ENDBRANCH  51  75
BRANCH  63  86
ATOM     86  C   UNL     1      14.188  13.860   4.033  1.00  0.00     0.064 A 
ATOM     87  C   UNL     1      12.838  13.587   4.320  1.00  0.00     0.173 A 
ATOM     88  C   UNL     1      14.991  14.304   5.093  1.00  0.00     0.173 A 
ATOM     89  F   UNL     1      12.027  13.054   3.398  1.00  0.00    -0.203 F 
ATOM     90  C   UNL     1      12.313  13.802   5.595  1.00  0.00     0.198 A 
ATOM     91  C   UNL     1      14.474  14.477   6.373  1.00  0.00     0.198 A 
ATOM     92  F   UNL     1      16.300  14.528   4.896  1.00  0.00    -0.203 F 
ATOM     93  F   UNL     1      11.018  13.550   5.839  1.00  0.00    -0.200 F 
ATOM     94  C   UNL     1      13.133  14.239   6.621  1.00  0.00     0.200 A 
ATOM     95  F   UNL     1      15.285  14.848   7.373  1.00  0.00    -0.200 F 
ATOM     96  F   UNL     1      12.638  14.407   7.855  1.00  0.00    -0.200 F 
ENDBRANCH  63  86
ENDBRANCH  37  38
ENDBRANCH  30  32
ENDBRANCH  29  30
ENDBRANCH  28  29
ENDBRANCH   1  28
TORSDOF 16
