REMARK SMILES C[C@@H](C(=O)OCCOC(=O)c1ccc(-c2c3nc(c(-c4c(F)c(F)c(F)c(F)c4F)c4ccc([nH]4)c(-c4c(F)c(F)c(F)c(F)c4F)c4nc(c(-c5c(F)c(F)c(F)c(F)c5F)c5ccc2[nH]5)C=C4)C=C3)cc1)c1ccc(C[C@H]2CCCC2=O)c(-c2ccc(F)cc2)c1
REMARK SMILES IDX 6 1 5 2 3 3 4 4 2 5 1 6 74 7 75 8 93 9 76 10 85 11 77 12
REMARK SMILES IDX 86 13 87 14 92 15 88 16 91 17 89 18 90 19 78 20 79 21 80 22
REMARK SMILES IDX 83 23 81 24 82 25 84 26 7 27 8 28 9 29 10 30 11 31 12 32
REMARK SMILES IDX 73 33 13 34 72 35 14 36 15 37 16 38 66 39 17 40 71 41 65 42
REMARK SMILES IDX 67 43 18 44 70 45 64 46 63 47 19 49 51 50 31 51 50 52 32 53
REMARK SMILES IDX 35 54 49 55 68 56 33 57 34 58 48 60 69 61 36 62 20 63 21 64
REMARK SMILES IDX 29 65 22 66 23 67 27 68 30 69 24 70 25 71 28 72 26 73 52 74
REMARK SMILES IDX 53 75 61 76 54 77 55 78 59 79 62 80 56 81 57 82 60 83 58 84
REMARK SMILES IDX 37 85 38 86 46 87 39 88 40 89 44 90 47 91 41 92 42 93 45 94
REMARK SMILES IDX 43 95
REMARK H PARENT 67 48 35 59
REMARK Flexibility Score: inf
ROOT
ATOM      1  C   UNL     1       2.256   1.309   3.487  1.00  0.00     0.274 C 
ENDROOT
BRANCH   1   2
ATOM      2  O   UNL     1       1.864   0.647   2.262  1.00  0.00    -0.462 OA
BRANCH   2   3
ATOM      3  C   UNL     1       0.706  -0.075   2.283  1.00  0.00     0.313 C 
ATOM      4  O   UNL     1      -0.031  -0.157   3.259  1.00  0.00    -0.252 OA
BRANCH   3   5
ATOM      5  C   UNL     1       0.498  -0.855   0.968  1.00  0.00     0.126 C 
ATOM      6  C   UNL     1       1.097  -0.128  -0.242  1.00  0.00     0.025 C 
BRANCH   5   7
ATOM      7  C   UNL     1      -0.977  -1.208   0.759  1.00  0.00    -0.033 A 
ATOM      8  C   UNL     1      -1.899  -0.239   0.357  1.00  0.00     0.005 A 
ATOM      9  C   UNL     1      -1.459  -2.502   1.046  1.00  0.00     0.013 A 
ATOM     10  C   UNL     1      -3.269  -0.503   0.402  1.00  0.00     0.004 A 
ATOM     11  C   UNL     1      -2.839  -2.809   1.036  1.00  0.00    -0.015 A 
ATOM     12  C   UNL     1      -3.761  -1.754   0.819  1.00  0.00    -0.039 A 
BRANCH  11  13
ATOM     13  C   UNL     1      -3.315  -4.187   1.281  1.00  0.00    -0.018 A 
ATOM     14  C   UNL     1      -4.230  -4.780   0.389  1.00  0.00     0.012 A 
ATOM     15  C   UNL     1      -3.019  -4.865   2.476  1.00  0.00     0.012 A 
ATOM     16  C   UNL     1      -4.971  -5.901   0.761  1.00  0.00     0.040 A 
ATOM     17  C   UNL     1      -3.753  -5.997   2.844  1.00  0.00     0.040 A 
ATOM     18  C   UNL     1      -4.746  -6.479   2.000  1.00  0.00     0.123 A 
ATOM     19  F   UNL     1      -5.516  -7.500   2.400  1.00  0.00    -0.207 F 
ENDBRANCH  11  13
BRANCH  12  20
ATOM     20  C   UNL     1      -5.264  -1.872   1.101  1.00  0.00     0.047 C 
BRANCH  20  21
ATOM     21  C   UNL     1      -5.738  -1.571   2.542  1.00  0.00     0.060 C 
ATOM     22  C   UNL     1      -5.173  -2.382   3.709  1.00  0.00     0.012 C 
ATOM     23  C   UNL     1      -5.295  -0.192   2.883  1.00  0.00     0.136 C 
ATOM     24  C   UNL     1      -4.486  -1.422   4.677  1.00  0.00     0.009 C 
ATOM     25  C   UNL     1      -4.158  -0.187   3.868  1.00  0.00     0.076 C 
ATOM     26  O   UNL     1      -5.752   0.777   2.293  1.00  0.00    -0.299 OA
ENDBRANCH  20  21
ENDBRANCH  12  20
ENDBRANCH   5   7
ENDBRANCH   3   5
ENDBRANCH   2   3
ENDBRANCH   1   2
BRANCH   1  27
ATOM     27  C   UNL     1       1.963   2.808   3.423  1.00  0.00     0.275 C 
BRANCH  27  28
ATOM     28  O   UNL     1       0.551   3.023   3.595  1.00  0.00    -0.458 OA
BRANCH  28  29
ATOM     29  C   UNL     1      -0.012   3.973   2.813  1.00  0.00     0.338 C 
ATOM     30  O   UNL     1       0.536   4.700   2.007  1.00  0.00    -0.246 OA
BRANCH  29  31
ATOM     31  C   UNL     1      -1.472   3.923   3.007  1.00  0.00     0.060 A 
ATOM     32  C   UNL     1      -2.143   2.852   2.442  1.00  0.00     0.016 A 
ATOM     33  C   UNL     1      -2.191   4.948   3.631  1.00  0.00     0.016 A 
ATOM     34  C   UNL     1      -3.532   2.821   2.484  1.00  0.00     0.010 A 
ATOM     35  C   UNL     1      -3.598   4.871   3.727  1.00  0.00     0.010 A 
ATOM     36  C   UNL     1      -4.290   3.795   3.155  1.00  0.00    -0.014 A 
BRANCH  36  37
ATOM     37  C   UNL     1      -5.784   3.661   3.145  1.00  0.00     0.031 A 
ATOM     38  C   UNL     1      -6.544   3.998   1.888  1.00  0.00     0.074 A 
ATOM     39  C   UNL     1      -6.442   2.998   4.124  1.00  0.00     0.049 A 
ATOM     40  N   UNL     1      -7.817   3.842   1.612  1.00  0.00    -0.248 NA
ATOM     41  C   UNL     1      -5.763   4.596   0.794  1.00  0.00     0.031 C 
ATOM     42  C   UNL     1      -5.828   2.449   5.327  1.00  0.00     0.029 A 
ATOM     43  N   UNL     1      -7.742   2.522   4.170  1.00  0.00    -0.354 N 
ATOM     44  C   UNL     1      -7.999   4.375   0.345  1.00  0.00     0.074 A 
ATOM     45  C   UNL     1      -6.696   4.797  -0.126  1.00  0.00     0.031 C 
ATOM     46  C   UNL     1      -6.673   1.557   5.877  1.00  0.00     0.029 A 
ATOM     47  C   UNL     1      -7.926   1.540   5.122  1.00  0.00     0.049 A 
ATOM     48  H   UNL     1      -8.461   2.850   3.584  1.00  0.00     0.167 HD
ATOM     49  C   UNL     1      -9.155   4.556  -0.337  1.00  0.00     0.037 A 
ATOM     50  C   UNL     1      -8.965   0.701   5.331  1.00  0.00     0.037 A 
ATOM     51  C   UNL     1     -10.453   4.122   0.106  1.00  0.00     0.049 A 
ATOM     52  C   UNL     1     -10.249   0.898   4.560  1.00  0.00     0.074 A 
ATOM     53  C   UNL     1     -11.698   4.422  -0.421  1.00  0.00     0.029 A 
ATOM     54  N   UNL     1     -10.667   3.258   1.165  1.00  0.00    -0.354 N 
ATOM     55  N   UNL     1     -10.475   1.589   3.474  1.00  0.00    -0.248 NA
ATOM     56  C   UNL     1     -11.451   0.237   5.105  1.00  0.00     0.031 C 
ATOM     57  C   UNL     1     -12.670   3.757   0.337  1.00  0.00     0.029 A 
ATOM     58  C   UNL     1     -12.025   3.018   1.312  1.00  0.00     0.049 A 
ATOM     59  H   UNL     1      -9.960   2.871   1.731  1.00  0.00     0.167 HD
ATOM     60  C   UNL     1     -11.842   1.493   3.238  1.00  0.00     0.074 A 
ATOM     61  C   UNL     1     -12.384   0.599   4.235  1.00  0.00     0.031 C 
ATOM     62  C   UNL     1     -12.583   2.144   2.309  1.00  0.00     0.037 A 
BRANCH  49  63
ATOM     63  C   UNL     1      -9.080   5.402  -1.567  1.00  0.00     0.064 A 
ATOM     64  C   UNL     1      -8.645   4.906  -2.801  1.00  0.00     0.173 A 
ATOM     65  C   UNL     1      -9.459   6.753  -1.489  1.00  0.00     0.173 A 
ATOM     66  F   UNL     1      -8.251   3.629  -2.916  1.00  0.00    -0.203 F 
ATOM     67  C   UNL     1      -8.576   5.740  -3.914  1.00  0.00     0.198 A 
ATOM     68  C   UNL     1      -9.408   7.576  -2.606  1.00  0.00     0.198 A 
ATOM     69  F   UNL     1      -9.880   7.269  -0.325  1.00  0.00    -0.203 F 
ATOM     70  F   UNL     1      -8.120   5.262  -5.080  1.00  0.00    -0.200 F 
ATOM     71  C   UNL     1      -8.961   7.071  -3.817  1.00  0.00     0.200 A 
ATOM     72  F   UNL     1      -9.785   8.858  -2.510  1.00  0.00    -0.200 F 
ATOM     73  F   UNL     1      -8.891   7.871  -4.890  1.00  0.00    -0.200 F 
ENDBRANCH  49  63
BRANCH  50  74
ATOM     74  C   UNL     1      -8.898  -0.414   6.322  1.00  0.00     0.064 A 
ATOM     75  C   UNL     1      -9.087  -1.743   5.901  1.00  0.00     0.173 A 
ATOM     76  C   UNL     1      -8.756  -0.190   7.697  1.00  0.00     0.173 A 
ATOM     77  F   UNL     1      -9.264  -2.015   4.599  1.00  0.00    -0.203 F 
ATOM     78  C   UNL     1      -9.159  -2.792   6.817  1.00  0.00     0.198 A 
ATOM     79  C   UNL     1      -8.790  -1.244   8.610  1.00  0.00     0.198 A 
ATOM     80  F   UNL     1      -8.606   1.058   8.164  1.00  0.00    -0.203 F 
ATOM     81  F   UNL     1      -9.411  -4.037   6.390  1.00  0.00    -0.200 F 
ATOM     82  C   UNL     1      -9.005  -2.542   8.171  1.00  0.00     0.200 A 
ATOM     83  F   UNL     1      -8.636  -0.999   9.918  1.00  0.00    -0.200 F 
ATOM     84  F   UNL     1      -9.083  -3.547   9.054  1.00  0.00    -0.200 F 
ENDBRANCH  50  74
BRANCH  62  85
ATOM     85  C   UNL     1     -14.075   1.984   2.365  1.00  0.00     0.064 A 
ATOM     86  C   UNL     1     -14.820   2.571   3.402  1.00  0.00     0.173 A 
ATOM     87  C   UNL     1     -14.777   1.305   1.360  1.00  0.00     0.173 A 
ATOM     88  F   UNL     1     -14.197   3.226   4.394  1.00  0.00    -0.203 F 
ATOM     89  C   UNL     1     -16.208   2.467   3.440  1.00  0.00     0.198 A 
ATOM     90  C   UNL     1     -16.169   1.222   1.389  1.00  0.00     0.198 A 
ATOM     91  F   UNL     1     -14.118   0.731   0.343  1.00  0.00    -0.203 F 
ATOM     92  F   UNL     1     -16.891   3.008   4.458  1.00  0.00    -0.200 F 
ATOM     93  C   UNL     1     -16.882   1.799   2.430  1.00  0.00     0.200 A 
ATOM     94  F   UNL     1     -16.822   0.584   0.407  1.00  0.00    -0.200 F 
ATOM     95  F   UNL     1     -18.218   1.707   2.462  1.00  0.00    -0.200 F 
ENDBRANCH  62  85
ENDBRANCH  36  37
ENDBRANCH  29  31
ENDBRANCH  28  29
ENDBRANCH  27  28
ENDBRANCH   1  27
TORSDOF 15
