REMARK SMILES Cc1ccc(-c2nn(-c3ccccc3)cc2[C@@H]2[NH2+][C@H](C(=O)OCCOC(=O)c3ccc(-c4c5nc(c(-c6c(F)c(F)c(F)c(F)c6F)c6ccc([nH]6)c(-c6c(F)c(F)c(F)c(F)c6F)c6nc(c(-c7c(F)c(F)c(F)c(F)c7F)c7ccc4[nH]7)C=C6)C=C5)cc3)CS2)cc1
REMARK SMILES IDX 23 1 22 2 20 3 21 4 19 5 17 6 18 7 92 8 91 11 16 12 6 13
REMARK SMILES IDX 7 14 8 15 15 16 5 17 1 18 2 19 3 20 94 21 4 22 93 23 9 24
REMARK SMILES IDX 10 25 14 26 11 27 13 28 12 29 24 30 25 31 26 32 27 33 28 34
REMARK SMILES IDX 29 35 90 36 30 37 89 38 31 39 32 40 33 41 83 42 34 43 88 44
REMARK SMILES IDX 82 45 84 46 35 47 87 48 81 49 80 50 36 52 68 53 48 54 67 55
REMARK SMILES IDX 49 56 52 57 66 58 85 59 50 60 51 61 65 63 86 64 53 65 37 66
REMARK SMILES IDX 38 67 46 68 39 69 40 70 44 71 47 72 41 73 42 74 45 75 43 76
REMARK SMILES IDX 69 77 70 78 78 79 71 80 72 81 76 82 79 83 73 84 74 85 77 86
REMARK SMILES IDX 75 87 54 88 55 89 63 90 56 91 57 92 61 93 64 94 58 95 59 96
REMARK SMILES IDX 62 97 60 98
REMARK H PARENT 18 9 18 10 84 51 52 62
REMARK Flexibility Score: inf
ROOT
ATOM      1  C   UNL     1      -5.622  -2.419  -1.515  1.00  0.00     0.274 C 
ENDROOT
BRANCH   1   2
ATOM      2  O   UNL     1      -5.396  -2.050  -0.137  1.00  0.00    -0.458 OA
BRANCH   2   3
ATOM      3  C   UNL     1      -4.199  -2.410   0.375  1.00  0.00     0.365 C 
ATOM      4  O   UNL     1      -3.362  -3.017  -0.285  1.00  0.00    -0.245 OA
BRANCH   3   5
ATOM      5  C   UNL     1      -3.987  -2.051   1.864  1.00  0.00     0.304 C 
ATOM      6  C   UNL     1      -2.996   0.132   2.009  1.00  0.00     0.278 C 
ATOM      7  N   UNL     1      -2.703  -1.307   1.985  1.00  0.00    -0.319 N 
ATOM      8  S   UNL     1      -4.287   0.231   3.266  1.00  0.00    -0.087 SA
ATOM      9  H   UNL     1      -2.230  -1.576   2.848  1.00  0.00     0.348 HD
ATOM     10  H   UNL     1      -2.098  -1.527   1.194  1.00  0.00     0.348 HD
ATOM     11  C   UNL     1      -5.058  -1.295   2.659  1.00  0.00     0.153 C 
BRANCH   6  12
ATOM     12  C   UNL     1      -3.472   0.601   0.661  1.00  0.00     0.067 A 
ATOM     13  C   UNL     1      -2.769   0.543  -0.574  1.00  0.00     0.103 A 
ATOM     14  N   UNL     1      -3.556   0.854  -1.617  1.00  0.00    -0.167 NA
ATOM     15  N   UNL     1      -4.727   1.248  -1.059  1.00  0.00    -0.240 N 
ATOM     16  C   UNL     1      -4.633   1.262   0.312  1.00  0.00     0.126 A 
BRANCH  13  17
ATOM     17  C   UNL     1      -1.336   0.329  -0.675  1.00  0.00     0.003 A 
ATOM     18  C   UNL     1       2.879  -0.142   0.029  1.00  0.00     0.044 C 
ATOM     19  C   UNL     1       1.418   0.030  -0.257  1.00  0.00    -0.051 A 
ATOM     20  C   UNL     1       0.598  -1.095  -0.404  1.00  0.00     0.004 A 
ATOM     21  C   UNL     1       0.857   1.306  -0.359  1.00  0.00     0.004 A 
ATOM     22  C   UNL     1      -0.774  -0.946  -0.619  1.00  0.00     0.011 A 
ATOM     23  C   UNL     1      -0.512   1.454  -0.569  1.00  0.00     0.011 A 
ENDBRANCH  13  17
BRANCH  15  24
ATOM     24  C   UNL     1      -5.901   1.510  -1.825  1.00  0.00     0.065 A 
ATOM     25  C   UNL     1      -5.995   1.060  -3.146  1.00  0.00     0.028 A 
ATOM     26  C   UNL     1      -7.007   2.152  -1.247  1.00  0.00     0.028 A 
ATOM     27  C   UNL     1      -7.200   1.192  -3.846  1.00  0.00     0.002 A 
ATOM     28  C   UNL     1      -8.210   2.277  -1.944  1.00  0.00     0.002 A 
ATOM     29  C   UNL     1      -8.309   1.787  -3.242  1.00  0.00     0.000 A 
ENDBRANCH  15  24
ENDBRANCH   6  12
ENDBRANCH   3   5
ENDBRANCH   2   3
ENDBRANCH   1   2
BRANCH   1  30
ATOM     30  C   UNL     1      -5.434  -3.909  -1.928  1.00  0.00     0.275 C 
BRANCH  30  31
ATOM     31  O   UNL     1      -5.856  -5.067  -1.132  1.00  0.00    -0.458 OA
BRANCH  31  32
ATOM     32  C   UNL     1      -5.889  -5.158   0.230  1.00  0.00     0.338 C 
ATOM     33  O   UNL     1      -5.213  -5.898   0.889  1.00  0.00    -0.246 OA
BRANCH  32  34
ATOM     34  C   UNL     1      -6.953  -4.319   0.823  1.00  0.00     0.060 A 
ATOM     35  C   UNL     1      -6.989  -3.995   2.192  1.00  0.00     0.016 A 
ATOM     36  C   UNL     1      -7.791  -3.688  -0.069  1.00  0.00     0.016 A 
ATOM     37  C   UNL     1      -7.820  -2.952   2.622  1.00  0.00     0.010 A 
ATOM     38  C   UNL     1      -8.252  -2.461   0.287  1.00  0.00     0.010 A 
ATOM     39  C   UNL     1      -8.411  -2.158   1.641  1.00  0.00    -0.014 A 
BRANCH  39  40
ATOM     40  C   UNL     1      -9.467  -1.166   1.802  1.00  0.00     0.031 A 
ATOM     41  C   UNL     1      -9.197   0.213   2.216  1.00  0.00     0.074 A 
ATOM     42  C   UNL     1     -10.601  -1.583   1.190  1.00  0.00     0.049 A 
ATOM     43  N   UNL     1      -9.935   0.941   2.977  1.00  0.00    -0.248 NA
ATOM     44  C   UNL     1      -8.001   0.908   1.766  1.00  0.00     0.031 C 
ATOM     45  C   UNL     1     -11.796  -0.905   0.743  1.00  0.00     0.029 A 
ATOM     46  N   UNL     1     -10.856  -2.929   0.847  1.00  0.00    -0.354 N 
ATOM     47  C   UNL     1      -9.516   2.249   2.783  1.00  0.00     0.074 A 
ATOM     48  C   UNL     1      -8.193   2.151   2.226  1.00  0.00     0.031 C 
ATOM     49  C   UNL     1     -12.761  -1.841   0.579  1.00  0.00     0.029 A 
ATOM     50  C   UNL     1     -12.217  -3.134   1.005  1.00  0.00     0.049 A 
ATOM     51  H   UNL     1     -10.194  -3.595   0.552  1.00  0.00     0.167 HD
ATOM     52  C   UNL     1     -10.434   3.264   2.785  1.00  0.00     0.037 A 
ATOM     53  C   UNL     1     -12.557  -3.884   2.095  1.00  0.00     0.037 A 
ATOM     54  C   UNL     1     -11.771   2.676   2.823  1.00  0.00     0.049 A 
ATOM     55  C   UNL     1     -13.195  -2.993   3.124  1.00  0.00     0.074 A 
ATOM     56  C   UNL     1     -12.659   2.395   1.798  1.00  0.00     0.029 A 
ATOM     57  N   UNL     1     -12.171   1.920   3.916  1.00  0.00    -0.354 N 
ATOM     58  N   UNL     1     -12.934  -1.721   3.250  1.00  0.00    -0.248 NA
ATOM     59  C   UNL     1     -14.210  -3.466   4.052  1.00  0.00     0.031 C 
ATOM     60  C   UNL     1     -13.547   1.391   2.259  1.00  0.00     0.029 A 
ATOM     61  C   UNL     1     -13.193   1.060   3.556  1.00  0.00     0.049 A 
ATOM     62  H   UNL     1     -11.783   1.986   4.819  1.00  0.00     0.167 HD
ATOM     63  C   UNL     1     -13.752  -1.191   4.201  1.00  0.00     0.074 A 
ATOM     64  C   UNL     1     -14.525  -2.323   4.683  1.00  0.00     0.031 C 
ATOM     65  C   UNL     1     -13.748   0.133   4.526  1.00  0.00     0.037 A 
BRANCH  52  66
ATOM     66  C   UNL     1     -10.201   4.711   2.376  1.00  0.00     0.064 A 
ATOM     67  C   UNL     1     -11.279   5.518   1.935  1.00  0.00     0.173 A 
ATOM     68  C   UNL     1      -8.963   5.380   2.434  1.00  0.00     0.173 A 
ATOM     69  F   UNL     1     -12.537   5.059   1.912  1.00  0.00    -0.203 F 
ATOM     70  C   UNL     1     -11.120   6.841   1.513  1.00  0.00     0.198 A 
ATOM     71  C   UNL     1      -8.798   6.702   1.988  1.00  0.00     0.198 A 
ATOM     72  F   UNL     1      -7.882   4.797   2.970  1.00  0.00    -0.203 F 
ATOM     73  F   UNL     1     -12.188   7.540   1.101  1.00  0.00    -0.200 F 
ATOM     74  C   UNL     1      -9.875   7.429   1.522  1.00  0.00     0.200 A 
ATOM     75  F   UNL     1      -7.584   7.271   2.024  1.00  0.00    -0.200 F 
ATOM     76  F   UNL     1      -9.720   8.695   1.109  1.00  0.00    -0.200 F 
ENDBRANCH  52  66
BRANCH  53  77
ATOM     77  C   UNL     1     -11.566  -4.989   2.399  1.00  0.00     0.064 A 
ATOM     78  C   UNL     1     -11.215  -5.894   1.368  1.00  0.00     0.173 A 
ATOM     79  C   UNL     1     -10.743  -4.999   3.536  1.00  0.00     0.173 A 
ATOM     80  F   UNL     1     -11.938  -5.932   0.235  1.00  0.00    -0.203 F 
ATOM     81  C   UNL     1     -10.065  -6.686   1.429  1.00  0.00     0.198 A 
ATOM     82  C   UNL     1      -9.605  -5.818   3.607  1.00  0.00     0.198 A 
ATOM     83  F   UNL     1     -10.980  -4.162   4.555  1.00  0.00    -0.203 F 
ATOM     84  F   UNL     1      -9.710  -7.436   0.374  1.00  0.00    -0.200 F 
ATOM     85  C   UNL     1      -9.254  -6.640   2.546  1.00  0.00     0.200 A 
ATOM     86  F   UNL     1      -8.796  -5.748   4.675  1.00  0.00    -0.200 F 
ATOM     87  F   UNL     1      -8.113  -7.343   2.581  1.00  0.00    -0.200 F 
ENDBRANCH  53  77
BRANCH  65  88
ATOM     88  C   UNL     1     -14.366   0.677   5.776  1.00  0.00     0.064 A 
ATOM     89  C   UNL     1     -14.441  -0.064   6.965  1.00  0.00     0.173 A 
ATOM     90  C   UNL     1     -14.764   2.029   5.856  1.00  0.00     0.173 A 
ATOM     91  F   UNL     1     -13.944  -1.306   7.046  1.00  0.00    -0.203 F 
ATOM     92  C   UNL     1     -14.986   0.474   8.125  1.00  0.00     0.198 A 
ATOM     93  C   UNL     1     -15.232   2.587   7.040  1.00  0.00     0.198 A 
ATOM     94  F   UNL     1     -14.678   2.853   4.801  1.00  0.00    -0.203 F 
ATOM     95  F   UNL     1     -15.111  -0.296   9.214  1.00  0.00    -0.200 F 
ATOM     96  C   UNL     1     -15.374   1.800   8.166  1.00  0.00     0.200 A 
ATOM     97  F   UNL     1     -15.528   3.892   7.087  1.00  0.00    -0.200 F 
ATOM     98  F   UNL     1     -15.863   2.325   9.296  1.00  0.00    -0.200 F 
ENDBRANCH  65  88
ENDBRANCH  39  40
ENDBRANCH  32  34
ENDBRANCH  31  32
ENDBRANCH  30  31
ENDBRANCH   1  30
TORSDOF 14
