REMARK SMILES CCNC(=O)N1CC[C@@H](C(=O)OCCOC(=O)c2ccc(-c3c4nc(c(-c5c(F)c(F)c(F)c(F)c5F)c5ccc([nH]5)c(-c5c(F)c(F)c(F)c(F)c5F)c5nc(c(-c6c(F)c(F)c(F)c(F)c6F)c6ccc3[nH]6)C=C5)C=C4)cc2)[C@H]1C
REMARK SMILES IDX 13 1 12 2 10 3 11 4 9 5 6 6 7 7 81 8 8 9 82 10 4 11 3 12
REMARK SMILES IDX 5 14 2 15 1 16 14 17 15 18 16 19 17 20 18 21 19 22 80 23
REMARK SMILES IDX 20 24 79 25 21 26 22 27 23 28 73 29 24 30 78 31 72 32 74 33
REMARK SMILES IDX 25 34 77 35 71 36 70 37 26 39 58 40 38 41 57 42 39 43 42 44
REMARK SMILES IDX 56 45 75 46 40 47 41 48 55 50 76 51 43 52 27 53 28 54 36 55
REMARK SMILES IDX 29 56 30 57 34 58 37 59 31 60 32 61 35 62 33 63 59 64 60 65
REMARK SMILES IDX 68 66 61 67 62 68 66 69 69 70 63 71 64 72 67 73 65 74 44 75
REMARK SMILES IDX 45 76 53 77 46 78 47 79 51 80 54 81 48 82 49 83 52 84 50 85
REMARK H PARENT 3 13 74 38 42 49
REMARK Flexibility Score: inf
ROOT
ATOM      1  C   UNL     1      -5.888   1.367   1.659  1.00  0.00     0.274 C 
ENDROOT
BRANCH   1   2
ATOM      2  O   UNL     1      -4.838   1.375   0.670  1.00  0.00    -0.462 OA
BRANCH   2   3
ATOM      3  C   UNL     1      -4.909   2.331  -0.282  1.00  0.00     0.311 C 
ATOM      4  O   UNL     1      -5.896   3.030  -0.484  1.00  0.00    -0.252 OA
BRANCH   3   5
ATOM      5  C   UNL     1      -3.653   2.466  -1.113  1.00  0.00     0.123 C 
ATOM      6  N   UNL     1      -1.382   1.982  -1.620  1.00  0.00    -0.321 N 
ATOM      7  C   UNL     1      -2.199   1.769  -2.805  1.00  0.00     0.122 C 
ATOM      8  C   UNL     1      -2.242   2.399  -0.479  1.00  0.00     0.098 C 
ATOM      9  C   UNL     1      -3.587   1.480  -2.269  1.00  0.00     0.039 C 
ATOM     10  C   UNL     1      -2.085   1.490   0.732  1.00  0.00     0.032 C 
BRANCH   6  11
ATOM     11  C   UNL     1      -0.116   2.475  -1.811  1.00  0.00     0.317 C 
ATOM     12  N   UNL     1       0.870   2.087  -0.968  1.00  0.00    -0.338 N 
ATOM     13  H   UNL     1       1.658   2.677  -0.939  1.00  0.00     0.165 HD
ATOM     14  O   UNL     1       0.174   3.213  -2.752  1.00  0.00    -0.249 OA
BRANCH  12  15
ATOM     15  C   UNL     1       0.931   0.927  -0.103  1.00  0.00     0.114 C 
ATOM     16  C   UNL     1       2.106   0.028  -0.440  1.00  0.00     0.027 C 
ENDBRANCH  12  15
ENDBRANCH   6  11
ENDBRANCH   3   5
ENDBRANCH   2   3
ENDBRANCH   1   2
BRANCH   1  17
ATOM     17  C   UNL     1      -5.532   2.264   2.852  1.00  0.00     0.275 C 
BRANCH  17  18
ATOM     18  O   UNL     1      -5.641   3.660   2.508  1.00  0.00    -0.458 OA
BRANCH  18  19
ATOM     19  C   UNL     1      -4.482   4.330   2.326  1.00  0.00     0.338 C 
ATOM     20  O   UNL     1      -3.343   3.910   2.459  1.00  0.00    -0.246 OA
BRANCH  19  21
ATOM     21  C   UNL     1      -4.772   5.663   1.785  1.00  0.00     0.060 A 
ATOM     22  C   UNL     1      -4.482   5.907   0.440  1.00  0.00     0.016 A 
ATOM     23  C   UNL     1      -5.268   6.678   2.601  1.00  0.00     0.016 A 
ATOM     24  C   UNL     1      -4.717   7.161  -0.110  1.00  0.00     0.010 A 
ATOM     25  C   UNL     1      -5.504   7.940   2.049  1.00  0.00     0.010 A 
ATOM     26  C   UNL     1      -5.237   8.184   0.690  1.00  0.00    -0.014 A 
BRANCH  26  27
ATOM     27  C   UNL     1      -5.500   9.514   0.097  1.00  0.00     0.031 A 
ATOM     28  C   UNL     1      -4.581  10.659   0.388  1.00  0.00     0.074 A 
ATOM     29  C   UNL     1      -6.565   9.677  -0.708  1.00  0.00     0.049 A 
ATOM     30  N   UNL     1      -4.702  11.920   0.061  1.00  0.00    -0.248 NA
ATOM     31  C   UNL     1      -3.362  10.345   1.148  1.00  0.00     0.031 C 
ATOM     32  C   UNL     1      -7.493   8.616  -1.100  1.00  0.00     0.029 A 
ATOM     33  N   UNL     1      -7.049  10.797  -1.333  1.00  0.00    -0.354 N 
ATOM     34  C   UNL     1      -3.589  12.555   0.593  1.00  0.00     0.074 A 
ATOM     35  C   UNL     1      -2.807  11.542   1.272  1.00  0.00     0.031 C 
ATOM     36  C   UNL     1      -8.441   9.138  -1.894  1.00  0.00     0.029 A 
ATOM     37  C   UNL     1      -8.215  10.575  -2.022  1.00  0.00     0.049 A 
ATOM     38  H   UNL     1      -6.604  11.674  -1.291  1.00  0.00     0.167 HD
ATOM     39  C   UNL     1      -3.257  13.865   0.519  1.00  0.00     0.037 A 
ATOM     40  C   UNL     1      -9.030  11.442  -2.651  1.00  0.00     0.037 A 
ATOM     41  C   UNL     1      -4.036  14.859  -0.172  1.00  0.00     0.049 A 
ATOM     42  C   UNL     1      -8.675  12.903  -2.658  1.00  0.00     0.074 A 
ATOM     43  C   UNL     1      -3.775  16.209  -0.329  1.00  0.00     0.029 A 
ATOM     44  N   UNL     1      -5.237  14.607  -0.822  1.00  0.00    -0.354 N 
ATOM     45  N   UNL     1      -7.628  13.501  -2.144  1.00  0.00    -0.248 NA
ATOM     46  C   UNL     1      -9.620  13.811  -3.321  1.00  0.00     0.031 C 
ATOM     47  C   UNL     1      -4.839  16.782  -1.034  1.00  0.00     0.029 A 
ATOM     48  C   UNL     1      -5.743  15.782  -1.355  1.00  0.00     0.049 A 
ATOM     49  H   UNL     1      -5.665  13.724  -0.894  1.00  0.00     0.167 HD
ATOM     50  C   UNL     1      -7.783  14.851  -2.423  1.00  0.00     0.074 A 
ATOM     51  C   UNL     1      -9.016  14.982  -3.174  1.00  0.00     0.031 C 
ATOM     52  C   UNL     1      -6.981  15.890  -2.085  1.00  0.00     0.037 A 
BRANCH  39  53
ATOM     53  C   UNL     1      -2.016  14.306   1.236  1.00  0.00     0.064 A 
ATOM     54  C   UNL     1      -0.735  14.001   0.755  1.00  0.00     0.173 A 
ATOM     55  C   UNL     1      -2.114  15.068   2.410  1.00  0.00     0.173 A 
ATOM     56  F   UNL     1      -0.589  13.261  -0.355  1.00  0.00    -0.203 F 
ATOM     57  C   UNL     1       0.404  14.425   1.435  1.00  0.00     0.198 A 
ATOM     58  C   UNL     1      -0.973  15.511   3.074  1.00  0.00     0.198 A 
ATOM     59  F   UNL     1      -3.317  15.389   2.910  1.00  0.00    -0.203 F 
ATOM     60  F   UNL     1       1.619  14.088   0.981  1.00  0.00    -0.200 F 
ATOM     61  C   UNL     1       0.284  15.184   2.591  1.00  0.00     0.200 A 
ATOM     62  F   UNL     1      -1.091  16.251   4.186  1.00  0.00    -0.200 F 
ATOM     63  F   UNL     1       1.381  15.593   3.242  1.00  0.00    -0.200 F 
ENDBRANCH  39  53
BRANCH  40  64
ATOM     64  C   UNL     1     -10.280  10.951  -3.285  1.00  0.00     0.064 A 
ATOM     65  C   UNL     1     -10.427  10.936  -4.677  1.00  0.00     0.173 A 
ATOM     66  C   UNL     1     -11.347  10.475  -2.509  1.00  0.00     0.173 A 
ATOM     67  F   UNL     1      -9.444  11.406  -5.459  1.00  0.00    -0.203 F 
ATOM     68  C   UNL     1     -11.598  10.469  -5.271  1.00  0.00     0.198 A 
ATOM     69  C   UNL     1     -12.507   9.984  -3.103  1.00  0.00     0.198 A 
ATOM     70  F   UNL     1     -11.257  10.473  -1.170  1.00  0.00    -0.203 F 
ATOM     71  F   UNL     1     -11.728  10.497  -6.604  1.00  0.00    -0.200 F 
ATOM     72  C   UNL     1     -12.633   9.985  -4.484  1.00  0.00     0.200 A 
ATOM     73  F   UNL     1     -13.500   9.508  -2.339  1.00  0.00    -0.200 F 
ATOM     74  F   UNL     1     -13.755   9.528  -5.056  1.00  0.00    -0.200 F 
ENDBRANCH  40  64
BRANCH  52  75
ATOM     75  C   UNL     1      -7.415  17.255  -2.526  1.00  0.00     0.064 A 
ATOM     76  C   UNL     1      -8.475  17.922  -1.894  1.00  0.00     0.173 A 
ATOM     77  C   UNL     1      -6.747  17.916  -3.566  1.00  0.00     0.173 A 
ATOM     78  F   UNL     1      -9.156  17.322  -0.906  1.00  0.00    -0.203 F 
ATOM     79  C   UNL     1      -8.863  19.194  -2.303  1.00  0.00     0.198 A 
ATOM     80  C   UNL     1      -7.121  19.199  -3.955  1.00  0.00     0.198 A 
ATOM     81  F   UNL     1      -5.724  17.321  -4.199  1.00  0.00    -0.203 F 
ATOM     82  F   UNL     1      -9.906  19.797  -1.714  1.00  0.00    -0.200 F 
ATOM     83  C   UNL     1      -8.182  19.834  -3.328  1.00  0.00     0.200 A 
ATOM     84  F   UNL     1      -6.457  19.820  -4.940  1.00  0.00    -0.200 F 
ATOM     85  F   UNL     1      -8.555  21.061  -3.717  1.00  0.00    -0.200 F 
ENDBRANCH  52  75
ENDBRANCH  26  27
ENDBRANCH  19  21
ENDBRANCH  18  19
ENDBRANCH  17  18
ENDBRANCH   1  17
TORSDOF 13
