REMARK SMILES CC(C)Oc1ccc(-c2ccc(/C(=C\c3ccc(S(C)(=O)=O)cc3)C(=O)OCCOC(=O)c3ccc(-c4c5nc(c(-c6c(F)c(F)c(F)c(F)c6F)c6ccc([nH]6)c(-c6c(F)c(F)c(F)c(F)c6F)c6nc(c(-c7c(F)c(F)c(F)c(F)c7F)c7ccc4[nH]7)C=C6)C=C5)cc3)cc2)cc1
REMARK SMILES IDX 28 1 27 2 25 3 26 4 13 5 14 6 12 7 9 8 10 9 97 10 11 11
REMARK SMILES IDX 96 12 8 13 5 14 6 15 99 16 7 17 98 18 4 19 2 20 1 21 3 22
REMARK SMILES IDX 15 23 16 24 24 25 17 26 23 27 18 28 19 29 20 30 21 31 22 32
REMARK SMILES IDX 29 33 30 34 31 35 32 36 33 37 34 38 95 39 35 40 94 41 36 42
REMARK SMILES IDX 37 43 38 44 88 45 39 46 93 47 87 48 89 49 40 50 92 51 86 52
REMARK SMILES IDX 85 53 41 55 73 56 53 57 72 58 54 59 57 60 71 61 90 62 55 63
REMARK SMILES IDX 56 64 70 66 91 67 58 68 42 69 43 70 51 71 44 72 45 73 49 74
REMARK SMILES IDX 52 75 46 76 47 77 50 78 48 79 74 80 75 81 83 82 76 83 77 84
REMARK SMILES IDX 81 85 84 86 78 87 79 88 82 89 80 90 59 91 60 92 68 93 61 94
REMARK SMILES IDX 62 95 66 96 69 97 63 98 64 99 67 100 65 101
REMARK H PARENT 89 54 57 65
REMARK Flexibility Score: inf
ROOT
ATOM      1  C   UNL     1      -7.792   9.773   0.260  1.00  0.00     0.275 C 
ENDROOT
BRANCH   1   2
ATOM      2  O   UNL     1      -7.183   9.035   1.341  1.00  0.00    -0.458 OA
BRANCH   2   3
ATOM      3  C   UNL     1      -7.421   7.692   1.403  1.00  0.00     0.338 C 
ATOM      4  O   UNL     1      -8.100   7.080   0.592  1.00  0.00    -0.246 OA
BRANCH   3   5
ATOM      5  C   UNL     1      -6.718   7.045   2.592  1.00  0.00     0.067 C 
ATOM      6  C   UNL     1      -6.568   7.895   3.648  1.00  0.00     0.024 C 
BRANCH   5   7
ATOM      7  C   UNL     1      -6.217   5.604   2.494  1.00  0.00    -0.011 A 
ATOM      8  C   UNL     1      -4.686   3.182   2.103  1.00  0.00    -0.018 A 
ATOM      9  C   UNL     1      -4.717   3.823   3.330  1.00  0.00     0.009 A 
ATOM     10  C   UNL     1      -5.583   3.643   1.136  1.00  0.00     0.009 A 
ATOM     11  C   UNL     1      -5.509   4.964   3.522  1.00  0.00     0.009 A 
ATOM     12  C   UNL     1      -6.317   4.839   1.320  1.00  0.00     0.009 A 
BRANCH   8  13
ATOM     13  C   UNL     1      -3.720   2.106   1.850  1.00  0.00    -0.018 A 
ATOM     14  C   UNL     1      -1.814   0.062   1.392  1.00  0.00     0.119 A 
ATOM     15  C   UNL     1      -2.958  -0.180   2.156  1.00  0.00     0.047 A 
ATOM     16  C   UNL     1      -1.624   1.322   0.848  1.00  0.00     0.047 A 
ATOM     17  C   UNL     1      -3.899   0.831   2.389  1.00  0.00     0.012 A 
ATOM     18  C   UNL     1      -2.554   2.337   1.100  1.00  0.00     0.012 A 
BRANCH  14  19
ATOM     19  O   UNL     1      -1.020  -1.020   1.159  1.00  0.00    -0.491 OA
BRANCH  19  20
ATOM     20  C   UNL     1       0.404  -0.929   1.309  1.00  0.00     0.167 C 
ATOM     21  C   UNL     1       1.106  -0.304   0.115  1.00  0.00     0.052 C 
ATOM     22  C   UNL     1       0.859  -0.338   2.640  1.00  0.00     0.052 C 
ENDBRANCH  19  20
ENDBRANCH  14  19
ENDBRANCH   8  13
ENDBRANCH   5   7
BRANCH   6  23
ATOM     23  C   UNL     1      -5.953   7.630   4.956  1.00  0.00    -0.025 A 
ATOM     24  C   UNL     1      -6.786   7.231   6.011  1.00  0.00     0.009 A 
ATOM     25  C   UNL     1      -4.558   7.563   5.099  1.00  0.00     0.009 A 
ATOM     26  C   UNL     1      -6.238   6.616   7.136  1.00  0.00     0.021 A 
ATOM     27  C   UNL     1      -4.005   6.932   6.220  1.00  0.00     0.021 A 
ATOM     28  C   UNL     1      -4.854   6.423   7.209  1.00  0.00     0.067 A 
BRANCH  28  29
ATOM     29  S   UNL     1      -4.216   5.304   8.438  1.00  0.00     0.175 S 
ATOM     30  C   UNL     1      -4.115   6.288   9.904  1.00  0.00     0.163 C 
ATOM     31  O   UNL     1      -5.226   4.284   8.647  1.00  0.00    -0.224 OA
ATOM     32  O   UNL     1      -2.869   4.940   8.043  1.00  0.00    -0.224 OA
ENDBRANCH  28  29
ENDBRANCH   6  23
ENDBRANCH   3   5
ENDBRANCH   2   3
ENDBRANCH   1   2
BRANCH   1  33
ATOM     33  C   UNL     1      -6.726  10.420  -0.629  1.00  0.00     0.275 C 
BRANCH  33  34
ATOM     34  O   UNL     1      -5.934   9.416  -1.291  1.00  0.00    -0.458 OA
BRANCH  34  35
ATOM     35  C   UNL     1      -4.764   9.119  -0.674  1.00  0.00     0.338 C 
ATOM     36  O   UNL     1      -4.280   9.666   0.298  1.00  0.00    -0.246 OA
BRANCH  35  37
ATOM     37  C   UNL     1      -4.243   7.855  -1.224  1.00  0.00     0.060 A 
ATOM     38  C   UNL     1      -4.055   6.827  -0.310  1.00  0.00     0.016 A 
ATOM     39  C   UNL     1      -3.939   7.657  -2.575  1.00  0.00     0.016 A 
ATOM     40  C   UNL     1      -3.618   5.586  -0.753  1.00  0.00     0.010 A 
ATOM     41  C   UNL     1      -3.474   6.401  -3.010  1.00  0.00     0.010 A 
ATOM     42  C   UNL     1      -3.333   5.345  -2.099  1.00  0.00    -0.014 A 
BRANCH  42  43
ATOM     43  C   UNL     1      -2.858   3.988  -2.484  1.00  0.00     0.031 A 
ATOM     44  C   UNL     1      -1.390   3.676  -2.462  1.00  0.00     0.074 A 
ATOM     45  C   UNL     1      -3.737   2.992  -2.707  1.00  0.00     0.049 A 
ATOM     46  N   UNL     1      -0.766   2.572  -2.790  1.00  0.00    -0.248 NA
ATOM     47  C   UNL     1      -0.506   4.746  -1.980  1.00  0.00     0.031 C 
ATOM     48  C   UNL     1      -5.190   3.121  -2.621  1.00  0.00     0.029 A 
ATOM     49  N   UNL     1      -3.537   1.669  -3.022  1.00  0.00    -0.354 N 
ATOM     50  C   UNL     1       0.581   2.815  -2.565  1.00  0.00     0.074 A 
ATOM     51  C   UNL     1       0.685   4.172  -2.071  1.00  0.00     0.031 C 
ATOM     52  C   UNL     1      -5.750   1.924  -2.869  1.00  0.00     0.029 A 
ATOM     53  C   UNL     1      -4.702   0.960  -3.200  1.00  0.00     0.049 A 
ATOM     54  H   UNL     1      -2.643   1.266  -3.112  1.00  0.00     0.167 HD
ATOM     55  C   UNL     1       1.633   1.982  -2.753  1.00  0.00     0.037 A 
ATOM     56  C   UNL     1      -4.900  -0.305  -3.624  1.00  0.00     0.037 A 
ATOM     57  C   UNL     1       1.527   0.629  -3.244  1.00  0.00     0.049 A 
ATOM     58  C   UNL     1      -3.708  -1.166  -3.966  1.00  0.00     0.074 A 
ATOM     59  C   UNL     1       2.538  -0.289  -3.474  1.00  0.00     0.029 A 
ATOM     60  N   UNL     1       0.335  -0.011  -3.555  1.00  0.00    -0.354 N 
ATOM     61  N   UNL     1      -2.430  -0.907  -3.832  1.00  0.00    -0.248 NA
ATOM     62  C   UNL     1      -3.987  -2.491  -4.543  1.00  0.00     0.031 C 
ATOM     63  C   UNL     1       1.963  -1.470  -3.955  1.00  0.00     0.029 A 
ATOM     64  C   UNL     1       0.588  -1.307  -3.981  1.00  0.00     0.049 A 
ATOM     65  H   UNL     1      -0.559   0.395  -3.485  1.00  0.00     0.167 HD
ATOM     66  C   UNL     1      -1.758  -2.037  -4.283  1.00  0.00     0.074 A 
ATOM     67  C   UNL     1      -2.769  -2.994  -4.678  1.00  0.00     0.031 C 
ATOM     68  C   UNL     1      -0.423  -2.257  -4.371  1.00  0.00     0.037 A 
BRANCH  55  69
ATOM     69  C   UNL     1       3.005   2.521  -2.462  1.00  0.00     0.064 A 
ATOM     70  C   UNL     1       3.443   2.786  -1.155  1.00  0.00     0.173 A 
ATOM     71  C   UNL     1       3.908   2.745  -3.512  1.00  0.00     0.173 A 
ATOM     72  F   UNL     1       2.615   2.618  -0.114  1.00  0.00    -0.203 F 
ATOM     73  C   UNL     1       4.726   3.272  -0.914  1.00  0.00     0.198 A 
ATOM     74  C   UNL     1       5.198   3.205  -3.264  1.00  0.00     0.198 A 
ATOM     75  F   UNL     1       3.543   2.506  -4.780  1.00  0.00    -0.203 F 
ATOM     76  F   UNL     1       5.106   3.559   0.339  1.00  0.00    -0.200 F 
ATOM     77  C   UNL     1       5.604   3.475  -1.967  1.00  0.00     0.200 A 
ATOM     78  F   UNL     1       6.049   3.389  -4.284  1.00  0.00    -0.200 F 
ATOM     79  F   UNL     1       6.839   3.939  -1.732  1.00  0.00    -0.200 F 
ENDBRANCH  55  69
BRANCH  56  80
ATOM     80  C   UNL     1      -6.283  -0.817  -3.848  1.00  0.00     0.064 A 
ATOM     81  C   UNL     1      -6.785  -1.918  -3.140  1.00  0.00     0.173 A 
ATOM     82  C   UNL     1      -7.107  -0.253  -4.836  1.00  0.00     0.173 A 
ATOM     83  F   UNL     1      -6.026  -2.523  -2.215  1.00  0.00    -0.203 F 
ATOM     84  C   UNL     1      -8.044  -2.447  -3.426  1.00  0.00     0.198 A 
ATOM     85  C   UNL     1      -8.379  -0.759  -5.094  1.00  0.00     0.198 A 
ATOM     86  F   UNL     1      -6.674   0.789  -5.561  1.00  0.00    -0.203 F 
ATOM     87  F   UNL     1      -8.470  -3.543  -2.783  1.00  0.00    -0.200 F 
ATOM     88  C   UNL     1      -8.842  -1.863  -4.398  1.00  0.00     0.200 A 
ATOM     89  F   UNL     1      -9.148  -0.185  -6.030  1.00  0.00    -0.200 F 
ATOM     90  F   UNL     1     -10.048  -2.376  -4.677  1.00  0.00    -0.200 F 
ENDBRANCH  56  80
BRANCH  68  91
ATOM     91  C   UNL     1       0.027  -3.591  -4.899  1.00  0.00     0.064 A 
ATOM     92  C   UNL     1      -0.115  -3.928  -6.254  1.00  0.00     0.173 A 
ATOM     93  C   UNL     1       0.648  -4.525  -4.055  1.00  0.00     0.173 A 
ATOM     94  F   UNL     1      -0.716  -3.079  -7.101  1.00  0.00    -0.203 F 
ATOM     95  C   UNL     1       0.329  -5.156  -6.739  1.00  0.00     0.198 A 
ATOM     96  C   UNL     1       1.118  -5.740  -4.550  1.00  0.00     0.198 A 
ATOM     97  F   UNL     1       0.817  -4.253  -2.752  1.00  0.00    -0.203 F 
ATOM     98  F   UNL     1       0.144  -5.472  -8.028  1.00  0.00    -0.200 F 
ATOM     99  C   UNL     1       0.953  -6.057  -5.889  1.00  0.00     0.200 A 
ATOM    100  F   UNL     1       1.736  -6.602  -3.730  1.00  0.00    -0.200 F 
ATOM    101  F   UNL     1       1.392  -7.232  -6.361  1.00  0.00    -0.200 F 
ENDBRANCH  68  91
ENDBRANCH  42  43
ENDBRANCH  35  37
ENDBRANCH  34  35
ENDBRANCH  33  34
ENDBRANCH   1  33
TORSDOF 17
