REMARK SMILES NC(=O)c1ccc(C(=O)OCCOC(=O)c2ccc(-c3c4nc(c(-c5c(F)c(F)c(F)c(F)c5F)c5ccc([nH]5)c(-c5c(F)c(F)c(F)c(F)c5F)c5nc(c(-c6c(F)c(F)c(F)c(F)c6F)c6ccc3[nH]6)C=C5)C=C4)cc2)c(F)c1
REMARK SMILES IDX 12 1 11 2 10 3 8 4 9 5 7 6 4 7 5 8 81 9 6 10 79 11 80 12
REMARK SMILES IDX 2 13 1 14 3 17 13 18 14 19 15 20 16 21 17 22 78 23 18 24
REMARK SMILES IDX 77 25 19 26 20 27 21 28 71 29 22 30 76 31 70 32 72 33 23 34
REMARK SMILES IDX 75 35 69 36 68 37 24 39 56 40 36 41 55 42 37 43 40 44 54 45
REMARK SMILES IDX 73 46 38 47 39 48 53 50 74 51 41 52 25 53 26 54 34 55 27 56
REMARK SMILES IDX 28 57 32 58 35 59 29 60 30 61 33 62 31 63 57 64 58 65 66 66
REMARK SMILES IDX 59 67 60 68 64 69 67 70 61 71 62 72 65 73 63 74 42 75 43 76
REMARK SMILES IDX 51 77 44 78 45 79 49 80 52 81 46 82 47 83 50 84 48 85
REMARK H PARENT 1 15 1 16 72 38 40 49
REMARK Flexibility Score: inf
ROOT
ATOM      1  C   UNL     1       4.701  -7.680  -3.187  1.00  0.00     0.275 C 
ENDROOT
BRANCH   1   2
ATOM      2  C   UNL     1       3.223  -7.901  -2.866  1.00  0.00     0.275 C 
BRANCH   2   3
ATOM      3  O   UNL     1       2.551  -6.646  -2.638  1.00  0.00    -0.458 OA
BRANCH   3   4
ATOM      4  C   UNL     1       2.224  -6.361  -1.355  1.00  0.00     0.341 C 
ATOM      5  O   UNL     1       2.493  -7.031  -0.374  1.00  0.00    -0.246 OA
BRANCH   4   6
ATOM      6  C   UNL     1       1.603  -5.022  -1.244  1.00  0.00     0.095 A 
ATOM      7  C   UNL     1       0.556  -2.439  -0.955  1.00  0.00     0.042 A 
ATOM      8  C   UNL     1       1.315  -2.998   0.077  1.00  0.00     0.015 A 
ATOM      9  C   UNL     1       0.279  -3.186  -2.106  1.00  0.00     0.054 A 
ATOM     10  C   UNL     1       1.814  -4.295  -0.060  1.00  0.00     0.019 A 
ATOM     11  C   UNL     1       0.815  -4.466  -2.249  1.00  0.00     0.138 A 
ATOM     12  F   UNL     1       0.524  -5.154  -3.362  1.00  0.00    -0.206 F 
BRANCH   7  13
ATOM     13  C   UNL     1      -0.009  -1.075  -0.837  1.00  0.00     0.248 C 
ATOM     14  N   UNL     1       0.767  -0.139  -0.214  1.00  0.00    -0.366 N 
ATOM     15  H   UNL     1       0.438   0.782  -0.109  1.00  0.00     0.159 HD
ATOM     16  H   UNL     1       1.655  -0.387   0.131  1.00  0.00     0.159 HD
ATOM     17  O   UNL     1      -1.104  -0.799  -1.303  1.00  0.00    -0.270 OA
ENDBRANCH   7  13
ENDBRANCH   4   6
ENDBRANCH   3   4
ENDBRANCH   2   3
ENDBRANCH   1   2
BRANCH   1  18
ATOM     18  O   UNL     1       5.389  -7.167  -2.030  1.00  0.00    -0.458 OA
BRANCH  18  19
ATOM     19  C   UNL     1       5.849  -5.903  -2.141  1.00  0.00     0.338 C 
ATOM     20  O   UNL     1       5.800  -5.166  -3.112  1.00  0.00    -0.246 OA
BRANCH  19  21
ATOM     21  C   UNL     1       6.376  -5.449  -0.847  1.00  0.00     0.060 A 
ATOM     22  C   UNL     1       5.470  -4.959   0.089  1.00  0.00     0.016 A 
ATOM     23  C   UNL     1       7.747  -5.323  -0.632  1.00  0.00     0.016 A 
ATOM     24  C   UNL     1       5.922  -4.262   1.206  1.00  0.00     0.010 A 
ATOM     25  C   UNL     1       8.204  -4.679   0.526  1.00  0.00     0.010 A 
ATOM     26  C   UNL     1       7.296  -4.096   1.432  1.00  0.00    -0.014 A 
BRANCH  26  27
ATOM     27  C   UNL     1       7.766  -3.228   2.550  1.00  0.00     0.031 A 
ATOM     28  C   UNL     1       8.552  -1.974   2.252  1.00  0.00     0.074 A 
ATOM     29  C   UNL     1       7.450  -3.516   3.829  1.00  0.00     0.049 A 
ATOM     30  N   UNL     1       9.146  -1.151   3.081  1.00  0.00    -0.248 NA
ATOM     31  C   UNL     1       8.694  -1.598   0.837  1.00  0.00     0.031 C 
ATOM     32  C   UNL     1       6.661  -4.667   4.267  1.00  0.00     0.029 A 
ATOM     33  N   UNL     1       7.744  -2.853   4.997  1.00  0.00    -0.354 N 
ATOM     34  C   UNL     1       9.780  -0.203   2.287  1.00  0.00     0.074 A 
ATOM     35  C   UNL     1       9.494  -0.543   0.911  1.00  0.00     0.031 C 
ATOM     36  C   UNL     1       6.503  -4.611   5.599  1.00  0.00     0.029 A 
ATOM     37  C   UNL     1       7.237  -3.461   6.120  1.00  0.00     0.049 A 
ATOM     38  H   UNL     1       8.269  -2.020   5.026  1.00  0.00     0.167 HD
ATOM     39  C   UNL     1      10.531   0.856   2.672  1.00  0.00     0.037 A 
ATOM     40  C   UNL     1       7.368  -3.147   7.425  1.00  0.00     0.037 A 
ATOM     41  C   UNL     1      10.757   1.245   4.039  1.00  0.00     0.049 A 
ATOM     42  C   UNL     1       8.184  -1.948   7.823  1.00  0.00     0.074 A 
ATOM     43  C   UNL     1      11.504   2.307   4.520  1.00  0.00     0.029 A 
ATOM     44  N   UNL     1      10.215   0.605   5.142  1.00  0.00    -0.354 N 
ATOM     45  N   UNL     1       8.827  -1.097   7.063  1.00  0.00    -0.248 NA
ATOM     46  C   UNL     1       8.300  -1.669   9.263  1.00  0.00     0.031 C 
ATOM     47  C   UNL     1      11.431   2.299   5.916  1.00  0.00     0.029 A 
ATOM     48  C   UNL     1      10.605   1.256   6.301  1.00  0.00     0.049 A 
ATOM     49  H   UNL     1       9.638  -0.192   5.107  1.00  0.00     0.167 HD
ATOM     50  C   UNL     1       9.409  -0.178   7.925  1.00  0.00     0.074 A 
ATOM     51  C   UNL     1       9.027  -0.560   9.268  1.00  0.00     0.031 C 
ATOM     52  C   UNL     1      10.199   0.882   7.629  1.00  0.00     0.037 A 
BRANCH  39  53
ATOM     53  C   UNL     1      11.189   1.680   1.605  1.00  0.00     0.064 A 
ATOM     54  C   UNL     1      12.580   1.610   1.424  1.00  0.00     0.173 A 
ATOM     55  C   UNL     1      10.470   2.603   0.835  1.00  0.00     0.173 A 
ATOM     56  F   UNL     1      13.313   0.747   2.143  1.00  0.00    -0.203 F 
ATOM     57  C   UNL     1      13.228   2.452   0.525  1.00  0.00     0.198 A 
ATOM     58  C   UNL     1      11.120   3.427  -0.081  1.00  0.00     0.198 A 
ATOM     59  F   UNL     1       9.138   2.697   0.963  1.00  0.00    -0.203 F 
ATOM     60  F   UNL     1      14.561   2.395   0.397  1.00  0.00    -0.200 F 
ATOM     61  C   UNL     1      12.498   3.359  -0.227  1.00  0.00     0.200 A 
ATOM     62  F   UNL     1      10.411   4.291  -0.822  1.00  0.00    -0.200 F 
ATOM     63  F   UNL     1      13.123   4.170  -1.091  1.00  0.00    -0.200 F 
ENDBRANCH  39  53
BRANCH  40  64
ATOM     64  C   UNL     1       6.723  -4.001   8.457  1.00  0.00     0.064 A 
ATOM     65  C   UNL     1       7.171  -5.308   8.702  1.00  0.00     0.173 A 
ATOM     66  C   UNL     1       5.644  -3.528   9.217  1.00  0.00     0.173 A 
ATOM     67  F   UNL     1       8.201  -5.806   8.002  1.00  0.00    -0.203 F 
ATOM     68  C   UNL     1       6.554  -6.114   9.655  1.00  0.00     0.198 A 
ATOM     69  C   UNL     1       5.047  -4.325  10.192  1.00  0.00     0.198 A 
ATOM     70  F   UNL     1       5.197  -2.277   9.037  1.00  0.00    -0.203 F 
ATOM     71  F   UNL     1       6.982  -7.369   9.846  1.00  0.00    -0.200 F 
ATOM     72  C   UNL     1       5.497  -5.620  10.404  1.00  0.00     0.200 A 
ATOM     73  F   UNL     1       4.045  -3.834  10.934  1.00  0.00    -0.200 F 
ATOM     74  F   UNL     1       4.915  -6.389  11.334  1.00  0.00    -0.200 F 
ENDBRANCH  40  64
BRANCH  52  75
ATOM     75  C   UNL     1      10.673   1.736   8.767  1.00  0.00     0.064 A 
ATOM     76  C   UNL     1      10.155   3.028   8.946  1.00  0.00     0.173 A 
ATOM     77  C   UNL     1      11.684   1.305   9.637  1.00  0.00     0.173 A 
ATOM     78  F   UNL     1       9.193   3.489   8.132  1.00  0.00    -0.203 F 
ATOM     79  C   UNL     1      10.636   3.859   9.953  1.00  0.00     0.198 A 
ATOM     80  C   UNL     1      12.146   2.130  10.659  1.00  0.00     0.198 A 
ATOM     81  F   UNL     1      12.203   0.075   9.511  1.00  0.00    -0.203 F 
ATOM     82  F   UNL     1      10.143   5.097  10.091  1.00  0.00    -0.200 F 
ATOM     83  C   UNL     1      11.628   3.408  10.811  1.00  0.00     0.200 A 
ATOM     84  F   UNL     1      13.089   1.686  11.501  1.00  0.00    -0.200 F 
ATOM     85  F   UNL     1      12.082   4.205  11.789  1.00  0.00    -0.200 F 
ENDBRANCH  52  75
ENDBRANCH  26  27
ENDBRANCH  19  21
ENDBRANCH  18  19
ENDBRANCH   1  18
TORSDOF 12
