REMARK SMILES Cc1ccc(N2C(=O)N=C(OCCOC(=O)c3ccc(-c4c5nc(c(-c6c(F)c(F)c(F)c(F)c6F)c6ccc([nH]6)c(-c6c(F)c(F)c(F)c(F)c6F)c6nc(c(-c7c(F)c(F)c(F)c(F)c7F)c7ccc4[nH]7)C=C6)C=C5)cc3)/C(=C\c3ccccc3OCc3cccc(C(=O)[O-])c3)C2=O)cc1
REMARK SMILES IDX 12 1 11 2 10 3 6 4 7 5 99 6 8 7 9 8 80 9 100 10 81 11 5 12
REMARK SMILES IDX 1 13 2 14 3 15 102 16 4 17 101 18 82 19 83 20 87 21 84 22
REMARK SMILES IDX 86 23 85 24 88 25 89 26 90 27 91 28 98 29 92 30 94 31 93 32
REMARK SMILES IDX 95 33 96 34 97 35 13 36 14 37 15 38 16 39 17 40 18 41 79 42
REMARK SMILES IDX 19 43 78 44 20 45 21 46 22 47 72 48 23 49 77 50 71 51 73 52
REMARK SMILES IDX 24 53 76 54 70 55 69 56 25 58 57 59 37 60 56 61 38 62 41 63
REMARK SMILES IDX 55 64 74 65 39 66 40 67 54 69 75 70 42 71 26 72 27 73 35 74
REMARK SMILES IDX 28 75 29 76 33 77 36 78 30 79 31 80 34 81 32 82 58 83 59 84
REMARK SMILES IDX 67 85 60 86 61 87 65 88 68 89 62 90 63 91 66 92 64 93 43 94
REMARK SMILES IDX 44 95 52 96 45 97 46 98 50 99 53 100 47 101 48 102 51 103
REMARK SMILES IDX 49 104
REMARK H PARENT 73 57 41 68
REMARK Flexibility Score: inf
ROOT
ATOM      1  C   UNL     1      -8.780   3.114   0.279  1.00  0.00     0.273 C 
ENDROOT
BRANCH   1   2
ATOM      2  O   UNL     1      -8.487   1.814   0.642  1.00  0.00    -0.473 OA
BRANCH   2   3
ATOM      3  C   UNL     1      -7.226   1.499   0.374  1.00  0.00     0.231 C 
ATOM      4  N   UNL     1      -3.690   0.885   0.361  1.00  0.00    -0.226 N 
ATOM      5  C   UNL     1      -4.865  -0.403   0.838  1.00  0.00     0.358 C 
ATOM      6  C   UNL     1      -4.180   2.452  -0.229  1.00  0.00     0.272 C 
ATOM      7  O   UNL     1      -4.347  -1.506   1.135  1.00  0.00    -0.245 OA
ATOM      8  N   UNL     1      -6.742   0.216   0.909  1.00  0.00    -0.156 NA
ATOM      9  C   UNL     1      -6.053   2.719  -0.541  1.00  0.00     0.103 C 
ATOM     10  O   UNL     1      -3.429   3.263  -0.773  1.00  0.00    -0.268 OA
ATOM     11  C   UNL     1      -6.177   2.954  -1.903  1.00  0.00     0.031 C 
BRANCH   4  12
ATOM     12  C   UNL     1      -2.221   0.587   0.332  1.00  0.00     0.054 A 
ATOM     13  C   UNL     1       2.156  -0.011   0.028  1.00  0.00     0.044 C 
ATOM     14  C   UNL     1       0.666   0.172   0.149  1.00  0.00    -0.051 A 
ATOM     15  C   UNL     1      -0.214  -0.894   0.339  1.00  0.00     0.005 A 
ATOM     16  C   UNL     1       0.102   1.439   0.075  1.00  0.00     0.005 A 
ATOM     17  C   UNL     1      -1.626  -0.687   0.448  1.00  0.00     0.027 A 
ATOM     18  C   UNL     1      -1.294   1.630   0.167  1.00  0.00     0.027 A 
ENDBRANCH   4  12
BRANCH  11  19
ATOM     19  C   UNL     1      -7.127   2.250  -2.811  1.00  0.00     0.018 A 
ATOM     20  C   UNL     1      -8.217   2.966  -3.350  1.00  0.00     0.012 A 
ATOM     21  C   UNL     1      -7.104   0.856  -2.922  1.00  0.00     0.127 A 
ATOM     22  C   UNL     1      -9.455   2.360  -3.579  1.00  0.00     0.001 A 
ATOM     23  C   UNL     1      -8.427   0.279  -3.048  1.00  0.00     0.047 A 
ATOM     24  C   UNL     1      -9.599   1.030  -3.264  1.00  0.00     0.004 A 
BRANCH  21  25
ATOM     25  O   UNL     1      -5.779   0.207  -3.021  1.00  0.00    -0.488 OA
BRANCH  25  26
ATOM     26  C   UNL     1      -4.627  -0.936  -2.285  1.00  0.00     0.265 C 
BRANCH  26  27
ATOM     27  C   UNL     1      -4.319  -2.533  -1.764  1.00  0.00    -0.010 A 
ATOM     28  C   UNL     1      -3.066  -3.094  -1.563  1.00  0.00     0.007 A 
ATOM     29  C   UNL     1      -5.249  -3.403  -1.150  1.00  0.00     0.017 A 
ATOM     30  C   UNL     1      -2.947  -4.404  -0.947  1.00  0.00     0.001 A 
ATOM     31  C   UNL     1      -5.360  -4.788  -0.881  1.00  0.00    -0.002 A 
ATOM     32  C   UNL     1      -4.077  -5.257  -0.645  1.00  0.00     0.010 A 
BRANCH  31  33
ATOM     33  C   UNL     1      -6.857  -5.603  -0.396  1.00  0.00     0.071 C 
ATOM     34  O   UNL     1      -6.460  -6.700   0.113  1.00  0.00    -0.545 OA
ATOM     35  O   UNL     1      -8.778  -5.080  -0.674  1.00  0.00    -0.545 OA
ENDBRANCH  31  33
ENDBRANCH  26  27
ENDBRANCH  25  26
ENDBRANCH  21  25
ENDBRANCH  11  19
ENDBRANCH   2   3
ENDBRANCH   1   2
BRANCH   1  36
ATOM     36  C   UNL     1      -7.760   4.110   0.852  1.00  0.00     0.274 C 
BRANCH  36  37
ATOM     37  O   UNL     1      -6.614   3.655   1.804  1.00  0.00    -0.458 OA
BRANCH  37  38
ATOM     38  C   UNL     1      -5.585   2.765   2.086  1.00  0.00     0.338 C 
ATOM     39  O   UNL     1      -4.662   3.127   2.810  1.00  0.00    -0.246 OA
BRANCH  38  40
ATOM     40  C   UNL     1      -5.426   1.310   1.506  1.00  0.00     0.060 A 
ATOM     41  C   UNL     1      -5.896  -0.070   2.621  1.00  0.00     0.016 A 
ATOM     42  C   UNL     1      -5.574   0.743  -0.388  1.00  0.00     0.016 A 
ATOM     43  C   UNL     1      -6.596  -1.572   1.810  1.00  0.00     0.010 A 
ATOM     44  C   UNL     1      -6.468  -0.643  -0.847  1.00  0.00     0.010 A 
ATOM     45  C   UNL     1      -6.939  -1.717   0.044  1.00  0.00    -0.014 A 
BRANCH  45  46
ATOM     46  C   UNL     1      -7.520  -2.541  -1.373  1.00  0.00     0.031 A 
ATOM     47  C   UNL     1      -7.668  -3.902  -0.996  1.00  0.00     0.074 A 
ATOM     48  C   UNL     1      -7.293  -2.532  -2.840  1.00  0.00     0.049 A 
ATOM     49  N   UNL     1      -7.695  -5.166  -2.053  1.00  0.00    -0.248 NA
ATOM     50  C   UNL     1      -8.060  -4.580   0.874  1.00  0.00     0.031 C 
ATOM     51  C   UNL     1      -8.031  -3.111  -4.014  1.00  0.00     0.029 A 
ATOM     52  N   UNL     1      -6.324  -1.880  -3.648  1.00  0.00    -0.354 N 
ATOM     53  C   UNL     1      -8.345  -6.696  -1.222  1.00  0.00     0.074 A 
ATOM     54  C   UNL     1      -8.493  -6.204   0.692  1.00  0.00     0.031 C 
ATOM     55  C   UNL     1      -7.388  -2.885  -5.206  1.00  0.00     0.029 A 
ATOM     56  C   UNL     1      -6.141  -2.171  -4.988  1.00  0.00     0.049 A 
ATOM     57  H   UNL     1      -5.757  -1.189  -3.235  1.00  0.00     0.167 HD
ATOM     58  C   UNL     1      -9.196  -7.307  -2.127  1.00  0.00     0.037 A 
ATOM     59  C   UNL     1      -4.948  -2.111  -5.699  1.00  0.00     0.037 A 
ATOM     60  C   UNL     1      -8.710  -6.960  -3.479  1.00  0.00     0.049 A 
ATOM     61  C   UNL     1      -4.601  -3.543  -5.957  1.00  0.00     0.074 A 
ATOM     62  C   UNL     1      -9.202  -6.196  -4.532  1.00  0.00     0.029 A 
ATOM     63  N   UNL     1      -7.348  -7.097  -3.743  1.00  0.00    -0.354 N 
ATOM     64  N   UNL     1      -5.299  -4.478  -5.386  1.00  0.00    -0.248 NA
ATOM     65  C   UNL     1      -3.558  -4.070  -6.829  1.00  0.00     0.031 C 
ATOM     66  C   UNL     1      -8.144  -5.986  -5.467  1.00  0.00     0.029 A 
ATOM     67  C   UNL     1      -6.991  -6.567  -4.964  1.00  0.00     0.049 A 
ATOM     68  H   UNL     1      -6.711  -7.524  -3.125  1.00  0.00     0.167 HD
ATOM     69  C   UNL     1      -4.945  -5.681  -5.869  1.00  0.00     0.074 A 
ATOM     70  C   UNL     1      -3.833  -5.387  -6.758  1.00  0.00     0.031 C 
ATOM     71  C   UNL     1      -5.637  -6.784  -5.477  1.00  0.00     0.037 A 
BRANCH  58  72
ATOM     72  C   UNL     1     -10.601  -7.833  -1.879  1.00  0.00     0.064 A 
ATOM     73  C   UNL     1     -11.446  -8.174  -2.964  1.00  0.00     0.173 A 
ATOM     74  C   UNL     1     -11.209  -7.977  -0.620  1.00  0.00     0.173 A 
ATOM     75  F   UNL     1     -11.040  -8.065  -4.235  1.00  0.00    -0.203 F 
ATOM     76  C   UNL     1     -12.757  -8.637  -2.798  1.00  0.00     0.198 A 
ATOM     77  C   UNL     1     -12.519  -8.448  -0.450  1.00  0.00     0.198 A 
ATOM     78  F   UNL     1     -10.575  -7.649   0.503  1.00  0.00    -0.203 F 
ATOM     79  F   UNL     1     -13.500  -8.929  -3.875  1.00  0.00    -0.200 F 
ATOM     80  C   UNL     1     -13.289  -8.791  -1.538  1.00  0.00     0.200 A 
ATOM     81  F   UNL     1     -13.028  -8.556   0.786  1.00  0.00    -0.200 F 
ATOM     82  F   UNL     1     -14.531  -9.264  -1.374  1.00  0.00    -0.200 F 
ENDBRANCH  58  72
BRANCH  59  83
ATOM     83  C   UNL     1      -3.890  -0.999  -5.558  1.00  0.00     0.064 A 
ATOM     84  C   UNL     1      -4.240   0.295  -5.991  1.00  0.00     0.173 A 
ATOM     85  C   UNL     1      -2.756  -1.051  -4.717  1.00  0.00     0.173 A 
ATOM     86  F   UNL     1      -5.093   0.444  -7.014  1.00  0.00    -0.203 F 
ATOM     87  C   UNL     1      -3.771   1.451  -5.348  1.00  0.00     0.198 A 
ATOM     88  C   UNL     1      -2.319   0.110  -4.027  1.00  0.00     0.198 A 
ATOM     89  F   UNL     1      -2.297  -2.232  -4.282  1.00  0.00    -0.203 F 
ATOM     90  F   UNL     1      -4.271   2.653  -5.672  1.00  0.00    -0.200 F 
ATOM     91  C   UNL     1      -2.890   1.345  -4.291  1.00  0.00     0.200 A 
ATOM     92  F   UNL     1      -1.573  -0.026  -2.917  1.00  0.00    -0.200 F 
ATOM     93  F   UNL     1      -2.682   2.390  -3.476  1.00  0.00    -0.200 F 
ENDBRANCH  59  83
BRANCH  71  94
ATOM     94  C   UNL     1      -5.138  -8.183  -5.633  1.00  0.00     0.064 A 
ATOM     95  C   UNL     1      -3.803  -8.507  -5.900  1.00  0.00     0.173 A 
ATOM     96  C   UNL     1      -5.998  -9.282  -5.396  1.00  0.00     0.173 A 
ATOM     97  F   UNL     1      -2.834  -7.585  -5.924  1.00  0.00    -0.203 F 
ATOM     98  C   UNL     1      -3.399  -9.822  -6.089  1.00  0.00     0.198 A 
ATOM     99  C   UNL     1      -5.555 -10.591  -5.441  1.00  0.00     0.198 A 
ATOM    100  F   UNL     1      -7.295  -9.140  -5.095  1.00  0.00    -0.203 F 
ATOM    101  F   UNL     1      -2.145 -10.071  -6.489  1.00  0.00    -0.200 F 
ATOM    102  C   UNL     1      -4.270 -10.864  -5.845  1.00  0.00     0.200 A 
ATOM    103  F   UNL     1      -6.389 -11.579  -5.091  1.00  0.00    -0.200 F 
ATOM    104  F   UNL     1      -3.866 -12.131  -5.979  1.00  0.00    -0.200 F 
ENDBRANCH  71  94
ENDBRANCH  45  46
ENDBRANCH  38  40
ENDBRANCH  37  38
ENDBRANCH  36  37
ENDBRANCH   1  36
TORSDOF 16
