REMARK SMILES Cc1ccc(C(=O)N2C[C@@H](C(=O)OCCOC(=O)c3ccc(-c4c5nc(c(-c6c(F)c(F)c(F)c(F)c6F)c6ccc([nH]6)c(-c6c(F)c(F)c(F)c(F)c6F)c6nc(c(-c7c(F)c(F)c(F)c(F)c7F)c7ccc4[nH]7)C=C6)C=C5)cc3)C[C@H](C(=O)N3CCOCC3)C2)cc1F
REMARK SMILES IDX 14 1 13 2 11 3 12 4 10 5 8 6 9 7 92 8 83 9 82 10 6 11 7 12
REMARK SMILES IDX 5 13 1 14 2 15 3 16 94 17 4 18 93 19 95 20 84 21 85 22 86 23
REMARK SMILES IDX 87 24 91 25 88 26 90 27 89 28 15 29 16 30 17 31 18 32 19 33
REMARK SMILES IDX 20 34 81 35 21 36 80 37 22 38 23 39 24 40 74 41 25 42 79 43
REMARK SMILES IDX 73 44 75 45 26 46 78 47 72 48 71 49 27 51 59 52 39 53 58 54
REMARK SMILES IDX 40 55 43 56 57 57 76 58 41 59 42 60 56 62 77 63 44 64 28 65
REMARK SMILES IDX 29 66 37 67 30 68 31 69 35 70 38 71 32 72 33 73 36 74 34 75
REMARK SMILES IDX 60 76 61 77 69 78 62 79 63 80 67 81 70 82 64 83 65 84 68 85
REMARK SMILES IDX 66 86 45 87 46 88 54 89 47 90 48 91 52 92 55 93 49 94 50 95
REMARK SMILES IDX 53 96 51 97
REMARK H PARENT 75 50 43 61
REMARK Flexibility Score: inf
ROOT
ATOM      1  C   UNL     1      -9.003  -0.492   3.658  1.00  0.00     0.274 C 
ENDROOT
BRANCH   1   2
ATOM      2  O   UNL     1      -8.050  -0.475   2.569  1.00  0.00    -0.462 OA
BRANCH   2   3
ATOM      3  C   UNL     1      -7.232  -1.557   2.482  1.00  0.00     0.310 C 
ATOM      4  O   UNL     1      -7.263  -2.513   3.252  1.00  0.00    -0.252 OA
BRANCH   3   5
ATOM      5  C   UNL     1      -6.228  -1.481   1.352  1.00  0.00     0.119 C 
ATOM      6  N   UNL     1      -4.084  -0.546   0.702  1.00  0.00    -0.337 N 
ATOM      7  C   UNL     1      -5.114  -0.538   1.728  1.00  0.00     0.135 C 
ATOM      8  C   UNL     1      -4.491  -0.163  -0.651  1.00  0.00     0.133 C 
ATOM      9  C   UNL     1      -5.733  -0.932  -1.137  1.00  0.00     0.099 C 
ATOM     10  C   UNL     1      -6.791  -1.143  -0.032  1.00  0.00     0.032 C 
BRANCH   6  11
ATOM     11  C   UNL     1      -2.824  -1.022   1.027  1.00  0.00     0.254 C 
ATOM     12  O   UNL     1      -2.641  -1.899   1.868  1.00  0.00    -0.269 OA
BRANCH  11  13
ATOM     13  C   UNL     1      -1.644  -0.328   0.457  1.00  0.00     0.042 A 
ATOM     14  C   UNL     1       1.988   1.819  -0.347  1.00  0.00     0.047 C 
ATOM     15  C   UNL     1       0.704   1.075  -0.145  1.00  0.00    -0.015 A 
ATOM     16  C   UNL     1      -0.510   1.760  -0.035  1.00  0.00     0.007 A 
ATOM     17  C   UNL     1       0.715  -0.316   0.010  1.00  0.00     0.126 A 
ATOM     18  C   UNL     1      -1.677   1.063   0.273  1.00  0.00     0.014 A 
ATOM     19  C   UNL     1      -0.443  -1.023   0.314  1.00  0.00     0.053 A 
ATOM     20  F   UNL     1       1.873  -0.984  -0.086  1.00  0.00    -0.207 F 
ENDBRANCH  11  13
ENDBRANCH   6  11
BRANCH   9  21
ATOM     21  C   UNL     1      -5.249  -2.073  -2.064  1.00  0.00     0.227 C 
ATOM     22  O   UNL     1      -5.108  -1.826  -3.269  1.00  0.00    -0.275 OA
ATOM     23  N   UNL     1      -4.741  -3.234  -1.536  1.00  0.00    -0.338 N 
ATOM     24  C   UNL     1      -5.479  -4.153  -0.685  1.00  0.00     0.148 C 
ATOM     25  C   UNL     1      -3.604  -3.888  -2.183  1.00  0.00     0.148 C 
ATOM     26  C   UNL     1      -4.551  -4.775   0.359  1.00  0.00     0.181 C 
ATOM     27  C   UNL     1      -2.712  -4.529  -1.110  1.00  0.00     0.181 C 
ATOM     28  O   UNL     1      -3.458  -5.447  -0.290  1.00  0.00    -0.378 OA
ENDBRANCH   9  21
ENDBRANCH   3   5
ENDBRANCH   2   3
ENDBRANCH   1   2
BRANCH   1  29
ATOM     29  C   UNL     1     -10.358  -1.121   3.307  1.00  0.00     0.275 C 
BRANCH  29  30
ATOM     30  O   UNL     1     -10.269  -2.524   3.025  1.00  0.00    -0.458 OA
BRANCH  30  31
ATOM     31  C   UNL     1      -9.936  -2.758   1.741  1.00  0.00     0.338 C 
ATOM     32  O   UNL     1      -9.681  -1.929   0.881  1.00  0.00    -0.246 OA
BRANCH  31  33
ATOM     33  C   UNL     1     -10.028  -4.168   1.380  1.00  0.00     0.060 A 
ATOM     34  C   UNL     1      -8.978  -4.680   0.606  1.00  0.00     0.016 A 
ATOM     35  C   UNL     1     -11.314  -4.681   1.306  1.00  0.00     0.016 A 
ATOM     36  C   UNL     1      -9.254  -5.556  -0.434  1.00  0.00     0.010 A 
ATOM     37  C   UNL     1     -11.586  -5.565   0.285  1.00  0.00     0.010 A 
ATOM     38  C   UNL     1     -10.579  -5.922  -0.635  1.00  0.00    -0.014 A 
BRANCH  38  39
ATOM     39  C   UNL     1     -11.044  -6.713  -1.762  1.00  0.00     0.031 A 
ATOM     40  C   UNL     1     -10.988  -8.185  -1.698  1.00  0.00     0.074 A 
ATOM     41  C   UNL     1     -11.791  -6.104  -2.709  1.00  0.00     0.049 A 
ATOM     42  N   UNL     1     -11.316  -8.958  -2.677  1.00  0.00    -0.248 NA
ATOM     43  C   UNL     1     -10.520  -8.907  -0.519  1.00  0.00     0.031 C 
ATOM     44  C   UNL     1     -12.884  -6.708  -3.463  1.00  0.00     0.029 A 
ATOM     45  N   UNL     1     -11.664  -4.816  -3.251  1.00  0.00    -0.354 N 
ATOM     46  C   UNL     1     -11.380 -10.237  -2.186  1.00  0.00     0.074 A 
ATOM     47  C   UNL     1     -10.798 -10.169  -0.863  1.00  0.00     0.031 C 
ATOM     48  C   UNL     1     -13.203  -5.914  -4.495  1.00  0.00     0.029 A 
ATOM     49  C   UNL     1     -12.178  -4.893  -4.575  1.00  0.00     0.049 A 
ATOM     50  H   UNL     1     -11.293  -4.021  -2.805  1.00  0.00     0.167 HD
ATOM     51  C   UNL     1     -12.038 -11.193  -2.897  1.00  0.00     0.037 A 
ATOM     52  C   UNL     1     -11.391  -4.682  -5.677  1.00  0.00     0.037 A 
ATOM     53  C   UNL     1     -12.581 -10.674  -4.144  1.00  0.00     0.049 A 
ATOM     54  C   UNL     1     -11.305  -5.833  -6.650  1.00  0.00     0.074 A 
ATOM     55  C   UNL     1     -13.814 -10.164  -4.516  1.00  0.00     0.029 A 
ATOM     56  N   UNL     1     -11.710 -10.353  -5.164  1.00  0.00    -0.354 N 
ATOM     57  N   UNL     1     -11.798  -7.014  -6.422  1.00  0.00    -0.248 NA
ATOM     58  C   UNL     1     -10.520  -5.779  -7.885  1.00  0.00     0.031 C 
ATOM     59  C   UNL     1     -13.672  -9.547  -5.789  1.00  0.00     0.029 A 
ATOM     60  C   UNL     1     -12.355  -9.684  -6.184  1.00  0.00     0.049 A 
ATOM     61  H   UNL     1     -10.750 -10.573  -5.164  1.00  0.00     0.167 HD
ATOM     62  C   UNL     1     -11.339  -7.877  -7.375  1.00  0.00     0.074 A 
ATOM     63  C   UNL     1     -10.557  -7.061  -8.282  1.00  0.00     0.031 C 
ATOM     64  C   UNL     1     -11.580  -9.214  -7.314  1.00  0.00     0.037 A 
BRANCH  51  65
ATOM     65  C   UNL     1     -12.381 -12.551  -2.356  1.00  0.00     0.064 A 
ATOM     66  C   UNL     1     -13.588 -13.184  -2.717  1.00  0.00     0.173 A 
ATOM     67  C   UNL     1     -11.559 -13.275  -1.475  1.00  0.00     0.173 A 
ATOM     68  F   UNL     1     -14.433 -12.633  -3.598  1.00  0.00    -0.203 F 
ATOM     69  C   UNL     1     -13.980 -14.407  -2.174  1.00  0.00     0.198 A 
ATOM     70  C   UNL     1     -11.976 -14.474  -0.890  1.00  0.00     0.198 A 
ATOM     71  F   UNL     1     -10.318 -12.860  -1.187  1.00  0.00    -0.203 F 
ATOM     72  F   UNL     1     -15.137 -14.964  -2.559  1.00  0.00    -0.200 F 
ATOM     73  C   UNL     1     -13.189 -15.037  -1.236  1.00  0.00     0.200 A 
ATOM     74  F   UNL     1     -11.193 -15.082   0.013  1.00  0.00    -0.200 F 
ATOM     75  F   UNL     1     -13.586 -16.191  -0.682  1.00  0.00    -0.200 F 
ENDBRANCH  51  65
BRANCH  52  76
ATOM     76  C   UNL     1     -10.223  -3.819  -5.374  1.00  0.00     0.064 A 
ATOM     77  C   UNL     1     -10.474  -2.501  -4.959  1.00  0.00     0.173 A 
ATOM     78  C   UNL     1      -9.022  -4.435  -4.989  1.00  0.00     0.173 A 
ATOM     79  F   UNL     1     -11.609  -1.882  -5.322  1.00  0.00    -0.203 F 
ATOM     80  C   UNL     1      -9.657  -1.905  -4.014  1.00  0.00     0.198 A 
ATOM     81  C   UNL     1      -8.212  -3.835  -4.040  1.00  0.00     0.198 A 
ATOM     82  F   UNL     1      -8.727  -5.676  -5.400  1.00  0.00    -0.203 F 
ATOM     83  F   UNL     1      -9.993  -0.721  -3.483  1.00  0.00    -0.200 F 
ATOM     84  C   UNL     1      -8.566  -2.600  -3.522  1.00  0.00     0.200 A 
ATOM     85  F   UNL     1      -7.166  -4.505  -3.537  1.00  0.00    -0.200 F 
ATOM     86  F   UNL     1      -7.900  -2.102  -2.482  1.00  0.00    -0.200 F 
ENDBRANCH  52  76
BRANCH  64  87
ATOM     87  C   UNL     1     -11.083 -10.178  -8.338  1.00  0.00     0.064 A 
ATOM     88  C   UNL     1     -11.284  -9.965  -9.709  1.00  0.00     0.173 A 
ATOM     89  C   UNL     1     -10.502 -11.406  -7.966  1.00  0.00     0.173 A 
ATOM     90  F   UNL     1     -11.867  -8.839 -10.148  1.00  0.00    -0.203 F 
ATOM     91  C   UNL     1     -10.902 -10.915 -10.655  1.00  0.00     0.198 A 
ATOM     92  C   UNL     1     -10.168 -12.373  -8.908  1.00  0.00     0.198 A 
ATOM     93  F   UNL     1     -10.225 -11.685  -6.683  1.00  0.00    -0.203 F 
ATOM     94  F   UNL     1     -11.068 -10.659 -11.959  1.00  0.00    -0.200 F 
ATOM     95  C   UNL     1     -10.360 -12.125 -10.253  1.00  0.00     0.200 A 
ATOM     96  F   UNL     1      -9.660 -13.546  -8.504  1.00  0.00    -0.200 F 
ATOM     97  F   UNL     1     -10.018 -13.048 -11.162  1.00  0.00    -0.200 F 
ENDBRANCH  64  87
ENDBRANCH  38  39
ENDBRANCH  31  33
ENDBRANCH  30  31
ENDBRANCH  29  30
ENDBRANCH   1  29
TORSDOF 14
