REMARK SMILES Cc1nccn1C1(C(=O)OCCOC(=O)c2ccc(-c3c4nc(c(-c5c(F)c(F)c(F)c(F)c5F)c5ccc([nH]5)c(-c5c(F)c(F)c(F)c(F)c5F)c5nc(c(-c6c(F)c(F)c(F)c(F)c6F)c6ccc3[nH]6)C=C5)C=C4)cc2)CCN(C(=O)[C@@H]2C[C@H]2c2ccccc2)CC1
REMARK SMILES IDX 11 1 10 2 8 3 9 4 7 5 79 6 94 7 80 8 93 9 81 10 82 11 83 12
REMARK SMILES IDX 6 13 1 14 2 15 3 16 4 17 5 18 84 19 85 20 86 21 87 22 88 23
REMARK SMILES IDX 92 24 89 25 91 26 90 27 12 28 13 29 14 30 15 31 16 32 17 33
REMARK SMILES IDX 78 34 18 35 77 36 19 37 20 38 21 39 71 40 22 41 76 42 70 43
REMARK SMILES IDX 72 44 23 45 75 46 69 47 68 48 24 50 56 51 36 52 55 53 37 54
REMARK SMILES IDX 40 55 54 56 73 57 38 58 39 59 53 61 74 62 41 63 25 64 26 65
REMARK SMILES IDX 34 66 27 67 28 68 32 69 35 70 29 71 30 72 33 73 31 74 57 75
REMARK SMILES IDX 58 76 66 77 59 78 60 79 64 80 67 81 61 82 62 83 65 84 63 85
REMARK SMILES IDX 42 86 43 87 51 88 44 89 45 90 49 91 52 92 46 93 47 94 50 95
REMARK SMILES IDX 48 96
REMARK H PARENT 72 49 40 60
REMARK Flexibility Score: inf
ROOT
ATOM      1  C   UNL     1       2.314   5.918   1.896  1.00  0.00     0.274 C 
ENDROOT
BRANCH   1   2
ATOM      2  O   UNL     1       2.241   4.490   1.700  1.00  0.00    -0.460 OA
BRANCH   2   3
ATOM      3  C   UNL     1       1.141   4.008   1.052  1.00  0.00     0.332 C 
ATOM      4  O   UNL     1       0.142   4.706   0.888  1.00  0.00    -0.249 OA
BRANCH   3   5
ATOM      5  C   UNL     1       1.218   2.471   0.688  1.00  0.00     0.146 C 
ATOM      6  C   UNL     1       2.668   1.910   0.845  1.00  0.00     0.062 C 
ATOM      7  C   UNL     1       0.243   1.905   1.760  1.00  0.00     0.062 C 
ATOM      8  C   UNL     1       2.844   0.540   1.510  1.00  0.00     0.122 C 
ATOM      9  C   UNL     1       0.458   0.435   2.013  1.00  0.00     0.122 C 
ATOM     10  N   UNL     1       1.814   0.238   2.493  1.00  0.00    -0.342 N 
ATOM     11  C   UNL     1       2.220  -0.280   3.727  1.00  0.00     0.226 C 
ATOM     12  O   UNL     1       3.357  -0.721   3.882  1.00  0.00    -0.275 OA
BRANCH   5  13
ATOM     13  N   UNL     1       0.662   2.205  -0.688  1.00  0.00    -0.318 N 
ATOM     14  C   UNL     1       1.285  -0.266  -1.306  1.00  0.00     0.087 C 
ATOM     15  C   UNL     1       0.540   1.016  -1.421  1.00  0.00     0.106 A 
ATOM     16  N   UNL     1      -0.316   1.169  -2.416  1.00  0.00    -0.242 NA
ATOM     17  C   UNL     1      -0.612   2.486  -2.476  1.00  0.00     0.131 A 
ATOM     18  C   UNL     1       0.043   3.156  -1.481  1.00  0.00     0.108 A 
ENDBRANCH   5  13
BRANCH  11  19
ATOM     19  C   UNL     1       1.354  -0.256   4.950  1.00  0.00     0.087 C 
ATOM     20  C   UNL     1       0.125  -1.122   5.054  1.00  0.00     0.023 C 
ATOM     21  C   UNL     1       0.002   0.382   5.072  1.00  0.00     0.032 C 
BRANCH  21  22
ATOM     22  C   UNL     1      -0.509   1.141   6.252  1.00  0.00    -0.044 A 
ATOM     23  C   UNL     1      -1.809   0.890   6.719  1.00  0.00     0.004 A 
ATOM     24  C   UNL     1       0.139   2.307   6.686  1.00  0.00     0.004 A 
ATOM     25  C   UNL     1      -2.478   1.817   7.515  1.00  0.00     0.000 A 
ATOM     26  C   UNL     1      -0.528   3.237   7.485  1.00  0.00     0.000 A 
ATOM     27  C   UNL     1      -1.844   3.002   7.877  1.00  0.00     0.000 A 
ENDBRANCH  21  22
ENDBRANCH  11  19
ENDBRANCH   3   5
ENDBRANCH   2   3
ENDBRANCH   1   2
BRANCH   1  28
ATOM     28  C   UNL     1       3.262   6.559   0.885  1.00  0.00     0.275 C 
BRANCH  28  29
ATOM     29  O   UNL     1       2.759   6.517  -0.456  1.00  0.00    -0.458 OA
BRANCH  29  30
ATOM     30  C   UNL     1       3.079   5.387  -1.124  1.00  0.00     0.338 C 
ATOM     31  O   UNL     1       3.431   4.324  -0.647  1.00  0.00    -0.246 OA
BRANCH  30  32
ATOM     32  C   UNL     1       3.152   5.630  -2.565  1.00  0.00     0.060 A 
ATOM     33  C   UNL     1       3.194   4.504  -3.392  1.00  0.00     0.016 A 
ATOM     34  C   UNL     1       3.447   6.910  -3.046  1.00  0.00     0.016 A 
ATOM     35  C   UNL     1       3.659   4.645  -4.683  1.00  0.00     0.010 A 
ATOM     36  C   UNL     1       3.901   7.050  -4.343  1.00  0.00     0.010 A 
ATOM     37  C   UNL     1       4.063   5.909  -5.131  1.00  0.00    -0.014 A 
BRANCH  37  38
ATOM     38  C   UNL     1       4.605   5.993  -6.476  1.00  0.00     0.031 A 
ATOM     39  C   UNL     1       3.661   5.637  -7.567  1.00  0.00     0.074 A 
ATOM     40  C   UNL     1       5.836   6.464  -6.748  1.00  0.00     0.049 A 
ATOM     41  N   UNL     1       3.814   4.763  -8.509  1.00  0.00    -0.248 NA
ATOM     42  C   UNL     1       2.350   6.303  -7.566  1.00  0.00     0.031 C 
ATOM     43  C   UNL     1       6.786   7.113  -5.843  1.00  0.00     0.029 A 
ATOM     44  N   UNL     1       6.449   6.549  -7.961  1.00  0.00    -0.354 N 
ATOM     45  C   UNL     1       2.672   4.849  -9.299  1.00  0.00     0.074 A 
ATOM     46  C   UNL     1       1.769   5.751  -8.630  1.00  0.00     0.031 C 
ATOM     47  C   UNL     1       7.748   7.717  -6.575  1.00  0.00     0.029 A 
ATOM     48  C   UNL     1       7.547   7.389  -7.978  1.00  0.00     0.049 A 
ATOM     49  H   UNL     1       6.138   6.056  -8.755  1.00  0.00     0.167 HD
ATOM     50  C   UNL     1       2.599   4.292 -10.537  1.00  0.00     0.037 A 
ATOM     51  C   UNL     1       8.190   7.844  -9.078  1.00  0.00     0.037 A 
ATOM     52  C   UNL     1       3.580   3.263 -10.730  1.00  0.00     0.049 A 
ATOM     53  C   UNL     1       7.855   6.946 -10.211  1.00  0.00     0.074 A 
ATOM     54  C   UNL     1       3.833   2.046 -10.126  1.00  0.00     0.029 A 
ATOM     55  N   UNL     1       4.698   3.541 -11.475  1.00  0.00    -0.354 N 
ATOM     56  N   UNL     1       8.285   5.721 -10.330  1.00  0.00    -0.248 NA
ATOM     57  C   UNL     1       6.707   7.286 -11.039  1.00  0.00     0.031 C 
ATOM     58  C   UNL     1       5.252   1.906 -10.148  1.00  0.00     0.029 A 
ATOM     59  C   UNL     1       5.767   3.038 -10.778  1.00  0.00     0.049 A 
ATOM     60  H   UNL     1       4.727   4.009 -12.340  1.00  0.00     0.167 HD
ATOM     61  C   UNL     1       7.232   5.033 -10.914  1.00  0.00     0.074 A 
ATOM     62  C   UNL     1       6.340   6.064 -11.431  1.00  0.00     0.031 C 
ATOM     63  C   UNL     1       7.044   3.702 -10.681  1.00  0.00     0.037 A 
BRANCH  50  64
ATOM     64  C   UNL     1       1.804   4.880 -11.666  1.00  0.00     0.064 A 
ATOM     65  C   UNL     1       1.544   4.115 -12.818  1.00  0.00     0.173 A 
ATOM     66  C   UNL     1       1.531   6.261 -11.768  1.00  0.00     0.173 A 
ATOM     67  F   UNL     1       1.803   2.799 -12.836  1.00  0.00    -0.203 F 
ATOM     68  C   UNL     1       1.089   4.702 -14.001  1.00  0.00     0.198 A 
ATOM     69  C   UNL     1       1.029   6.835 -12.933  1.00  0.00     0.198 A 
ATOM     70  F   UNL     1       1.843   7.115 -10.784  1.00  0.00    -0.203 F 
ATOM     71  F   UNL     1       0.960   3.956 -15.107  1.00  0.00    -0.200 F 
ATOM     72  C   UNL     1       0.834   6.061 -14.059  1.00  0.00     0.200 A 
ATOM     73  F   UNL     1       0.808   8.156 -12.976  1.00  0.00    -0.200 F 
ATOM     74  F   UNL     1       0.450   6.633 -15.207  1.00  0.00    -0.200 F 
ENDBRANCH  50  64
BRANCH  51  75
ATOM     75  C   UNL     1       8.868   9.145  -9.263  1.00  0.00     0.064 A 
ATOM     76  C   UNL     1       9.787   9.343 -10.303  1.00  0.00     0.173 A 
ATOM     77  C   UNL     1       8.440  10.297  -8.573  1.00  0.00     0.173 A 
ATOM     78  F   UNL     1      10.206   8.305 -11.041  1.00  0.00    -0.203 F 
ATOM     79  C   UNL     1      10.242  10.621 -10.643  1.00  0.00     0.198 A 
ATOM     80  C   UNL     1       8.905  11.569  -8.904  1.00  0.00     0.198 A 
ATOM     81  F   UNL     1       7.495  10.224  -7.626  1.00  0.00    -0.203 F 
ATOM     82  F   UNL     1      11.075  10.778 -11.681  1.00  0.00    -0.200 F 
ATOM     83  C   UNL     1       9.796  11.732  -9.947  1.00  0.00     0.200 A 
ATOM     84  F   UNL     1       8.440  12.639  -8.243  1.00  0.00    -0.200 F 
ATOM     85  F   UNL     1      10.192  12.961 -10.306  1.00  0.00    -0.200 F 
ENDBRANCH  51  75
BRANCH  63  86
ATOM     86  C   UNL     1       8.153   2.951 -10.004  1.00  0.00     0.064 A 
ATOM     87  C   UNL     1       8.594   3.232  -8.699  1.00  0.00     0.173 A 
ATOM     88  C   UNL     1       8.697   1.829 -10.643  1.00  0.00     0.173 A 
ATOM     89  F   UNL     1       8.041   4.218  -7.982  1.00  0.00    -0.203 F 
ATOM     90  C   UNL     1       9.579   2.459  -8.088  1.00  0.00     0.198 A 
ATOM     91  C   UNL     1       9.654   1.036 -10.015  1.00  0.00     0.198 A 
ATOM     92  F   UNL     1       8.266   1.475 -11.864  1.00  0.00    -0.203 F 
ATOM     93  F   UNL     1       9.998   2.759  -6.849  1.00  0.00    -0.200 F 
ATOM     94  C   UNL     1      10.104   1.359  -8.745  1.00  0.00     0.200 A 
ATOM     95  F   UNL     1      10.122  -0.058 -10.632  1.00  0.00    -0.200 F 
ATOM     96  F   UNL     1      11.025   0.593  -8.143  1.00  0.00    -0.200 F 
ENDBRANCH  63  86
ENDBRANCH  37  38
ENDBRANCH  30  32
ENDBRANCH  29  30
ENDBRANCH  28  29
ENDBRANCH   1  28
TORSDOF 14
