REMARK SMILES NS(=O)(=O)c1ccc(/N=N/c2ccc(O)c(C(=O)OCCOC(=O)c3ccc(-c4c5nc(c(-c6c(F)c(F)c(F)c(F)c6F)c6ccc([nH]6)c(-c6c(F)c(F)c(F)c(F)c6F)c6nc(c(-c7c(F)c(F)c(F)c(F)c7F)c7ccc4[nH]7)C=C6)C=C5)cc3)c2)cc1
REMARK SMILES IDX 20 1 19 2 17 3 18 4 16 5 11 6 12 7 88 8 13 9 14 10 10 11
REMARK SMILES IDX 9 12 8 13 5 14 6 15 90 16 7 17 89 18 2 19 3 20 4 21 1 22
REMARK SMILES IDX 15 25 21 27 22 28 23 29 24 30 25 31 26 32 87 33 27 34 86 35
REMARK SMILES IDX 28 36 29 37 30 38 80 39 31 40 85 41 79 42 81 43 32 44 84 45
REMARK SMILES IDX 78 46 77 47 33 49 65 50 45 51 64 52 46 53 49 54 63 55 82 56
REMARK SMILES IDX 47 57 48 58 62 60 83 61 50 62 34 63 35 64 43 65 36 66 37 67
REMARK SMILES IDX 41 68 44 69 38 70 39 71 42 72 40 73 66 74 67 75 75 76 68 77
REMARK SMILES IDX 69 78 73 79 76 80 70 81 71 82 74 83 72 84 51 85 52 86 60 87
REMARK SMILES IDX 53 88 54 89 58 90 61 91 55 92 56 93 59 94 57 95
REMARK H PARENT 1 23 1 24 15 26 81 48 49 59
REMARK Flexibility Score: inf
ROOT
ATOM      1  C   UNL     1      -0.383 -10.545  -7.109  1.00  0.00     0.275 C 
ENDROOT
BRANCH   1   2
ATOM      2  O   UNL     1       0.537  -9.691  -6.402  1.00  0.00    -0.458 OA
BRANCH   2   3
ATOM      3  C   UNL     1       1.723 -10.240  -6.051  1.00  0.00     0.342 C 
ATOM      4  O   UNL     1       2.073 -11.398  -6.237  1.00  0.00    -0.246 OA
BRANCH   3   5
ATOM      5  C   UNL     1       2.648  -9.232  -5.479  1.00  0.00     0.104 A 
ATOM      6  C   UNL     1       3.092  -7.044  -4.520  1.00  0.00     0.087 A 
ATOM      7  C   UNL     1       4.463  -7.327  -4.523  1.00  0.00     0.034 A 
ATOM      8  C   UNL     1       2.190  -7.987  -5.032  1.00  0.00     0.049 A 
ATOM      9  C   UNL     1       4.927  -8.568  -4.955  1.00  0.00     0.049 A 
ATOM     10  C   UNL     1       4.019  -9.525  -5.400  1.00  0.00     0.130 A 
BRANCH   6  11
ATOM     11  N   UNL     1       2.626  -5.840  -3.962  1.00  0.00    -0.151 NA
ATOM     12  N   UNL     1       2.316  -6.066  -2.772  1.00  0.00    -0.151 NA
BRANCH  12  13
ATOM     13  C   UNL     1       1.880  -4.929  -2.071  1.00  0.00     0.086 A 
ATOM     14  C   UNL     1       1.064  -2.800  -0.437  1.00  0.00     0.082 A 
ATOM     15  C   UNL     1       0.487  -4.061  -0.273  1.00  0.00     0.024 A 
ATOM     16  C   UNL     1       2.030  -2.585  -1.422  1.00  0.00     0.024 A 
ATOM     17  C   UNL     1       0.902  -5.117  -1.085  1.00  0.00     0.031 A 
ATOM     18  C   UNL     1       2.437  -3.651  -2.232  1.00  0.00     0.031 A 
BRANCH  14  19
ATOM     19  S   UNL     1       0.541  -1.509   0.650  1.00  0.00     0.238 S 
ATOM     20  O   UNL     1       1.207  -1.694   1.919  1.00  0.00    -0.207 OA
ATOM     21  O   UNL     1      -0.888  -1.363   0.530  1.00  0.00    -0.207 OA
BRANCH  19  22
ATOM     22  N   UNL     1       1.190  -0.103  -0.003  1.00  0.00    -0.225 NA
ATOM     23  H   UNL     1       0.928   0.694   0.577  1.00  0.00     0.137 HD
ATOM     24  H   UNL     1       0.830   0.030  -0.948  1.00  0.00     0.137 HD
ENDBRANCH  19  22
ENDBRANCH  14  19
ENDBRANCH  12  13
ENDBRANCH   6  11
BRANCH  10  25
ATOM     25  O   UNL     1       4.557 -10.731  -5.768  1.00  0.00    -0.507 OA
ATOM     26  H   UNL     1       5.480 -10.875  -5.695  1.00  0.00     0.293 HD
ENDBRANCH  10  25
ENDBRANCH   3   5
ENDBRANCH   2   3
ENDBRANCH   1   2
BRANCH   1  27
ATOM     27  C   UNL     1      -0.390 -10.230  -8.608  1.00  0.00     0.275 C 
BRANCH  27  28
ATOM     28  O   UNL     1       0.849 -10.624  -9.229  1.00  0.00    -0.458 OA
BRANCH  28  29
ATOM     29  C   UNL     1       1.768  -9.638  -9.362  1.00  0.00     0.338 C 
ATOM     30  O   UNL     1       1.630  -8.459  -9.084  1.00  0.00    -0.246 OA
BRANCH  29  31
ATOM     31  C   UNL     1       3.069 -10.229  -9.730  1.00  0.00     0.060 A 
ATOM     32  C   UNL     1       4.177  -9.862  -8.962  1.00  0.00     0.016 A 
ATOM     33  C   UNL     1       3.219 -11.114 -10.801  1.00  0.00     0.016 A 
ATOM     34  C   UNL     1       5.429 -10.412  -9.221  1.00  0.00     0.010 A 
ATOM     35  C   UNL     1       4.486 -11.639 -11.088  1.00  0.00     0.010 A 
ATOM     36  C   UNL     1       5.595 -11.295 -10.294  1.00  0.00    -0.014 A 
BRANCH  36  37
ATOM     37  C   UNL     1       6.952 -11.791 -10.620  1.00  0.00     0.031 A 
ATOM     38  C   UNL     1       7.784 -11.056 -11.629  1.00  0.00     0.074 A 
ATOM     39  C   UNL     1       7.454 -12.864  -9.982  1.00  0.00     0.049 A 
ATOM     40  N   UNL     1       8.986 -11.329 -12.070  1.00  0.00    -0.248 NA
ATOM     41  C   UNL     1       7.187  -9.845 -12.213  1.00  0.00     0.031 C 
ATOM     42  C   UNL     1       6.769 -13.619  -8.934  1.00  0.00     0.029 A 
ATOM     43  N   UNL     1       8.661 -13.502 -10.124  1.00  0.00    -0.354 N 
ATOM     44  C   UNL     1       9.287 -10.330 -12.984  1.00  0.00     0.074 A 
ATOM     45  C   UNL     1       8.139  -9.450 -13.046  1.00  0.00     0.031 C 
ATOM     46  C   UNL     1       7.565 -14.625  -8.532  1.00  0.00     0.029 A 
ATOM     47  C   UNL     1       8.799 -14.604  -9.316  1.00  0.00     0.049 A 
ATOM     48  H   UNL     1       9.361 -13.199 -10.746  1.00  0.00     0.167 HD
ATOM     49  C   UNL     1      10.421 -10.163 -13.705  1.00  0.00     0.037 A 
ATOM     50  C   UNL     1       9.799 -15.502  -9.238  1.00  0.00     0.037 A 
ATOM     51  C   UNL     1      11.563 -11.036 -13.642  1.00  0.00     0.049 A 
ATOM     52  C   UNL     1      11.007 -15.344 -10.126  1.00  0.00     0.074 A 
ATOM     53  C   UNL     1      12.765 -10.933 -14.321  1.00  0.00     0.029 A 
ATOM     54  N   UNL     1      11.641 -12.178 -12.860  1.00  0.00    -0.354 N 
ATOM     55  N   UNL     1      11.295 -14.385 -10.971  1.00  0.00    -0.248 NA
ATOM     56  C   UNL     1      12.027 -16.400 -10.051  1.00  0.00     0.031 C 
ATOM     57  C   UNL     1      13.552 -12.040 -13.987  1.00  0.00     0.029 A 
ATOM     58  C   UNL     1      12.858 -12.807 -13.065  1.00  0.00     0.049 A 
ATOM     59  H   UNL     1      10.937 -12.494 -12.249  1.00  0.00     0.167 HD
ATOM     60  C   UNL     1      12.537 -14.704 -11.504  1.00  0.00     0.074 A 
ATOM     61  C   UNL     1      12.955 -15.942 -10.880  1.00  0.00     0.031 C 
ATOM     62  C   UNL     1      13.267 -14.032 -12.427  1.00  0.00     0.037 A 
BRANCH  49  63
ATOM     63  C   UNL     1      10.471  -9.008 -14.657  1.00  0.00     0.064 A 
ATOM     64  C   UNL     1      10.653  -7.692 -14.210  1.00  0.00     0.173 A 
ATOM     65  C   UNL     1      10.386  -9.230 -16.039  1.00  0.00     0.173 A 
ATOM     66  F   UNL     1      10.726  -7.429 -12.896  1.00  0.00    -0.203 F 
ATOM     67  C   UNL     1      10.735  -6.636 -15.114  1.00  0.00     0.198 A 
ATOM     68  C   UNL     1      10.490  -8.176 -16.941  1.00  0.00     0.198 A 
ATOM     69  F   UNL     1      10.215 -10.473 -16.515  1.00  0.00    -0.203 F 
ATOM     70  F   UNL     1      10.878  -5.381 -14.666  1.00  0.00    -0.200 F 
ATOM     71  C   UNL     1      10.661  -6.880 -16.478  1.00  0.00     0.200 A 
ATOM     72  F   UNL     1      10.427  -8.414 -18.259  1.00  0.00    -0.200 F 
ATOM     73  F   UNL     1      10.749  -5.864 -17.347  1.00  0.00    -0.200 F 
ENDBRANCH  49  63
BRANCH  50  74
ATOM     74  C   UNL     1       9.701 -16.655  -8.306  1.00  0.00     0.064 A 
ATOM     75  C   UNL     1      10.564 -16.772  -7.207  1.00  0.00     0.173 A 
ATOM     76  C   UNL     1       8.780 -17.690  -8.525  1.00  0.00     0.173 A 
ATOM     77  F   UNL     1      11.484 -15.824  -6.975  1.00  0.00    -0.203 F 
ATOM     78  C   UNL     1      10.524 -17.890  -6.376  1.00  0.00     0.198 A 
ATOM     79  C   UNL     1       8.723 -18.794  -7.678  1.00  0.00     0.198 A 
ATOM     80  F   UNL     1       7.940 -17.632  -9.569  1.00  0.00    -0.203 F 
ATOM     81  F   UNL     1      11.398 -18.004  -5.367  1.00  0.00    -0.200 F 
ATOM     82  C   UNL     1       9.601 -18.898  -6.610  1.00  0.00     0.200 A 
ATOM     83  F   UNL     1       7.827 -19.765  -7.906  1.00  0.00    -0.200 F 
ATOM     84  F   UNL     1       9.569 -19.978  -5.817  1.00  0.00    -0.200 F 
ENDBRANCH  50  74
BRANCH  62  85
ATOM     85  C   UNL     1      14.609 -14.596 -12.791  1.00  0.00     0.064 A 
ATOM     86  C   UNL     1      14.732 -15.744 -13.587  1.00  0.00     0.173 A 
ATOM     87  C   UNL     1      15.785 -13.953 -12.376  1.00  0.00     0.173 A 
ATOM     88  F   UNL     1      13.637 -16.402 -13.995  1.00  0.00    -0.203 F 
ATOM     89  C   UNL     1      15.985 -16.240 -13.937  1.00  0.00     0.198 A 
ATOM     90  C   UNL     1      17.036 -14.437 -12.751  1.00  0.00     0.198 A 
ATOM     91  F   UNL     1      15.722 -12.848 -11.619  1.00  0.00    -0.203 F 
ATOM     92  F   UNL     1      16.080 -17.362 -14.663  1.00  0.00    -0.200 F 
ATOM     93  C   UNL     1      17.135 -15.582 -13.525  1.00  0.00     0.200 A 
ATOM     94  F   UNL     1      18.145 -13.793 -12.363  1.00  0.00    -0.200 F 
ATOM     95  F   UNL     1      18.340 -16.057 -13.870  1.00  0.00    -0.200 F 
ENDBRANCH  62  85
ENDBRANCH  36  37
ENDBRANCH  29  31
ENDBRANCH  28  29
ENDBRANCH  27  28
ENDBRANCH   1  27
TORSDOF 16
