REMARK SMILES Cc1cc2cc(-c3ccc([C@@H](C)C(=O)OCCOC(=O)c4ccc(-c5c6nc(c(-c7c(F)c(F)c(F)c(F)c7F)c7ccc([nH]7)c(-c7c(F)c(F)c(F)c(F)c7F)c7nc(c(-c8c(F)c(F)c(F)c(F)c8F)c8ccc5[nH]8)C=C7)C=C6)cc4)cc3)ccc2[nH]1
REMARK SMILES IDX 16 1 15 2 13 3 14 4 11 5 12 6 10 7 7 8 8 9 85 10 9 11 84 12
REMARK SMILES IDX 6 13 1 14 2 15 3 16 89 17 4 18 88 19 5 21 87 22 86 23 17 24
REMARK SMILES IDX 18 25 19 26 20 27 21 28 22 29 83 30 23 31 82 32 24 33 25 34
REMARK SMILES IDX 26 35 76 36 27 37 81 38 75 39 77 40 28 41 80 42 74 43 73 44
REMARK SMILES IDX 29 46 61 47 41 48 60 49 42 50 45 51 59 52 78 53 43 54 44 55
REMARK SMILES IDX 58 57 79 58 46 59 30 60 31 61 39 62 32 63 33 64 37 65 40 66
REMARK SMILES IDX 34 67 35 68 38 69 36 70 62 71 63 72 71 73 64 74 65 75 69 76
REMARK SMILES IDX 72 77 66 78 67 79 70 80 68 81 47 82 48 83 56 84 49 85 50 86
REMARK SMILES IDX 54 87 57 88 51 89 52 90 55 91 53 92
REMARK H PARENT 89 20 77 45 45 56
REMARK Flexibility Score: inf
ROOT
ATOM      1  C   UNL     1       8.483  -3.372  -3.631  1.00  0.00     0.274 C 
ENDROOT
BRANCH   1   2
ATOM      2  O   UNL     1       7.598  -3.646  -2.528  1.00  0.00    -0.462 OA
BRANCH   2   3
ATOM      3  C   UNL     1       8.169  -4.057  -1.366  1.00  0.00     0.313 C 
ATOM      4  O   UNL     1       9.369  -4.273  -1.223  1.00  0.00    -0.252 OA
BRANCH   3   5
ATOM      5  C   UNL     1       7.166  -4.285  -0.241  1.00  0.00     0.126 C 
ATOM      6  C   UNL     1       6.769  -5.760  -0.190  1.00  0.00     0.025 C 
BRANCH   5   7
ATOM      7  C   UNL     1       5.961  -3.358  -0.233  1.00  0.00    -0.034 A 
ATOM      8  C   UNL     1       3.681  -1.668  -0.137  1.00  0.00    -0.018 A 
ATOM      9  C   UNL     1       3.831  -2.630  -1.148  1.00  0.00     0.009 A 
ATOM     10  C   UNL     1       4.706  -1.542   0.808  1.00  0.00     0.009 A 
ATOM     11  C   UNL     1       4.949  -3.465  -1.194  1.00  0.00     0.005 A 
ATOM     12  C   UNL     1       5.828  -2.378   0.764  1.00  0.00     0.005 A 
BRANCH   8  13
ATOM     13  C   UNL     1       2.451  -0.866  -0.058  1.00  0.00    -0.018 A 
ATOM     14  C   UNL     1      -3.570   0.242   0.041  1.00  0.00     0.064 C 
ATOM     15  C   UNL     1      -2.103   0.031   0.043  1.00  0.00     0.013 A 
ATOM     16  C   UNL     1      -1.365  -1.133   0.041  1.00  0.00     0.031 A 
ATOM     17  N   UNL     1      -1.213   1.079   0.043  1.00  0.00    -0.359 N 
ATOM     18  C   UNL     1       0.009  -0.779   0.018  1.00  0.00     0.000 A 
ATOM     19  C   UNL     1       0.082   0.611   0.023  1.00  0.00     0.046 A 
ATOM     20  H   UNL     1      -1.466   2.030   0.055  1.00  0.00     0.166 HD
ATOM     21  C   UNL     1       1.204  -1.519  -0.014  1.00  0.00     0.019 A 
ATOM     22  C   UNL     1       1.301   1.299   0.003  1.00  0.00     0.027 A 
ATOM     23  C   UNL     1       2.478   0.536  -0.038  1.00  0.00     0.011 A 
ENDBRANCH   8  13
ENDBRANCH   5   7
ENDBRANCH   3   5
ENDBRANCH   2   3
ENDBRANCH   1   2
BRANCH   1  24
ATOM     24  C   UNL     1       8.763  -1.874  -3.757  1.00  0.00     0.275 C 
BRANCH  24  25
ATOM     25  O   UNL     1       9.578  -1.409  -2.665  1.00  0.00    -0.458 OA
BRANCH  25  26
ATOM     26  C   UNL     1       8.905  -0.789  -1.670  1.00  0.00     0.338 C 
ATOM     27  O   UNL     1       7.719  -0.520  -1.624  1.00  0.00    -0.246 OA
BRANCH  26  28
ATOM     28  C   UNL     1       9.813  -0.555  -0.539  1.00  0.00     0.060 A 
ATOM     29  C   UNL     1       9.602  -1.283   0.633  1.00  0.00     0.016 A 
ATOM     30  C   UNL     1      10.791   0.438  -0.594  1.00  0.00     0.016 A 
ATOM     31  C   UNL     1      10.351  -1.006   1.772  1.00  0.00     0.010 A 
ATOM     32  C   UNL     1      11.550   0.711   0.548  1.00  0.00     0.010 A 
ATOM     33  C   UNL     1      11.319   0.005   1.742  1.00  0.00    -0.014 A 
BRANCH  33  34
ATOM     34  C   UNL     1      12.031   0.366   2.990  1.00  0.00     0.031 A 
ATOM     35  C   UNL     1      11.644   1.613   3.732  1.00  0.00     0.074 A 
ATOM     36  C   UNL     1      12.993  -0.440   3.473  1.00  0.00     0.049 A 
ATOM     37  N   UNL     1      12.170   2.131   4.812  1.00  0.00    -0.248 NA
ATOM     38  C   UNL     1      10.514   2.378   3.184  1.00  0.00     0.031 C 
ATOM     39  C   UNL     1      13.424  -1.696   2.862  1.00  0.00     0.029 A 
ATOM     40  N   UNL     1      13.778  -0.320   4.591  1.00  0.00    -0.354 N 
ATOM     41  C   UNL     1      11.450   3.291   5.063  1.00  0.00     0.074 A 
ATOM     42  C   UNL     1      10.458   3.409   4.015  1.00  0.00     0.031 C 
ATOM     43  C   UNL     1      14.397  -2.235   3.615  1.00  0.00     0.029 A 
ATOM     44  C   UNL     1      14.680  -1.344   4.738  1.00  0.00     0.049 A 
ATOM     45  H   UNL     1      13.703   0.428   5.226  1.00  0.00     0.167 HD
ATOM     46  C   UNL     1      11.601   4.174   6.079  1.00  0.00     0.037 A 
ATOM     47  C   UNL     1      15.638  -1.530   5.666  1.00  0.00     0.037 A 
ATOM     48  C   UNL     1      12.577   4.045   7.129  1.00  0.00     0.049 A 
ATOM     49  C   UNL     1      15.806  -0.517   6.765  1.00  0.00     0.074 A 
ATOM     50  C   UNL     1      12.807   4.887   8.204  1.00  0.00     0.029 A 
ATOM     51  N   UNL     1      13.485   3.002   7.237  1.00  0.00    -0.354 N 
ATOM     52  N   UNL     1      15.127   0.581   6.990  1.00  0.00    -0.248 NA
ATOM     53  C   UNL     1      16.877  -0.770   7.740  1.00  0.00     0.031 C 
ATOM     54  C   UNL     1      13.875   4.369   8.945  1.00  0.00     0.029 A 
ATOM     55  C   UNL     1      14.284   3.184   8.354  1.00  0.00     0.049 A 
ATOM     56  H   UNL     1      13.551   2.244   6.612  1.00  0.00     0.167 HD
ATOM     57  C   UNL     1      15.671   1.139   8.138  1.00  0.00     0.074 A 
ATOM     58  C   UNL     1      16.729   0.250   8.573  1.00  0.00     0.031 C 
ATOM     59  C   UNL     1      15.327   2.285   8.774  1.00  0.00     0.037 A 
BRANCH  46  60
ATOM     60  C   UNL     1      10.704   5.375   6.087  1.00  0.00     0.064 A 
ATOM     61  C   UNL     1       9.351   5.281   6.441  1.00  0.00     0.173 A 
ATOM     62  C   UNL     1      11.214   6.641   5.761  1.00  0.00     0.173 A 
ATOM     63  F   UNL     1       8.814   4.090   6.745  1.00  0.00    -0.203 F 
ATOM     64  C   UNL     1       8.534   6.409   6.449  1.00  0.00     0.198 A 
ATOM     65  C   UNL     1      10.401   7.770   5.793  1.00  0.00     0.198 A 
ATOM     66  F   UNL     1      12.503   6.783   5.417  1.00  0.00    -0.203 F 
ATOM     67  F   UNL     1       7.234   6.292   6.752  1.00  0.00    -0.200 F 
ATOM     68  C   UNL     1       9.061   7.653   6.131  1.00  0.00     0.200 A 
ATOM     69  F   UNL     1      10.912   8.972   5.492  1.00  0.00    -0.200 F 
ATOM     70  F   UNL     1       8.274   8.738   6.143  1.00  0.00    -0.200 F 
ENDBRANCH  46  60
BRANCH  47  71
ATOM     71  C   UNL     1      16.518  -2.723   5.588  1.00  0.00     0.064 A 
ATOM     72  C   UNL     1      16.411  -3.761   6.524  1.00  0.00     0.173 A 
ATOM     73  C   UNL     1      17.484  -2.847   4.580  1.00  0.00     0.173 A 
ATOM     74  F   UNL     1      15.518  -3.674   7.521  1.00  0.00    -0.203 F 
ATOM     75  C   UNL     1      17.247  -4.874   6.460  1.00  0.00     0.198 A 
ATOM     76  C   UNL     1      18.303  -3.972   4.503  1.00  0.00     0.198 A 
ATOM     77  F   UNL     1      17.627  -1.879   3.663  1.00  0.00    -0.203 F 
ATOM     78  F   UNL     1      17.152  -5.834   7.390  1.00  0.00    -0.200 F 
ATOM     79  C   UNL     1      18.188  -4.981   5.447  1.00  0.00     0.200 A 
ATOM     80  F   UNL     1      19.205  -4.075   3.518  1.00  0.00    -0.200 F 
ATOM     81  F   UNL     1      18.989  -6.053   5.385  1.00  0.00    -0.200 F 
ENDBRANCH  47  71
BRANCH  59  82
ATOM     82  C   UNL     1      16.083   2.626  10.023  1.00  0.00     0.064 A 
ATOM     83  C   UNL     1      17.399   3.107   9.976  1.00  0.00     0.173 A 
ATOM     84  C   UNL     1      15.472   2.498  11.280  1.00  0.00     0.173 A 
ATOM     85  F   UNL     1      18.030   3.232   8.798  1.00  0.00    -0.203 F 
ATOM     86  C   UNL     1      18.085   3.427  11.144  1.00  0.00     0.198 A 
ATOM     87  C   UNL     1      16.153   2.841  12.444  1.00  0.00     0.198 A 
ATOM     88  F   UNL     1      14.212   2.046  11.376  1.00  0.00    -0.203 F 
ATOM     89  F   UNL     1      19.357   3.845  11.079  1.00  0.00    -0.200 F 
ATOM     90  C   UNL     1      17.460   3.298  12.376  1.00  0.00     0.200 A 
ATOM     91  F   UNL     1      15.545   2.724  13.633  1.00  0.00    -0.200 F 
ATOM     92  F   UNL     1      18.122   3.608  13.500  1.00  0.00    -0.200 F 
ENDBRANCH  59  82
ENDBRANCH  33  34
ENDBRANCH  26  28
ENDBRANCH  25  26
ENDBRANCH  24  25
ENDBRANCH   1  24
TORSDOF 13
