REMARK SMILES Cc1cc(C(=O)N2C[C@@H](C(=O)OCCOC(=O)c3ccc(-c4c5nc(c(-c6c(F)c(F)c(F)c(F)c6F)c6ccc([nH]6)c(-c6c(F)c(F)c(F)c(F)c6F)c6nc(c(-c7c(F)c(F)c(F)c(F)c7F)c7ccc4[nH]7)C=C6)C=C5)cc3)[C@H](C(C)C)C2)cs1
REMARK SMILES IDX 13 1 12 2 10 3 11 4 9 5 7 6 8 7 85 8 81 9 5 10 6 11 4 12
REMARK SMILES IDX 1 13 2 14 3 15 87 16 86 17 82 18 83 19 84 20 14 21 15 22
REMARK SMILES IDX 16 23 17 24 18 25 19 26 80 27 20 28 79 29 21 30 22 31 23 32
REMARK SMILES IDX 73 33 24 34 78 35 72 36 74 37 25 38 77 39 71 40 70 41 26 43
REMARK SMILES IDX 58 44 38 45 57 46 39 47 42 48 56 49 75 50 40 51 41 52 55 54
REMARK SMILES IDX 76 55 43 56 27 57 28 58 36 59 29 60 30 61 34 62 37 63 31 64
REMARK SMILES IDX 32 65 35 66 33 67 59 68 60 69 68 70 61 71 62 72 66 73 69 74
REMARK SMILES IDX 63 75 64 76 67 77 65 78 44 79 45 80 53 81 46 82 47 83 51 84
REMARK SMILES IDX 54 85 48 86 49 87 52 88 50 89
REMARK H PARENT 74 42 42 53
REMARK Flexibility Score: inf
ROOT
ATOM      1  C   UNL     1       0.377  -7.549   2.682  1.00  0.00     0.274 C 
ENDROOT
BRANCH   1   2
ATOM      2  O   UNL     1      -0.221  -6.442   1.964  1.00  0.00    -0.462 OA
BRANCH   2   3
ATOM      3  C   UNL     1       0.233  -6.213   0.705  1.00  0.00     0.311 C 
ATOM      4  O   UNL     1       1.050  -6.919   0.126  1.00  0.00    -0.252 OA
BRANCH   3   5
ATOM      5  C   UNL     1      -0.381  -4.990   0.049  1.00  0.00     0.124 C 
ATOM      6  N   UNL     1      -1.980  -3.324   0.152  1.00  0.00    -0.337 N 
ATOM      7  C   UNL     1      -1.029  -4.002   1.007  1.00  0.00     0.135 C 
ATOM      8  C   UNL     1      -2.617  -4.290  -0.707  1.00  0.00     0.124 C 
ATOM      9  C   UNL     1      -1.496  -5.318  -0.990  1.00  0.00     0.027 C 
BRANCH   6  10
ATOM     10  C   UNL     1      -2.270  -1.982   0.024  1.00  0.00     0.254 C 
ATOM     11  O   UNL     1      -3.377  -1.607  -0.358  1.00  0.00    -0.269 OA
BRANCH  10  12
ATOM     12  C   UNL     1      -1.182  -1.020   0.226  1.00  0.00     0.050 A 
ATOM     13  C   UNL     1       2.456   0.072   0.078  1.00  0.00     0.056 C 
ATOM     14  C   UNL     1       0.980  -0.084   0.211  1.00  0.00     0.002 A 
ATOM     15  C   UNL     1       0.230  -1.230   0.054  1.00  0.00     0.029 A 
ATOM     16  S   UNL     1      -0.007   1.265   0.552  1.00  0.00    -0.148 S 
ATOM     17  C   UNL     1      -1.429   0.320   0.470  1.00  0.00     0.079 A 
ENDBRANCH  10  12
ENDBRANCH   6  10
BRANCH   9  18
ATOM     18  C   UNL     1      -1.026  -5.235  -2.475  1.00  0.00    -0.012 C 
ATOM     19  C   UNL     1       0.259  -6.018  -2.767  1.00  0.00     0.008 C 
ATOM     20  C   UNL     1      -2.149  -5.684  -3.425  1.00  0.00     0.008 C 
ENDBRANCH   9  18
ENDBRANCH   3   5
ENDBRANCH   2   3
ENDBRANCH   1   2
BRANCH   1  21
ATOM     21  C   UNL     1      -0.597  -8.724   2.771  1.00  0.00     0.275 C 
BRANCH  21  22
ATOM     22  O   UNL     1      -0.756  -9.275   1.455  1.00  0.00    -0.458 OA
BRANCH  22  23
ATOM     23  C   UNL     1      -1.983  -9.751   1.142  1.00  0.00     0.338 C 
ATOM     24  O   UNL     1      -2.941  -9.876   1.880  1.00  0.00    -0.246 OA
BRANCH  23  25
ATOM     25  C   UNL     1      -2.017 -10.034  -0.309  1.00  0.00     0.060 A 
ATOM     26  C   UNL     1      -1.498  -9.085  -1.183  1.00  0.00     0.016 A 
ATOM     27  C   UNL     1      -2.660 -11.161  -0.821  1.00  0.00     0.016 A 
ATOM     28  C   UNL     1      -1.710  -9.202  -2.551  1.00  0.00     0.010 A 
ATOM     29  C   UNL     1      -2.789 -11.319  -2.212  1.00  0.00     0.010 A 
ATOM     30  C   UNL     1      -2.362 -10.311  -3.094  1.00  0.00    -0.014 A 
BRANCH  30  31
ATOM     31  C   UNL     1      -2.690 -10.302  -4.552  1.00  0.00     0.031 A 
ATOM     32  C   UNL     1      -4.130 -10.336  -4.996  1.00  0.00     0.074 A 
ATOM     33  C   UNL     1      -1.735 -10.112  -5.486  1.00  0.00     0.049 A 
ATOM     34  N   UNL     1      -4.627 -10.410  -6.207  1.00  0.00    -0.248 NA
ATOM     35  C   UNL     1      -5.148 -10.268  -3.937  1.00  0.00     0.031 C 
ATOM     36  C   UNL     1      -0.307  -9.939  -5.218  1.00  0.00     0.029 A 
ATOM     37  N   UNL     1      -1.829  -9.983  -6.853  1.00  0.00    -0.354 N 
ATOM     38  C   UNL     1      -6.006 -10.455  -6.050  1.00  0.00     0.074 A 
ATOM     39  C   UNL     1      -6.270 -10.399  -4.628  1.00  0.00     0.031 C 
ATOM     40  C   UNL     1       0.328  -9.663  -6.367  1.00  0.00     0.029 A 
ATOM     41  C   UNL     1      -0.626  -9.739  -7.470  1.00  0.00     0.049 A 
ATOM     42  H   UNL     1      -2.679 -10.060  -7.343  1.00  0.00     0.167 HD
ATOM     43  C   UNL     1      -6.968 -10.538  -7.000  1.00  0.00     0.037 A 
ATOM     44  C   UNL     1      -0.311  -9.626  -8.776  1.00  0.00     0.037 A 
ATOM     45  C   UNL     1      -6.723 -10.543  -8.418  1.00  0.00     0.049 A 
ATOM     46  C   UNL     1      -1.385  -9.786  -9.817  1.00  0.00     0.074 A 
ATOM     47  C   UNL     1      -7.634 -10.678  -9.452  1.00  0.00     0.029 A 
ATOM     48  N   UNL     1      -5.477 -10.380  -9.003  1.00  0.00    -0.354 N 
ATOM     49  N   UNL     1      -2.675  -9.952  -9.657  1.00  0.00    -0.248 NA
ATOM     50  C   UNL     1      -0.954  -9.768 -11.223  1.00  0.00     0.031 C 
ATOM     51  C   UNL     1      -6.934 -10.632 -10.663  1.00  0.00     0.029 A 
ATOM     52  C   UNL     1      -5.593 -10.421 -10.384  1.00  0.00     0.049 A 
ATOM     53  H   UNL     1      -4.634 -10.254  -8.510  1.00  0.00     0.167 HD
ATOM     54  C   UNL     1      -3.208 -10.055 -10.935  1.00  0.00     0.074 A 
ATOM     55  C   UNL     1      -2.107  -9.904 -11.862  1.00  0.00     0.031 C 
ATOM     56  C   UNL     1      -4.495 -10.268 -11.303  1.00  0.00     0.037 A 
BRANCH  43  57
ATOM     57  C   UNL     1      -8.381 -10.700  -6.521  1.00  0.00     0.064 A 
ATOM     58  C   UNL     1      -9.102  -9.642  -5.949  1.00  0.00     0.173 A 
ATOM     59  C   UNL     1      -9.016 -11.947  -6.630  1.00  0.00     0.173 A 
ATOM     60  F   UNL     1      -8.530  -8.438  -5.803  1.00  0.00    -0.203 F 
ATOM     61  C   UNL     1     -10.395  -9.837  -5.470  1.00  0.00     0.198 A 
ATOM     62  C   UNL     1     -10.318 -12.130  -6.176  1.00  0.00     0.198 A 
ATOM     63  F   UNL     1      -8.369 -12.990  -7.173  1.00  0.00    -0.203 F 
ATOM     64  F   UNL     1     -11.044  -8.829  -4.871  1.00  0.00    -0.200 F 
ATOM     65  C   UNL     1     -11.003 -11.079  -5.587  1.00  0.00     0.200 A 
ATOM     66  F   UNL     1     -10.906 -13.329  -6.298  1.00  0.00    -0.200 F 
ATOM     67  F   UNL     1     -12.245 -11.266  -5.120  1.00  0.00    -0.200 F 
ENDBRANCH  43  57
BRANCH  44  68
ATOM     68  C   UNL     1       1.104  -9.403  -9.179  1.00  0.00     0.064 A 
ATOM     69  C   UNL     1       1.507  -8.210  -9.794  1.00  0.00     0.173 A 
ATOM     70  C   UNL     1       2.080 -10.389  -8.966  1.00  0.00     0.173 A 
ATOM     71  F   UNL     1       0.606  -7.250 -10.049  1.00  0.00    -0.203 F 
ATOM     72  C   UNL     1       2.830  -8.014 -10.185  1.00  0.00     0.198 A 
ATOM     73  C   UNL     1       3.408 -10.179  -9.327  1.00  0.00     0.198 A 
ATOM     74  F   UNL     1       1.745 -11.553  -8.390  1.00  0.00    -0.203 F 
ATOM     75  F   UNL     1       3.182  -6.882 -10.810  1.00  0.00    -0.200 F 
ATOM     76  C   UNL     1       3.781  -8.995  -9.943  1.00  0.00     0.200 A 
ATOM     77  F   UNL     1       4.324 -11.124  -9.079  1.00  0.00    -0.200 F 
ATOM     78  F   UNL     1       5.055  -8.802 -10.310  1.00  0.00    -0.200 F 
ENDBRANCH  44  68
BRANCH  56  79
ATOM     79  C   UNL     1      -4.793 -10.329 -12.773  1.00  0.00     0.064 A 
ATOM     80  C   UNL     1      -4.417 -11.433 -13.553  1.00  0.00     0.173 A 
ATOM     81  C   UNL     1      -5.499  -9.291 -13.400  1.00  0.00     0.173 A 
ATOM     82  F   UNL     1      -3.727 -12.444 -13.003  1.00  0.00    -0.203 F 
ATOM     83  C   UNL     1      -4.716 -11.485 -14.912  1.00  0.00     0.198 A 
ATOM     84  C   UNL     1      -5.819  -9.358 -14.754  1.00  0.00     0.198 A 
ATOM     85  F   UNL     1      -5.886  -8.216 -12.698  1.00  0.00    -0.203 F 
ATOM     86  F   UNL     1      -4.310 -12.529 -15.646  1.00  0.00    -0.200 F 
ATOM     87  C   UNL     1      -5.423 -10.451 -15.509  1.00  0.00     0.200 A 
ATOM     88  F   UNL     1      -6.511  -8.364 -15.327  1.00  0.00    -0.200 F 
ATOM     89  F   UNL     1      -5.715 -10.506 -16.816  1.00  0.00    -0.200 F 
ENDBRANCH  56  79
ENDBRANCH  30  31
ENDBRANCH  23  25
ENDBRANCH  22  23
ENDBRANCH  21  22
ENDBRANCH   1  21
TORSDOF 14
