REMARK SMILES C[C@@H]1CC[C@H](C)[N@H+]1Cc1cc2c(cc1Cl)C=C(C(=O)OCCOC(=O)c1ccc(-c3c4nc(c(-c5c(F)c(F)c(F)c(F)c5F)c5ccc([nH]5)c(-c5c(F)c(F)c(F)c(F)c5F)c5nc(c(-c6c(F)c(F)c(F)c(F)c6F)c6ccc3[nH]6)C=C5)C=C4)cc1)[C@@H](C(F)(F)F)O2
REMARK SMILES IDX 21 1 20 2 18 3 19 4 17 5 9 6 10 7 14 8 11 9 13 10 15 11
REMARK SMILES IDX 12 12 94 13 16 14 89 15 8 16 7 17 6 18 5 19 4 20 3 21 2 22
REMARK SMILES IDX 1 24 90 25 91 26 92 27 93 28 22 29 23 30 24 31 25 32 26 33
REMARK SMILES IDX 27 34 88 35 28 36 87 37 29 38 30 39 31 40 81 41 32 42 86 43
REMARK SMILES IDX 80 44 82 45 33 46 85 47 79 48 78 49 34 51 66 52 46 53 65 54
REMARK SMILES IDX 47 55 50 56 64 57 83 58 48 59 49 60 63 62 84 63 51 64 35 65
REMARK SMILES IDX 36 66 44 67 37 68 38 69 42 70 45 71 39 72 40 73 43 74 41 75
REMARK SMILES IDX 67 76 68 77 76 78 69 79 70 80 74 81 77 82 71 83 72 84 75 85
REMARK SMILES IDX 73 86 52 87 53 88 61 89 54 90 55 91 59 92 62 93 56 94 57 95
REMARK SMILES IDX 60 96 58 97
REMARK H PARENT 7 23 82 50 50 61
REMARK Flexibility Score: inf
ROOT
ATOM      1  C   UNL     1      -1.087   1.324 -10.884  1.00  0.00     0.275 C 
ENDROOT
BRANCH   1   2
ATOM      2  O   UNL     1      -0.477   1.191  -9.579  1.00  0.00    -0.459 OA
BRANCH   2   3
ATOM      3  C   UNL     1       0.091   2.325  -9.093  1.00  0.00     0.338 C 
ATOM      4  O   UNL     1       0.118   3.407  -9.642  1.00  0.00    -0.246 OA
BRANCH   3   5
ATOM      5  C   UNL     1       0.606   2.115  -7.720  1.00  0.00     0.087 C 
ATOM      6  C   UNL     1       1.898   2.793  -2.881  1.00  0.00     0.029 A 
ATOM      7  C   UNL     1       1.909   1.683  -3.764  1.00  0.00     0.058 A 
ATOM      8  C   UNL     1       1.511   4.038  -3.404  1.00  0.00     0.050 A 
ATOM      9  C   UNL     1       1.494   1.804  -5.096  1.00  0.00     0.128 A 
ATOM     10  C   UNL     1       1.022   4.139  -4.705  1.00  0.00     0.033 A 
ATOM     11  Cl  UNL     1       1.705   5.535  -2.562  1.00  0.00    -0.084 Cl
ATOM     12  C   UNL     1       1.018   3.029  -5.547  1.00  0.00     0.019 A 
ATOM     13  O   UNL     1       1.545   0.691  -5.893  1.00  0.00    -0.475 OA
ATOM     14  C   UNL     1       0.517   3.164  -6.896  1.00  0.00     0.027 C 
ATOM     15  C   UNL     1       1.333   0.858  -7.332  1.00  0.00     0.316 C 
BRANCH   6  16
ATOM     16  C   UNL     1       2.312   2.600  -1.429  1.00  0.00     0.301 C 
BRANCH  16  17
ATOM     17  N   UNL     1       1.252   2.298  -0.455  1.00  0.00    -0.327 N 
ATOM     18  C   UNL     1       1.140  -0.119   0.043  1.00  0.00     0.075 C 
ATOM     19  C   UNL     1       0.492   1.060  -0.670  1.00  0.00     0.181 C 
ATOM     20  C   UNL     1      -0.903   1.351  -0.118  1.00  0.00     0.071 C 
ATOM     21  C   UNL     1      -1.065   2.833  -0.381  1.00  0.00     0.071 C 
ATOM     22  C   UNL     1       0.330   3.390  -0.124  1.00  0.00     0.181 C 
ATOM     23  H   UNL     1       1.847   2.148   0.360  1.00  0.00     0.348 HD
ATOM     24  C   UNL     1       0.529   3.796   1.337  1.00  0.00     0.075 C 
ENDBRANCH  16  17
ENDBRANCH   6  16
BRANCH  15  25
ATOM     25  C   UNL     1       2.679   0.810  -8.078  1.00  0.00     0.430 C 
ATOM     26  F   UNL     1       3.400  -0.285  -7.749  1.00  0.00    -0.167 F 
ATOM     27  F   UNL     1       2.491   0.766  -9.421  1.00  0.00    -0.167 F 
ATOM     28  F   UNL     1       3.444   1.896  -7.819  1.00  0.00    -0.167 F 
ENDBRANCH  15  25
ENDBRANCH   3   5
ENDBRANCH   2   3
ENDBRANCH   1   2
BRANCH   1  29
ATOM     29  C   UNL     1      -2.614   1.355 -10.795  1.00  0.00     0.275 C 
BRANCH  29  30
ATOM     30  O   UNL     1      -3.049   2.537 -10.095  1.00  0.00    -0.458 OA
BRANCH  30  31
ATOM     31  C   UNL     1      -3.695   2.324  -8.927  1.00  0.00     0.338 C 
ATOM     32  O   UNL     1      -3.987   1.254  -8.418  1.00  0.00    -0.246 OA
BRANCH  31  33
ATOM     33  C   UNL     1      -3.905   3.607  -8.240  1.00  0.00     0.060 A 
ATOM     34  C   UNL     1      -5.168   4.154  -8.062  1.00  0.00     0.016 A 
ATOM     35  C   UNL     1      -2.808   4.178  -7.606  1.00  0.00     0.016 A 
ATOM     36  C   UNL     1      -5.308   5.295  -7.258  1.00  0.00     0.010 A 
ATOM     37  C   UNL     1      -2.962   5.240  -6.719  1.00  0.00     0.010 A 
ATOM     38  C   UNL     1      -4.214   5.835  -6.542  1.00  0.00    -0.014 A 
BRANCH  38  39
ATOM     39  C   UNL     1      -4.405   6.966  -5.582  1.00  0.00     0.031 A 
ATOM     40  C   UNL     1      -3.615   8.251  -5.680  1.00  0.00     0.074 A 
ATOM     41  C   UNL     1      -5.295   6.829  -4.576  1.00  0.00     0.049 A 
ATOM     42  N   UNL     1      -3.772   9.367  -5.007  1.00  0.00    -0.248 NA
ATOM     43  C   UNL     1      -2.476   8.284  -6.611  1.00  0.00     0.031 C 
ATOM     44  C   UNL     1      -6.019   5.597  -4.256  1.00  0.00     0.029 A 
ATOM     45  N   UNL     1      -5.772   7.737  -3.660  1.00  0.00    -0.354 N 
ATOM     46  C   UNL     1      -2.758  10.217  -5.430  1.00  0.00     0.074 A 
ATOM     47  C   UNL     1      -1.934   9.463  -6.346  1.00  0.00     0.031 C 
ATOM     48  C   UNL     1      -6.925   5.854  -3.302  1.00  0.00     0.029 A 
ATOM     49  C   UNL     1      -6.826   7.259  -2.917  1.00  0.00     0.049 A 
ATOM     50  H   UNL     1      -5.396   8.640  -3.547  1.00  0.00     0.167 HD
ATOM     51  C   UNL     1      -2.559  11.524  -5.131  1.00  0.00     0.037 A 
ATOM     52  C   UNL     1      -7.653   7.888  -2.058  1.00  0.00     0.037 A 
ATOM     53  C   UNL     1      -3.406  12.292  -4.258  1.00  0.00     0.049 A 
ATOM     54  C   UNL     1      -7.468   9.356  -1.793  1.00  0.00     0.074 A 
ATOM     55  C   UNL     1      -3.343  13.643  -3.963  1.00  0.00     0.029 A 
ATOM     56  N   UNL     1      -4.476  11.775  -3.546  1.00  0.00    -0.354 N 
ATOM     57  N   UNL     1      -6.586  10.180  -2.302  1.00  0.00    -0.248 NA
ATOM     58  C   UNL     1      -8.397   9.983  -0.841  1.00  0.00     0.031 C 
ATOM     59  C   UNL     1      -4.354  13.936  -3.044  1.00  0.00     0.029 A 
ATOM     60  C   UNL     1      -5.075  12.778  -2.802  1.00  0.00     0.049 A 
ATOM     61  H   UNL     1      -4.768  10.835  -3.565  1.00  0.00     0.167 HD
ATOM     62  C   UNL     1      -6.864  11.424  -1.751  1.00  0.00     0.074 A 
ATOM     63  C   UNL     1      -8.007  11.251  -0.879  1.00  0.00     0.031 C 
ATOM     64  C   UNL     1      -6.223  12.600  -1.951  1.00  0.00     0.037 A 
BRANCH  51  65
ATOM     65  C   UNL     1      -1.415  12.235  -5.802  1.00  0.00     0.064 A 
ATOM     66  C   UNL     1      -1.433  12.495  -7.182  1.00  0.00     0.173 A 
ATOM     67  C   UNL     1      -0.331  12.726  -5.059  1.00  0.00     0.173 A 
ATOM     68  F   UNL     1      -2.446  12.050  -7.940  1.00  0.00    -0.203 F 
ATOM     69  C   UNL     1      -0.396  13.191  -7.797  1.00  0.00     0.198 A 
ATOM     70  C   UNL     1       0.689  13.451  -5.673  1.00  0.00     0.198 A 
ATOM     71  F   UNL     1      -0.270  12.523  -3.735  1.00  0.00    -0.203 F 
ATOM     72  F   UNL     1      -0.416  13.386  -9.123  1.00  0.00    -0.200 F 
ATOM     73  C   UNL     1       0.660  13.676  -7.041  1.00  0.00     0.200 A 
ATOM     74  F   UNL     1       1.699  13.939  -4.938  1.00  0.00    -0.200 F 
ATOM     75  F   UNL     1       1.649  14.360  -7.632  1.00  0.00    -0.200 F 
ENDBRANCH  51  65
BRANCH  52  76
ATOM     76  C   UNL     1      -8.805   7.145  -1.481  1.00  0.00     0.064 A 
ATOM     77  C   UNL     1     -10.110   7.407  -1.923  1.00  0.00     0.173 A 
ATOM     78  C   UNL     1      -8.629   6.132  -0.529  1.00  0.00     0.173 A 
ATOM     79  F   UNL     1     -10.331   8.377  -2.823  1.00  0.00    -0.203 F 
ATOM     80  C   UNL     1     -11.196   6.685  -1.432  1.00  0.00     0.198 A 
ATOM     81  C   UNL     1      -9.713   5.393  -0.057  1.00  0.00     0.198 A 
ATOM     82  F   UNL     1      -7.400   5.836  -0.083  1.00  0.00    -0.203 F 
ATOM     83  F   UNL     1     -12.435   6.972  -1.855  1.00  0.00    -0.200 F 
ATOM     84  C   UNL     1     -10.996   5.673  -0.506  1.00  0.00     0.200 A 
ATOM     85  F   UNL     1      -9.514   4.403   0.823  1.00  0.00    -0.200 F 
ATOM     86  F   UNL     1     -12.037   4.965  -0.048  1.00  0.00    -0.200 F 
ENDBRANCH  52  76
BRANCH  64  87
ATOM     87  C   UNL     1      -6.737  13.814  -1.238  1.00  0.00     0.064 A 
ATOM     88  C   UNL     1      -6.499  14.011   0.129  1.00  0.00     0.173 A 
ATOM     89  C   UNL     1      -7.362  14.846  -1.956  1.00  0.00     0.173 A 
ATOM     90  F   UNL     1      -5.913  13.049   0.858  1.00  0.00    -0.203 F 
ATOM     91  C   UNL     1      -6.868  15.199   0.753  1.00  0.00     0.198 A 
ATOM     92  C   UNL     1      -7.707  16.042  -1.333  1.00  0.00     0.198 A 
ATOM     93  F   UNL     1      -7.602  14.707  -3.268  1.00  0.00    -0.203 F 
ATOM     94  F   UNL     1      -6.644  15.363   2.064  1.00  0.00    -0.200 F 
ATOM     95  C   UNL     1      -7.459  16.218   0.020  1.00  0.00     0.200 A 
ATOM     96  F   UNL     1      -8.263  17.031  -2.047  1.00  0.00    -0.200 F 
ATOM     97  F   UNL     1      -7.786  17.372   0.617  1.00  0.00    -0.200 F 
ENDBRANCH  64  87
ENDBRANCH  38  39
ENDBRANCH  31  33
ENDBRANCH  30  31
ENDBRANCH  29  30
ENDBRANCH   1  29
TORSDOF 14
