REMARK SMILES CC(C)(C)c1ccc(N2C(=O)/C(=C\c3ccc(OCC(=O)OCCOC(=O)c4ccc(-c5c6nc(c(-c7c(F)c(F)c(F)c(F)c7F)c7ccc([nH]7)c(-c7c(F)c(F)c(F)c(F)c7F)c7nc(c(-c8c(F)c(F)c(F)c(F)c8F)c8ccc5[nH]8)C=C7)C=C6)cc4)c(Br)c3)C(=O)[NH+]=C2O)cc1
REMARK SMILES IDX 22 1 20 2 21 3 19 4 18 5 17 6 14 7 15 8 93 9 16 10 91 11
REMARK SMILES IDX 92 12 13 13 9 14 10 15 97 16 11 17 12 18 96 19 94 20 95 22
REMARK SMILES IDX 8 23 5 24 6 25 100 26 7 27 99 28 2 29 1 30 3 31 4 32 98 33
REMARK SMILES IDX 23 35 24 36 25 37 26 38 27 39 28 40 29 41 90 42 30 43 89 44
REMARK SMILES IDX 31 45 32 46 33 47 83 48 34 49 88 50 82 51 84 52 35 53 87 54
REMARK SMILES IDX 81 55 80 56 36 58 68 59 48 60 67 61 49 62 52 63 66 64 85 65
REMARK SMILES IDX 50 66 51 67 65 69 86 70 53 71 37 72 38 73 46 74 39 75 40 76
REMARK SMILES IDX 44 77 47 78 41 79 42 80 45 81 43 82 69 83 70 84 78 85 71 86
REMARK SMILES IDX 72 87 76 88 79 89 73 90 74 91 77 92 75 93 54 94 55 95 63 96
REMARK SMILES IDX 56 97 57 98 61 99 64 100 58 101 59 102 62 103 60 104
REMARK H PARENT 96 21 98 34 84 57 52 68
REMARK Flexibility Score: inf
ROOT
ATOM      1  O   UNL     1       5.563   3.315  -1.470  1.00  0.00    -0.460 OA
ENDROOT
BRANCH   1   2
ATOM      2  C   UNL     1       6.916   3.316  -1.386  1.00  0.00     0.344 C 
ATOM      3  O   UNL     1       7.554   2.563  -0.649  1.00  0.00    -0.248 OA
BRANCH   2   4
ATOM      4  C   UNL     1       7.637   4.362  -2.258  1.00  0.00     0.352 C 
BRANCH   4   5
ATOM      5  O   UNL     1       7.080   5.182  -3.268  1.00  0.00    -0.481 OA
BRANCH   5   6
ATOM      6  C   UNL     1       6.725   4.608  -4.456  1.00  0.00     0.134 A 
ATOM      7  C   UNL     1       5.542   3.398  -6.713  1.00  0.00    -0.023 A 
ATOM      8  C   UNL     1       4.907   4.460  -6.069  1.00  0.00     0.012 A 
ATOM      9  C   UNL     1       6.857   3.088  -6.351  1.00  0.00     0.027 A 
ATOM     10  C   UNL     1       5.482   5.034  -4.932  1.00  0.00     0.048 A 
ATOM     11  C   UNL     1       7.469   3.746  -5.268  1.00  0.00     0.060 A 
ATOM     12  Br  UNL     1       9.359   3.581  -5.152  1.00  0.00    -0.047 Br
BRANCH   7  13
ATOM     13  C   UNL     1       4.847   2.606  -7.740  1.00  0.00     0.032 C 
ATOM     14  N   UNL     1       2.406   0.341  -6.137  1.00  0.00    -0.124 N 
ATOM     15  C   UNL     1       3.198   1.478  -6.213  1.00  0.00     0.357 C 
ATOM     16  C   UNL     1       2.079  -0.318  -7.296  1.00  0.00     0.462 C 
ATOM     17  O   UNL     1       3.357   2.257  -5.278  1.00  0.00    -0.240 OA
ATOM     18  C   UNL     1       3.831   1.733  -7.535  1.00  0.00     0.155 C 
ATOM     19  N   UNL     1       2.474  -0.049  -8.480  1.00  0.00    -0.172 N 
ATOM     20  C   UNL     1       3.346   0.977  -8.719  1.00  0.00     0.349 C 
ATOM     21  H   UNL     1       2.144  -0.589  -9.234  1.00  0.00     0.319 HD
ATOM     22  O   UNL     1       3.722   1.249  -9.849  1.00  0.00    -0.240 OA
BRANCH  14  23
ATOM     23  C   UNL     1       1.877  -0.052  -4.860  1.00  0.00     0.140 A 
ATOM     24  C   UNL     1       0.984  -0.768  -2.237  1.00  0.00    -0.042 A 
ATOM     25  C   UNL     1       1.487  -1.729  -3.131  1.00  0.00     0.008 A 
ATOM     26  C   UNL     1       0.898   0.550  -2.708  1.00  0.00     0.008 A 
ATOM     27  C   UNL     1       1.919  -1.381  -4.424  1.00  0.00     0.053 A 
ATOM     28  C   UNL     1       1.346   0.901  -3.985  1.00  0.00     0.053 A 
BRANCH  24  29
ATOM     29  C   UNL     1       0.485  -1.115  -0.823  1.00  0.00    -0.013 C 
ATOM     30  C   UNL     1       0.962  -0.082   0.226  1.00  0.00     0.016 C 
ATOM     31  C   UNL     1       0.969  -2.495  -0.325  1.00  0.00     0.016 C 
ATOM     32  C   UNL     1      -1.056  -1.119  -0.843  1.00  0.00     0.016 C 
ENDBRANCH  24  29
ENDBRANCH  14  23
BRANCH  16  33
ATOM     33  O   UNL     1       1.188  -1.323  -7.199  1.00  0.00    -0.446 OA
ATOM     34  H   UNL     1       0.855  -1.575  -6.361  1.00  0.00     0.301 HD
ENDBRANCH  16  33
ENDBRANCH   7  13
ENDBRANCH   5   6
ENDBRANCH   4   5
ENDBRANCH   2   4
ENDBRANCH   1   2
BRANCH   1  35
ATOM     35  C   UNL     1       4.890   2.291  -0.695  1.00  0.00     0.274 C 
BRANCH  35  36
ATOM     36  C   UNL     1       4.475   1.087  -1.550  1.00  0.00     0.275 C 
BRANCH  36  37
ATOM     37  O   UNL     1       5.608   0.315  -1.996  1.00  0.00    -0.458 OA
BRANCH  37  38
ATOM     38  C   UNL     1       6.094   0.744  -3.175  1.00  0.00     0.338 C 
ATOM     39  O   UNL     1       5.686   1.675  -3.844  1.00  0.00    -0.246 OA
BRANCH  38  40
ATOM     40  C   UNL     1       7.301   0.044  -3.598  1.00  0.00     0.060 A 
ATOM     41  C   UNL     1       8.517   0.637  -3.280  1.00  0.00     0.016 A 
ATOM     42  C   UNL     1       7.226  -0.959  -4.566  1.00  0.00     0.016 A 
ATOM     43  C   UNL     1       9.652   0.286  -3.993  1.00  0.00     0.010 A 
ATOM     44  C   UNL     1       8.395  -1.379  -5.212  1.00  0.00     0.010 A 
ATOM     45  C   UNL     1       9.619  -0.740  -4.952  1.00  0.00    -0.014 A 
BRANCH  45  46
ATOM     46  C   UNL     1      10.890  -1.138  -5.617  1.00  0.00     0.031 A 
ATOM     47  C   UNL     1      11.070  -1.071  -7.109  1.00  0.00     0.074 A 
ATOM     48  C   UNL     1      11.921  -1.524  -4.839  1.00  0.00     0.049 A 
ATOM     49  N   UNL     1      12.104  -1.431  -7.832  1.00  0.00    -0.248 NA
ATOM     50  C   UNL     1       9.945  -0.548  -7.897  1.00  0.00     0.031 C 
ATOM     51  C   UNL     1      11.881  -1.613  -3.377  1.00  0.00     0.029 A 
ATOM     52  N   UNL     1      13.205  -1.885  -5.155  1.00  0.00    -0.354 N 
ATOM     53  C   UNL     1      11.743  -1.215  -9.157  1.00  0.00     0.074 A 
ATOM     54  C   UNL     1      10.386  -0.708  -9.139  1.00  0.00     0.031 C 
ATOM     55  C   UNL     1      13.099  -1.924  -2.920  1.00  0.00     0.029 A 
ATOM     56  C   UNL     1      13.976  -2.172  -4.056  1.00  0.00     0.049 A 
ATOM     57  H   UNL     1      13.542  -1.933  -6.079  1.00  0.00     0.167 HD
ATOM     58  C   UNL     1      12.478  -1.426 -10.279  1.00  0.00     0.037 A 
ATOM     59  C   UNL     1      15.238  -2.625  -3.961  1.00  0.00     0.037 A 
ATOM     60  C   UNL     1      13.841  -1.906 -10.282  1.00  0.00     0.049 A 
ATOM     61  C   UNL     1      16.011  -2.886  -5.217  1.00  0.00     0.074 A 
ATOM     62  C   UNL     1      14.678  -2.125 -11.364  1.00  0.00     0.029 A 
ATOM     63  N   UNL     1      14.569  -2.243  -9.148  1.00  0.00    -0.354 N 
ATOM     64  N   UNL     1      15.652  -2.700  -6.463  1.00  0.00    -0.248 NA
ATOM     65  C   UNL     1      17.362  -3.433  -5.051  1.00  0.00     0.031 C 
ATOM     66  C   UNL     1      15.884  -2.654 -10.891  1.00  0.00     0.029 A 
ATOM     67  C   UNL     1      15.832  -2.697  -9.508  1.00  0.00     0.049 A 
ATOM     68  H   UNL     1      14.239  -2.171  -8.223  1.00  0.00     0.167 HD
ATOM     69  C   UNL     1      16.737  -3.091  -7.233  1.00  0.00     0.074 A 
ATOM     70  C   UNL     1      17.777  -3.497  -6.308  1.00  0.00     0.031 C 
ATOM     71  C   UNL     1      16.857  -3.114  -8.583  1.00  0.00     0.037 A 
BRANCH  58  72
ATOM     72  C   UNL     1      11.814  -1.182 -11.609  1.00  0.00     0.064 A 
ATOM     73  C   UNL     1      11.466   0.103 -12.050  1.00  0.00     0.173 A 
ATOM     74  C   UNL     1      11.561  -2.257 -12.478  1.00  0.00     0.173 A 
ATOM     75  F   UNL     1      11.679   1.168 -11.263  1.00  0.00    -0.203 F 
ATOM     76  C   UNL     1      10.859   0.299 -13.290  1.00  0.00     0.198 A 
ATOM     77  C   UNL     1      10.988  -2.054 -13.732  1.00  0.00     0.198 A 
ATOM     78  F   UNL     1      11.883  -3.509 -12.118  1.00  0.00    -0.203 F 
ATOM     79  F   UNL     1      10.487   1.531 -13.665  1.00  0.00    -0.200 F 
ATOM     80  C   UNL     1      10.627  -0.778 -14.132  1.00  0.00     0.200 A 
ATOM     81  F   UNL     1      10.785  -3.096 -14.551  1.00  0.00    -0.200 F 
ATOM     82  F   UNL     1      10.052  -0.587 -15.328  1.00  0.00    -0.200 F 
ENDBRANCH  58  72
BRANCH  59  83
ATOM     83  C   UNL     1      15.823  -2.882  -2.619  1.00  0.00     0.064 A 
ATOM     84  C   UNL     1      16.877  -2.100  -2.131  1.00  0.00     0.173 A 
ATOM     85  C   UNL     1      15.312  -3.888  -1.784  1.00  0.00     0.173 A 
ATOM     86  F   UNL     1      17.412  -1.141  -2.900  1.00  0.00    -0.203 F 
ATOM     87  C   UNL     1      17.404  -2.320  -0.860  1.00  0.00     0.198 A 
ATOM     88  C   UNL     1      15.813  -4.080  -0.500  1.00  0.00     0.198 A 
ATOM     89  F   UNL     1      14.298  -4.660  -2.202  1.00  0.00    -0.203 F 
ATOM     90  F   UNL     1      18.439  -1.586  -0.431  1.00  0.00    -0.200 F 
ATOM     91  C   UNL     1      16.864  -3.301  -0.042  1.00  0.00     0.200 A 
ATOM     92  F   UNL     1      15.271  -5.013   0.295  1.00  0.00    -0.200 F 
ATOM     93  F   UNL     1      17.359  -3.499   1.188  1.00  0.00    -0.200 F 
ENDBRANCH  59  83
BRANCH  71  94
ATOM     94  C   UNL     1      18.181  -3.566  -9.134  1.00  0.00     0.064 A 
ATOM     95  C   UNL     1      18.620  -4.894  -9.013  1.00  0.00     0.173 A 
ATOM     96  C   UNL     1      19.032  -2.653  -9.776  1.00  0.00     0.173 A 
ATOM     97  F   UNL     1      17.854  -5.804  -8.392  1.00  0.00    -0.203 F 
ATOM     98  C   UNL     1      19.878  -5.278  -9.469  1.00  0.00     0.198 A 
ATOM     99  C   UNL     1      20.273  -3.049 -10.265  1.00  0.00     0.198 A 
ATOM    100  F   UNL     1      18.662  -1.372  -9.925  1.00  0.00    -0.203 F 
ATOM    101  F   UNL     1      20.306  -6.533  -9.271  1.00  0.00    -0.200 F 
ATOM    102  C   UNL     1      20.702  -4.357 -10.098  1.00  0.00     0.200 A 
ATOM    103  F   UNL     1      21.062  -2.161 -10.886  1.00  0.00    -0.200 F 
ATOM    104  F   UNL     1      21.916  -4.726 -10.530  1.00  0.00    -0.200 F 
ENDBRANCH  71  94
ENDBRANCH  45  46
ENDBRANCH  38  40
ENDBRANCH  37  38
ENDBRANCH  36  37
ENDBRANCH  35  36
ENDBRANCH   1  35
TORSDOF 17
