REMARK SMILES O=C(OCCOC(=O)c1ccc2c(c1)=N[C@H](C(F)(F)F)N=2)c1ccc(-c2c3nc(c(-c4c(F)c(F)c(F)c(F)c4F)c4ccc([nH]4)c(-c4c(F)c(F)c(F)c(F)c4F)c4nc(c(-c5c(F)c(F)c(F)c(F)c5F)c5ccc2[nH]5)C=C4)C=C3)cc1
REMARK SMILES IDX 4 1 3 2 2 3 1 4 22 5 23 6 84 7 24 8 83 9 25 10 26 11 27 12
REMARK SMILES IDX 77 13 28 14 82 15 76 16 78 17 29 18 81 19 75 20 74 21 30 23
REMARK SMILES IDX 62 24 42 25 61 26 43 27 46 28 60 29 79 30 44 31 45 32 59 34
REMARK SMILES IDX 80 35 47 36 31 37 32 38 40 39 33 40 34 41 38 42 41 43 35 44
REMARK SMILES IDX 36 45 39 46 37 47 63 48 64 49 72 50 65 51 66 52 70 53 73 54
REMARK SMILES IDX 67 55 68 56 71 57 69 58 48 59 49 60 57 61 50 62 51 63 55 64
REMARK SMILES IDX 58 65 52 66 53 67 56 68 54 69 5 70 6 71 7 72 8 73 9 74 10 75
REMARK SMILES IDX 14 76 11 77 13 78 12 79 15 80 21 81 16 82 17 83 18 84 19 85
REMARK SMILES IDX 20 86
REMARK H PARENT 78 22 46 33
REMARK Flexibility Score: inf
ROOT
ATOM      1  C   UNL     1       4.177  -0.972   0.873  1.00  0.00     0.275 C 
ENDROOT
BRANCH   1   2
ATOM      2  O   UNL     1       3.229   0.087   1.088  1.00  0.00    -0.458 OA
BRANCH   2   3
ATOM      3  C   UNL     1       3.130   1.291   0.477  1.00  0.00     0.338 C 
ATOM      4  O   UNL     1       2.394   2.147   0.964  1.00  0.00    -0.246 OA
BRANCH   3   5
ATOM      5  C   UNL     1       3.711   1.564  -0.875  1.00  0.00     0.060 A 
ATOM      6  C   UNL     1       2.962   2.417  -1.700  1.00  0.00     0.016 A 
ATOM      7  C   UNL     1       4.900   1.041  -1.389  1.00  0.00     0.016 A 
ATOM      8  C   UNL     1       3.312   2.611  -3.038  1.00  0.00     0.010 A 
ATOM      9  C   UNL     1       5.261   1.243  -2.727  1.00  0.00     0.010 A 
ATOM     10  C   UNL     1       4.453   2.001  -3.574  1.00  0.00    -0.014 A 
BRANCH  10  11
ATOM     11  C   UNL     1       4.891   2.326  -4.950  1.00  0.00     0.031 A 
ATOM     12  C   UNL     1       4.874   1.329  -6.070  1.00  0.00     0.074 A 
ATOM     13  C   UNL     1       5.316   3.581  -5.173  1.00  0.00     0.049 A 
ATOM     14  N   UNL     1       4.987   1.542  -7.357  1.00  0.00    -0.248 NA
ATOM     15  C   UNL     1       4.680  -0.085  -5.720  1.00  0.00     0.031 C 
ATOM     16  C   UNL     1       5.404   4.628  -4.153  1.00  0.00     0.029 A 
ATOM     17  N   UNL     1       5.757   4.185  -6.317  1.00  0.00    -0.354 N 
ATOM     18  C   UNL     1       4.729   0.324  -7.970  1.00  0.00     0.074 A 
ATOM     19  C   UNL     1       4.559  -0.651  -6.916  1.00  0.00     0.031 C 
ATOM     20  C   UNL     1       5.862   5.750  -4.720  1.00  0.00     0.029 A 
ATOM     21  C   UNL     1       6.144   5.484  -6.125  1.00  0.00     0.049 A 
ATOM     22  H   UNL     1       5.793   3.731  -7.190  1.00  0.00     0.167 HD
ATOM     23  C   UNL     1       4.635   0.056  -9.294  1.00  0.00     0.037 A 
ATOM     24  C   UNL     1       6.691   6.360  -6.984  1.00  0.00     0.037 A 
ATOM     25  C   UNL     1       5.066   0.972 -10.320  1.00  0.00     0.049 A 
ATOM     26  C   UNL     1       6.877   5.942  -8.410  1.00  0.00     0.074 A 
ATOM     27  C   UNL     1       5.142   0.773 -11.687  1.00  0.00     0.029 A 
ATOM     28  N   UNL     1       5.582   2.238 -10.072  1.00  0.00    -0.354 N 
ATOM     29  N   UNL     1       6.498   4.833  -8.999  1.00  0.00    -0.248 NA
ATOM     30  C   UNL     1       7.564   6.892  -9.288  1.00  0.00     0.031 C 
ATOM     31  C   UNL     1       5.809   1.870 -12.248  1.00  0.00     0.029 A 
ATOM     32  C   UNL     1       6.071   2.791 -11.245  1.00  0.00     0.049 A 
ATOM     33  H   UNL     1       5.597   2.678  -9.192  1.00  0.00     0.167 HD
ATOM     34  C   UNL     1       6.884   4.955 -10.325  1.00  0.00     0.074 A 
ATOM     35  C   UNL     1       7.513   6.257 -10.451  1.00  0.00     0.031 C 
ATOM     36  C   UNL     1       6.726   4.073 -11.344  1.00  0.00     0.037 A 
BRANCH  23  37
ATOM     37  C   UNL     1       4.089  -1.282  -9.702  1.00  0.00     0.064 A 
ATOM     38  C   UNL     1       2.717  -1.563  -9.585  1.00  0.00     0.173 A 
ATOM     39  C   UNL     1       4.908  -2.266 -10.273  1.00  0.00     0.173 A 
ATOM     40  F   UNL     1       1.889  -0.667  -9.027  1.00  0.00    -0.203 F 
ATOM     41  C   UNL     1       2.189  -2.777 -10.025  1.00  0.00     0.198 A 
ATOM     42  C   UNL     1       4.375  -3.473 -10.723  1.00  0.00     0.198 A 
ATOM     43  F   UNL     1       6.226  -2.054 -10.402  1.00  0.00    -0.203 F 
ATOM     44  F   UNL     1       0.880  -3.029  -9.884  1.00  0.00    -0.200 F 
ATOM     45  C   UNL     1       3.018  -3.728 -10.599  1.00  0.00     0.200 A 
ATOM     46  F   UNL     1       5.179  -4.393 -11.276  1.00  0.00    -0.200 F 
ATOM     47  F   UNL     1       2.511  -4.894 -11.022  1.00  0.00    -0.200 F 
ENDBRANCH  23  37
BRANCH  24  48
ATOM     48  C   UNL     1       7.077   7.699  -6.481  1.00  0.00     0.064 A 
ATOM     49  C   UNL     1       6.356   8.840  -6.850  1.00  0.00     0.173 A 
ATOM     50  C   UNL     1       8.100   7.847  -5.530  1.00  0.00     0.173 A 
ATOM     51  F   UNL     1       5.378   8.747  -7.763  1.00  0.00    -0.203 F 
ATOM     52  C   UNL     1       6.632  10.078  -6.274  1.00  0.00     0.198 A 
ATOM     53  C   UNL     1       8.355   9.078  -4.934  1.00  0.00     0.198 A 
ATOM     54  F   UNL     1       8.810   6.779  -5.136  1.00  0.00    -0.203 F 
ATOM     55  F   UNL     1       5.931  11.157  -6.646  1.00  0.00    -0.200 F 
ATOM     56  C   UNL     1       7.620  10.193  -5.306  1.00  0.00     0.200 A 
ATOM     57  F   UNL     1       9.291   9.177  -3.980  1.00  0.00    -0.200 F 
ATOM     58  F   UNL     1       7.858  11.377  -4.726  1.00  0.00    -0.200 F 
ENDBRANCH  24  48
BRANCH  36  59
ATOM     59  C   UNL     1       7.261   4.484 -12.684  1.00  0.00     0.064 A 
ATOM     60  C   UNL     1       8.641   4.576 -12.924  1.00  0.00     0.173 A 
ATOM     61  C   UNL     1       6.389   4.758 -13.748  1.00  0.00     0.173 A 
ATOM     62  F   UNL     1       9.516   4.337 -11.935  1.00  0.00    -0.203 F 
ATOM     63  C   UNL     1       9.125   4.958 -14.171  1.00  0.00     0.198 A 
ATOM     64  C   UNL     1       6.878   5.104 -15.004  1.00  0.00     0.198 A 
ATOM     65  F   UNL     1       5.061   4.677 -13.573  1.00  0.00    -0.203 F 
ATOM     66  F   UNL     1      10.445   5.095 -14.361  1.00  0.00    -0.200 F 
ATOM     67  C   UNL     1       8.245   5.213 -15.212  1.00  0.00     0.200 A 
ATOM     68  F   UNL     1       6.026   5.333 -16.012  1.00  0.00    -0.200 F 
ATOM     69  F   UNL     1       8.713   5.573 -16.414  1.00  0.00    -0.200 F 
ENDBRANCH  36  59
ENDBRANCH  10  11
ENDBRANCH   3   5
ENDBRANCH   2   3
ENDBRANCH   1   2
BRANCH   1  70
ATOM     70  C   UNL     1       3.768  -1.994  -0.193  1.00  0.00     0.275 C 
BRANCH  70  71
ATOM     71  O   UNL     1       3.169  -1.413  -1.363  1.00  0.00    -0.458 OA
BRANCH  71  72
ATOM     72  C   UNL     1       1.804  -1.385  -1.372  1.00  0.00     0.338 C 
ATOM     73  O   UNL     1       1.065  -1.835  -0.520  1.00  0.00    -0.246 OA
BRANCH  72  74
ATOM     74  C   UNL     1       1.342  -0.618  -2.562  1.00  0.00     0.062 A 
ATOM     75  C   UNL     1       1.778  -0.973  -3.904  1.00  0.00     0.018 A 
ATOM     76  C   UNL     1       0.539   0.431  -2.309  1.00  0.00     0.046 A 
ATOM     77  C   UNL     1       1.503  -0.226  -4.983  1.00  0.00     0.031 A 
ATOM     78  C   UNL     1       0.269   1.350  -3.424  1.00  0.00     0.087 A 
ATOM     79  C   UNL     1       0.795   1.034  -4.767  1.00  0.00     0.086 A 
ATOM     80  N   UNL     1      -0.303   2.504  -3.391  1.00  0.00    -0.247 NA
ATOM     81  N   UNL     1       0.595   1.981  -5.612  1.00  0.00    -0.247 NA
ATOM     82  C   UNL     1      -0.165   3.000  -4.811  1.00  0.00     0.326 C 
BRANCH  82  83
ATOM     83  C   UNL     1      -1.531   3.340  -5.463  1.00  0.00     0.431 C 
ATOM     84  F   UNL     1      -1.389   3.670  -6.770  1.00  0.00    -0.167 F 
ATOM     85  F   UNL     1      -2.388   2.293  -5.398  1.00  0.00    -0.167 F 
ATOM     86  F   UNL     1      -2.121   4.396  -4.852  1.00  0.00    -0.167 F 
ENDBRANCH  82  83
ENDBRANCH  72  74
ENDBRANCH  71  72
ENDBRANCH  70  71
ENDBRANCH   1  70
TORSDOF 12
