REMARK SMILES CC(C)N(c1cc2c(cc1Cl)C=C(C(=O)OCCOC(=O)c1ccc(-c3c4nc(c(-c5c(F)c(F)c(F)c(F)c5F)c5ccc([nH]5)c(-c5c(F)c(F)c(F)c(F)c5F)c5nc(c(-c6c(F)c(F)c(F)c(F)c6F)c6ccc3[nH]6)C=C5)C=C4)cc1)[C@@H](C(F)(F)F)O2)C(C)C
REMARK SMILES IDX 17 1 16 2 14 3 15 4 13 5 5 6 6 7 10 8 7 9 9 10 11 11 8 12
REMARK SMILES IDX 90 13 12 14 85 15 4 16 2 17 1 18 3 19 91 20 92 21 93 22
REMARK SMILES IDX 86 23 87 24 88 25 89 26 18 27 19 28 20 29 21 30 22 31 23 32
REMARK SMILES IDX 84 33 24 34 83 35 25 36 26 37 27 38 77 39 28 40 82 41 76 42
REMARK SMILES IDX 78 43 29 44 81 45 75 46 74 47 30 49 62 50 42 51 61 52 43 53
REMARK SMILES IDX 46 54 60 55 79 56 44 57 45 58 59 60 80 61 47 62 31 63 32 64
REMARK SMILES IDX 40 65 33 66 34 67 38 68 41 69 35 70 36 71 39 72 37 73 63 74
REMARK SMILES IDX 64 75 72 76 65 77 66 78 70 79 73 80 67 81 68 82 71 83 69 84
REMARK SMILES IDX 48 85 49 86 57 87 50 88 51 89 55 90 58 91 52 92 53 93 56 94
REMARK SMILES IDX 54 95
REMARK H PARENT 78 48 46 59
REMARK Flexibility Score: inf
ROOT
ATOM      1  C   UNL     1      -6.424   6.094   6.278  1.00  0.00     0.275 C 
ENDROOT
BRANCH   1   2
ATOM      2  O   UNL     1      -5.739   5.123   5.455  1.00  0.00    -0.459 OA
BRANCH   2   3
ATOM      3  C   UNL     1      -5.537   5.495   4.170  1.00  0.00     0.338 C 
ATOM      4  O   UNL     1      -5.880   6.548   3.655  1.00  0.00    -0.246 OA
BRANCH   3   5
ATOM      5  C   UNL     1      -4.748   4.476   3.451  1.00  0.00     0.087 C 
ATOM      6  C   UNL     1      -1.589   2.193   0.228  1.00  0.00     0.060 A 
ATOM      7  C   UNL     1      -2.582   1.749   1.136  1.00  0.00     0.074 A 
ATOM      8  C   UNL     1      -1.329   3.582   0.190  1.00  0.00     0.065 A 
ATOM      9  C   UNL     1      -3.300   2.637   1.944  1.00  0.00     0.130 A 
ATOM     10  C   UNL     1      -2.017   4.463   1.024  1.00  0.00     0.034 A 
ATOM     11  Cl  UNL     1      -0.246   4.328  -0.936  1.00  0.00    -0.082 Cl
ATOM     12  C   UNL     1      -3.011   3.992   1.881  1.00  0.00     0.019 A 
ATOM     13  O   UNL     1      -4.257   2.116   2.773  1.00  0.00    -0.475 OA
ATOM     14  C   UNL     1      -3.761   4.933   2.676  1.00  0.00     0.027 C 
ATOM     15  C   UNL     1      -5.147   3.028   3.493  1.00  0.00     0.316 C 
BRANCH   6  16
ATOM     16  N   UNL     1      -0.933   1.256  -0.595  1.00  0.00    -0.365 N 
BRANCH  16  17
ATOM     17  C   UNL     1       0.545   1.208  -0.525  1.00  0.00     0.076 C 
ATOM     18  C   UNL     1       1.059  -0.040   0.190  1.00  0.00     0.030 C 
ATOM     19  C   UNL     1       1.232   1.378  -1.877  1.00  0.00     0.030 C 
ENDBRANCH  16  17
BRANCH  16  20
ATOM     20  C   UNL     1      -1.803   0.390  -1.419  1.00  0.00     0.076 C 
ATOM     21  C   UNL     1      -1.654   0.655  -2.915  1.00  0.00     0.030 C 
ATOM     22  C   UNL     1      -1.655  -1.092  -1.095  1.00  0.00     0.030 C 
ENDBRANCH  16  20
ENDBRANCH   6  16
BRANCH  15  23
ATOM     23  C   UNL     1      -6.583   2.851   2.967  1.00  0.00     0.430 C 
ATOM     24  F   UNL     1      -6.960   1.552   2.974  1.00  0.00    -0.167 F 
ATOM     25  F   UNL     1      -7.477   3.518   3.737  1.00  0.00    -0.167 F 
ATOM     26  F   UNL     1      -6.722   3.310   1.702  1.00  0.00    -0.167 F 
ENDBRANCH  15  23
ENDBRANCH   3   5
ENDBRANCH   2   3
ENDBRANCH   1   2
BRANCH   1  27
ATOM     27  C   UNL     1      -5.444   6.850   7.177  1.00  0.00     0.275 C 
BRANCH  27  28
ATOM     28  O   UNL     1      -4.570   7.669   6.378  1.00  0.00    -0.458 OA
BRANCH  28  29
ATOM     29  C   UNL     1      -3.253   7.367   6.441  1.00  0.00     0.338 C 
ATOM     30  O   UNL     1      -2.715   6.506   7.112  1.00  0.00    -0.246 OA
BRANCH  29  31
ATOM     31  C   UNL     1      -2.513   8.229   5.504  1.00  0.00     0.060 A 
ATOM     32  C   UNL     1      -1.503   9.075   5.950  1.00  0.00     0.016 A 
ATOM     33  C   UNL     1      -2.757   8.100   4.142  1.00  0.00     0.016 A 
ATOM     34  C   UNL     1      -0.761   9.809   5.015  1.00  0.00     0.010 A 
ATOM     35  C   UNL     1      -1.925   8.714   3.211  1.00  0.00     0.010 A 
ATOM     36  C   UNL     1      -0.940   9.615   3.630  1.00  0.00    -0.014 A 
BRANCH  36  37
ATOM     37  C   UNL     1      -0.140  10.369   2.618  1.00  0.00     0.031 A 
ATOM     38  C   UNL     1      -0.827  11.182   1.543  1.00  0.00     0.074 A 
ATOM     39  C   UNL     1       1.207  10.299   2.625  1.00  0.00     0.049 A 
ATOM     40  N   UNL     1      -0.305  11.844   0.538  1.00  0.00    -0.248 NA
ATOM     41  C   UNL     1      -2.299  11.217   1.568  1.00  0.00     0.031 C 
ATOM     42  C   UNL     1       2.010   9.491   3.544  1.00  0.00     0.029 A 
ATOM     43  N   UNL     1       2.142  10.926   1.837  1.00  0.00    -0.354 N 
ATOM     44  C   UNL     1      -1.379  12.325  -0.202  1.00  0.00     0.074 A 
ATOM     45  C   UNL     1      -2.581  11.830   0.429  1.00  0.00     0.031 C 
ATOM     46  C   UNL     1       3.312   9.725   3.316  1.00  0.00     0.029 A 
ATOM     47  C   UNL     1       3.439  10.665   2.207  1.00  0.00     0.049 A 
ATOM     48  H   UNL     1       1.904  11.507   1.079  1.00  0.00     0.167 HD
ATOM     49  C   UNL     1      -1.374  13.140  -1.285  1.00  0.00     0.037 A 
ATOM     50  C   UNL     1       4.601  11.140   1.718  1.00  0.00     0.037 A 
ATOM     51  C   UNL     1      -0.188  13.711  -1.865  1.00  0.00     0.049 A 
ATOM     52  C   UNL     1       4.581  12.109   0.570  1.00  0.00     0.074 A 
ATOM     53  C   UNL     1      -0.086  14.616  -2.907  1.00  0.00     0.029 A 
ATOM     54  N   UNL     1       1.103  13.448  -1.435  1.00  0.00    -0.354 N 
ATOM     55  N   UNL     1       3.555  12.589  -0.089  1.00  0.00    -0.248 NA
ATOM     56  C   UNL     1       5.883  12.604   0.098  1.00  0.00     0.031 C 
ATOM     57  C   UNL     1       1.270  14.887  -3.120  1.00  0.00     0.029 A 
ATOM     58  C   UNL     1       2.009  14.175  -2.189  1.00  0.00     0.049 A 
ATOM     59  H   UNL     1       1.341  12.835  -0.702  1.00  0.00     0.167 HD
ATOM     60  C   UNL     1       4.083  13.443  -1.047  1.00  0.00     0.074 A 
ATOM     61  C   UNL     1       5.520  13.441  -0.865  1.00  0.00     0.031 C 
ATOM     62  C   UNL     1       3.436  14.158  -1.999  1.00  0.00     0.037 A 
BRANCH  49  63
ATOM     63  C   UNL     1      -2.701  13.498  -1.893  1.00  0.00     0.064 A 
ATOM     64  C   UNL     1      -3.607  14.341  -1.232  1.00  0.00     0.173 A 
ATOM     65  C   UNL     1      -3.055  13.027  -3.167  1.00  0.00     0.173 A 
ATOM     66  F   UNL     1      -3.321  14.812  -0.009  1.00  0.00    -0.203 F 
ATOM     67  C   UNL     1      -4.832  14.671  -1.806  1.00  0.00     0.198 A 
ATOM     68  C   UNL     1      -4.267  13.385  -3.752  1.00  0.00     0.198 A 
ATOM     69  F   UNL     1      -2.221  12.228  -3.849  1.00  0.00    -0.203 F 
ATOM     70  F   UNL     1      -5.701  15.436  -1.132  1.00  0.00    -0.200 F 
ATOM     71  C   UNL     1      -5.158  14.199  -3.068  1.00  0.00     0.200 A 
ATOM     72  F   UNL     1      -4.575  12.942  -4.979  1.00  0.00    -0.200 F 
ATOM     73  F   UNL     1      -6.333  14.525  -3.624  1.00  0.00    -0.200 F 
ENDBRANCH  49  63
BRANCH  50  74
ATOM     74  C   UNL     1       5.883  10.749   2.361  1.00  0.00     0.064 A 
ATOM     75  C   UNL     1       6.589  11.667   3.152  1.00  0.00     0.173 A 
ATOM     76  C   UNL     1       6.414   9.460   2.222  1.00  0.00     0.173 A 
ATOM     77  F   UNL     1       6.129  12.918   3.297  1.00  0.00    -0.203 F 
ATOM     78  C   UNL     1       7.783  11.311   3.775  1.00  0.00     0.198 A 
ATOM     79  C   UNL     1       7.597   9.098   2.864  1.00  0.00     0.198 A 
ATOM     80  F   UNL     1       5.773   8.546   1.479  1.00  0.00    -0.203 F 
ATOM     81  F   UNL     1       8.453  12.216   4.501  1.00  0.00    -0.200 F 
ATOM     82  C   UNL     1       8.282  10.025   3.636  1.00  0.00     0.200 A 
ATOM     83  F   UNL     1       8.070   7.851   2.739  1.00  0.00    -0.200 F 
ATOM     84  F   UNL     1       9.425   9.679   4.244  1.00  0.00    -0.200 F 
ENDBRANCH  50  74
BRANCH  62  85
ATOM     85  C   UNL     1       4.273  14.997  -2.918  1.00  0.00     0.064 A 
ATOM     86  C   UNL     1       5.046  14.415  -3.933  1.00  0.00     0.173 A 
ATOM     87  C   UNL     1       4.265  16.395  -2.814  1.00  0.00     0.173 A 
ATOM     88  F   UNL     1       5.096  13.081  -4.062  1.00  0.00    -0.203 F 
ATOM     89  C   UNL     1       5.798  15.203  -4.799  1.00  0.00     0.198 A 
ATOM     90  C   UNL     1       4.998  17.182  -3.698  1.00  0.00     0.198 A 
ATOM     91  F   UNL     1       3.535  16.999  -1.863  1.00  0.00    -0.203 F 
ATOM     92  F   UNL     1       6.560  14.625  -5.737  1.00  0.00    -0.200 F 
ATOM     93  C   UNL     1       5.768  16.585  -4.685  1.00  0.00     0.200 A 
ATOM     94  F   UNL     1       4.960  18.517  -3.594  1.00  0.00    -0.200 F 
ATOM     95  F   UNL     1       6.487  17.343  -5.525  1.00  0.00    -0.200 F 
ENDBRANCH  62  85
ENDBRANCH  36  37
ENDBRANCH  29  31
ENDBRANCH  28  29
ENDBRANCH  27  28
ENDBRANCH   1  27
TORSDOF 15
