REMARK SMILES O=C(OCCOC(=O)c1cncc(Nc2cccnc2)n1)c1ccc(-c2c3nc(c(-c4c(F)c(F)c(F)c(F)c4F)c4ccc([nH]4)c(-c4c(F)c(F)c(F)c(F)c4F)c4nc(c(-c5c(F)c(F)c(F)c(F)c5F)c5ccc2[nH]5)C=C4)C=C3)cc1
REMARK SMILES IDX 4 1 3 2 2 3 1 4 22 5 23 6 84 7 24 8 83 9 25 10 26 11 27 12
REMARK SMILES IDX 77 13 28 14 82 15 76 16 78 17 29 18 81 19 75 20 74 21 30 23
REMARK SMILES IDX 62 24 42 25 61 26 43 27 46 28 60 29 79 30 44 31 45 32 59 34
REMARK SMILES IDX 80 35 47 36 31 37 32 38 40 39 33 40 34 41 38 42 41 43 35 44
REMARK SMILES IDX 36 45 39 46 37 47 63 48 64 49 72 50 65 51 66 52 70 53 73 54
REMARK SMILES IDX 67 55 68 56 71 57 69 58 48 59 49 60 57 61 50 62 51 63 55 64
REMARK SMILES IDX 58 65 52 66 53 67 56 68 54 69 5 70 6 71 7 72 8 73 9 74 10 75
REMARK SMILES IDX 21 76 11 77 13 78 12 79 14 80 15 82 16 83 20 84 17 85 19 86
REMARK SMILES IDX 18 87
REMARK H PARENT 78 22 46 33 14 81
REMARK Flexibility Score: inf
ROOT
ATOM      1  C   UNL     1       3.929  -0.446  -1.674  1.00  0.00     0.275 C 
ENDROOT
BRANCH   1   2
ATOM      2  O   UNL     1       2.885  -0.922  -0.806  1.00  0.00    -0.458 OA
BRANCH   2   3
ATOM      3  C   UNL     1       2.830  -0.924   0.545  1.00  0.00     0.338 C 
ATOM      4  O   UNL     1       2.045  -1.678   1.119  1.00  0.00    -0.246 OA
BRANCH   3   5
ATOM      5  C   UNL     1       3.573   0.057   1.388  1.00  0.00     0.060 A 
ATOM      6  C   UNL     1       4.908   0.428   1.217  1.00  0.00     0.016 A 
ATOM      7  C   UNL     1       2.879   0.572   2.498  1.00  0.00     0.016 A 
ATOM      8  C   UNL     1       5.519   1.330   2.095  1.00  0.00     0.010 A 
ATOM      9  C   UNL     1       3.486   1.471   3.381  1.00  0.00     0.010 A 
ATOM     10  C   UNL     1       4.818   1.845   3.189  1.00  0.00    -0.014 A 
BRANCH  10  11
ATOM     11  C   UNL     1       5.546   2.629   4.212  1.00  0.00     0.031 A 
ATOM     12  C   UNL     1       5.998   1.931   5.460  1.00  0.00     0.074 A 
ATOM     13  C   UNL     1       5.855   3.920   4.000  1.00  0.00     0.049 A 
ATOM     14  N   UNL     1       6.766   2.370   6.423  1.00  0.00    -0.248 NA
ATOM     15  C   UNL     1       5.535   0.546   5.642  1.00  0.00     0.031 C 
ATOM     16  C   UNL     1       5.482   4.690   2.818  1.00  0.00     0.029 A 
ATOM     17  N   UNL     1       6.560   4.810   4.769  1.00  0.00    -0.354 N 
ATOM     18  C   UNL     1       6.902   1.308   7.305  1.00  0.00     0.074 A 
ATOM     19  C   UNL     1       6.087   0.225   6.801  1.00  0.00     0.031 C 
ATOM     20  C   UNL     1       5.947   5.944   2.942  1.00  0.00     0.029 A 
ATOM     21  C   UNL     1       6.664   6.060   4.209  1.00  0.00     0.049 A 
ATOM     22  H   UNL     1       6.953   4.576   5.641  1.00  0.00     0.167 HD
ATOM     23  C   UNL     1       7.666   1.231   8.419  1.00  0.00     0.037 A 
ATOM     24  C   UNL     1       7.283   7.165   4.666  1.00  0.00     0.037 A 
ATOM     25  C   UNL     1       8.452   2.320   8.929  1.00  0.00     0.049 A 
ATOM     26  C   UNL     1       8.064   7.079   5.951  1.00  0.00     0.074 A 
ATOM     27  C   UNL     1       9.262   2.355  10.049  1.00  0.00     0.029 A 
ATOM     28  N   UNL     1       8.508   3.581   8.351  1.00  0.00    -0.354 N 
ATOM     29  N   UNL     1       8.255   6.045   6.735  1.00  0.00    -0.248 NA
ATOM     30  C   UNL     1       8.739   8.304   6.399  1.00  0.00     0.031 C 
ATOM     31  C   UNL     1       9.778   3.651  10.170  1.00  0.00     0.029 A 
ATOM     32  C   UNL     1       9.323   4.410   9.102  1.00  0.00     0.049 A 
ATOM     33  H   UNL     1       8.037   3.847   7.529  1.00  0.00     0.167 HD
ATOM     34  C   UNL     1       9.105   6.480   7.742  1.00  0.00     0.074 A 
ATOM     35  C   UNL     1       9.394   7.873   7.468  1.00  0.00     0.031 C 
ATOM     36  C   UNL     1       9.610   5.788   8.793  1.00  0.00     0.037 A 
BRANCH  23  37
ATOM     37  C   UNL     1       7.661  -0.078   9.149  1.00  0.00     0.064 A 
ATOM     38  C   UNL     1       8.294  -1.212   8.614  1.00  0.00     0.173 A 
ATOM     39  C   UNL     1       6.989  -0.214  10.370  1.00  0.00     0.173 A 
ATOM     40  F   UNL     1       8.932  -1.137   7.436  1.00  0.00    -0.203 F 
ATOM     41  C   UNL     1       8.219  -2.444   9.259  1.00  0.00     0.198 A 
ATOM     42  C   UNL     1       6.937  -1.442  11.024  1.00  0.00     0.198 A 
ATOM     43  F   UNL     1       6.367   0.839  10.921  1.00  0.00    -0.203 F 
ATOM     44  F   UNL     1       8.778  -3.526   8.700  1.00  0.00    -0.200 F 
ATOM     45  C   UNL     1       7.542  -2.557  10.464  1.00  0.00     0.200 A 
ATOM     46  F   UNL     1       6.285  -1.551  12.191  1.00  0.00    -0.200 F 
ATOM     47  F   UNL     1       7.460  -3.746  11.077  1.00  0.00    -0.200 F 
ENDBRANCH  23  37
BRANCH  24  48
ATOM     48  C   UNL     1       7.234   8.428   3.884  1.00  0.00     0.064 A 
ATOM     49  C   UNL     1       8.374   8.927   3.240  1.00  0.00     0.173 A 
ATOM     50  C   UNL     1       6.048   9.171   3.778  1.00  0.00     0.173 A 
ATOM     51  F   UNL     1       9.537   8.264   3.328  1.00  0.00    -0.203 F 
ATOM     52  C   UNL     1       8.338  10.131   2.538  1.00  0.00     0.198 A 
ATOM     53  C   UNL     1       6.007  10.363   3.057  1.00  0.00     0.198 A 
ATOM     54  F   UNL     1       4.929   8.738   4.377  1.00  0.00    -0.203 F 
ATOM     55  F   UNL     1       9.454  10.607   1.970  1.00  0.00    -0.200 F 
ATOM     56  C   UNL     1       7.153  10.846   2.445  1.00  0.00     0.200 A 
ATOM     57  F   UNL     1       4.859  11.048   2.964  1.00  0.00    -0.200 F 
ATOM     58  F   UNL     1       7.119  12.005   1.772  1.00  0.00    -0.200 F 
ENDBRANCH  24  48
BRANCH  36  59
ATOM     59  C   UNL     1      10.566   6.511   9.692  1.00  0.00     0.064 A 
ATOM     60  C   UNL     1      10.131   7.490  10.597  1.00  0.00     0.173 A 
ATOM     61  C   UNL     1      11.931   6.186   9.677  1.00  0.00     0.173 A 
ATOM     62  F   UNL     1       8.838   7.846  10.636  1.00  0.00    -0.203 F 
ATOM     63  C   UNL     1      11.033   8.134  11.439  1.00  0.00     0.198 A 
ATOM     64  C   UNL     1      12.825   6.813  10.539  1.00  0.00     0.198 A 
ATOM     65  F   UNL     1      12.395   5.252   8.832  1.00  0.00    -0.203 F 
ATOM     66  F   UNL     1      10.604   9.098  12.265  1.00  0.00    -0.200 F 
ATOM     67  C   UNL     1      12.377   7.790  11.415  1.00  0.00     0.200 A 
ATOM     68  F   UNL     1      14.121   6.471  10.523  1.00  0.00    -0.200 F 
ATOM     69  F   UNL     1      13.242   8.407  12.231  1.00  0.00    -0.200 F 
ENDBRANCH  36  59
ENDBRANCH  10  11
ENDBRANCH   3   5
ENDBRANCH   2   3
ENDBRANCH   1   2
BRANCH   1  70
ATOM     70  C   UNL     1       3.710   0.969  -2.205  1.00  0.00     0.275 C 
BRANCH  70  71
ATOM     71  O   UNL     1       3.410   1.924  -1.177  1.00  0.00    -0.457 OA
BRANCH  71  72
ATOM     72  C   UNL     1       2.083   2.176  -0.994  1.00  0.00     0.358 C 
ATOM     73  O   UNL     1       1.157   1.676  -1.609  1.00  0.00    -0.244 OA
BRANCH  72  74
ATOM     74  C   UNL     1       1.927   3.136   0.116  1.00  0.00     0.169 A 
ATOM     75  C   UNL     1       2.615   4.335   0.096  1.00  0.00     0.147 A 
ATOM     76  N   UNL     1       1.115   2.770   1.145  1.00  0.00    -0.220 NA
ATOM     77  N   UNL     1       2.539   5.218   1.116  1.00  0.00    -0.258 NA
ATOM     78  C   UNL     1       1.049   3.620   2.193  1.00  0.00     0.149 A 
ATOM     79  C   UNL     1       1.759   4.823   2.162  1.00  0.00     0.158 A 
BRANCH  78  80
ATOM     80  N   UNL     1       0.338   3.156   3.297  1.00  0.00    -0.338 N 
ATOM     81  H   UNL     1       0.034   2.224   3.209  1.00  0.00     0.168 HD
BRANCH  80  82
ATOM     82  C   UNL     1      -0.029   3.754   4.504  1.00  0.00     0.058 A 
ATOM     83  C   UNL     1      -0.451   5.079   4.597  1.00  0.00     0.029 A 
ATOM     84  C   UNL     1       0.065   3.049   5.706  1.00  0.00     0.137 A 
ATOM     85  C   UNL     1      -0.758   5.634   5.839  1.00  0.00     0.022 A 
ATOM     86  N   UNL     1      -0.215   3.558   6.929  1.00  0.00    -0.263 NA
ATOM     87  C   UNL     1      -0.620   4.844   6.967  1.00  0.00     0.111 A 
ENDBRANCH  80  82
ENDBRANCH  78  80
ENDBRANCH  72  74
ENDBRANCH  71  72
ENDBRANCH  70  71
ENDBRANCH   1  70
TORSDOF 13
