REMARK SMILES C[C@H]([NH2+]CCc1ccccc1)[C@@H](C)C(=O)OCCOC(=O)c1ccc(-c2c3nc(c(-c4c(F)c(F)c(F)c(F)c4F)c4ccc([nH]4)c(-c4c(F)c(F)c(F)c(F)c4F)c4nc(c(-c5c(F)c(F)c(F)c(F)c5F)c5ccc2[nH]5)C=C4)C=C3)cc1
REMARK SMILES IDX 16 1 14 2 15 3 12 4 13 5 2 6 1 7 3 8 4 11 5 12 6 13 7 14
REMARK SMILES IDX 11 15 8 16 10 17 9 18 17 19 18 20 19 21 20 22 21 23 22 24
REMARK SMILES IDX 23 25 84 26 24 27 83 28 25 29 26 30 27 31 77 32 28 33 82 34
REMARK SMILES IDX 76 35 78 36 29 37 81 38 75 39 74 40 30 42 62 43 42 44 61 45
REMARK SMILES IDX 43 46 46 47 60 48 79 49 44 50 45 51 59 53 80 54 47 55 31 56
REMARK SMILES IDX 32 57 40 58 33 59 34 60 38 61 41 62 35 63 36 64 39 65 37 66
REMARK SMILES IDX 63 67 64 68 72 69 65 70 66 71 70 72 73 73 67 74 68 75 71 76
REMARK SMILES IDX 69 77 48 78 49 79 57 80 50 81 51 82 55 83 58 84 52 85 53 86
REMARK SMILES IDX 56 87 54 88
REMARK H PARENT 3 9 3 10 78 41 46 52
REMARK Flexibility Score: inf
ROOT
ATOM      1  O   UNL     1      -0.983  -3.331  -1.669  1.00  0.00    -0.462 OA
ENDROOT
BRANCH   1   2
ATOM      2  C   UNL     1      -1.700  -2.384  -1.012  1.00  0.00     0.314 C 
ATOM      3  O   UNL     1      -2.888  -2.483  -0.721  1.00  0.00    -0.252 OA
BRANCH   2   4
ATOM      4  C   UNL     1      -0.903  -1.127  -0.704  1.00  0.00     0.154 C 
ATOM      5  C   UNL     1      -1.269  -0.107  -1.786  1.00  0.00     0.026 C 
BRANCH   4   6
ATOM      6  C   UNL     1       0.623  -1.341  -0.561  1.00  0.00     0.193 C 
ATOM      7  C   UNL     1       1.010  -2.354   0.526  1.00  0.00     0.076 C 
BRANCH   6   8
ATOM      8  N   UNL     1       1.396  -0.109  -0.339  1.00  0.00    -0.343 N 
ATOM      9  H   UNL     1       1.274   0.483  -1.161  1.00  0.00     0.346 HD
ATOM     10  H   UNL     1       2.353  -0.422  -0.173  1.00  0.00     0.346 HD
BRANCH   8  11
ATOM     11  C   UNL     1       1.049   0.694   0.840  1.00  0.00     0.265 C 
BRANCH  11  12
ATOM     12  C   UNL     1       2.110   1.780   1.116  1.00  0.00     0.097 C 
BRANCH  12  13
ATOM     13  C   UNL     1       2.283   2.764  -0.019  1.00  0.00    -0.042 A 
ATOM     14  C   UNL     1       1.609   3.990  -0.018  1.00  0.00     0.004 A 
ATOM     15  C   UNL     1       3.095   2.434  -1.115  1.00  0.00     0.004 A 
ATOM     16  C   UNL     1       1.731   4.860  -1.105  1.00  0.00     0.000 A 
ATOM     17  C   UNL     1       3.199   3.293  -2.207  1.00  0.00     0.000 A 
ATOM     18  C   UNL     1       2.515   4.506  -2.202  1.00  0.00     0.000 A 
ENDBRANCH  12  13
ENDBRANCH  11  12
ENDBRANCH   8  11
ENDBRANCH   6   8
ENDBRANCH   4   6
ENDBRANCH   2   4
ENDBRANCH   1   2
BRANCH   1  19
ATOM     19  C   UNL     1      -1.676  -4.571  -1.925  1.00  0.00     0.274 C 
BRANCH  19  20
ATOM     20  C   UNL     1      -1.450  -5.560  -0.782  1.00  0.00     0.275 C 
BRANCH  20  21
ATOM     21  O   UNL     1      -1.923  -4.986   0.449  1.00  0.00    -0.458 OA
BRANCH  21  22
ATOM     22  C   UNL     1      -1.192  -5.272   1.549  1.00  0.00     0.338 C 
ATOM     23  O   UNL     1      -0.237  -6.023   1.627  1.00  0.00    -0.246 OA
BRANCH  22  24
ATOM     24  C   UNL     1      -1.730  -4.528   2.704  1.00  0.00     0.060 A 
ATOM     25  C   UNL     1      -1.935  -3.147   2.638  1.00  0.00     0.016 A 
ATOM     26  C   UNL     1      -1.940  -5.210   3.903  1.00  0.00     0.016 A 
ATOM     27  C   UNL     1      -2.298  -2.437   3.781  1.00  0.00     0.010 A 
ATOM     28  C   UNL     1      -2.367  -4.508   5.032  1.00  0.00     0.010 A 
ATOM     29  C   UNL     1      -2.520  -3.111   4.989  1.00  0.00    -0.014 A 
BRANCH  29  30
ATOM     30  C   UNL     1      -2.873  -2.359   6.219  1.00  0.00     0.031 A 
ATOM     31  C   UNL     1      -1.909  -2.312   7.372  1.00  0.00     0.074 A 
ATOM     32  C   UNL     1      -4.055  -1.723   6.305  1.00  0.00     0.049 A 
ATOM     33  N   UNL     1      -2.076  -1.820   8.574  1.00  0.00    -0.248 NA
ATOM     34  C   UNL     1      -0.583  -2.907   7.146  1.00  0.00     0.031 C 
ATOM     35  C   UNL     1      -5.064  -1.667   5.247  1.00  0.00     0.029 A 
ATOM     36  N   UNL     1      -4.610  -1.003   7.334  1.00  0.00    -0.354 N 
ATOM     37  C   UNL     1      -0.894  -2.077   9.256  1.00  0.00     0.074 A 
ATOM     38  C   UNL     1      -0.020  -2.777   8.339  1.00  0.00     0.031 C 
ATOM     39  C   UNL     1      -6.108  -0.940   5.675  1.00  0.00     0.029 A 
ATOM     40  C   UNL     1      -5.865  -0.525   7.054  1.00  0.00     0.049 A 
ATOM     41  H   UNL     1      -4.151  -0.846   8.191  1.00  0.00     0.167 HD
ATOM     42  C   UNL     1      -0.570  -1.757  10.532  1.00  0.00     0.037 A 
ATOM     43  C   UNL     1      -6.734   0.149   7.830  1.00  0.00     0.037 A 
ATOM     44  C   UNL     1      -1.428  -1.035  11.434  1.00  0.00     0.049 A 
ATOM     45  C   UNL     1      -6.354   0.480   9.246  1.00  0.00     0.074 A 
ATOM     46  C   UNL     1      -1.186  -0.659  12.744  1.00  0.00     0.029 A 
ATOM     47  N   UNL     1      -2.695  -0.570  11.113  1.00  0.00    -0.354 N 
ATOM     48  N   UNL     1      -5.246   0.208   9.890  1.00  0.00    -0.248 NA
ATOM     49  C   UNL     1      -7.351   1.207  10.044  1.00  0.00     0.031 C 
ATOM     50  C   UNL     1      -2.318   0.012  13.224  1.00  0.00     0.029 A 
ATOM     51  C   UNL     1      -3.249   0.085  12.201  1.00  0.00     0.049 A 
ATOM     52  H   UNL     1      -3.135  -0.688  10.240  1.00  0.00     0.167 HD
ATOM     53  C   UNL     1      -5.404   0.740  11.162  1.00  0.00     0.074 A 
ATOM     54  C   UNL     1      -6.708   1.369  11.193  1.00  0.00     0.031 C 
ATOM     55  C   UNL     1      -4.548   0.705  12.212  1.00  0.00     0.037 A 
BRANCH  42  56
ATOM     56  C   UNL     1       0.768  -2.210  11.037  1.00  0.00     0.064 A 
ATOM     57  C   UNL     1       1.958  -1.589  10.634  1.00  0.00     0.173 A 
ATOM     58  C   UNL     1       0.855  -3.263  11.962  1.00  0.00     0.173 A 
ATOM     59  F   UNL     1       1.928  -0.589   9.740  1.00  0.00    -0.203 F 
ATOM     60  C   UNL     1       3.190  -2.018  11.122  1.00  0.00     0.198 A 
ATOM     61  C   UNL     1       2.086  -3.674  12.465  1.00  0.00     0.198 A 
ATOM     62  F   UNL     1      -0.255  -3.888  12.381  1.00  0.00    -0.203 F 
ATOM     63  F   UNL     1       4.319  -1.436  10.694  1.00  0.00    -0.200 F 
ATOM     64  C   UNL     1       3.253  -3.055  12.041  1.00  0.00     0.200 A 
ATOM     65  F   UNL     1       2.144  -4.670  13.360  1.00  0.00    -0.200 F 
ATOM     66  F   UNL     1       4.439  -3.464  12.513  1.00  0.00    -0.200 F 
ENDBRANCH  42  56
BRANCH  43  67
ATOM     67  C   UNL     1      -8.054   0.549   7.282  1.00  0.00     0.064 A 
ATOM     68  C   UNL     1      -8.339   1.892   7.004  1.00  0.00     0.173 A 
ATOM     69  C   UNL     1      -9.051  -0.401   7.018  1.00  0.00     0.173 A 
ATOM     70  F   UNL     1      -7.425   2.838   7.264  1.00  0.00    -0.203 F 
ATOM     71  C   UNL     1      -9.578   2.272   6.490  1.00  0.00     0.198 A 
ATOM     72  C   UNL     1     -10.279  -0.024   6.481  1.00  0.00     0.198 A 
ATOM     73  F   UNL     1      -8.825  -1.699   7.268  1.00  0.00    -0.203 F 
ATOM     74  F   UNL     1      -9.839   3.567   6.267  1.00  0.00    -0.200 F 
ATOM     75  C   UNL     1     -10.543   1.313   6.222  1.00  0.00     0.200 A 
ATOM     76  F   UNL     1     -11.206  -0.954   6.213  1.00  0.00    -0.200 F 
ATOM     77  F   UNL     1     -11.731   1.678   5.722  1.00  0.00    -0.200 F 
ENDBRANCH  43  67
BRANCH  55  78
ATOM     78  C   UNL     1      -4.990   1.391  13.470  1.00  0.00     0.064 A 
ATOM     79  C   UNL     1      -5.968   0.832  14.304  1.00  0.00     0.173 A 
ATOM     80  C   UNL     1      -4.421   2.616  13.848  1.00  0.00     0.173 A 
ATOM     81  F   UNL     1      -6.553  -0.330  13.974  1.00  0.00    -0.203 F 
ATOM     82  C   UNL     1      -6.381   1.488  15.460  1.00  0.00     0.198 A 
ATOM     83  C   UNL     1      -4.819   3.258  15.017  1.00  0.00     0.198 A 
ATOM     84  F   UNL     1      -3.479   3.189  13.084  1.00  0.00    -0.203 F 
ATOM     85  F   UNL     1      -7.351   0.960  16.218  1.00  0.00    -0.200 F 
ATOM     86  C   UNL     1      -5.804   2.699  15.817  1.00  0.00     0.200 A 
ATOM     87  F   UNL     1      -4.257   4.424  15.365  1.00  0.00    -0.200 F 
ATOM     88  F   UNL     1      -6.206   3.331  16.928  1.00  0.00    -0.200 F 
ENDBRANCH  55  78
ENDBRANCH  29  30
ENDBRANCH  22  24
ENDBRANCH  21  22
ENDBRANCH  20  21
ENDBRANCH  19  20
ENDBRANCH   1  19
TORSDOF 16
