REMARK SMILES [NH3+][C@H](Cc1cnc2[nH]cccc1-2)C(=O)OCCOC(=O)c1ccc(-c2c3nc(c(-c4c(F)c(F)c(F)c(F)c4F)c4ccc([nH]4)c(-c4c(F)c(F)c(F)c(F)c4F)c4nc(c(-c5c(F)c(F)c(F)c(F)c5F)c5ccc2[nH]5)C=C4)C=C3)cc1
REMARK SMILES IDX 16 1 15 2 13 3 14 4 2 5 1 6 3 10 4 11 5 12 12 13 6 14 7 15
REMARK SMILES IDX 11 16 8 17 10 18 9 19 17 21 18 22 19 23 20 24 21 25 22 26
REMARK SMILES IDX 83 27 23 28 82 29 24 30 25 31 26 32 76 33 27 34 81 35 75 36
REMARK SMILES IDX 77 37 28 38 80 39 74 40 73 41 29 43 61 44 41 45 60 46 42 47
REMARK SMILES IDX 45 48 59 49 78 50 43 51 44 52 58 54 79 55 46 56 30 57 31 58
REMARK SMILES IDX 39 59 32 60 33 61 37 62 40 63 34 64 35 65 38 66 36 67 62 68
REMARK SMILES IDX 63 69 71 70 64 71 65 72 69 73 72 74 66 75 67 76 70 77 68 78
REMARK SMILES IDX 47 79 48 80 56 81 49 82 50 83 54 84 57 85 51 86 52 87 55 88
REMARK SMILES IDX 53 89
REMARK H PARENT 1 7 1 8 1 9 8 20 77 42 45 53
REMARK Flexibility Score: inf
ROOT
ATOM      1  C   UNL     1      -3.043   1.057   0.274  1.00  0.00     0.274 C 
ENDROOT
BRANCH   1   2
ATOM      2  O   UNL     1      -1.612   1.016   0.091  1.00  0.00    -0.458 OA
BRANCH   2   3
ATOM      3  C   UNL     1      -0.859   1.966   0.715  1.00  0.00     0.365 C 
ATOM      4  O   UNL     1      -1.311   2.794   1.497  1.00  0.00    -0.245 OA
BRANCH   3   5
ATOM      5  C   UNL     1       0.642   1.850   0.338  1.00  0.00     0.296 C 
BRANCH   5   6
ATOM      6  N   UNL     1       1.241   3.155  -0.032  1.00  0.00    -0.346 N 
ATOM      7  H   UNL     1       0.984   3.856   0.663  1.00  0.00     0.345 HD
ATOM      8  H   UNL     1       0.895   3.441  -0.947  1.00  0.00     0.345 HD
ATOM      9  H   UNL     1       2.257   3.066  -0.065  1.00  0.00     0.345 HD
ENDBRANCH   5   6
BRANCH   5  10
ATOM     10  C   UNL     1       0.988   0.746  -0.665  1.00  0.00     0.115 C 
BRANCH  10  11
ATOM     11  C   UNL     1       0.523   1.004  -2.054  1.00  0.00    -0.012 A 
ATOM     12  C   UNL     1      -0.302   1.947  -2.558  1.00  0.00     0.118 A 
ATOM     13  C   UNL     1       0.915   0.235  -3.186  1.00  0.00     0.022 A 
ATOM     14  N   UNL     1      -0.508   1.899  -3.925  1.00  0.00    -0.238 NA
ATOM     15  C   UNL     1       0.204   0.881  -4.327  1.00  0.00     0.137 A 
ATOM     16  C   UNL     1       1.695  -0.826  -3.434  1.00  0.00     0.014 A 
ATOM     17  N   UNL     1       0.353   0.383  -5.586  1.00  0.00    -0.346 N 
ATOM     18  C   UNL     1       1.825  -1.318  -4.805  1.00  0.00     0.018 A 
ATOM     19  C   UNL     1       1.160  -0.708  -5.808  1.00  0.00     0.084 A 
ATOM     20  H   UNL     1      -0.118   0.806  -6.340  1.00  0.00     0.167 HD
ENDBRANCH  10  11
ENDBRANCH   5  10
ENDBRANCH   3   5
ENDBRANCH   2   3
ENDBRANCH   1   2
BRANCH   1  21
ATOM     21  C   UNL     1      -3.547  -0.338   0.658  1.00  0.00     0.275 C 
BRANCH  21  22
ATOM     22  O   UNL     1      -3.083  -0.636   1.986  1.00  0.00    -0.458 OA
BRANCH  22  23
ATOM     23  C   UNL     1      -1.982  -1.421   2.050  1.00  0.00     0.338 C 
ATOM     24  O   UNL     1      -1.681  -2.327   1.284  1.00  0.00    -0.246 OA
BRANCH  23  25
ATOM     25  C   UNL     1      -1.020  -0.751   2.955  1.00  0.00     0.060 A 
ATOM     26  C   UNL     1      -1.441   0.139   3.950  1.00  0.00     0.016 A 
ATOM     27  C   UNL     1       0.329  -0.828   2.602  1.00  0.00     0.016 A 
ATOM     28  C   UNL     1      -0.542   1.074   4.459  1.00  0.00     0.010 A 
ATOM     29  C   UNL     1       1.220   0.108   3.112  1.00  0.00     0.010 A 
ATOM     30  C   UNL     1       0.768   1.120   3.971  1.00  0.00    -0.014 A 
BRANCH  30  31
ATOM     31  C   UNL     1       1.731   2.059   4.561  1.00  0.00     0.031 A 
ATOM     32  C   UNL     1       2.334   1.491   5.785  1.00  0.00     0.074 A 
ATOM     33  C   UNL     1       2.156   3.258   4.099  1.00  0.00     0.049 A 
ATOM     34  N   UNL     1       2.081   1.863   6.995  1.00  0.00    -0.248 NA
ATOM     35  C   UNL     1       3.146   0.270   5.680  1.00  0.00     0.031 C 
ATOM     36  C   UNL     1       1.823   3.936   2.858  1.00  0.00     0.029 A 
ATOM     37  N   UNL     1       3.065   4.125   4.652  1.00  0.00    -0.354 N 
ATOM     38  C   UNL     1       2.844   1.036   7.800  1.00  0.00     0.074 A 
ATOM     39  C   UNL     1       3.307  -0.041   6.966  1.00  0.00     0.031 C 
ATOM     40  C   UNL     1       2.701   4.938   2.610  1.00  0.00     0.029 A 
ATOM     41  C   UNL     1       3.533   5.116   3.784  1.00  0.00     0.049 A 
ATOM     42  H   UNL     1       3.365   4.054   5.587  1.00  0.00     0.167 HD
ATOM     43  C   UNL     1       3.258   1.449   9.025  1.00  0.00     0.037 A 
ATOM     44  C   UNL     1       4.491   6.051   4.028  1.00  0.00     0.037 A 
ATOM     45  C   UNL     1       2.495   2.579   9.488  1.00  0.00     0.049 A 
ATOM     46  C   UNL     1       4.578   6.201   5.497  1.00  0.00     0.074 A 
ATOM     47  C   UNL     1       1.159   2.807   9.760  1.00  0.00     0.029 A 
ATOM     48  N   UNL     1       3.068   3.821   9.385  1.00  0.00    -0.354 N 
ATOM     49  N   UNL     1       3.647   6.748   6.224  1.00  0.00    -0.248 NA
ATOM     50  C   UNL     1       5.515   5.345   6.202  1.00  0.00     0.031 C 
ATOM     51  C   UNL     1       0.914   4.149   9.347  1.00  0.00     0.029 A 
ATOM     52  C   UNL     1       2.121   4.685   8.900  1.00  0.00     0.049 A 
ATOM     53  H   UNL     1       3.997   4.052   9.618  1.00  0.00     0.167 HD
ATOM     54  C   UNL     1       3.594   5.956   7.357  1.00  0.00     0.074 A 
ATOM     55  C   UNL     1       4.823   5.165   7.329  1.00  0.00     0.031 C 
ATOM     56  C   UNL     1       2.428   5.809   8.048  1.00  0.00     0.037 A 
BRANCH  43  57
ATOM     57  C   UNL     1       4.591   1.071   9.607  1.00  0.00     0.064 A 
ATOM     58  C   UNL     1       4.853   1.358  10.957  1.00  0.00     0.173 A 
ATOM     59  C   UNL     1       5.710   0.695   8.830  1.00  0.00     0.173 A 
ATOM     60  F   UNL     1       3.869   1.769  11.770  1.00  0.00    -0.203 F 
ATOM     61  C   UNL     1       6.149   1.317  11.477  1.00  0.00     0.198 A 
ATOM     62  C   UNL     1       6.989   0.593   9.367  1.00  0.00     0.198 A 
ATOM     63  F   UNL     1       5.638   0.526   7.504  1.00  0.00    -0.203 F 
ATOM     64  F   UNL     1       6.371   1.716  12.736  1.00  0.00    -0.200 F 
ATOM     65  C   UNL     1       7.214   0.932  10.683  1.00  0.00     0.200 A 
ATOM     66  F   UNL     1       8.011   0.244   8.572  1.00  0.00    -0.200 F 
ATOM     67  F   UNL     1       8.463   0.940  11.166  1.00  0.00    -0.200 F 
ENDBRANCH  43  57
BRANCH  44  68
ATOM     68  C   UNL     1       5.554   6.604   3.144  1.00  0.00     0.064 A 
ATOM     69  C   UNL     1       6.332   7.708   3.551  1.00  0.00     0.173 A 
ATOM     70  C   UNL     1       6.056   5.862   2.059  1.00  0.00     0.173 A 
ATOM     71  F   UNL     1       5.952   8.452   4.600  1.00  0.00    -0.203 F 
ATOM     72  C   UNL     1       7.560   8.012   2.950  1.00  0.00     0.198 A 
ATOM     73  C   UNL     1       7.282   6.169   1.458  1.00  0.00     0.198 A 
ATOM     74  F   UNL     1       5.421   4.761   1.633  1.00  0.00    -0.203 F 
ATOM     75  F   UNL     1       8.308   9.019   3.425  1.00  0.00    -0.200 F 
ATOM     76  C   UNL     1       8.042   7.231   1.916  1.00  0.00     0.200 A 
ATOM     77  F   UNL     1       7.758   5.383   0.482  1.00  0.00    -0.200 F 
ATOM     78  F   UNL     1       9.254   7.469   1.393  1.00  0.00    -0.200 F 
ENDBRANCH  44  68
BRANCH  56  79
ATOM     79  C   UNL     1       1.299   6.754   7.735  1.00  0.00     0.064 A 
ATOM     80  C   UNL     1       0.641   6.825   6.494  1.00  0.00     0.173 A 
ATOM     81  C   UNL     1       0.768   7.509   8.789  1.00  0.00     0.173 A 
ATOM     82  F   UNL     1       1.037   6.074   5.458  1.00  0.00    -0.203 F 
ATOM     83  C   UNL     1      -0.482   7.635   6.318  1.00  0.00     0.198 A 
ATOM     84  C   UNL     1      -0.373   8.287   8.621  1.00  0.00     0.198 A 
ATOM     85  F   UNL     1       1.331   7.450  10.007  1.00  0.00    -0.203 F 
ATOM     86  F   UNL     1      -1.092   7.693   5.124  1.00  0.00    -0.200 F 
ATOM     87  C   UNL     1      -0.995   8.355   7.385  1.00  0.00     0.200 A 
ATOM     88  F   UNL     1      -0.889   8.947   9.667  1.00  0.00    -0.200 F 
ATOM     89  F   UNL     1      -2.103   9.094   7.230  1.00  0.00    -0.200 F 
ENDBRANCH  56  79
ENDBRANCH  30  31
ENDBRANCH  23  25
ENDBRANCH  22  23
ENDBRANCH  21  22
ENDBRANCH   1  21
TORSDOF 14
