REMARK SMILES O=C(OCCOC(=O)[C@@H]1Cc2[nH]cnc2CN1C(=O)c1csc(-c2cccs2)n1)c1ccc(-c2c3nc(c(-c4c(F)c(F)c(F)c(F)c4F)c4ccc([nH]4)c(-c4c(F)c(F)c(F)c(F)c4F)c4nc(c(-c5c(F)c(F)c(F)c(F)c5F)c5ccc2[nH]5)C=C4)C=C3)cc1
REMARK SMILES IDX 5 1 4 2 3 3 2 4 1 5 30 6 31 7 92 8 32 9 91 10 33 11 34 12
REMARK SMILES IDX 35 13 85 14 36 15 90 16 84 17 86 18 37 19 89 20 83 21 82 22
REMARK SMILES IDX 38 24 70 25 50 26 69 27 51 28 54 29 68 30 87 31 52 32 53 33
REMARK SMILES IDX 67 35 88 36 55 37 39 38 40 39 48 40 41 41 42 42 46 43 49 44
REMARK SMILES IDX 43 45 44 46 47 47 45 48 71 49 72 50 80 51 73 52 74 53 78 54
REMARK SMILES IDX 81 55 75 56 76 57 79 58 77 59 56 60 57 61 65 62 58 63 59 64
REMARK SMILES IDX 63 65 66 66 60 67 61 68 64 69 62 70 6 71 7 72 8 73 9 74
REMARK SMILES IDX 10 75 17 76 11 77 16 78 12 79 15 80 13 81 14 83 18 84 19 85
REMARK SMILES IDX 20 86 21 87 29 88 22 89 23 90 24 91 25 92 28 93 26 94 27 95
REMARK H PARENT 86 23 54 34 12 82
REMARK Flexibility Score: inf
ROOT
ATOM      1  C   UNL     1      -1.089   0.221  -3.357  1.00  0.00     0.274 C 
ENDROOT
BRANCH   1   2
ATOM      2  C   UNL     1      -1.923  -0.140  -2.131  1.00  0.00     0.275 C 
BRANCH   2   3
ATOM      3  O   UNL     1      -1.790   0.701  -0.964  1.00  0.00    -0.458 OA
BRANCH   3   4
ATOM      4  C   UNL     1      -0.654   1.416  -0.786  1.00  0.00     0.338 C 
ATOM      5  O   UNL     1      -0.479   2.550  -1.172  1.00  0.00    -0.246 OA
BRANCH   4   6
ATOM      6  C   UNL     1       0.305   0.719   0.107  1.00  0.00     0.060 A 
ATOM      7  C   UNL     1       0.384  -0.676   0.173  1.00  0.00     0.016 A 
ATOM      8  C   UNL     1       1.162   1.506   0.885  1.00  0.00     0.016 A 
ATOM      9  C   UNL     1       1.268  -1.283   1.052  1.00  0.00     0.010 A 
ATOM     10  C   UNL     1       2.046   0.899   1.770  1.00  0.00     0.010 A 
ATOM     11  C   UNL     1       2.074  -0.495   1.872  1.00  0.00    -0.014 A 
BRANCH  11  12
ATOM     12  C   UNL     1       2.915  -1.182   2.844  1.00  0.00     0.031 A 
ATOM     13  C   UNL     1       4.132  -1.895   2.357  1.00  0.00     0.074 A 
ATOM     14  C   UNL     1       2.730  -1.059   4.170  1.00  0.00     0.049 A 
ATOM     15  N   UNL     1       4.473  -3.135   2.527  1.00  0.00    -0.248 NA
ATOM     16  C   UNL     1       5.113  -1.102   1.607  1.00  0.00     0.031 C 
ATOM     17  C   UNL     1       1.854  -0.133   4.889  1.00  0.00     0.029 A 
ATOM     18  N   UNL     1       3.419  -1.681   5.165  1.00  0.00    -0.354 N 
ATOM     19  C   UNL     1       5.764  -3.264   2.013  1.00  0.00     0.074 A 
ATOM     20  C   UNL     1       6.090  -1.990   1.419  1.00  0.00     0.031 C 
ATOM     21  C   UNL     1       2.236  -0.093   6.186  1.00  0.00     0.029 A 
ATOM     22  C   UNL     1       3.281  -1.081   6.401  1.00  0.00     0.049 A 
ATOM     23  H   UNL     1       3.965  -2.487   5.017  1.00  0.00     0.167 HD
ATOM     24  C   UNL     1       6.547  -4.364   2.210  1.00  0.00     0.037 A 
ATOM     25  C   UNL     1       4.051  -1.320   7.487  1.00  0.00     0.037 A 
ATOM     26  C   UNL     1       5.805  -5.500   2.674  1.00  0.00     0.049 A 
ATOM     27  C   UNL     1       4.732  -2.625   7.298  1.00  0.00     0.074 A 
ATOM     28  C   UNL     1       4.740  -6.234   2.185  1.00  0.00     0.029 A 
ATOM     29  N   UNL     1       5.937  -5.903   3.979  1.00  0.00    -0.354 N 
ATOM     30  N   UNL     1       4.133  -3.783   7.318  1.00  0.00    -0.248 NA
ATOM     31  C   UNL     1       6.054  -2.615   6.686  1.00  0.00     0.031 C 
ATOM     32  C   UNL     1       3.979  -6.586   3.340  1.00  0.00     0.029 A 
ATOM     33  C   UNL     1       4.653  -6.052   4.437  1.00  0.00     0.049 A 
ATOM     34  H   UNL     1       6.772  -6.053   4.479  1.00  0.00     0.167 HD
ATOM     35  C   UNL     1       4.815  -4.554   6.389  1.00  0.00     0.074 A 
ATOM     36  C   UNL     1       6.042  -3.816   6.104  1.00  0.00     0.031 C 
ATOM     37  C   UNL     1       4.210  -5.581   5.723  1.00  0.00     0.037 A 
BRANCH  24  38
ATOM     38  C   UNL     1       8.051  -4.366   2.183  1.00  0.00     0.064 A 
ATOM     39  C   UNL     1       8.757  -5.574   2.020  1.00  0.00     0.173 A 
ATOM     40  C   UNL     1       8.824  -3.249   2.560  1.00  0.00     0.173 A 
ATOM     41  F   UNL     1       8.111  -6.708   1.708  1.00  0.00    -0.203 F 
ATOM     42  C   UNL     1      10.135  -5.660   2.239  1.00  0.00     0.198 A 
ATOM     43  C   UNL     1      10.207  -3.326   2.725  1.00  0.00     0.198 A 
ATOM     44  F   UNL     1       8.252  -2.079   2.876  1.00  0.00    -0.203 F 
ATOM     45  F   UNL     1      10.750  -6.847   2.159  1.00  0.00    -0.200 F 
ATOM     46  C   UNL     1      10.859  -4.534   2.585  1.00  0.00     0.200 A 
ATOM     47  F   UNL     1      10.891  -2.230   3.083  1.00  0.00    -0.200 F 
ATOM     48  F   UNL     1      12.174  -4.620   2.827  1.00  0.00    -0.200 F 
ENDBRANCH  24  38
BRANCH  25  49
ATOM     49  C   UNL     1       4.459  -0.347   8.522  1.00  0.00     0.064 A 
ATOM     50  C   UNL     1       4.917  -0.772   9.776  1.00  0.00     0.173 A 
ATOM     51  C   UNL     1       4.638   1.017   8.213  1.00  0.00     0.173 A 
ATOM     52  F   UNL     1       4.837  -2.065  10.120  1.00  0.00    -0.203 F 
ATOM     53  C   UNL     1       5.519   0.117  10.672  1.00  0.00     0.198 A 
ATOM     54  C   UNL     1       5.225   1.905   9.112  1.00  0.00     0.198 A 
ATOM     55  F   UNL     1       4.328   1.495   6.999  1.00  0.00    -0.203 F 
ATOM     56  F   UNL     1       5.992  -0.333  11.842  1.00  0.00    -0.200 F 
ATOM     57  C   UNL     1       5.674   1.453  10.338  1.00  0.00     0.200 A 
ATOM     58  F   UNL     1       5.403   3.186   8.759  1.00  0.00    -0.200 F 
ATOM     59  F   UNL     1       6.292   2.295  11.178  1.00  0.00    -0.200 F 
ENDBRANCH  25  49
BRANCH  37  60
ATOM     60  C   UNL     1       2.849  -6.020   6.171  1.00  0.00     0.064 A 
ATOM     61  C   UNL     1       1.721  -5.183   6.130  1.00  0.00     0.173 A 
ATOM     62  C   UNL     1       2.642  -7.370   6.484  1.00  0.00     0.173 A 
ATOM     63  F   UNL     1       1.823  -3.911   5.723  1.00  0.00    -0.203 F 
ATOM     64  C   UNL     1       0.452  -5.666   6.438  1.00  0.00     0.198 A 
ATOM     65  C   UNL     1       1.367  -7.858   6.757  1.00  0.00     0.198 A 
ATOM     66  F   UNL     1       3.673  -8.230   6.470  1.00  0.00    -0.203 F 
ATOM     67  F   UNL     1      -0.608  -4.845   6.394  1.00  0.00    -0.200 F 
ATOM     68  C   UNL     1       0.275  -7.005   6.744  1.00  0.00     0.200 A 
ATOM     69  F   UNL     1       1.191  -9.165   6.999  1.00  0.00    -0.200 F 
ATOM     70  F   UNL     1      -0.953  -7.480   6.994  1.00  0.00    -0.200 F 
ENDBRANCH  37  60
ENDBRANCH  11  12
ENDBRANCH   4   6
ENDBRANCH   3   4
ENDBRANCH   2   3
ENDBRANCH   1   2
BRANCH   1  71
ATOM     71  O   UNL     1       0.326   0.176  -3.073  1.00  0.00    -0.461 OA
BRANCH  71  72
ATOM     72  C   UNL     1       1.021   1.244  -3.575  1.00  0.00     0.329 C 
ATOM     73  O   UNL     1       0.502   2.133  -4.238  1.00  0.00    -0.250 OA
BRANCH  72  74
ATOM     74  C   UNL     1       2.534   1.126  -3.291  1.00  0.00     0.201 C 
ATOM     75  C   UNL     1       3.049   2.435  -2.617  1.00  0.00     0.093 C 
ATOM     76  N   UNL     1       3.277   0.870  -4.568  1.00  0.00    -0.317 N 
ATOM     77  C   UNL     1       3.178   3.483  -3.662  1.00  0.00     0.042 A 
ATOM     78  C   UNL     1       3.117   1.890  -5.639  1.00  0.00     0.179 C 
ATOM     79  N   UNL     1       3.156   4.838  -3.521  1.00  0.00    -0.348 N 
ATOM     80  C   UNL     1       3.216   3.248  -5.020  1.00  0.00     0.081 A 
ATOM     81  C   UNL     1       3.170   5.364  -4.787  1.00  0.00     0.197 A 
ATOM     82  H   UNL     1       3.135   5.342  -2.675  1.00  0.00     0.167 HD
ATOM     83  N   UNL     1       3.226   4.428  -5.712  1.00  0.00    -0.240 NA
BRANCH  76  84
ATOM     84  C   UNL     1       4.232  -0.122  -4.785  1.00  0.00     0.274 C 
ATOM     85  O   UNL     1       4.834  -0.212  -5.854  1.00  0.00    -0.267 OA
BRANCH  84  86
ATOM     86  C   UNL     1       4.533  -1.086  -3.719  1.00  0.00     0.140 A 
ATOM     87  C   UNL     1       3.648  -2.026  -3.223  1.00  0.00     0.101 A 
ATOM     88  N   UNL     1       5.838  -1.226  -3.238  1.00  0.00    -0.230 NA
ATOM     89  S   UNL     1       4.464  -3.116  -2.180  1.00  0.00    -0.121 S 
ATOM     90  C   UNL     1       5.951  -2.315  -2.506  1.00  0.00     0.134 A 
BRANCH  90  91
ATOM     91  C   UNL     1       7.233  -2.766  -2.016  1.00  0.00     0.063 A 
ATOM     92  C   UNL     1       8.318  -1.967  -1.697  1.00  0.00     0.023 A 
ATOM     93  S   UNL     1       7.626  -4.427  -1.822  1.00  0.00    -0.141 S 
ATOM     94  C   UNL     1       9.459  -2.718  -1.281  1.00  0.00     0.012 A 
ATOM     95  C   UNL     1       9.227  -4.072  -1.340  1.00  0.00     0.065 A 
ENDBRANCH  90  91
ENDBRANCH  84  86
ENDBRANCH  76  84
ENDBRANCH  72  74
ENDBRANCH  71  72
ENDBRANCH   1  71
TORSDOF 14
