REMARK SMILES Cc1nn(CC(=O)OCCOC(=O)c2ccc(-c3c4nc(c(-c5c(F)c(F)c(F)c(F)c5F)c5ccc([nH]5)c(-c5c(F)c(F)c(F)c(F)c5F)c5nc(c(-c6c(F)c(F)c(F)c(F)c6F)c6ccc3[nH]6)C=C5)C=C4)cc2)c(C)c1NC(=O)C(=O)Nc1ccc(F)cc1
REMARK SMILES IDX 9 1 8 2 6 3 7 4 5 5 4 6 1 7 2 8 3 9 79 10 77 11 78 12 80 13
REMARK SMILES IDX 81 14 82 16 83 17 84 18 85 19 86 21 87 22 92 23 88 24 91 25
REMARK SMILES IDX 89 26 90 27 10 28 11 29 12 30 13 31 14 32 15 33 76 34 16 35
REMARK SMILES IDX 75 36 17 37 18 38 19 39 69 40 20 41 74 42 68 43 70 44 21 45
REMARK SMILES IDX 73 46 67 47 66 48 22 50 54 51 34 52 53 53 35 54 38 55 52 56
REMARK SMILES IDX 71 57 36 58 37 59 51 61 72 62 39 63 23 64 24 65 32 66 25 67
REMARK SMILES IDX 26 68 30 69 33 70 27 71 28 72 31 73 29 74 55 75 56 76 64 77
REMARK SMILES IDX 57 78 58 79 62 80 65 81 59 82 60 83 63 84 61 85 40 86 41 87
REMARK SMILES IDX 49 88 42 89 43 90 47 91 50 92 44 93 45 94 48 95 46 96
REMARK H PARENT 80 15 85 20 70 49 38 60
REMARK Flexibility Score: inf
ROOT
ATOM      1  C   UNL     1      -3.979   5.286  -0.844  1.00  0.00     0.274 C 
ENDROOT
BRANCH   1   2
ATOM      2  O   UNL     1      -2.748   4.954  -0.172  1.00  0.00    -0.461 OA
BRANCH   2   3
ATOM      3  C   UNL     1      -2.685   5.202   1.164  1.00  0.00     0.327 C 
ATOM      4  O   UNL     1      -3.543   5.829   1.781  1.00  0.00    -0.250 OA
BRANCH   3   5
ATOM      5  C   UNL     1      -1.474   4.643   1.857  1.00  0.00     0.267 C 
BRANCH   5   6
ATOM      6  N   UNL     1      -0.598   3.810   1.047  1.00  0.00    -0.256 N 
ATOM      7  C   UNL     1       0.733   0.587   0.454  1.00  0.00     0.071 C 
ATOM      8  C   UNL     1       0.437   2.041   0.518  1.00  0.00     0.083 A 
ATOM      9  N   UNL     1      -0.544   2.489   1.304  1.00  0.00    -0.175 NA
ATOM     10  C   UNL     1       1.135   3.115  -0.104  1.00  0.00     0.086 A 
ATOM     11  C   UNL     1       0.364   4.234   0.156  1.00  0.00     0.060 A 
ATOM     12  C   UNL     1       0.397   5.634  -0.342  1.00  0.00     0.069 C 
BRANCH  10  13
ATOM     13  N   UNL     1       2.311   2.973  -0.815  1.00  0.00    -0.315 N 
ATOM     14  C   UNL     1       3.383   3.835  -0.911  1.00  0.00     0.314 C 
ATOM     15  H   UNL     1       2.396   2.136  -1.327  1.00  0.00     0.170 HD
ATOM     16  O   UNL     1       4.405   3.475  -1.488  1.00  0.00    -0.263 OA
BRANCH  14  17
ATOM     17  C   UNL     1       3.355   5.162  -0.154  1.00  0.00     0.314 C 
ATOM     18  O   UNL     1       3.067   5.166   1.043  1.00  0.00    -0.263 OA
ATOM     19  N   UNL     1       3.703   6.361  -0.744  1.00  0.00    -0.318 N 
ATOM     20  H   UNL     1       3.337   7.162  -0.305  1.00  0.00     0.170 HD
BRANCH  19  21
ATOM     21  C   UNL     1       4.496   6.614  -1.872  1.00  0.00     0.041 A 
ATOM     22  C   UNL     1       5.405   7.673  -1.728  1.00  0.00     0.029 A 
ATOM     23  C   UNL     1       4.508   5.858  -3.042  1.00  0.00     0.029 A 
ATOM     24  C   UNL     1       6.407   7.878  -2.673  1.00  0.00     0.041 A 
ATOM     25  C   UNL     1       5.504   6.075  -4.001  1.00  0.00     0.041 A 
ATOM     26  C   UNL     1       6.462   7.061  -3.791  1.00  0.00     0.123 A 
ATOM     27  F   UNL     1       7.456   7.220  -4.675  1.00  0.00    -0.207 F 
ENDBRANCH  19  21
ENDBRANCH  14  17
ENDBRANCH  10  13
ENDBRANCH   5   6
ENDBRANCH   3   5
ENDBRANCH   2   3
ENDBRANCH   1   2
BRANCH   1  28
ATOM     28  C   UNL     1      -4.912   4.080  -0.929  1.00  0.00     0.275 C 
BRANCH  28  29
ATOM     29  O   UNL     1      -5.225   3.592   0.376  1.00  0.00    -0.458 OA
BRANCH  29  30
ATOM     30  C   UNL     1      -4.342   2.675   0.821  1.00  0.00     0.338 C 
ATOM     31  O   UNL     1      -3.338   2.284   0.235  1.00  0.00    -0.246 OA
BRANCH  30  32
ATOM     32  C   UNL     1      -4.783   2.093   2.083  1.00  0.00     0.060 A 
ATOM     33  C   UNL     1      -3.827   1.406   2.843  1.00  0.00     0.016 A 
ATOM     34  C   UNL     1      -6.157   1.942   2.292  1.00  0.00     0.016 A 
ATOM     35  C   UNL     1      -4.252   0.395   3.674  1.00  0.00     0.010 A 
ATOM     36  C   UNL     1      -6.578   0.917   3.103  1.00  0.00     0.010 A 
ATOM     37  C   UNL     1      -5.614   0.100   3.702  1.00  0.00    -0.014 A 
BRANCH  37  38
ATOM     38  C   UNL     1      -6.028  -1.158   4.289  1.00  0.00     0.031 A 
ATOM     39  C   UNL     1      -6.190  -1.156   5.760  1.00  0.00     0.074 A 
ATOM     40  C   UNL     1      -6.409  -2.171   3.486  1.00  0.00     0.049 A 
ATOM     41  N   UNL     1      -5.707  -1.985   6.625  1.00  0.00    -0.248 NA
ATOM     42  C   UNL     1      -6.944  -0.036   6.349  1.00  0.00     0.031 C 
ATOM     43  C   UNL     1      -6.572  -2.142   2.026  1.00  0.00     0.029 A 
ATOM     44  N   UNL     1      -6.877  -3.402   3.821  1.00  0.00    -0.354 N 
ATOM     45  C   UNL     1      -6.230  -1.589   7.852  1.00  0.00     0.074 A 
ATOM     46  C   UNL     1      -6.870  -0.316   7.648  1.00  0.00     0.031 C 
ATOM     47  C   UNL     1      -7.321  -3.199   1.645  1.00  0.00     0.029 A 
ATOM     48  C   UNL     1      -7.591  -4.024   2.809  1.00  0.00     0.049 A 
ATOM     49  H   UNL     1      -6.723  -3.814   4.702  1.00  0.00     0.167 HD
ATOM     50  C   UNL     1      -6.315  -2.442   8.905  1.00  0.00     0.037 A 
ATOM     51  C   UNL     1      -8.437  -5.073   2.954  1.00  0.00     0.037 A 
ATOM     52  C   UNL     1      -5.401  -3.543   8.792  1.00  0.00     0.049 A 
ATOM     53  C   UNL     1      -8.149  -5.709   4.265  1.00  0.00     0.074 A 
ATOM     54  C   UNL     1      -4.027  -3.648   8.690  1.00  0.00     0.029 A 
ATOM     55  N   UNL     1      -5.890  -4.773   8.432  1.00  0.00    -0.354 N 
ATOM     56  N   UNL     1      -7.056  -6.363   4.542  1.00  0.00    -0.248 NA
ATOM     57  C   UNL     1      -8.909  -5.250   5.420  1.00  0.00     0.031 C 
ATOM     58  C   UNL     1      -3.801  -4.754   7.820  1.00  0.00     0.029 A 
ATOM     59  C   UNL     1      -5.048  -5.270   7.470  1.00  0.00     0.049 A 
ATOM     60  H   UNL     1      -6.692  -5.214   8.795  1.00  0.00     0.167 HD
ATOM     61  C   UNL     1      -6.777  -6.044   5.864  1.00  0.00     0.074 A 
ATOM     62  C   UNL     1      -8.001  -5.443   6.380  1.00  0.00     0.031 C 
ATOM     63  C   UNL     1      -5.494  -6.036   6.332  1.00  0.00     0.037 A 
BRANCH  50  64
ATOM     64  C   UNL     1      -7.480  -2.436   9.852  1.00  0.00     0.064 A 
ATOM     65  C   UNL     1      -7.391  -3.121  11.075  1.00  0.00     0.173 A 
ATOM     66  C   UNL     1      -8.775  -2.017   9.471  1.00  0.00     0.173 A 
ATOM     67  F   UNL     1      -6.213  -3.600  11.503  1.00  0.00    -0.203 F 
ATOM     68  C   UNL     1      -8.525  -3.401  11.841  1.00  0.00     0.198 A 
ATOM     69  C   UNL     1      -9.894  -2.245  10.265  1.00  0.00     0.198 A 
ATOM     70  F   UNL     1      -9.019  -1.473   8.271  1.00  0.00    -0.203 F 
ATOM     71  F   UNL     1      -8.414  -4.155  12.943  1.00  0.00    -0.200 F 
ATOM     72  C   UNL     1      -9.775  -2.962  11.436  1.00  0.00     0.200 A 
ATOM     73  F   UNL     1     -11.098  -1.833   9.843  1.00  0.00    -0.200 F 
ATOM     74  F   UNL     1     -10.868  -3.275  12.143  1.00  0.00    -0.200 F 
ENDBRANCH  50  64
BRANCH  51  75
ATOM     75  C   UNL     1      -9.683  -5.333   2.194  1.00  0.00     0.064 A 
ATOM     76  C   UNL     1     -10.280  -6.602   2.193  1.00  0.00     0.173 A 
ATOM     77  C   UNL     1     -10.451  -4.281   1.653  1.00  0.00     0.173 A 
ATOM     78  F   UNL     1      -9.640  -7.647   2.737  1.00  0.00    -0.203 F 
ATOM     79  C   UNL     1     -11.569  -6.806   1.688  1.00  0.00     0.198 A 
ATOM     80  C   UNL     1     -11.729  -4.487   1.136  1.00  0.00     0.198 A 
ATOM     81  F   UNL     1     -10.016  -3.013   1.698  1.00  0.00    -0.203 F 
ATOM     82  F   UNL     1     -12.129  -8.021   1.755  1.00  0.00    -0.200 F 
ATOM     83  C   UNL     1     -12.293  -5.747   1.164  1.00  0.00     0.200 A 
ATOM     84  F   UNL     1     -12.431  -3.446   0.665  1.00  0.00    -0.200 F 
ATOM     85  F   UNL     1     -13.546  -5.931   0.726  1.00  0.00    -0.200 F 
ENDBRANCH  51  75
BRANCH  63  86
ATOM     86  C   UNL     1      -4.430  -6.627   5.452  1.00  0.00     0.064 A 
ATOM     87  C   UNL     1      -4.077  -6.096   4.200  1.00  0.00     0.173 A 
ATOM     88  C   UNL     1      -3.647  -7.675   5.952  1.00  0.00     0.173 A 
ATOM     89  F   UNL     1      -4.705  -5.023   3.706  1.00  0.00    -0.203 F 
ATOM     90  C   UNL     1      -3.025  -6.627   3.458  1.00  0.00     0.198 A 
ATOM     91  C   UNL     1      -2.571  -8.180   5.226  1.00  0.00     0.198 A 
ATOM     92  F   UNL     1      -3.895  -8.179   7.171  1.00  0.00    -0.203 F 
ATOM     93  F   UNL     1      -2.720  -6.112   2.258  1.00  0.00    -0.200 F 
ATOM     94  C   UNL     1      -2.268  -7.665   3.974  1.00  0.00     0.200 A 
ATOM     95  F   UNL     1      -1.809  -9.149   5.751  1.00  0.00    -0.200 F 
ATOM     96  F   UNL     1      -1.230  -8.151   3.280  1.00  0.00    -0.200 F 
ENDBRANCH  63  86
ENDBRANCH  37  38
ENDBRANCH  30  32
ENDBRANCH  29  30
ENDBRANCH  28  29
ENDBRANCH   1  28
TORSDOF 15
