REMARK SMILES CC1=NN(c2ccc(Cl)cc2)C(=O)/C1=C/c1ccccc1OCC(=O)OCCOC(=O)c1ccc(-c2c3nc(c(-c4c(F)c(F)c(F)c(F)c4F)c4ccc([nH]4)c(-c4c(F)c(F)c(F)c(F)c4F)c4nc(c(-c5c(F)c(F)c(F)c(F)c5F)c5ccc2[nH]5)C=C4)C=C3)cc1
REMARK SMILES IDX 27 1 26 2 24 3 25 4 23 5 22 6 21 7 16 8 17 9 18 10 20 11
REMARK SMILES IDX 19 12 15 13 1 14 2 15 3 16 14 17 4 18 12 19 13 20 5 21 6 22
REMARK SMILES IDX 11 23 7 24 10 25 8 26 9 27 28 28 29 29 30 30 31 31 32 32
REMARK SMILES IDX 33 33 94 34 34 35 93 36 35 37 36 38 37 39 87 40 38 41 92 42
REMARK SMILES IDX 86 43 88 44 39 45 91 46 85 47 84 48 40 50 72 51 52 52 71 53
REMARK SMILES IDX 53 54 56 55 70 56 89 57 54 58 55 59 69 61 90 62 57 63 41 64
REMARK SMILES IDX 42 65 50 66 43 67 44 68 48 69 51 70 45 71 46 72 49 73 47 74
REMARK SMILES IDX 73 75 74 76 82 77 75 78 76 79 80 80 83 81 77 82 78 83 81 84
REMARK SMILES IDX 79 85 58 86 59 87 67 88 60 89 61 90 65 91 68 92 62 93 63 94
REMARK SMILES IDX 66 95 64 96
REMARK H PARENT 88 49 56 60
REMARK Flexibility Score: inf
ROOT
ATOM      1  C   UNL     1      -2.430   1.336   1.167  1.00  0.00     0.274 C 
ENDROOT
BRANCH   1   2
ATOM      2  O   UNL     1      -2.698   0.340   0.115  1.00  0.00    -0.460 OA
BRANCH   2   3
ATOM      3  C   UNL     1      -2.701   0.816  -1.176  1.00  0.00     0.344 C 
ATOM      4  O   UNL     1      -2.692   2.017  -1.443  1.00  0.00    -0.248 OA
BRANCH   3   5
ATOM      5  C   UNL     1      -2.584  -0.261  -2.324  1.00  0.00     0.352 C 
BRANCH   5   6
ATOM      6  O   UNL     1      -3.162  -1.550  -2.329  1.00  0.00    -0.481 OA
BRANCH   6   7
ATOM      7  C   UNL     1      -2.557  -2.748  -2.057  1.00  0.00     0.127 A 
ATOM      8  C   UNL     1      -1.198  -3.133  -1.985  1.00  0.00     0.017 A 
ATOM      9  C   UNL     1      -0.870  -4.365  -1.364  1.00  0.00     0.012 A 
ATOM     10  C   UNL     1      -1.857  -5.213  -0.859  1.00  0.00     0.001 A 
ATOM     11  C   UNL     1      -3.532  -3.685  -1.663  1.00  0.00     0.047 A 
ATOM     12  C   UNL     1      -3.192  -4.891  -1.047  1.00  0.00     0.004 A 
BRANCH   8  13
ATOM     13  C   UNL     1      -0.037  -2.296  -2.320  1.00  0.00     0.027 C 
ATOM     14  C   UNL     1      -1.109  -1.846   0.602  1.00  0.00     0.069 C 
ATOM     15  C   UNL     1      -0.248  -0.938  -0.246  1.00  0.00     0.071 C 
ATOM     16  N   UNL     1       0.055   0.299   0.042  1.00  0.00    -0.169 NA
ATOM     17  C   UNL     1       0.375  -1.317  -1.510  1.00  0.00     0.066 C 
ATOM     18  N   UNL     1       0.986   0.751  -0.874  1.00  0.00    -0.196 N 
ATOM     19  C   UNL     1       1.324  -0.215  -1.841  1.00  0.00     0.280 C 
ATOM     20  O   UNL     1       2.138  -0.224  -2.732  1.00  0.00    -0.267 OA
BRANCH  18  21
ATOM     21  C   UNL     1       1.527   2.052  -0.665  1.00  0.00     0.069 A 
ATOM     22  C   UNL     1       2.478   2.614  -1.522  1.00  0.00     0.030 A 
ATOM     23  C   UNL     1       1.121   2.821   0.447  1.00  0.00     0.030 A 
ATOM     24  C   UNL     1       2.995   3.898  -1.280  1.00  0.00     0.023 A 
ATOM     25  C   UNL     1       1.627   4.104   0.689  1.00  0.00     0.023 A 
ATOM     26  C   UNL     1       2.567   4.638  -0.180  1.00  0.00     0.041 A 
ATOM     27  Cl  UNL     1       3.204   6.208   0.111  1.00  0.00    -0.084 Cl
ENDBRANCH  18  21
ENDBRANCH   8  13
ENDBRANCH   6   7
ENDBRANCH   5   6
ENDBRANCH   3   5
ENDBRANCH   2   3
ENDBRANCH   1   2
BRANCH   1  28
ATOM     28  C   UNL     1      -1.876   0.785   2.551  1.00  0.00     0.275 C 
BRANCH  28  29
ATOM     29  O   UNL     1      -0.470   0.326   2.565  1.00  0.00    -0.458 OA
BRANCH  29  30
ATOM     30  C   UNL     1      -0.096  -0.686   3.424  1.00  0.00     0.338 C 
ATOM     31  O   UNL     1      -0.789  -1.084   4.350  1.00  0.00    -0.246 OA
BRANCH  30  32
ATOM     32  C   UNL     1       1.171  -1.435   3.000  1.00  0.00     0.060 A 
ATOM     33  C   UNL     1       1.929  -1.054   1.902  1.00  0.00     0.016 A 
ATOM     34  C   UNL     1       1.565  -2.632   3.616  1.00  0.00     0.016 A 
ATOM     35  C   UNL     1       2.894  -1.904   1.320  1.00  0.00     0.010 A 
ATOM     36  C   UNL     1       2.687  -3.387   3.146  1.00  0.00     0.010 A 
ATOM     37  C   UNL     1       3.384  -3.044   1.971  1.00  0.00    -0.014 A 
BRANCH  37  38
ATOM     38  C   UNL     1       4.636  -3.771   1.475  1.00  0.00     0.031 A 
ATOM     39  C   UNL     1       4.770  -5.290   1.484  1.00  0.00     0.074 A 
ATOM     40  C   UNL     1       5.720  -3.097   1.007  1.00  0.00     0.049 A 
ATOM     41  N   UNL     1       5.851  -6.035   1.382  1.00  0.00    -0.248 NA
ATOM     42  C   UNL     1       3.532  -6.071   1.604  1.00  0.00     0.031 C 
ATOM     43  C   UNL     1       5.825  -1.648   0.831  1.00  0.00     0.029 A 
ATOM     44  N   UNL     1       6.962  -3.549   0.588  1.00  0.00    -0.354 N 
ATOM     45  C   UNL     1       5.437  -7.359   1.503  1.00  0.00     0.074 A 
ATOM     46  C   UNL     1       3.994  -7.317   1.652  1.00  0.00     0.031 C 
ATOM     47  C   UNL     1       7.007  -1.340   0.285  1.00  0.00     0.029 A 
ATOM     48  C   UNL     1       7.828  -2.540   0.224  1.00  0.00     0.049 A 
ATOM     49  H   UNL     1       7.203  -4.503   0.554  1.00  0.00     0.167 HD
ATOM     50  C   UNL     1       6.176  -8.501   1.505  1.00  0.00     0.037 A 
ATOM     51  C   UNL     1       9.152  -2.519  -0.043  1.00  0.00     0.037 A 
ATOM     52  C   UNL     1       7.604  -8.586   1.287  1.00  0.00     0.049 A 
ATOM     53  C   UNL     1       9.971  -3.773   0.052  1.00  0.00     0.074 A 
ATOM     54  C   UNL     1       8.414  -9.714   1.295  1.00  0.00     0.029 A 
ATOM     55  N   UNL     1       8.433  -7.516   0.998  1.00  0.00    -0.354 N 
ATOM     56  N   UNL     1       9.582  -4.995   0.306  1.00  0.00    -0.248 NA
ATOM     57  C   UNL     1      11.425  -3.634  -0.139  1.00  0.00     0.031 C 
ATOM     58  C   UNL     1       9.736  -9.321   1.054  1.00  0.00     0.029 A 
ATOM     59  C   UNL     1       9.744  -7.954   0.847  1.00  0.00     0.049 A 
ATOM     60  H   UNL     1       8.138  -6.581   0.913  1.00  0.00     0.167 HD
ATOM     61  C   UNL     1      10.736  -5.769   0.299  1.00  0.00     0.074 A 
ATOM     62  C   UNL     1      11.839  -4.886  -0.007  1.00  0.00     0.031 C 
ATOM     63  C   UNL     1      10.857  -7.096   0.540  1.00  0.00     0.037 A 
BRANCH  50  64
ATOM     64  C   UNL     1       5.470  -9.793   1.821  1.00  0.00     0.064 A 
ATOM     65  C   UNL     1       4.654 -10.451   0.891  1.00  0.00     0.173 A 
ATOM     66  C   UNL     1       5.687 -10.421   3.060  1.00  0.00     0.173 A 
ATOM     67  F   UNL     1       4.415  -9.898  -0.307  1.00  0.00    -0.203 F 
ATOM     68  C   UNL     1       4.057 -11.673   1.200  1.00  0.00     0.198 A 
ATOM     69  C   UNL     1       5.112 -11.654   3.355  1.00  0.00     0.198 A 
ATOM     70  F   UNL     1       6.480  -9.847   3.978  1.00  0.00    -0.203 F 
ATOM     71  F   UNL     1       3.248 -12.266   0.311  1.00  0.00    -0.200 F 
ATOM     72  C   UNL     1       4.291 -12.275   2.428  1.00  0.00     0.200 A 
ATOM     73  F   UNL     1       5.356 -12.242   4.535  1.00  0.00    -0.200 F 
ATOM     74  F   UNL     1       3.720 -13.453   2.720  1.00  0.00    -0.200 F 
ENDBRANCH  50  64
BRANCH  51  75
ATOM     75  C   UNL     1       9.824  -1.218  -0.328  1.00  0.00     0.064 A 
ATOM     76  C   UNL     1      10.372  -0.943  -1.587  1.00  0.00     0.173 A 
ATOM     77  C   UNL     1       9.938  -0.230   0.663  1.00  0.00     0.173 A 
ATOM     78  F   UNL     1      10.329  -1.872  -2.554  1.00  0.00    -0.203 F 
ATOM     79  C   UNL     1      11.008   0.270  -1.845  1.00  0.00     0.198 A 
ATOM     80  C   UNL     1      10.538   0.997   0.393  1.00  0.00     0.198 A 
ATOM     81  F   UNL     1       9.443  -0.448   1.891  1.00  0.00    -0.203 F 
ATOM     82  F   UNL     1      11.566   0.491  -3.042  1.00  0.00    -0.200 F 
ATOM     83  C   UNL     1      11.078   1.244  -0.859  1.00  0.00     0.200 A 
ATOM     84  F   UNL     1      10.589   1.939   1.345  1.00  0.00    -0.200 F 
ATOM     85  F   UNL     1      11.676   2.416  -1.112  1.00  0.00    -0.200 F 
ENDBRANCH  51  75
BRANCH  63  86
ATOM     86  C   UNL     1      12.232  -7.693   0.452  1.00  0.00     0.064 A 
ATOM     87  C   UNL     1      13.198  -7.462   1.443  1.00  0.00     0.173 A 
ATOM     88  C   UNL     1      12.586  -8.516  -0.628  1.00  0.00     0.173 A 
ATOM     89  F   UNL     1      12.919  -6.665   2.485  1.00  0.00    -0.203 F 
ATOM     90  C   UNL     1      14.473  -8.017   1.345  1.00  0.00     0.198 A 
ATOM     91  C   UNL     1      13.854  -9.087  -0.711  1.00  0.00     0.198 A 
ATOM     92  F   UNL     1      11.701  -8.767  -1.604  1.00  0.00    -0.203 F 
ATOM     93  F   UNL     1      15.393  -7.747   2.282  1.00  0.00    -0.200 F 
ATOM     94  C   UNL     1      14.798  -8.833   0.272  1.00  0.00     0.200 A 
ATOM     95  F   UNL     1      14.164  -9.879  -1.747  1.00  0.00    -0.200 F 
ATOM     96  F   UNL     1      16.024  -9.366   0.180  1.00  0.00    -0.200 F 
ENDBRANCH  63  86
ENDBRANCH  37  38
ENDBRANCH  30  32
ENDBRANCH  29  30
ENDBRANCH  28  29
ENDBRANCH   1  28
TORSDOF 15
