REMARK SMILES CCCCCCNC(=O)Oc1cccc(-c2ccc([C@@H](C)C(=O)OCCOC(=O)c3ccc(-c4c5nc(c(-c6c(F)c(F)c(F)c(F)c6F)c6ccc([nH]6)c(-c6c(F)c(F)c(F)c(F)c6F)c6nc(c(-c7c(F)c(F)c(F)c(F)c7F)c7ccc4[nH]7)C=C6)C=C5)cc3)cc2)c1
REMARK SMILES IDX 20 1 21 2 19 3 16 4 17 5 94 6 18 7 93 8 15 9 11 10 12 11
REMARK SMILES IDX 95 12 13 13 14 14 10 15 8 16 7 17 9 19 6 20 5 21 4 22 3 23
REMARK SMILES IDX 2 24 1 25 22 26 23 27 24 28 25 29 26 30 27 31 28 32 29 33
REMARK SMILES IDX 30 34 31 35 92 36 32 37 91 38 33 39 34 40 35 41 85 42 36 43
REMARK SMILES IDX 90 44 84 45 86 46 37 47 89 48 83 49 82 50 38 52 70 53 50 54
REMARK SMILES IDX 69 55 51 56 54 57 68 58 87 59 52 60 53 61 67 63 88 64 55 65
REMARK SMILES IDX 39 66 40 67 48 68 41 69 42 70 46 71 49 72 43 73 44 74 47 75
REMARK SMILES IDX 45 76 71 77 72 78 80 79 73 80 74 81 78 82 81 83 75 84 76 85
REMARK SMILES IDX 79 86 77 87 56 88 57 89 65 90 58 91 59 92 63 93 66 94 60 95
REMARK SMILES IDX 61 96 64 97 62 98
REMARK H PARENT 7 18 86 51 54 62
REMARK Flexibility Score: inf
ROOT
ATOM      1  C   UNL     1      -4.710  -6.291 -12.528  1.00  0.00     0.126 C 
ATOM      2  C   UNL     1      -5.895  -6.377 -13.486  1.00  0.00     0.025 C 
ENDROOT
BRANCH   1   3
ATOM      3  C   UNL     1      -4.822  -5.126 -11.555  1.00  0.00    -0.034 A 
ATOM      4  C   UNL     1      -4.997  -2.979  -9.700  1.00  0.00    -0.018 A 
ATOM      5  C   UNL     1      -5.058  -2.751 -11.082  1.00  0.00     0.009 A 
ATOM      6  C   UNL     1      -4.850  -4.301  -9.260  1.00  0.00     0.009 A 
ATOM      7  C   UNL     1      -4.975  -3.806 -11.996  1.00  0.00     0.005 A 
ATOM      8  C   UNL     1      -4.771  -5.359 -10.172  1.00  0.00     0.005 A 
BRANCH   4   9
ATOM      9  C   UNL     1      -5.102  -1.863  -8.746  1.00  0.00    -0.015 A 
ATOM     10  C   UNL     1      -4.238  -0.562  -6.891  1.00  0.00     0.133 A 
ATOM     11  C   UNL     1      -5.340   0.289  -6.938  1.00  0.00     0.047 A 
ATOM     12  C   UNL     1      -4.118  -1.641  -7.769  1.00  0.00     0.056 A 
ATOM     13  C   UNL     1      -6.324   0.077  -7.898  1.00  0.00     0.004 A 
ATOM     14  C   UNL     1      -6.204  -0.989  -8.794  1.00  0.00     0.009 A 
BRANCH  10  15
ATOM     15  O   UNL     1      -3.316  -0.343  -5.855  1.00  0.00    -0.410 OA
BRANCH  15  16
ATOM     16  C   UNL     1      -1.990  -0.138  -6.209  1.00  0.00     0.412 C 
ATOM     17  N   UNL     1      -1.184   0.137  -5.137  1.00  0.00    -0.321 N 
ATOM     18  H   UNL     1      -0.226   0.255  -5.327  1.00  0.00     0.167 HD
ATOM     19  O   UNL     1      -1.529  -0.170  -7.343  1.00  0.00    -0.224 OA
BRANCH  17  20
ATOM     20  C   UNL     1      -1.589   0.274  -3.753  1.00  0.00     0.119 C 
BRANCH  20  21
ATOM     21  C   UNL     1      -0.970  -0.801  -2.861  1.00  0.00     0.021 C 
BRANCH  21  22
ATOM     22  C   UNL     1       0.561  -0.758  -2.764  1.00  0.00     0.002 C 
BRANCH  22  23
ATOM     23  C   UNL     1       1.158   0.554  -2.244  1.00  0.00    -0.000 C 
BRANCH  23  24
ATOM     24  C   UNL     1       0.682   0.994  -0.857  1.00  0.00    -0.003 C 
ATOM     25  C   UNL     1       1.051   0.014   0.247  1.00  0.00     0.004 C 
ENDBRANCH  23  24
ENDBRANCH  22  23
ENDBRANCH  21  22
ENDBRANCH  20  21
ENDBRANCH  17  20
ENDBRANCH  15  16
ENDBRANCH  10  15
ENDBRANCH   4   9
ENDBRANCH   1   3
BRANCH   1  26
ATOM     26  C   UNL     1      -3.402  -6.375 -13.309  1.00  0.00     0.313 C 
ATOM     27  O   UNL     1      -2.915  -7.449 -13.650  1.00  0.00    -0.252 OA
BRANCH  26  28
ATOM     28  O   UNL     1      -2.876  -5.162 -13.624  1.00  0.00    -0.462 OA
BRANCH  28  29
ATOM     29  C   UNL     1      -1.626  -5.156 -14.340  1.00  0.00     0.274 C 
BRANCH  29  30
ATOM     30  C   UNL     1      -0.441  -4.918 -13.401  1.00  0.00     0.275 C 
BRANCH  30  31
ATOM     31  O   UNL     1      -0.213  -6.058 -12.553  1.00  0.00    -0.458 OA
BRANCH  31  32
ATOM     32  C   UNL     1      -0.758  -5.965 -11.319  1.00  0.00     0.338 C 
ATOM     33  O   UNL     1      -1.349  -5.018 -10.834  1.00  0.00    -0.246 OA
BRANCH  32  34
ATOM     34  C   UNL     1      -0.653  -7.260 -10.633  1.00  0.00     0.060 A 
ATOM     35  C   UNL     1      -1.840  -7.921 -10.310  1.00  0.00     0.016 A 
ATOM     36  C   UNL     1       0.579  -7.769 -10.221  1.00  0.00     0.016 A 
ATOM     37  C   UNL     1      -1.809  -9.083  -9.548  1.00  0.00     0.010 A 
ATOM     38  C   UNL     1       0.612  -8.944  -9.463  1.00  0.00     0.010 A 
ATOM     39  C   UNL     1      -0.583  -9.594  -9.105  1.00  0.00    -0.014 A 
BRANCH  39  40
ATOM     40  C   UNL     1      -0.577 -10.775  -8.212  1.00  0.00     0.031 A 
ATOM     41  C   UNL     1      -0.329 -10.600  -6.743  1.00  0.00     0.074 A 
ATOM     42  C   UNL     1      -0.840 -11.993  -8.715  1.00  0.00     0.049 A 
ATOM     43  N   UNL     1      -0.285 -11.504  -5.796  1.00  0.00    -0.248 NA
ATOM     44  C   UNL     1      -0.096  -9.226  -6.276  1.00  0.00     0.031 C 
ATOM     45  C   UNL     1      -1.119 -12.280 -10.121  1.00  0.00     0.029 A 
ATOM     46  N   UNL     1      -0.916 -13.216  -8.098  1.00  0.00    -0.354 N 
ATOM     47  C   UNL     1      -0.008 -10.811  -4.627  1.00  0.00     0.074 A 
ATOM     48  C   UNL     1       0.132  -9.415  -4.985  1.00  0.00     0.031 C 
ATOM     49  C   UNL     1      -1.339 -13.597 -10.261  1.00  0.00     0.029 A 
ATOM     50  C   UNL     1      -1.186 -14.247  -8.962  1.00  0.00     0.049 A 
ATOM     51  H   UNL     1      -0.790 -13.341  -7.130  1.00  0.00     0.167 HD
ATOM     52  C   UNL     1       0.112 -11.296  -3.368  1.00  0.00     0.037 A 
ATOM     53  C   UNL     1      -1.284 -15.570  -8.732  1.00  0.00     0.037 A 
ATOM     54  C   UNL     1      -0.038 -12.683  -3.014  1.00  0.00     0.049 A 
ATOM     55  C   UNL     1      -1.122 -16.089  -7.331  1.00  0.00     0.074 A 
ATOM     56  C   UNL     1       0.039 -13.270  -1.763  1.00  0.00     0.029 A 
ATOM     57  N   UNL     1      -0.294 -13.704  -3.919  1.00  0.00    -0.354 N 
ATOM     58  N   UNL     1      -0.880 -15.425  -6.227  1.00  0.00    -0.248 NA
ATOM     59  C   UNL     1      -1.252 -17.540  -7.143  1.00  0.00     0.031 C 
ATOM     60  C   UNL     1      -0.130 -14.652  -1.916  1.00  0.00     0.029 A 
ATOM     61  C   UNL     1      -0.355 -14.920  -3.257  1.00  0.00     0.049 A 
ATOM     62  H   UNL     1      -0.414 -13.582  -4.888  1.00  0.00     0.167 HD
ATOM     63  C   UNL     1      -0.840 -16.371  -5.212  1.00  0.00     0.074 A 
ATOM     64  C   UNL     1      -1.100 -17.656  -5.830  1.00  0.00     0.031 C 
ATOM     65  C   UNL     1      -0.607 -16.191  -3.889  1.00  0.00     0.037 A 
BRANCH  52  66
ATOM     66  C   UNL     1       0.452 -10.314  -2.286  1.00  0.00     0.064 A 
ATOM     67  C   UNL     1      -0.481  -9.375  -1.821  1.00  0.00     0.173 A 
ATOM     68  C   UNL     1       1.729 -10.314  -1.705  1.00  0.00     0.173 A 
ATOM     69  F   UNL     1      -1.711  -9.325  -2.355  1.00  0.00    -0.203 F 
ATOM     70  C   UNL     1      -0.138  -8.451  -0.838  1.00  0.00     0.198 A 
ATOM     71  C   UNL     1       2.060  -9.406  -0.703  1.00  0.00     0.198 A 
ATOM     72  F   UNL     1       2.657 -11.194  -2.111  1.00  0.00    -0.203 F 
ATOM     73  F   UNL     1      -1.028  -7.529  -0.446  1.00  0.00    -0.200 F 
ATOM     74  C   UNL     1       1.131  -8.469  -0.277  1.00  0.00     0.200 A 
ATOM     75  F   UNL     1       3.284  -9.430  -0.156  1.00  0.00    -0.200 F 
ATOM     76  F   UNL     1       1.461  -7.576   0.666  1.00  0.00    -0.200 F 
ENDBRANCH  52  66
BRANCH  53  77
ATOM     77  C   UNL     1      -1.548 -16.485  -9.869  1.00  0.00     0.064 A 
ATOM     78  C   UNL     1      -2.796 -17.101 -10.028  1.00  0.00     0.173 A 
ATOM     79  C   UNL     1      -0.566 -16.731 -10.841  1.00  0.00     0.173 A 
ATOM     80  F   UNL     1      -3.757 -16.913  -9.112  1.00  0.00    -0.203 F 
ATOM     81  C   UNL     1      -3.052 -17.931 -11.118  1.00  0.00     0.198 A 
ATOM     82  C   UNL     1      -0.832 -17.542 -11.941  1.00  0.00     0.198 A 
ATOM     83  F   UNL     1       0.644 -16.163 -10.731  1.00  0.00    -0.203 F 
ATOM     84  F   UNL     1      -4.246 -18.528 -11.235  1.00  0.00    -0.200 F 
ATOM     85  C   UNL     1      -2.074 -18.143 -12.078  1.00  0.00     0.200 A 
ATOM     86  F   UNL     1       0.113 -17.735 -12.872  1.00  0.00    -0.200 F 
ATOM     87  F   UNL     1      -2.326 -18.930 -13.133  1.00  0.00    -0.200 F 
ENDBRANCH  53  77
BRANCH  65  88
ATOM     88  C   UNL     1      -0.633 -17.411  -3.017  1.00  0.00     0.064 A 
ATOM     89  C   UNL     1       0.417 -18.340  -3.027  1.00  0.00     0.173 A 
ATOM     90  C   UNL     1      -1.700 -17.633  -2.134  1.00  0.00     0.173 A 
ATOM     91  F   UNL     1       1.452 -18.179  -3.865  1.00  0.00    -0.203 F 
ATOM     92  C   UNL     1       0.391 -19.458  -2.197  1.00  0.00     0.198 A 
ATOM     93  C   UNL     1      -1.712 -18.738  -1.289  1.00  0.00     0.198 A 
ATOM     94  F   UNL     1      -2.727 -16.770  -2.084  1.00  0.00    -0.203 F 
ATOM     95  F   UNL     1       1.387 -20.353  -2.250  1.00  0.00    -0.200 F 
ATOM     96  C   UNL     1      -0.670 -19.652  -1.325  1.00  0.00     0.200 A 
ATOM     97  F   UNL     1      -2.733 -18.921  -0.439  1.00  0.00    -0.200 F 
ATOM     98  F   UNL     1      -0.690 -20.726  -0.523  1.00  0.00    -0.200 F 
ENDBRANCH  65  88
ENDBRANCH  39  40
ENDBRANCH  32  34
ENDBRANCH  31  32
ENDBRANCH  30  31
ENDBRANCH  29  30
ENDBRANCH  28  29
ENDBRANCH  26  28
ENDBRANCH   1  26
TORSDOF 20
