REMARK SMILES O=C(OCCOC(=O)C(Cl)(c1ccccc1)c1ccccc1)c1ccc(-c2c3nc(c(-c4c(F)c(F)c(F)c(F)c4F)c4ccc([nH]4)c(-c4c(F)c(F)c(F)c(F)c4F)c4nc(c(-c5c(F)c(F)c(F)c(F)c5F)c5ccc2[nH]5)C=C4)C=C3)cc1
REMARK SMILES IDX 4 1 3 2 2 3 1 4 23 5 24 6 85 7 25 8 84 9 26 10 27 11 28 12
REMARK SMILES IDX 78 13 29 14 83 15 77 16 79 17 30 18 82 19 76 20 75 21 31 23
REMARK SMILES IDX 63 24 43 25 62 26 44 27 47 28 61 29 80 30 45 31 46 32 60 34
REMARK SMILES IDX 81 35 48 36 32 37 33 38 41 39 34 40 35 41 39 42 42 43 36 44
REMARK SMILES IDX 37 45 40 46 38 47 64 48 65 49 73 50 66 51 67 52 71 53 74 54
REMARK SMILES IDX 68 55 69 56 72 57 70 58 49 59 50 60 58 61 51 62 52 63 56 64
REMARK SMILES IDX 59 65 53 66 54 67 57 68 55 69 5 70 6 71 7 72 8 73 9 74 10 75
REMARK SMILES IDX 11 76 12 77 16 78 13 79 15 80 14 81 17 82 18 83 22 84 19 85
REMARK SMILES IDX 21 86 20 87
REMARK H PARENT 79 22 47 33
REMARK Flexibility Score: inf
ROOT
ATOM      1  C   UNL     1       4.288   0.345   1.357  1.00  0.00     0.275 C 
ENDROOT
BRANCH   1   2
ATOM      2  O   UNL     1       3.225   1.012   0.661  1.00  0.00    -0.458 OA
BRANCH   2   3
ATOM      3  C   UNL     1       3.086   1.265  -0.662  1.00  0.00     0.338 C 
ATOM      4  O   UNL     1       2.209   2.061  -1.000  1.00  0.00    -0.246 OA
BRANCH   3   5
ATOM      5  C   UNL     1       3.821   0.540  -1.758  1.00  0.00     0.060 A 
ATOM      6  C   UNL     1       4.973  -0.245  -1.627  1.00  0.00     0.016 A 
ATOM      7  C   UNL     1       3.219   0.591  -3.033  1.00  0.00     0.016 A 
ATOM      8  C   UNL     1       5.434  -1.052  -2.677  1.00  0.00     0.010 A 
ATOM      9  C   UNL     1       3.672  -0.215  -4.087  1.00  0.00     0.010 A 
ATOM     10  C   UNL     1       4.766  -1.073  -3.901  1.00  0.00    -0.014 A 
BRANCH  10  11
ATOM     11  C   UNL     1       5.308  -1.869  -5.028  1.00  0.00     0.031 A 
ATOM     12  C   UNL     1       6.051  -1.120  -6.083  1.00  0.00     0.074 A 
ATOM     13  C   UNL     1       5.161  -3.207  -5.116  1.00  0.00     0.049 A 
ATOM     14  N   UNL     1       6.606  -1.564  -7.176  1.00  0.00    -0.248 NA
ATOM     15  C   UNL     1       6.179   0.333  -5.879  1.00  0.00     0.031 C 
ATOM     16  C   UNL     1       4.476  -4.037  -4.138  1.00  0.00     0.029 A 
ATOM     17  N   UNL     1       5.569  -4.112  -6.069  1.00  0.00    -0.354 N 
ATOM     18  C   UNL     1       7.122  -0.443  -7.802  1.00  0.00     0.074 A 
ATOM     19  C   UNL     1       6.793   0.704  -6.988  1.00  0.00     0.031 C 
ATOM     20  C   UNL     1       4.476  -5.315  -4.544  1.00  0.00     0.029 A 
ATOM     21  C   UNL     1       5.186  -5.410  -5.806  1.00  0.00     0.049 A 
ATOM     22  H   UNL     1       6.087  -3.855  -6.866  1.00  0.00     0.167 HD
ATOM     23  C   UNL     1       7.818  -0.384  -8.957  1.00  0.00     0.037 A 
ATOM     24  C   UNL     1       5.390  -6.550  -6.496  1.00  0.00     0.037 A 
ATOM     25  C   UNL     1       8.136  -1.536  -9.751  1.00  0.00     0.049 A 
ATOM     26  C   UNL     1       6.166  -6.454  -7.780  1.00  0.00     0.074 A 
ATOM     27  C   UNL     1       8.850  -1.595 -10.931  1.00  0.00     0.029 A 
ATOM     28  N   UNL     1       7.744  -2.833  -9.445  1.00  0.00    -0.354 N 
ATOM     29  N   UNL     1       6.705  -5.394  -8.335  1.00  0.00    -0.248 NA
ATOM     30  C   UNL     1       6.362  -7.696  -8.539  1.00  0.00     0.031 C 
ATOM     31  C   UNL     1       8.844  -2.923 -11.369  1.00  0.00     0.029 A 
ATOM     32  C   UNL     1       8.176  -3.699 -10.434  1.00  0.00     0.049 A 
ATOM     33  H   UNL     1       7.236  -3.097  -8.645  1.00  0.00     0.167 HD
ATOM     34  C   UNL     1       7.304  -5.838  -9.501  1.00  0.00     0.074 A 
ATOM     35  C   UNL     1       7.100  -7.272  -9.556  1.00  0.00     0.031 C 
ATOM     36  C   UNL     1       7.951  -5.122 -10.452  1.00  0.00     0.037 A 
BRANCH  23  37
ATOM     37  C   UNL     1       8.210   0.979  -9.430  1.00  0.00     0.064 A 
ATOM     38  C   UNL     1       9.180   1.744  -8.764  1.00  0.00     0.173 A 
ATOM     39  C   UNL     1       7.554   1.554 -10.527  1.00  0.00     0.173 A 
ATOM     40  F   UNL     1       9.806   1.251  -7.684  1.00  0.00    -0.203 F 
ATOM     41  C   UNL     1       9.450   3.052  -9.157  1.00  0.00     0.198 A 
ATOM     42  C   UNL     1       7.849   2.850 -10.936  1.00  0.00     0.198 A 
ATOM     43  F   UNL     1       6.608   0.868 -11.184  1.00  0.00    -0.203 F 
ATOM     44  F   UNL     1      10.323   3.792  -8.459  1.00  0.00    -0.200 F 
ATOM     45  C   UNL     1       8.788   3.601 -10.245  1.00  0.00     0.200 A 
ATOM     46  F   UNL     1       7.209   3.380 -11.987  1.00  0.00    -0.200 F 
ATOM     47  F   UNL     1       9.041   4.864 -10.615  1.00  0.00    -0.200 F 
ENDBRANCH  23  37
BRANCH  24  48
ATOM     48  C   UNL     1       4.877  -7.863  -6.002  1.00  0.00     0.064 A 
ATOM     49  C   UNL     1       5.755  -8.898  -5.644  1.00  0.00     0.173 A 
ATOM     50  C   UNL     1       3.501  -8.131  -5.912  1.00  0.00     0.173 A 
ATOM     51  F   UNL     1       7.080  -8.709  -5.722  1.00  0.00    -0.203 F 
ATOM     52  C   UNL     1       5.282 -10.152  -5.252  1.00  0.00     0.198 A 
ATOM     53  C   UNL     1       3.029  -9.374  -5.486  1.00  0.00     0.198 A 
ATOM     54  F   UNL     1       2.609  -7.186  -6.238  1.00  0.00    -0.203 F 
ATOM     55  F   UNL     1       6.148 -11.137  -4.977  1.00  0.00    -0.200 F 
ATOM     56  C   UNL     1       3.919 -10.388  -5.170  1.00  0.00     0.200 A 
ATOM     57  F   UNL     1       1.710  -9.591  -5.390  1.00  0.00    -0.200 F 
ATOM     58  F   UNL     1       3.465 -11.592  -4.797  1.00  0.00    -0.200 F 
ENDBRANCH  24  48
BRANCH  36  59
ATOM     59  C   UNL     1       8.479  -5.882 -11.629  1.00  0.00     0.064 A 
ATOM     60  C   UNL     1       7.619  -6.385 -12.616  1.00  0.00     0.173 A 
ATOM     61  C   UNL     1       9.860  -6.039 -11.808  1.00  0.00     0.173 A 
ATOM     62  F   UNL     1       6.290  -6.274 -12.475  1.00  0.00    -0.203 F 
ATOM     63  C   UNL     1       8.126  -7.029 -13.739  1.00  0.00     0.198 A 
ATOM     64  C   UNL     1      10.364  -6.655 -12.947  1.00  0.00     0.198 A 
ATOM     65  F   UNL     1      10.719  -5.571 -10.890  1.00  0.00    -0.203 F 
ATOM     66  F   UNL     1       7.288  -7.535 -14.654  1.00  0.00    -0.200 F 
ATOM     67  C   UNL     1       9.498  -7.152 -13.910  1.00  0.00     0.200 A 
ATOM     68  F   UNL     1      11.689  -6.760 -13.119  1.00  0.00    -0.200 F 
ATOM     69  F   UNL     1       9.985  -7.754 -15.003  1.00  0.00    -0.200 F 
ENDBRANCH  36  59
ENDBRANCH  10  11
ENDBRANCH   3   5
ENDBRANCH   2   3
ENDBRANCH   1   2
BRANCH   1  70
ATOM     70  C   UNL     1       4.045  -1.154   1.524  1.00  0.00     0.274 C 
BRANCH  70  71
ATOM     71  O   UNL     1       3.401  -1.740   0.377  1.00  0.00    -0.460 OA
BRANCH  71  72
ATOM     72  C   UNL     1       2.162  -2.295   0.567  1.00  0.00     0.336 C 
ATOM     73  O   UNL     1       1.576  -2.241   1.651  1.00  0.00    -0.249 OA
BRANCH  72  74
ATOM     74  C   UNL     1       1.625  -3.090  -0.667  1.00  0.00     0.191 C 
ATOM     75  Cl  UNL     1       2.157  -2.295  -2.216  1.00  0.00    -0.096 Cl
BRANCH  74  76
ATOM     76  C   UNL     1       2.323  -4.479  -0.811  1.00  0.00    -0.011 A 
ATOM     77  C   UNL     1       1.739  -5.576  -1.469  1.00  0.00     0.006 A 
ATOM     78  C   UNL     1       3.701  -4.623  -0.495  1.00  0.00     0.006 A 
ATOM     79  C   UNL     1       2.437  -6.775  -1.679  1.00  0.00     0.000 A 
ATOM     80  C   UNL     1       4.416  -5.799  -0.749  1.00  0.00     0.000 A 
ATOM     81  C   UNL     1       3.774  -6.889  -1.313  1.00  0.00     0.000 A 
ENDBRANCH  74  76
BRANCH  74  82
ATOM     82  C   UNL     1       0.087  -2.905  -0.747  1.00  0.00    -0.011 A 
ATOM     83  C   UNL     1      -0.425  -1.603  -1.020  1.00  0.00     0.006 A 
ATOM     84  C   UNL     1      -0.850  -3.932  -0.614  1.00  0.00     0.006 A 
ATOM     85  C   UNL     1      -1.767  -1.382  -1.321  1.00  0.00     0.000 A 
ATOM     86  C   UNL     1      -2.198  -3.713  -0.929  1.00  0.00     0.000 A 
ATOM     87  C   UNL     1      -2.649  -2.450  -1.308  1.00  0.00     0.000 A 
ENDBRANCH  74  82
ENDBRANCH  72  74
ENDBRANCH  71  72
ENDBRANCH  70  71
ENDBRANCH   1  70
TORSDOF 13
