REMARK SMILES C[C@@H]1C[N@@H+]([C@@H]2CC[C@]([NH2+]C3CC3)(C(=O)OCCOC(=O)c3ccc(-c4c5nc(c(-c6c(F)c(F)c(F)c(F)c6F)c6ccc([nH]6)c(-c6c(F)c(F)c(F)c(F)c6F)c6nc(c(-c7c(F)c(F)c(F)c(F)c7F)c7ccc4[nH]7)C=C6)C=C5)cc3)C2)CC(C)(C)O1
REMARK SMILES IDX 16 1 15 2 13 3 14 4 8 5 5 6 6 7 84 8 7 9 4 10 1 11 2 12 3 13
REMARK SMILES IDX 89 14 86 15 85 16 87 18 88 19 9 20 10 23 11 24 12 25 17 26
REMARK SMILES IDX 18 27 19 28 20 29 21 30 22 31 83 32 23 33 82 34 24 35 25 36
REMARK SMILES IDX 26 37 76 38 27 39 81 40 75 41 77 42 28 43 80 44 74 45 73 46
REMARK SMILES IDX 29 48 61 49 41 50 60 51 42 52 45 53 59 54 78 55 43 56 44 57
REMARK SMILES IDX 58 59 79 60 46 61 30 62 31 63 39 64 32 65 33 66 37 67 40 68
REMARK SMILES IDX 34 69 35 70 38 71 36 72 62 73 63 74 71 75 64 76 65 77 69 78
REMARK SMILES IDX 72 79 66 80 67 81 70 82 68 83 47 84 48 85 56 86 49 87 50 88
REMARK SMILES IDX 54 89 57 90 51 91 52 92 55 93 53 94
REMARK H PARENT 4 17 9 21 9 22 77 47 45 58
REMARK Flexibility Score: inf
ROOT
ATOM      1  C   UNL     1       4.917   8.062  -2.759  1.00  0.00     0.274 C 
ENDROOT
BRANCH   1   2
ATOM      2  O   UNL     1       4.392   7.684  -1.469  1.00  0.00    -0.457 OA
BRANCH   2   3
ATOM      3  C   UNL     1       3.511   6.637  -1.461  1.00  0.00     0.368 C 
ATOM      4  O   UNL     1       3.043   6.124  -2.472  1.00  0.00    -0.245 OA
BRANCH   3   5
ATOM      5  C   UNL     1       3.118   6.216  -0.013  1.00  0.00     0.200 C 
ATOM      6  C   UNL     1       1.584   4.522   0.832  1.00  0.00     0.191 C 
ATOM      7  C   UNL     1       0.741   5.696   0.333  1.00  0.00     0.072 C 
ATOM      8  C   UNL     1       2.871   4.688   0.029  1.00  0.00     0.146 C 
ATOM      9  C   UNL     1       1.740   6.861   0.283  1.00  0.00     0.087 C 
BRANCH   6  10
ATOM     10  N   UNL     1       1.033   3.164   0.796  1.00  0.00    -0.328 N 
ATOM     11  C   UNL     1       1.101   0.167  -0.519  1.00  0.00     0.045 C 
ATOM     12  C   UNL     1       0.011   1.236  -0.468  1.00  0.00     0.171 C 
ATOM     13  C   UNL     1       0.555   2.688  -0.515  1.00  0.00     0.294 C 
ATOM     14  O   UNL     1      -0.906   1.005   0.613  1.00  0.00    -0.361 OA
ATOM     15  C   UNL     1      -0.520   1.538   1.893  1.00  0.00     0.112 C 
ATOM     16  C   UNL     1      -0.072   3.014   1.764  1.00  0.00     0.297 C 
ATOM     17  H   UNL     1       1.837   2.585   1.039  1.00  0.00     0.348 HD
ATOM     18  C   UNL     1       0.554   0.674   2.568  1.00  0.00     0.048 C 
ATOM     19  C   UNL     1      -1.788   1.480   2.758  1.00  0.00     0.048 C 
ENDBRANCH   6  10
BRANCH   5  20
ATOM     20  N   UNL     1       4.198   6.625   0.924  1.00  0.00    -0.329 N 
ATOM     21  H   UNL     1       4.309   7.635   0.843  1.00  0.00     0.347 HD
ATOM     22  H   UNL     1       5.011   6.076   0.644  1.00  0.00     0.347 HD
BRANCH  20  23
ATOM     23  C   UNL     1       4.005   6.315   2.345  1.00  0.00     0.183 C 
ATOM     24  C   UNL     1       4.584   5.053   2.922  1.00  0.00     0.071 C 
ATOM     25  C   UNL     1       5.197   6.377   3.261  1.00  0.00     0.071 C 
ENDBRANCH  20  23
ENDBRANCH   5  20
ENDBRANCH   3   5
ENDBRANCH   2   3
ENDBRANCH   1   2
BRANCH   1  26
ATOM     26  C   UNL     1       6.321   7.487  -2.937  1.00  0.00     0.275 C 
BRANCH  26  27
ATOM     27  O   UNL     1       6.249   6.055  -2.848  1.00  0.00    -0.458 OA
BRANCH  27  28
ATOM     28  C   UNL     1       7.302   5.447  -2.253  1.00  0.00     0.338 C 
ATOM     29  O   UNL     1       8.341   5.963  -1.885  1.00  0.00    -0.246 OA
BRANCH  28  30
ATOM     30  C   UNL     1       7.014   4.003  -2.128  1.00  0.00     0.060 A 
ATOM     31  C   UNL     1       5.766   3.570  -1.681  1.00  0.00     0.016 A 
ATOM     32  C   UNL     1       8.015   3.072  -2.393  1.00  0.00     0.016 A 
ATOM     33  C   UNL     1       5.522   2.216  -1.450  1.00  0.00     0.010 A 
ATOM     34  C   UNL     1       7.751   1.708  -2.231  1.00  0.00     0.010 A 
ATOM     35  C   UNL     1       6.511   1.266  -1.732  1.00  0.00    -0.014 A 
BRANCH  35  36
ATOM     36  C   UNL     1       6.290  -0.180  -1.452  1.00  0.00     0.031 A 
ATOM     37  C   UNL     1       7.169  -0.888  -0.457  1.00  0.00     0.074 A 
ATOM     38  C   UNL     1       5.320  -0.870  -2.084  1.00  0.00     0.049 A 
ATOM     39  N   UNL     1       7.297  -2.170  -0.222  1.00  0.00    -0.248 NA
ATOM     40  C   UNL     1       8.032  -0.036   0.376  1.00  0.00     0.031 C 
ATOM     41  C   UNL     1       4.359  -0.309  -3.032  1.00  0.00     0.029 A 
ATOM     42  N   UNL     1       4.990  -2.203  -2.024  1.00  0.00    -0.354 N 
ATOM     43  C   UNL     1       8.294  -2.280   0.739  1.00  0.00     0.074 A 
ATOM     44  C   UNL     1       8.736  -0.937   1.046  1.00  0.00     0.031 C 
ATOM     45  C   UNL     1       3.535  -1.284  -3.450  1.00  0.00     0.029 A 
ATOM     46  C   UNL     1       3.955  -2.550  -2.858  1.00  0.00     0.049 A 
ATOM     47  H   UNL     1       5.451  -2.847  -1.440  1.00  0.00     0.167 HD
ATOM     48  C   UNL     1       8.796  -3.401   1.310  1.00  0.00     0.037 A 
ATOM     49  C   UNL     1       3.431  -3.757  -3.146  1.00  0.00     0.037 A 
ATOM     50  C   UNL     1       8.316  -4.733   1.048  1.00  0.00     0.049 A 
ATOM     51  C   UNL     1       4.022  -4.991  -2.521  1.00  0.00     0.074 A 
ATOM     52  C   UNL     1       8.750  -5.930   1.592  1.00  0.00     0.029 A 
ATOM     53  N   UNL     1       7.280  -5.041   0.181  1.00  0.00    -0.354 N 
ATOM     54  N   UNL     1       5.006  -5.093  -1.661  1.00  0.00    -0.248 NA
ATOM     55  C   UNL     1       3.445  -6.281  -2.927  1.00  0.00     0.031 C 
ATOM     56  C   UNL     1       7.995  -6.966   1.031  1.00  0.00     0.029 A 
ATOM     57  C   UNL     1       7.067  -6.411   0.166  1.00  0.00     0.049 A 
ATOM     58  H   UNL     1       6.770  -4.385  -0.347  1.00  0.00     0.167 HD
ATOM     59  C   UNL     1       5.161  -6.451  -1.418  1.00  0.00     0.074 A 
ATOM     60  C   UNL     1       4.156  -7.136  -2.204  1.00  0.00     0.031 C 
ATOM     61  C   UNL     1       6.062  -7.076  -0.621  1.00  0.00     0.037 A 
BRANCH  48  62
ATOM     62  C   UNL     1       9.950  -3.240   2.253  1.00  0.00     0.064 A 
ATOM     63  C   UNL     1       9.784  -2.723   3.546  1.00  0.00     0.173 A 
ATOM     64  C   UNL     1      11.237  -3.640   1.864  1.00  0.00     0.173 A 
ATOM     65  F   UNL     1       8.576  -2.312   3.959  1.00  0.00    -0.203 F 
ATOM     66  C   UNL     1      10.871  -2.591   4.407  1.00  0.00     0.198 A 
ATOM     67  C   UNL     1      12.316  -3.531   2.736  1.00  0.00     0.198 A 
ATOM     68  F   UNL     1      11.447  -4.146   0.639  1.00  0.00    -0.203 F 
ATOM     69  F   UNL     1      10.698  -2.055   5.623  1.00  0.00    -0.200 F 
ATOM     70  C   UNL     1      12.134  -3.000   4.004  1.00  0.00     0.200 A 
ATOM     71  F   UNL     1      13.534  -3.937   2.349  1.00  0.00    -0.200 F 
ATOM     72  F   UNL     1      13.177  -2.878   4.837  1.00  0.00    -0.200 F 
ENDBRANCH  48  62
BRANCH  49  73
ATOM     73  C   UNL     1       2.304  -3.864  -4.109  1.00  0.00     0.064 A 
ATOM     74  C   UNL     1       1.022  -4.233  -3.677  1.00  0.00     0.173 A 
ATOM     75  C   UNL     1       2.484  -3.607  -5.475  1.00  0.00     0.173 A 
ATOM     76  F   UNL     1       0.809  -4.520  -2.384  1.00  0.00    -0.203 F 
ATOM     77  C   UNL     1      -0.035  -4.347  -4.577  1.00  0.00     0.198 A 
ATOM     78  C   UNL     1       1.420  -3.694  -6.370  1.00  0.00     0.198 A 
ATOM     79  F   UNL     1       3.692  -3.257  -5.939  1.00  0.00    -0.203 F 
ATOM     80  F   UNL     1      -1.240  -4.741  -4.146  1.00  0.00    -0.200 F 
ATOM     81  C   UNL     1       0.163  -4.070  -5.922  1.00  0.00     0.200 A 
ATOM     82  F   UNL     1       1.614  -3.416  -7.667  1.00  0.00    -0.200 F 
ATOM     83  F   UNL     1      -0.855  -4.174  -6.787  1.00  0.00    -0.200 F 
ENDBRANCH  49  73
BRANCH  61  84
ATOM     84  C   UNL     1       5.990  -8.571  -0.546  1.00  0.00     0.064 A 
ATOM     85  C   UNL     1       6.450  -9.379  -1.596  1.00  0.00     0.173 A 
ATOM     86  C   UNL     1       5.489  -9.203   0.602  1.00  0.00     0.173 A 
ATOM     87  F   UNL     1       6.921  -8.820  -2.720  1.00  0.00    -0.203 F 
ATOM     88  C   UNL     1       6.394 -10.767  -1.506  1.00  0.00     0.198 A 
ATOM     89  C   UNL     1       5.456 -10.591   0.697  1.00  0.00     0.198 A 
ATOM     90  F   UNL     1       5.042  -8.473   1.635  1.00  0.00    -0.203 F 
ATOM     91  F   UNL     1       6.803 -11.520  -2.537  1.00  0.00    -0.200 F 
ATOM     92  C   UNL     1       5.903 -11.372  -0.358  1.00  0.00     0.200 A 
ATOM     93  F   UNL     1       4.990 -11.175   1.810  1.00  0.00    -0.200 F 
ATOM     94  F   UNL     1       5.854 -12.708  -0.273  1.00  0.00    -0.200 F 
ENDBRANCH  61  84
ENDBRANCH  35  36
ENDBRANCH  28  30
ENDBRANCH  27  28
ENDBRANCH  26  27
ENDBRANCH   1  26
TORSDOF 14
