REMARK SMILES CC(C)[C@H](NC(N)=O)C(=O)N[C@H](C)C(=O)OCCOC(=O)c1ccc(-c2c3nc(c(-c4c(F)c(F)c(F)c(F)c4F)c4ccc([nH]4)c(-c4c(F)c(F)c(F)c(F)c4F)c4nc(c(-c5c(F)c(F)c(F)c(F)c5F)c5ccc2[nH]5)C=C4)C=C3)cc1
REMARK SMILES IDX 17 1 16 2 14 3 15 4 12 5 13 6 11 7 9 8 10 9 4 11 2 12 1 13
REMARK SMILES IDX 3 14 5 15 6 16 7 18 8 19 18 22 19 23 20 24 21 25 22 26 23 27
REMARK SMILES IDX 84 28 24 29 83 30 25 31 26 32 27 33 77 34 28 35 82 36 76 37
REMARK SMILES IDX 78 38 29 39 81 40 75 41 74 42 30 44 62 45 42 46 61 47 43 48
REMARK SMILES IDX 46 49 60 50 79 51 44 52 45 53 59 55 80 56 47 57 31 58 32 59
REMARK SMILES IDX 40 60 33 61 34 62 38 63 41 64 35 65 36 66 39 67 37 68 63 69
REMARK SMILES IDX 64 70 72 71 65 72 66 73 70 74 73 75 67 76 68 77 71 78 69 79
REMARK SMILES IDX 48 80 49 81 57 82 50 83 51 84 55 85 58 86 52 87 53 88 56 89
REMARK SMILES IDX 54 90
REMARK H PARENT 11 10 5 17 7 20 7 21 78 43 46 54
REMARK Flexibility Score: inf
ROOT
ATOM      1  C   UNL     1      -2.336  -2.504  -6.715  1.00  0.00     0.274 C 
ENDROOT
BRANCH   1   2
ATOM      2  O   UNL     1      -1.877  -3.202  -5.543  1.00  0.00    -0.461 OA
BRANCH   2   3
ATOM      3  C   UNL     1      -0.779  -2.714  -4.902  1.00  0.00     0.328 C 
ATOM      4  O   UNL     1      -0.073  -1.813  -5.339  1.00  0.00    -0.250 OA
BRANCH   3   5
ATOM      5  C   UNL     1      -0.563  -3.393  -3.531  1.00  0.00     0.189 C 
ATOM      6  C   UNL     1      -1.557  -4.524  -3.265  1.00  0.00     0.043 C 
BRANCH   5   7
ATOM      7  N   UNL     1       0.800  -3.889  -3.401  1.00  0.00    -0.341 N 
ATOM      8  C   UNL     1       1.635  -3.924  -2.329  1.00  0.00     0.243 C 
ATOM      9  O   UNL     1       2.633  -4.650  -2.437  1.00  0.00    -0.273 OA
ATOM     10  H   UNL     1       1.181  -4.261  -4.229  1.00  0.00     0.164 HD
BRANCH   8  11
ATOM     11  C   UNL     1       1.345  -3.220  -0.965  1.00  0.00     0.175 C 
BRANCH  11  12
ATOM     12  C   UNL     1       0.205  -3.943  -0.180  1.00  0.00     0.015 C 
ATOM     13  C   UNL     1       0.701  -4.435   1.185  1.00  0.00     0.010 C 
ATOM     14  C   UNL     1      -1.071  -3.118   0.046  1.00  0.00     0.010 C 
ENDBRANCH  11  12
BRANCH  11  15
ATOM     15  N   UNL     1       1.174  -1.766  -0.980  1.00  0.00    -0.326 N 
ATOM     16  C   UNL     1       1.997  -0.950  -1.697  1.00  0.00     0.312 C 
ATOM     17  H   UNL     1       0.442  -1.366  -0.457  1.00  0.00     0.166 HD
ATOM     18  N   UNL     1       1.966   0.335  -1.267  1.00  0.00    -0.352 N 
ATOM     19  O   UNL     1       2.680  -1.280  -2.647  1.00  0.00    -0.249 OA
ATOM     20  H   UNL     1       1.406   0.583  -0.496  1.00  0.00     0.161 HD
ATOM     21  H   UNL     1       2.502   1.021  -1.726  1.00  0.00     0.161 HD
ENDBRANCH  11  15
ENDBRANCH   8  11
ENDBRANCH   5   7
ENDBRANCH   3   5
ENDBRANCH   2   3
ENDBRANCH   1   2
BRANCH   1  22
ATOM     22  C   UNL     1      -3.615  -1.727  -6.387  1.00  0.00     0.275 C 
BRANCH  22  23
ATOM     23  O   UNL     1      -3.330  -0.529  -5.636  1.00  0.00    -0.458 OA
BRANCH  23  24
ATOM     24  C   UNL     1      -3.253  -0.693  -4.296  1.00  0.00     0.338 C 
ATOM     25  O   UNL     1      -3.435  -1.720  -3.662  1.00  0.00    -0.246 OA
BRANCH  24  26
ATOM     26  C   UNL     1      -2.787   0.545  -3.654  1.00  0.00     0.060 A 
ATOM     27  C   UNL     1      -1.687   0.451  -2.800  1.00  0.00     0.016 A 
ATOM     28  C   UNL     1      -3.476   1.752  -3.792  1.00  0.00     0.016 A 
ATOM     29  C   UNL     1      -1.300   1.551  -2.045  1.00  0.00     0.010 A 
ATOM     30  C   UNL     1      -3.070   2.865  -3.045  1.00  0.00     0.010 A 
ATOM     31  C   UNL     1      -1.993   2.763  -2.149  1.00  0.00    -0.014 A 
BRANCH  31  32
ATOM     32  C   UNL     1      -1.607   3.877  -1.250  1.00  0.00     0.031 A 
ATOM     33  C   UNL     1      -2.463   4.212  -0.062  1.00  0.00     0.074 A 
ATOM     34  C   UNL     1      -0.442   4.522  -1.443  1.00  0.00     0.049 A 
ATOM     35  N   UNL     1      -2.283   5.126   0.858  1.00  0.00    -0.248 NA
ATOM     36  C   UNL     1      -3.677   3.403   0.122  1.00  0.00     0.031 C 
ATOM     37  C   UNL     1       0.503   4.250  -2.526  1.00  0.00     0.029 A 
ATOM     38  N   UNL     1       0.152   5.528  -0.723  1.00  0.00    -0.354 N 
ATOM     39  C   UNL     1      -3.364   5.012   1.721  1.00  0.00     0.074 A 
ATOM     40  C   UNL     1      -4.205   3.952   1.206  1.00  0.00     0.031 C 
ATOM     41  C   UNL     1       1.565   5.062  -2.393  1.00  0.00     0.029 A 
ATOM     42  C   UNL     1       1.357   5.935  -1.240  1.00  0.00     0.049 A 
ATOM     43  H   UNL     1      -0.247   5.920   0.087  1.00  0.00     0.167 HD
ATOM     44  C   UNL     1      -3.628   5.722   2.844  1.00  0.00     0.037 A 
ATOM     45  C   UNL     1       2.190   6.914  -0.838  1.00  0.00     0.037 A 
ATOM     46  C   UNL     1      -2.792   6.774   3.361  1.00  0.00     0.049 A 
ATOM     47  C   UNL     1       1.841   7.727   0.380  1.00  0.00     0.074 A 
ATOM     48  C   UNL     1      -2.984   7.558   4.485  1.00  0.00     0.029 A 
ATOM     49  N   UNL     1      -1.601   7.191   2.784  1.00  0.00    -0.354 N 
ATOM     50  N   UNL     1       0.813   7.615   1.185  1.00  0.00    -0.248 NA
ATOM     51  C   UNL     1       2.773   8.804   0.743  1.00  0.00     0.031 C 
ATOM     52  C   UNL     1      -1.929   8.475   4.568  1.00  0.00     0.029 A 
ATOM     53  C   UNL     1      -1.056   8.231   3.521  1.00  0.00     0.049 A 
ATOM     54  H   UNL     1      -1.203   6.806   1.970  1.00  0.00     0.167 HD
ATOM     55  C   UNL     1       0.986   8.588   2.161  1.00  0.00     0.074 A 
ATOM     56  C   UNL     1       2.228   9.268   1.858  1.00  0.00     0.031 C 
ATOM     57  C   UNL     1       0.185   8.894   3.212  1.00  0.00     0.037 A 
BRANCH  44  58
ATOM     58  C   UNL     1      -4.898   5.402   3.576  1.00  0.00     0.064 A 
ATOM     59  C   UNL     1      -5.039   4.226   4.327  1.00  0.00     0.173 A 
ATOM     60  C   UNL     1      -5.980   6.294   3.540  1.00  0.00     0.173 A 
ATOM     61  F   UNL     1      -4.038   3.333   4.378  1.00  0.00    -0.203 F 
ATOM     62  C   UNL     1      -6.227   3.943   4.997  1.00  0.00     0.198 A 
ATOM     63  C   UNL     1      -7.157   6.020   4.231  1.00  0.00     0.198 A 
ATOM     64  F   UNL     1      -5.894   7.433   2.837  1.00  0.00    -0.203 F 
ATOM     65  F   UNL     1      -6.356   2.793   5.672  1.00  0.00    -0.200 F 
ATOM     66  C   UNL     1      -7.282   4.843   4.953  1.00  0.00     0.200 A 
ATOM     67  F   UNL     1      -8.172   6.894   4.194  1.00  0.00    -0.200 F 
ATOM     68  F   UNL     1      -8.424   4.570   5.599  1.00  0.00    -0.200 F 
ENDBRANCH  44  58
BRANCH  45  69
ATOM     69  C   UNL     1       3.434   7.190  -1.601  1.00  0.00     0.064 A 
ATOM     70  C   UNL     1       4.695   6.928  -1.048  1.00  0.00     0.173 A 
ATOM     71  C   UNL     1       3.387   7.748  -2.887  1.00  0.00     0.173 A 
ATOM     72  F   UNL     1       4.790   6.419   0.189  1.00  0.00    -0.203 F 
ATOM     73  C   UNL     1       5.862   7.232  -1.746  1.00  0.00     0.198 A 
ATOM     74  C   UNL     1       4.554   8.025  -3.594  1.00  0.00     0.198 A 
ATOM     75  F   UNL     1       2.204   8.021  -3.457  1.00  0.00    -0.203 F 
ATOM     76  F   UNL     1       7.056   7.020  -1.174  1.00  0.00    -0.200 F 
ATOM     77  C   UNL     1       5.791   7.776  -3.020  1.00  0.00     0.200 A 
ATOM     78  F   UNL     1       4.480   8.542  -4.828  1.00  0.00    -0.200 F 
ATOM     79  F   UNL     1       6.914   8.070  -3.688  1.00  0.00    -0.200 F 
ENDBRANCH  45  69
BRANCH  57  80
ATOM     80  C   UNL     1       0.649   9.988   4.130  1.00  0.00     0.064 A 
ATOM     81  C   UNL     1       0.640  11.334   3.737  1.00  0.00     0.173 A 
ATOM     82  C   UNL     1       1.097   9.685   5.425  1.00  0.00     0.173 A 
ATOM     83  F   UNL     1       0.236  11.674   2.503  1.00  0.00    -0.203 F 
ATOM     84  C   UNL     1       1.094  12.334   4.594  1.00  0.00     0.198 A 
ATOM     85  C   UNL     1       1.522  10.690   6.290  1.00  0.00     0.198 A 
ATOM     86  F   UNL     1       1.119   8.414   5.853  1.00  0.00    -0.203 F 
ATOM     87  F   UNL     1       1.129  13.607   4.176  1.00  0.00    -0.200 F 
ATOM     88  C   UNL     1       1.530  12.012   5.870  1.00  0.00     0.200 A 
ATOM     89  F   UNL     1       1.933  10.378   7.527  1.00  0.00    -0.200 F 
ATOM     90  F   UNL     1       1.968  12.975   6.693  1.00  0.00    -0.200 F 
ENDBRANCH  57  80
ENDBRANCH  31  32
ENDBRANCH  24  26
ENDBRANCH  23  24
ENDBRANCH  22  23
ENDBRANCH   1  22
TORSDOF 15
