REMARK SMILES O=C(OCCOC(=O)c1ccccc1C(=O)N1CCOCCOCCOCC1)c1ccc(-c2c3nc(c(-c4c(F)c(F)c(F)c(F)c4F)c4ccc([nH]4)c(-c4c(F)c(F)c(F)c(F)c4F)c4nc(c(-c5c(F)c(F)c(F)c(F)c5F)c5ccc2[nH]5)C=C4)C=C3)cc1
REMARK SMILES IDX 9 1 10 2 11 3 12 4 13 5 14 6 7 7 8 8 6 9 5 10 4 11 3 12 2 13
REMARK SMILES IDX 1 14 29 15 30 16 91 17 31 18 90 19 32 20 33 21 34 22 84 23
REMARK SMILES IDX 35 24 89 25 83 26 85 27 36 28 88 29 82 30 81 31 37 33 69 34
REMARK SMILES IDX 49 35 68 36 50 37 53 38 67 39 86 40 51 41 52 42 66 44 87 45
REMARK SMILES IDX 54 46 38 47 39 48 47 49 40 50 41 51 45 52 48 53 42 54 43 55
REMARK SMILES IDX 46 56 44 57 70 58 71 59 79 60 72 61 73 62 77 63 80 64 74 65
REMARK SMILES IDX 75 66 78 67 76 68 55 69 56 70 64 71 57 72 58 73 62 74 65 75
REMARK SMILES IDX 59 76 60 77 63 78 61 79 15 80 16 81 17 82 18 83 19 84 20 85
REMARK SMILES IDX 21 86 28 88 27 89 26 90 25 91 24 92 23 93 22 94
REMARK H PARENT 85 32 53 43
REMARK Flexibility Score: 60.00
ROOT
ATOM      1  C   UNL     1       2.114   1.431   2.211  1.00  0.00     0.072 A 
ATOM      2  C   UNL     1       0.985   0.605   2.370  1.00  0.00     0.016 A 
ATOM      3  C   UNL     1       0.540   0.251   3.643  1.00  0.00     0.001 A 
ATOM      4  C   UNL     1       1.186   0.757   4.763  1.00  0.00     0.001 A 
ATOM      5  C   UNL     1       2.278   1.611   4.605  1.00  0.00     0.015 A 
ATOM      6  C   UNL     1       2.782   1.938   3.328  1.00  0.00     0.054 A 
ENDROOT
BRANCH   1   7
ATOM      7  C   UNL     1       2.450   1.786   0.834  1.00  0.00     0.339 C 
ATOM      8  O   UNL     1       1.832   2.635   0.201  1.00  0.00    -0.246 OA
BRANCH   7   9
ATOM      9  O   UNL     1       3.444   0.990   0.387  1.00  0.00    -0.458 OA
BRANCH   9  10
ATOM     10  C   UNL     1       3.783   1.138  -0.999  1.00  0.00     0.275 C 
BRANCH  10  11
ATOM     11  C   UNL     1       4.078  -0.215  -1.633  1.00  0.00     0.275 C 
BRANCH  11  12
ATOM     12  O   UNL     1       3.044  -1.200  -1.416  1.00  0.00    -0.458 OA
BRANCH  12  13
ATOM     13  C   UNL     1       2.622  -1.808  -0.283  1.00  0.00     0.338 C 
ATOM     14  O   UNL     1       1.518  -2.353  -0.294  1.00  0.00    -0.246 OA
BRANCH  13  15
ATOM     15  C   UNL     1       3.403  -1.868   0.997  1.00  0.00     0.060 A 
ATOM     16  C   UNL     1       4.765  -1.597   1.135  1.00  0.00     0.016 A 
ATOM     17  C   UNL     1       2.699  -2.266   2.153  1.00  0.00     0.016 A 
ATOM     18  C   UNL     1       5.388  -1.650   2.385  1.00  0.00     0.010 A 
ATOM     19  C   UNL     1       3.318  -2.329   3.408  1.00  0.00     0.010 A 
ATOM     20  C   UNL     1       4.672  -2.015   3.527  1.00  0.00    -0.014 A 
BRANCH  20  21
ATOM     21  C   UNL     1       5.418  -2.246   4.784  1.00  0.00     0.031 A 
ATOM     22  C   UNL     1       6.018  -3.596   4.995  1.00  0.00     0.074 A 
ATOM     23  C   UNL     1       5.665  -1.249   5.651  1.00  0.00     0.049 A 
ATOM     24  N   UNL     1       6.833  -3.995   5.931  1.00  0.00    -0.248 NA
ATOM     25  C   UNL     1       5.698  -4.617   3.984  1.00  0.00     0.031 C 
ATOM     26  C   UNL     1       5.223   0.121   5.469  1.00  0.00     0.029 A 
ATOM     27  N   UNL     1       6.354  -1.215   6.835  1.00  0.00    -0.354 N 
ATOM     28  C   UNL     1       7.181  -5.288   5.584  1.00  0.00     0.074 A 
ATOM     29  C   UNL     1       6.442  -5.632   4.389  1.00  0.00     0.031 C 
ATOM     30  C   UNL     1       5.607   0.868   6.516  1.00  0.00     0.029 A 
ATOM     31  C   UNL     1       6.334   0.017   7.448  1.00  0.00     0.049 A 
ATOM     32  H   UNL     1       6.818  -1.997   7.212  1.00  0.00     0.167 HD
ATOM     33  C   UNL     1       8.064  -6.104   6.200  1.00  0.00     0.037 A 
ATOM     34  C   UNL     1       6.848   0.406   8.630  1.00  0.00     0.037 A 
ATOM     35  C   UNL     1       8.718  -5.783   7.437  1.00  0.00     0.049 A 
ATOM     36  C   UNL     1       7.670  -0.592   9.400  1.00  0.00     0.074 A 
ATOM     37  C   UNL     1       9.535  -6.578   8.217  1.00  0.00     0.029 A 
ATOM     38  N   UNL     1       8.600  -4.562   8.091  1.00  0.00    -0.354 N 
ATOM     39  N   UNL     1       8.000  -1.817   9.066  1.00  0.00    -0.248 NA
ATOM     40  C   UNL     1       8.212  -0.156  10.693  1.00  0.00     0.031 C 
ATOM     41  C   UNL     1       9.874  -5.855   9.366  1.00  0.00     0.029 A 
ATOM     42  C   UNL     1       9.311  -4.590   9.278  1.00  0.00     0.049 A 
ATOM     43  H   UNL     1       8.087  -3.790   7.758  1.00  0.00     0.167 HD
ATOM     44  C   UNL     1       8.819  -2.284  10.082  1.00  0.00     0.074 A 
ATOM     45  C   UNL     1       8.944  -1.205  11.042  1.00  0.00     0.031 C 
ATOM     46  C   UNL     1       9.418  -3.494  10.210  1.00  0.00     0.037 A 
BRANCH  33  47
ATOM     47  C   UNL     1       8.307  -7.426   5.544  1.00  0.00     0.064 A 
ATOM     48  C   UNL     1       9.045  -7.519   4.352  1.00  0.00     0.173 A 
ATOM     49  C   UNL     1       7.739  -8.596   6.062  1.00  0.00     0.173 A 
ATOM     50  F   UNL     1       9.575  -6.418   3.797  1.00  0.00    -0.203 F 
ATOM     51  C   UNL     1       9.178  -8.736   3.689  1.00  0.00     0.198 A 
ATOM     52  C   UNL     1       7.893  -9.814   5.407  1.00  0.00     0.198 A 
ATOM     53  F   UNL     1       7.009  -8.551   7.187  1.00  0.00    -0.203 F 
ATOM     54  F   UNL     1       9.831  -8.792   2.520  1.00  0.00    -0.200 F 
ATOM     55  C   UNL     1       8.603  -9.882   4.218  1.00  0.00     0.200 A 
ATOM     56  F   UNL     1       7.331 -10.920   5.915  1.00  0.00    -0.200 F 
ATOM     57  F   UNL     1       8.716 -11.049   3.569  1.00  0.00    -0.200 F 
ENDBRANCH  33  47
BRANCH  34  58
ATOM     58  C   UNL     1       6.602   1.778   9.155  1.00  0.00     0.064 A 
ATOM     59  C   UNL     1       7.647   2.695   9.336  1.00  0.00     0.173 A 
ATOM     60  C   UNL     1       5.313   2.182   9.540  1.00  0.00     0.173 A 
ATOM     61  F   UNL     1       8.901   2.355   9.008  1.00  0.00    -0.203 F 
ATOM     62  C   UNL     1       7.419   3.946   9.912  1.00  0.00     0.198 A 
ATOM     63  C   UNL     1       5.082   3.442  10.090  1.00  0.00     0.198 A 
ATOM     64  F   UNL     1       4.276   1.344   9.395  1.00  0.00    -0.203 F 
ATOM     65  F   UNL     1       8.448   4.776  10.134  1.00  0.00    -0.200 F 
ATOM     66  C   UNL     1       6.137   4.318  10.288  1.00  0.00     0.200 A 
ATOM     67  F   UNL     1       3.841   3.797  10.450  1.00  0.00    -0.200 F 
ATOM     68  F   UNL     1       5.923   5.512  10.858  1.00  0.00    -0.200 F 
ENDBRANCH  34  58
BRANCH  46  69
ATOM     69  C   UNL     1      10.284  -3.696  11.416  1.00  0.00     0.064 A 
ATOM     70  C   UNL     1       9.737  -3.836  12.699  1.00  0.00     0.173 A 
ATOM     71  C   UNL     1      11.677  -3.786  11.277  1.00  0.00     0.173 A 
ATOM     72  F   UNL     1       8.412  -3.740  12.883  1.00  0.00    -0.203 F 
ATOM     73  C   UNL     1      10.557  -4.035  13.806  1.00  0.00     0.198 A 
ATOM     74  C   UNL     1      12.491  -4.016  12.382  1.00  0.00     0.198 A 
ATOM     75  F   UNL     1      12.247  -3.663  10.069  1.00  0.00    -0.203 F 
ATOM     76  F   UNL     1      10.018  -4.117  15.030  1.00  0.00    -0.200 F 
ATOM     77  C   UNL     1      11.931  -4.133  13.645  1.00  0.00     0.200 A 
ATOM     78  F   UNL     1      13.817  -4.124  12.223  1.00  0.00    -0.200 F 
ATOM     79  F   UNL     1      12.718  -4.332  14.711  1.00  0.00    -0.200 F 
ENDBRANCH  46  69
ENDBRANCH  20  21
ENDBRANCH  13  15
ENDBRANCH  12  13
ENDBRANCH  11  12
ENDBRANCH  10  11
ENDBRANCH   9  10
ENDBRANCH   7   9
ENDBRANCH   1   7
BRANCH   6  80
ATOM     80  C   UNL     1       4.018   2.778   3.315  1.00  0.00     0.254 C 
ATOM     81  O   UNL     1       4.380   3.340   4.348  1.00  0.00    -0.269 OA
ATOM     82  N   UNL     1       4.806   2.793   2.175  1.00  0.00    -0.334 N 
BRANCH  82  83
ATOM     83  C   UNL     1       6.045   2.006   2.188  1.00  0.00     0.148 C 
BRANCH  83  84
ATOM     84  C   UNL     1       7.146   2.513   3.139  1.00  0.00     0.181 C 
BRANCH  84  85
ATOM     85  O   UNL     1       8.299   2.906   2.389  1.00  0.00    -0.377 OA
BRANCH  85  86
ATOM     86  C   UNL     1       8.810   4.200   2.733  1.00  0.00     0.188 CG0
ATOM     87  G   UNL     1       8.400   5.211   1.663  1.00  0.00     0.000 G0
ENDBRANCH  85  86
ENDBRANCH  84  85
ENDBRANCH  83  84
ENDBRANCH  82  83
BRANCH  82  88
ATOM     88  C   UNL     1       4.776   3.953   1.286  1.00  0.00     0.148 C 
BRANCH  88  89
ATOM     89  C   UNL     1       4.009   5.180   1.783  1.00  0.00     0.181 C 
BRANCH  89  90
ATOM     90  O   UNL     1       4.219   6.303   0.924  1.00  0.00    -0.377 OA
BRANCH  90  91
ATOM     91  C   UNL     1       5.265   7.181   1.362  1.00  0.00     0.188 C 
BRANCH  91  92
ATOM     92  C   UNL     1       6.659   6.673   0.987  1.00  0.00     0.188 C 
BRANCH  92  93
ATOM     93  O   UNL     1       7.143   5.799   2.014  1.00  0.00    -0.377 OA
BRANCH  93  94
ATOM     94  C   UNL     1       8.400   5.211   1.663  1.00  0.00     0.188 CG0
ATOM     95  G   UNL     1       8.810   4.200   2.733  1.00  0.00     0.000 G0
ENDBRANCH  93  94
ENDBRANCH  92  93
ENDBRANCH  91  92
ENDBRANCH  90  91
ENDBRANCH  89  90
ENDBRANCH  88  89
ENDBRANCH  82  88
ENDBRANCH   6  80
TORSDOF 12
