REMARK SMILES C[C@@H]1[C@@H](C(=O)OCCOC(=O)c2ccc(-c3c4nc(c(-c5c(F)c(F)c(F)c(F)c5F)c5ccc([nH]5)c(-c5c(F)c(F)c(F)c(F)c5F)c5nc(c(-c6c(F)c(F)c(F)c(F)c6F)c6ccc3[nH]6)C=C5)C=C4)cc2)CCN1C(=O)[C@]1([NH3+])CCOC1
REMARK SMILES IDX 7 1 6 2 4 3 5 4 3 5 1 6 2 7 77 8 75 9 76 10 78 11 79 12
REMARK SMILES IDX 80 13 82 14 85 15 83 16 84 17 81 18 8 22 9 23 10 24 11 25
REMARK SMILES IDX 12 26 13 27 74 28 14 29 73 30 15 31 16 32 17 33 67 34 18 35
REMARK SMILES IDX 72 36 66 37 68 38 19 39 71 40 65 41 64 42 20 44 52 45 32 46
REMARK SMILES IDX 51 47 33 48 36 49 50 50 69 51 34 52 35 53 49 55 70 56 37 57
REMARK SMILES IDX 21 58 22 59 30 60 23 61 24 62 28 63 31 64 25 65 26 66 29 67
REMARK SMILES IDX 27 68 53 69 54 70 62 71 55 72 56 73 60 74 63 75 57 76 58 77
REMARK SMILES IDX 61 78 59 79 38 80 39 81 47 82 40 83 41 84 45 85 48 86 42 87
REMARK SMILES IDX 43 88 46 89 44 90
REMARK H PARENT 81 19 81 20 81 21 68 43 36 54
REMARK Flexibility Score: inf
ROOT
ATOM      1  C   UNL     1       6.377  -6.061   0.899  1.00  0.00     0.274 C 
ENDROOT
BRANCH   1   2
ATOM      2  O   UNL     1       5.779  -5.588  -0.330  1.00  0.00    -0.462 OA
BRANCH   2   3
ATOM      3  C   UNL     1       5.351  -6.555  -1.183  1.00  0.00     0.311 C 
ATOM      4  O   UNL     1       5.431  -7.758  -0.959  1.00  0.00    -0.252 OA
BRANCH   3   5
ATOM      5  C   UNL     1       4.907  -6.003  -2.525  1.00  0.00     0.123 C 
ATOM      6  C   UNL     1       4.456  -3.945  -3.852  1.00  0.00     0.032 C 
ATOM      7  C   UNL     1       4.190  -4.641  -2.509  1.00  0.00     0.096 C 
ATOM      8  N   UNL     1       2.771  -4.983  -2.374  1.00  0.00    -0.334 N 
ATOM      9  C   UNL     1       3.887  -6.929  -3.206  1.00  0.00     0.039 C 
ATOM     10  C   UNL     1       2.526  -6.300  -2.938  1.00  0.00     0.121 C 
BRANCH   8  11
ATOM     11  C   UNL     1       1.705  -4.308  -1.813  1.00  0.00     0.286 C 
ATOM     12  O   UNL     1       0.596  -4.874  -1.790  1.00  0.00    -0.267 OA
BRANCH  11  13
ATOM     13  C   UNL     1       1.784  -2.852  -1.222  1.00  0.00     0.199 C 
ATOM     14  C   UNL     1       2.059  -1.785  -2.264  1.00  0.00     0.110 C 
ATOM     15  C   UNL     1       2.864  -2.652  -0.167  1.00  0.00     0.239 C 
ATOM     16  C   UNL     1       3.423  -1.222  -1.923  1.00  0.00     0.167 C 
ATOM     17  O   UNL     1       3.912  -1.860  -0.744  1.00  0.00    -0.374 OA
BRANCH  13  18
ATOM     18  N   UNL     1       0.437  -2.555  -0.630  1.00  0.00    -0.343 N 
ATOM     19  H   UNL     1       0.440  -1.616  -0.232  1.00  0.00     0.345 HD
ATOM     20  H   UNL     1       0.231  -3.234   0.103  1.00  0.00     0.345 HD
ATOM     21  H   UNL     1      -0.275  -2.614  -1.358  1.00  0.00     0.345 HD
ENDBRANCH  13  18
ENDBRANCH  11  13
ENDBRANCH   8  11
ENDBRANCH   3   5
ENDBRANCH   2   3
ENDBRANCH   1   2
BRANCH   1  22
ATOM     22  C   UNL     1       5.375  -6.029   2.050  1.00  0.00     0.275 C 
BRANCH  22  23
ATOM     23  O   UNL     1       4.246  -6.856   1.725  1.00  0.00    -0.458 OA
BRANCH  23  24
ATOM     24  C   UNL     1       3.027  -6.318   1.965  1.00  0.00     0.338 C 
ATOM     25  O   UNL     1       2.792  -5.253   2.511  1.00  0.00    -0.246 OA
BRANCH  24  26
ATOM     26  C   UNL     1       1.964  -7.195   1.425  1.00  0.00     0.060 A 
ATOM     27  C   UNL     1       2.171  -7.962   0.280  1.00  0.00     0.016 A 
ATOM     28  C   UNL     1       0.695  -7.159   2.008  1.00  0.00     0.016 A 
ATOM     29  C   UNL     1       1.096  -8.604  -0.338  1.00  0.00     0.010 A 
ATOM     30  C   UNL     1      -0.361  -7.877   1.434  1.00  0.00     0.010 A 
ATOM     31  C   UNL     1      -0.186  -8.572   0.226  1.00  0.00    -0.014 A 
BRANCH  31  32
ATOM     32  C   UNL     1      -1.351  -9.198  -0.467  1.00  0.00     0.031 A 
ATOM     33  C   UNL     1      -2.582  -8.377  -0.762  1.00  0.00     0.074 A 
ATOM     34  C   UNL     1      -1.328 -10.488  -0.858  1.00  0.00     0.049 A 
ATOM     35  N   UNL     1      -3.790  -8.777  -1.074  1.00  0.00    -0.248 NA
ATOM     36  C   UNL     1      -2.441  -6.916  -0.672  1.00  0.00     0.031 C 
ATOM     37  C   UNL     1      -0.195 -11.402  -0.717  1.00  0.00     0.029 A 
ATOM     38  N   UNL     1      -2.293 -11.254  -1.470  1.00  0.00    -0.354 N 
ATOM     39  C   UNL     1      -4.569  -7.628  -1.124  1.00  0.00     0.074 A 
ATOM     40  C   UNL     1      -3.693  -6.511  -0.836  1.00  0.00     0.031 C 
ATOM     41  C   UNL     1      -0.505 -12.580  -1.280  1.00  0.00     0.029 A 
ATOM     42  C   UNL     1      -1.895 -12.544  -1.720  1.00  0.00     0.049 A 
ATOM     43  H   UNL     1      -3.184 -10.909  -1.706  1.00  0.00     0.167 HD
ATOM     44  C   UNL     1      -5.896  -7.521  -1.377  1.00  0.00     0.037 A 
ATOM     45  C   UNL     1      -2.582 -13.599  -2.199  1.00  0.00     0.037 A 
ATOM     46  C   UNL     1      -6.742  -8.619  -1.766  1.00  0.00     0.049 A 
ATOM     47  C   UNL     1      -4.048 -13.457  -2.490  1.00  0.00     0.074 A 
ATOM     48  C   UNL     1      -8.100  -8.613  -2.039  1.00  0.00     0.029 A 
ATOM     49  N   UNL     1      -6.299  -9.915  -1.983  1.00  0.00    -0.354 N 
ATOM     50  N   UNL     1      -4.812 -12.399  -2.385  1.00  0.00    -0.248 NA
ATOM     51  C   UNL     1      -4.756 -14.669  -2.926  1.00  0.00     0.031 C 
ATOM     52  C   UNL     1      -8.481  -9.907  -2.412  1.00  0.00     0.029 A 
ATOM     53  C   UNL     1      -7.354 -10.712  -2.397  1.00  0.00     0.049 A 
ATOM     54  H   UNL     1      -5.372 -10.222  -1.861  1.00  0.00     0.167 HD
ATOM     55  C   UNL     1      -6.089 -12.816  -2.729  1.00  0.00     0.074 A 
ATOM     56  C   UNL     1      -5.993 -14.218  -3.079  1.00  0.00     0.031 C 
ATOM     57  C   UNL     1      -7.242 -12.105  -2.737  1.00  0.00     0.037 A 
BRANCH  44  58
ATOM     58  C   UNL     1      -6.535  -6.174  -1.208  1.00  0.00     0.064 A 
ATOM     59  C   UNL     1      -6.377  -5.151  -2.151  1.00  0.00     0.173 A 
ATOM     60  C   UNL     1      -7.375  -5.933  -0.109  1.00  0.00     0.173 A 
ATOM     61  F   UNL     1      -5.577  -5.328  -3.213  1.00  0.00    -0.203 F 
ATOM     62  C   UNL     1      -7.028  -3.929  -1.994  1.00  0.00     0.198 A 
ATOM     63  C   UNL     1      -8.043  -4.720   0.033  1.00  0.00     0.198 A 
ATOM     64  F   UNL     1      -7.566  -6.885   0.818  1.00  0.00    -0.203 F 
ATOM     65  F   UNL     1      -6.843  -2.952  -2.893  1.00  0.00    -0.200 F 
ATOM     66  C   UNL     1      -7.866  -3.718  -0.908  1.00  0.00     0.200 A 
ATOM     67  F   UNL     1      -8.863  -4.525   1.074  1.00  0.00    -0.200 F 
ATOM     68  F   UNL     1      -8.503  -2.547  -0.768  1.00  0.00    -0.200 F 
ENDBRANCH  44  58
BRANCH  45  69
ATOM     69  C   UNL     1      -1.893 -14.903  -2.379  1.00  0.00     0.064 A 
ATOM     70  C   UNL     1      -1.634 -15.405  -3.661  1.00  0.00     0.173 A 
ATOM     71  C   UNL     1      -1.464 -15.660  -1.279  1.00  0.00     0.173 A 
ATOM     72  F   UNL     1      -2.054 -14.731  -4.742  1.00  0.00    -0.203 F 
ATOM     73  C   UNL     1      -0.967 -16.616  -3.836  1.00  0.00     0.198 A 
ATOM     74  C   UNL     1      -0.772 -16.856  -1.456  1.00  0.00     0.198 A 
ATOM     75  F   UNL     1      -1.694 -15.224  -0.032  1.00  0.00    -0.203 F 
ATOM     76  F   UNL     1      -0.757 -17.090  -5.071  1.00  0.00    -0.200 F 
ATOM     77  C   UNL     1      -0.527 -17.334  -2.734  1.00  0.00     0.200 A 
ATOM     78  F   UNL     1      -0.337 -17.539  -0.389  1.00  0.00    -0.200 F 
ATOM     79  F   UNL     1       0.129 -18.490  -2.903  1.00  0.00    -0.200 F 
ENDBRANCH  45  69
BRANCH  57  80
ATOM     80  C   UNL     1      -8.486 -12.833  -3.145  1.00  0.00     0.064 A 
ATOM     81  C   UNL     1      -9.134 -13.712  -2.266  1.00  0.00     0.173 A 
ATOM     82  C   UNL     1      -9.043 -12.636  -4.416  1.00  0.00     0.173 A 
ATOM     83  F   UNL     1      -8.627 -13.944  -1.046  1.00  0.00    -0.203 F 
ATOM     84  C   UNL     1     -10.289 -14.386  -2.654  1.00  0.00     0.198 A 
ATOM     85  C   UNL     1     -10.208 -13.298  -4.794  1.00  0.00     0.198 A 
ATOM     86  F   UNL     1      -8.458 -11.803  -5.289  1.00  0.00    -0.203 F 
ATOM     87  F   UNL     1     -10.872 -15.252  -1.814  1.00  0.00    -0.200 F 
ATOM     88  C   UNL     1     -10.826 -14.176  -3.916  1.00  0.00     0.200 A 
ATOM     89  F   UNL     1     -10.729 -13.092  -6.012  1.00  0.00    -0.200 F 
ATOM     90  F   UNL     1     -11.935 -14.828  -4.290  1.00  0.00    -0.200 F 
ENDBRANCH  57  80
ENDBRANCH  31  32
ENDBRANCH  24  26
ENDBRANCH  23  24
ENDBRANCH  22  23
ENDBRANCH   1  22
TORSDOF 14
