REMARK SMILES O=C(OCCOC(=O)[C@@H]1[C@@H](C(=O)Nc2nc(-c3ccc(F)cc3)cs2)[C@H]2C=C[C@@H]1O2)c1ccc(-c2c3nc(c(-c4c(F)c(F)c(F)c(F)c4F)c4ccc([nH]4)c(-c4c(F)c(F)c(F)c(F)c4F)c4nc(c(-c5c(F)c(F)c(F)c(F)c5F)c5ccc2[nH]5)C=C4)C=C3)cc1
REMARK SMILES IDX 5 1 4 2 3 3 2 4 1 5 31 6 32 7 93 8 33 9 92 10 34 11 35 12
REMARK SMILES IDX 36 13 86 14 37 15 91 16 85 17 87 18 38 19 90 20 84 21 83 22
REMARK SMILES IDX 39 24 71 25 51 26 70 27 52 28 55 29 69 30 88 31 53 32 54 33
REMARK SMILES IDX 68 35 89 36 56 37 40 38 41 39 49 40 42 41 43 42 47 43 50 44
REMARK SMILES IDX 44 45 45 46 48 47 46 48 72 49 73 50 81 51 74 52 75 53 79 54
REMARK SMILES IDX 82 55 76 56 77 57 80 58 78 59 57 60 58 61 66 62 59 63 60 64
REMARK SMILES IDX 64 65 67 66 61 67 62 68 65 69 63 70 6 71 7 72 8 73 9 74
REMARK SMILES IDX 10 75 29 76 26 77 28 78 30 79 27 80 11 81 12 82 13 83 14 85
REMARK SMILES IDX 15 86 25 87 16 88 24 89 17 90 18 91 23 92 19 93 22 94 20 95
REMARK SMILES IDX 21 96
REMARK H PARENT 87 23 55 34 13 84
REMARK Flexibility Score: inf
ROOT
ATOM      1  C   UNL     1       4.034   0.508   1.948  1.00  0.00     0.274 C 
ENDROOT
BRANCH   1   2
ATOM      2  C   UNL     1       4.135   1.367   0.684  1.00  0.00     0.275 C 
BRANCH   2   3
ATOM      3  O   UNL     1       3.040   1.195  -0.238  1.00  0.00    -0.458 OA
BRANCH   3   4
ATOM      4  C   UNL     1       2.862   0.279  -1.222  1.00  0.00     0.338 C 
ATOM      5  O   UNL     1       1.944   0.448  -2.024  1.00  0.00    -0.246 OA
BRANCH   4   6
ATOM      6  C   UNL     1       3.631  -1.007  -1.315  1.00  0.00     0.060 A 
ATOM      7  C   UNL     1       4.942  -1.213  -0.876  1.00  0.00     0.016 A 
ATOM      8  C   UNL     1       2.943  -2.110  -1.859  1.00  0.00     0.016 A 
ATOM      9  C   UNL     1       5.514  -2.489  -0.868  1.00  0.00     0.010 A 
ATOM     10  C   UNL     1       3.513  -3.389  -1.860  1.00  0.00     0.010 A 
ATOM     11  C   UNL     1       4.804  -3.586  -1.353  1.00  0.00    -0.014 A 
BRANCH  11  12
ATOM     12  C   UNL     1       5.484  -4.893  -1.494  1.00  0.00     0.031 A 
ATOM     13  C   UNL     1       6.003  -5.261  -2.847  1.00  0.00     0.074 A 
ATOM     14  C   UNL     1       5.693  -5.705  -0.440  1.00  0.00     0.049 A 
ATOM     15  N   UNL     1       6.657  -6.331  -3.209  1.00  0.00    -0.248 NA
ATOM     16  C   UNL     1       5.822  -4.267  -3.920  1.00  0.00     0.031 C 
ATOM     17  C   UNL     1       5.392  -5.376   0.947  1.00  0.00     0.029 A 
ATOM     18  N   UNL     1       6.168  -6.991  -0.368  1.00  0.00    -0.354 N 
ATOM     19  C   UNL     1       7.027  -6.106  -4.524  1.00  0.00     0.074 A 
ATOM     20  C   UNL     1       6.457  -4.842  -4.929  1.00  0.00     0.031 C 
ATOM     21  C   UNL     1       5.529  -6.472   1.711  1.00  0.00     0.029 A 
ATOM     22  C   UNL     1       6.012  -7.562   0.875  1.00  0.00     0.049 A 
ATOM     23  H   UNL     1       6.580  -7.458  -1.131  1.00  0.00     0.167 HD
ATOM     24  C   UNL     1       7.822  -6.872  -5.300  1.00  0.00     0.037 A 
ATOM     25  C   UNL     1       6.241  -8.823   1.287  1.00  0.00     0.037 A 
ATOM     26  C   UNL     1       8.355  -8.139  -4.883  1.00  0.00     0.049 A 
ATOM     27  C   UNL     1       6.947  -9.750   0.337  1.00  0.00     0.074 A 
ATOM     28  C   UNL     1       9.161  -9.007  -5.594  1.00  0.00     0.029 A 
ATOM     29  N   UNL     1       8.116  -8.725  -3.647  1.00  0.00    -0.354 N 
ATOM     30  N   UNL     1       7.341  -9.513  -0.892  1.00  0.00    -0.248 NA
ATOM     31  C   UNL     1       7.307 -11.082   0.838  1.00  0.00     0.031 C 
ATOM     32  C   UNL     1       9.355 -10.149  -4.813  1.00  0.00     0.029 A 
ATOM     33  C   UNL     1       8.723  -9.967  -3.591  1.00  0.00     0.049 A 
ATOM     34  H   UNL     1       7.592  -8.318  -2.920  1.00  0.00     0.167 HD
ATOM     35  C   UNL     1       8.046 -10.636  -1.291  1.00  0.00     0.074 A 
ATOM     36  C   UNL     1       8.017 -11.562  -0.175  1.00  0.00     0.031 C 
ATOM     37  C   UNL     1       8.678 -10.868  -2.467  1.00  0.00     0.037 A 
BRANCH  24  38
ATOM     38  C   UNL     1       8.156  -6.360  -6.664  1.00  0.00     0.064 A 
ATOM     39  C   UNL     1       7.616  -6.969  -7.804  1.00  0.00     0.173 A 
ATOM     40  C   UNL     1       9.050  -5.293  -6.844  1.00  0.00     0.173 A 
ATOM     41  F   UNL     1       6.748  -7.984  -7.681  1.00  0.00    -0.203 F 
ATOM     42  C   UNL     1       7.977  -6.543  -9.079  1.00  0.00     0.198 A 
ATOM     43  C   UNL     1       9.391  -4.855  -8.120  1.00  0.00     0.198 A 
ATOM     44  F   UNL     1       9.572  -4.661  -5.782  1.00  0.00    -0.203 F 
ATOM     45  F   UNL     1       7.470  -7.158 -10.156  1.00  0.00    -0.200 F 
ATOM     46  C   UNL     1       8.863  -5.487  -9.236  1.00  0.00     0.200 A 
ATOM     47  F   UNL     1      10.225  -3.817  -8.271  1.00  0.00    -0.200 F 
ATOM     48  F   UNL     1       9.205  -5.076 -10.465  1.00  0.00    -0.200 F 
ENDBRANCH  24  38
BRANCH  25  49
ATOM     49  C   UNL     1       5.860  -9.249   2.661  1.00  0.00     0.064 A 
ATOM     50  C   UNL     1       4.512  -9.416   3.017  1.00  0.00     0.173 A 
ATOM     51  C   UNL     1       6.825  -9.499   3.645  1.00  0.00     0.173 A 
ATOM     52  F   UNL     1       3.546  -9.197   2.112  1.00  0.00    -0.203 F 
ATOM     53  C   UNL     1       4.147  -9.814   4.303  1.00  0.00     0.198 A 
ATOM     54  C   UNL     1       6.460  -9.916   4.926  1.00  0.00     0.198 A 
ATOM     55  F   UNL     1       8.127  -9.371   3.352  1.00  0.00    -0.203 F 
ATOM     56  F   UNL     1       2.852  -9.961   4.618  1.00  0.00    -0.200 F 
ATOM     57  C   UNL     1       5.122 -10.069   5.255  1.00  0.00     0.200 A 
ATOM     58  F   UNL     1       7.407 -10.184   5.835  1.00  0.00    -0.200 F 
ATOM     59  F   UNL     1       4.774 -10.472   6.485  1.00  0.00    -0.200 F 
ENDBRANCH  25  49
BRANCH  37  60
ATOM     60  C   UNL     1       9.408 -12.168  -2.612  1.00  0.00     0.064 A 
ATOM     61  C   UNL     1      10.809 -12.187  -2.702  1.00  0.00     0.173 A 
ATOM     62  C   UNL     1       8.719 -13.378  -2.766  1.00  0.00     0.173 A 
ATOM     63  F   UNL     1      11.511 -11.051  -2.571  1.00  0.00    -0.203 F 
ATOM     64  C   UNL     1      11.491 -13.369  -2.969  1.00  0.00     0.198 A 
ATOM     65  C   UNL     1       9.407 -14.564  -2.998  1.00  0.00     0.198 A 
ATOM     66  F   UNL     1       7.381 -13.410  -2.675  1.00  0.00    -0.203 F 
ATOM     67  F   UNL     1      12.824 -13.355  -3.103  1.00  0.00    -0.200 F 
ATOM     68  C   UNL     1      10.790 -14.556  -3.114  1.00  0.00     0.200 A 
ATOM     69  F   UNL     1       8.732 -15.716  -3.113  1.00  0.00    -0.200 F 
ATOM     70  F   UNL     1      11.448 -15.696  -3.368  1.00  0.00    -0.200 F 
ENDBRANCH  37  60
ENDBRANCH  11  12
ENDBRANCH   4   6
ENDBRANCH   3   4
ENDBRANCH   2   3
ENDBRANCH   1   2
BRANCH   1  71
ATOM     71  O   UNL     1       3.552  -0.808   1.638  1.00  0.00    -0.462 OA
BRANCH  71  72
ATOM     72  C   UNL     1       2.388  -1.202   2.234  1.00  0.00     0.312 C 
ATOM     73  O   UNL     1       1.872  -0.636   3.186  1.00  0.00    -0.252 OA
BRANCH  72  74
ATOM     74  C   UNL     1       1.864  -2.440   1.540  1.00  0.00     0.147 C 
ATOM     75  C   UNL     1       0.369  -2.727   1.791  1.00  0.00     0.129 C 
ATOM     76  C   UNL     1       2.528  -3.668   2.150  1.00  0.00     0.157 C 
ATOM     77  C   UNL     1       0.431  -4.100   2.493  1.00  0.00     0.155 C 
ATOM     78  C   UNL     1       2.203  -4.890   1.338  1.00  0.00     0.004 C 
ATOM     79  O   UNL     1       1.642  -3.913   3.278  1.00  0.00    -0.365 OA
ATOM     80  C   UNL     1       0.922  -5.184   1.590  1.00  0.00     0.004 C 
BRANCH  75  81
ATOM     81  C   UNL     1      -0.456  -2.777   0.494  1.00  0.00     0.233 C 
ATOM     82  O   UNL     1      -0.182  -3.521  -0.449  1.00  0.00    -0.274 OA
ATOM     83  N   UNL     1      -1.611  -2.049   0.440  1.00  0.00    -0.302 N 
ATOM     84  H   UNL     1      -2.375  -2.392  -0.078  1.00  0.00     0.172 HD
BRANCH  83  85
ATOM     85  C   UNL     1      -1.724  -0.860   1.087  1.00  0.00     0.189 A 
ATOM     86  N   UNL     1      -0.730  -0.104   1.461  1.00  0.00    -0.220 NA
ATOM     87  S   UNL     1      -3.289  -0.338   1.481  1.00  0.00    -0.105 S 
ATOM     88  C   UNL     1      -1.214   0.921   2.236  1.00  0.00     0.084 A 
ATOM     89  C   UNL     1      -2.582   0.923   2.427  1.00  0.00     0.097 A 
BRANCH  88  90
ATOM     90  C   UNL     1      -0.298   1.895   2.784  1.00  0.00     0.001 A 
ATOM     91  C   UNL     1       0.396   2.744   1.911  1.00  0.00     0.013 A 
ATOM     92  C   UNL     1      -0.029   1.932   4.157  1.00  0.00     0.013 A 
ATOM     93  C   UNL     1       1.332   3.648   2.412  1.00  0.00     0.040 A 
ATOM     94  C   UNL     1       0.920   2.827   4.654  1.00  0.00     0.040 A 
ATOM     95  C   UNL     1       1.587   3.678   3.778  1.00  0.00     0.123 A 
ATOM     96  F   UNL     1       2.505   4.528   4.256  1.00  0.00    -0.207 F 
ENDBRANCH  88  90
ENDBRANCH  83  85
ENDBRANCH  75  81
ENDBRANCH  72  74
ENDBRANCH  71  72
ENDBRANCH   1  71
TORSDOF 14
