REMARK SMILES O=C(OCCOC(=O)[C@@H](c1ccccc1)N1C(=O)/C(=C\c2ccc(-c3ccc(F)cc3)o2)SC1=S)c1ccc(-c2c3nc(c(-c4c(F)c(F)c(F)c(F)c4F)c4ccc([nH]4)c(-c4c(F)c(F)c(F)c(F)c4F)c4nc(c(-c5c(F)c(F)c(F)c(F)c5F)c5ccc2[nH]5)C=C4)C=C3)cc1
REMARK SMILES IDX 5 1 4 2 3 3 2 4 1 5 36 6 37 7 98 8 38 9 97 10 39 11 40 12
REMARK SMILES IDX 41 13 91 14 42 15 96 16 90 17 92 18 43 19 95 20 89 21 88 22
REMARK SMILES IDX 44 24 76 25 56 26 75 27 57 28 60 29 74 30 93 31 58 32 59 33
REMARK SMILES IDX 73 35 94 36 61 37 45 38 46 39 54 40 47 41 48 42 52 43 55 44
REMARK SMILES IDX 49 45 50 46 53 47 51 48 77 49 78 50 86 51 79 52 80 53 84 54
REMARK SMILES IDX 87 55 81 56 82 57 85 58 83 59 62 60 63 61 71 62 64 63 65 64
REMARK SMILES IDX 69 65 72 66 66 67 67 68 70 69 68 70 6 71 7 72 8 73 9 74
REMARK SMILES IDX 10 75 11 76 15 77 12 78 14 79 13 80 16 81 17 82 34 83 18 84
REMARK SMILES IDX 19 85 33 86 35 87 20 88 21 89 22 90 32 91 23 92 24 93 25 94
REMARK SMILES IDX 26 95 31 96 27 97 30 98 28 99 29 100
REMARK H PARENT 92 23 60 34
REMARK Flexibility Score: inf
ROOT
ATOM      1  C   UNL     1       4.051  -1.543  -1.890  1.00  0.00     0.274 C 
ENDROOT
BRANCH   1   2
ATOM      2  C   UNL     1       4.097  -1.992  -0.425  1.00  0.00     0.275 C 
BRANCH   2   3
ATOM      3  O   UNL     1       2.859  -1.752   0.262  1.00  0.00    -0.458 OA
BRANCH   3   4
ATOM      4  C   UNL     1       2.349  -0.596   0.727  1.00  0.00     0.338 C 
ATOM      5  O   UNL     1       1.255  -0.613   1.286  1.00  0.00    -0.246 OA
BRANCH   4   6
ATOM      6  C   UNL     1       2.995   0.744   0.565  1.00  0.00     0.060 A 
ATOM      7  C   UNL     1       4.678   1.040   0.035  1.00  0.00     0.016 A 
ATOM      8  C   UNL     1       1.928   2.056   1.054  1.00  0.00     0.016 A 
ATOM      9  C   UNL     1       5.431   2.611  -0.070  1.00  0.00     0.010 A 
ATOM     10  C   UNL     1       2.581   3.730   1.045  1.00  0.00     0.010 A 
ATOM     11  C   UNL     1       4.484   4.053   0.432  1.00  0.00    -0.014 A 
BRANCH  11  12
ATOM     12  C   UNL     1       5.508   5.234   0.068  1.00  0.00     0.031 A 
ATOM     13  C   UNL     1       6.346   5.840   1.145  1.00  0.00     0.074 A 
ATOM     14  C   UNL     1       5.868   5.598  -1.189  1.00  0.00     0.049 A 
ATOM     15  N   UNL     1       6.792   7.059   1.278  1.00  0.00    -0.248 NA
ATOM     16  C   UNL     1       6.699   4.942   2.245  1.00  0.00     0.031 C 
ATOM     17  C   UNL     1       5.536   4.896  -2.423  1.00  0.00     0.029 A 
ATOM     18  N   UNL     1       6.571   6.697  -1.643  1.00  0.00    -0.354 N 
ATOM     19  C   UNL     1       7.322   7.105   2.559  1.00  0.00     0.074 A 
ATOM     20  C   UNL     1       7.098   5.809   3.161  1.00  0.00     0.031 C 
ATOM     21  C   UNL     1       5.908   5.627  -3.490  1.00  0.00     0.029 A 
ATOM     22  C   UNL     1       6.488   6.873  -3.011  1.00  0.00     0.049 A 
ATOM     23  H   UNL     1       7.080   7.296  -1.051  1.00  0.00     0.167 HD
ATOM     24  C   UNL     1       7.975   8.130   3.155  1.00  0.00     0.037 A 
ATOM     25  C   UNL     1       6.771   7.951  -3.771  1.00  0.00     0.037 A 
ATOM     26  C   UNL     1       8.408   9.298   2.437  1.00  0.00     0.049 A 
ATOM     27  C   UNL     1       7.382   9.147  -3.100  1.00  0.00     0.074 A 
ATOM     28  C   UNL     1       9.145  10.373   2.893  1.00  0.00     0.029 A 
ATOM     29  N   UNL     1       8.210   9.494   1.075  1.00  0.00    -0.354 N 
ATOM     30  N   UNL     1       7.665   9.327  -1.834  1.00  0.00    -0.248 NA
ATOM     31  C   UNL     1       7.745  10.274  -3.969  1.00  0.00     0.031 C 
ATOM     32  C   UNL     1       9.382  11.227   1.810  1.00  0.00     0.029 A 
ATOM     33  C   UNL     1       8.826  10.664   0.671  1.00  0.00     0.049 A 
ATOM     34  H   UNL     1       7.705   8.889   0.485  1.00  0.00     0.167 HD
ATOM     35  C   UNL     1       8.310  10.551  -1.761  1.00  0.00     0.074 A 
ATOM     36  C   UNL     1       8.339  11.087  -3.108  1.00  0.00     0.031 C 
ATOM     37  C   UNL     1       8.861  11.159  -0.682  1.00  0.00     0.037 A 
BRANCH  24  38
ATOM     38  C   UNL     1       8.233   8.024   4.631  1.00  0.00     0.064 A 
ATOM     39  C   UNL     1       9.062   7.043   5.195  1.00  0.00     0.173 A 
ATOM     40  C   UNL     1       7.581   8.906   5.510  1.00  0.00     0.173 A 
ATOM     41  F   UNL     1       9.709   6.169   4.408  1.00  0.00    -0.203 F 
ATOM     42  C   UNL     1       9.163   6.894   6.576  1.00  0.00     0.198 A 
ATOM     43  C   UNL     1       7.730   8.791   6.889  1.00  0.00     0.198 A 
ATOM     44  F   UNL     1       6.785   9.874   5.032  1.00  0.00    -0.203 F 
ATOM     45  F   UNL     1       9.869   5.876   7.086  1.00  0.00    -0.200 F 
ATOM     46  C   UNL     1       8.502   7.771   7.422  1.00  0.00     0.200 A 
ATOM     47  F   UNL     1       7.107   9.654   7.703  1.00  0.00    -0.200 F 
ATOM     48  F   UNL     1       8.596   7.622   8.750  1.00  0.00    -0.200 F 
ENDBRANCH  24  38
BRANCH  25  49
ATOM     49  C   UNL     1       6.434   8.006  -5.221  1.00  0.00     0.064 A 
ATOM     50  C   UNL     1       7.400   7.816  -6.215  1.00  0.00     0.173 A 
ATOM     51  C   UNL     1       5.143   8.356  -5.641  1.00  0.00     0.173 A 
ATOM     52  F   UNL     1       8.670   7.562  -5.869  1.00  0.00    -0.203 F 
ATOM     53  C   UNL     1       7.082   7.956  -7.569  1.00  0.00     0.198 A 
ATOM     54  C   UNL     1       4.813   8.456  -6.992  1.00  0.00     0.198 A 
ATOM     55  F   UNL     1       4.209   8.661  -4.735  1.00  0.00    -0.203 F 
ATOM     56  F   UNL     1       8.039   7.827  -8.497  1.00  0.00    -0.200 F 
ATOM     57  C   UNL     1       5.785   8.260  -7.957  1.00  0.00     0.200 A 
ATOM     58  F   UNL     1       3.559   8.765  -7.353  1.00  0.00    -0.200 F 
ATOM     59  F   UNL     1       5.480   8.393  -9.255  1.00  0.00    -0.200 F 
ENDBRANCH  25  49
BRANCH  37  60
ATOM     60  C   UNL     1       9.629  12.420  -0.934  1.00  0.00     0.064 A 
ATOM     61  C   UNL     1       8.992  13.628  -1.246  1.00  0.00     0.173 A 
ATOM     62  C   UNL     1      11.028  12.418  -0.818  1.00  0.00     0.173 A 
ATOM     63  F   UNL     1       7.660  13.671  -1.393  1.00  0.00    -0.203 F 
ATOM     64  C   UNL     1       9.732  14.788  -1.453  1.00  0.00     0.198 A 
ATOM     65  C   UNL     1      11.760  13.587  -0.990  1.00  0.00     0.198 A 
ATOM     66  F   UNL     1      11.681  11.284  -0.522  1.00  0.00    -0.203 F 
ATOM     67  F   UNL     1       9.110  15.923  -1.800  1.00  0.00    -0.200 F 
ATOM     68  C   UNL     1      11.113  14.769  -1.313  1.00  0.00     0.200 A 
ATOM     69  F   UNL     1      13.092  13.568  -0.840  1.00  0.00    -0.200 F 
ATOM     70  F   UNL     1      11.821  15.891  -1.498  1.00  0.00    -0.200 F 
ENDBRANCH  37  60
ENDBRANCH  11  12
ENDBRANCH   4   6
ENDBRANCH   3   4
ENDBRANCH   2   3
ENDBRANCH   1   2
BRANCH   1  71
ATOM     71  O   UNL     1       3.935  -0.108  -1.984  1.00  0.00    -0.460 OA
BRANCH  71  72
ATOM     72  C   UNL     1       2.720   0.477  -2.136  1.00  0.00     0.334 C 
ATOM     73  O   UNL     1       1.740  -0.136  -2.546  1.00  0.00    -0.249 OA
BRANCH  72  74
ATOM     74  C   UNL     1       2.720   2.006  -1.854  1.00  0.00     0.232 C 
BRANCH  74  75
ATOM     75  C   UNL     1       3.293   2.845  -0.473  1.00  0.00    -0.014 A 
ATOM     76  C   UNL     1       3.946   2.524   1.417  1.00  0.00     0.006 A 
ATOM     77  C   UNL     1       2.830   4.590  -0.813  1.00  0.00     0.006 A 
ATOM     78  C   UNL     1       4.022   3.875   2.593  1.00  0.00     0.000 A 
ATOM     79  C   UNL     1       2.984   5.818   0.450  1.00  0.00     0.000 A 
ATOM     80  C   UNL     1       3.551   5.461   2.072  1.00  0.00     0.000 A 
ENDBRANCH  74  75
BRANCH  74  81
ATOM     81  N   UNL     1       2.783   2.748  -3.189  1.00  0.00    -0.274 N 
ATOM     82  C   UNL     1       1.824   3.716  -3.480  1.00  0.00     0.267 C 
ATOM     83  C   UNL     1       3.664   2.528  -4.236  1.00  0.00     0.149 C 
ATOM     84  O   UNL     1       0.747   3.873  -2.925  1.00  0.00    -0.268 OA
ATOM     85  C   UNL     1       2.288   4.581  -4.600  1.00  0.00     0.084 C 
ATOM     86  S   UNL     1       3.253   3.575  -5.614  1.00  0.00    -0.054 SA
ATOM     87  S   UNL     1       4.978   1.511  -4.363  1.00  0.00    -0.052 S 
ATOM     88  C   UNL     1       2.259   5.914  -4.765  1.00  0.00     0.068 C 
BRANCH  88  89
ATOM     89  C   UNL     1       1.985   6.881  -3.752  1.00  0.00     0.128 A 
ATOM     90  C   UNL     1       2.822   7.282  -2.715  1.00  0.00     0.051 A 
ATOM     91  O   UNL     1       0.931   7.771  -3.768  1.00  0.00    -0.457 OA
ATOM     92  C   UNL     1       2.297   8.433  -2.107  1.00  0.00     0.051 A 
ATOM     93  C   UNL     1       1.134   8.695  -2.779  1.00  0.00     0.134 A 
BRANCH  93  94
ATOM     94  C   UNL     1       0.148   9.745  -2.630  1.00  0.00     0.017 A 
ATOM     95  C   UNL     1      -1.214   9.430  -2.616  1.00  0.00     0.015 A 
ATOM     96  C   UNL     1       0.555  11.073  -2.417  1.00  0.00     0.015 A 
ATOM     97  C   UNL     1      -2.160  10.427  -2.384  1.00  0.00     0.040 A 
ATOM     98  C   UNL     1      -0.393  12.072  -2.197  1.00  0.00     0.040 A 
ATOM     99  C   UNL     1      -1.742  11.737  -2.178  1.00  0.00     0.123 A 
ATOM    100  F   UNL     1      -2.653  12.691  -1.950  1.00  0.00    -0.207 F 
ENDBRANCH  93  94
ENDBRANCH  88  89
ENDBRANCH  74  81
ENDBRANCH  72  74
ENDBRANCH  71  72
ENDBRANCH   1  71
TORSDOF 15
