REMARK SMILES C[C@H](O)C[C@H](Cc1cccc(Br)c1)C(=O)OCCOC(=O)c1ccc(-c2c3nc(c(-c4c(F)c(F)c(F)c(F)c4F)c4ccc([nH]4)c(-c4c(F)c(F)c(F)c(F)c4F)c4nc(c(-c5c(F)c(F)c(F)c(F)c5F)c5ccc2[nH]5)C=C4)C=C3)cc1
REMARK SMILES IDX 17 1 16 2 14 3 15 4 5 5 4 6 2 7 1 8 3 9 6 11 7 12 8 13 13 14
REMARK SMILES IDX 9 15 11 16 10 17 12 18 18 19 19 20 20 21 21 22 22 23 23 24
REMARK SMILES IDX 84 25 24 26 83 27 25 28 26 29 27 30 77 31 28 32 82 33 76 34
REMARK SMILES IDX 78 35 29 36 81 37 75 38 74 39 30 41 62 42 42 43 61 44 43 45
REMARK SMILES IDX 46 46 60 47 79 48 44 49 45 50 59 52 80 53 47 54 31 55 32 56
REMARK SMILES IDX 40 57 33 58 34 59 38 60 41 61 35 62 36 63 39 64 37 65 63 66
REMARK SMILES IDX 64 67 72 68 65 69 66 70 70 71 73 72 67 73 68 74 71 75 69 76
REMARK SMILES IDX 48 77 49 78 57 79 50 80 51 81 55 82 58 83 52 84 53 85 56 86
REMARK SMILES IDX 54 87
REMARK H PARENT 3 10 78 40 46 51
REMARK Flexibility Score: inf
ROOT
ATOM      1  C   UNL     1      -5.307   1.702  -1.049  1.00  0.00     0.274 C 
ENDROOT
BRANCH   1   2
ATOM      2  O   UNL     1      -3.894   1.726  -1.337  1.00  0.00    -0.462 OA
BRANCH   2   3
ATOM      3  C   UNL     1      -3.059   2.062  -0.321  1.00  0.00     0.309 C 
ATOM      4  O   UNL     1      -3.441   2.334   0.811  1.00  0.00    -0.252 OA
BRANCH   3   5
ATOM      5  C   UNL     1      -1.581   2.002  -0.717  1.00  0.00     0.106 C 
BRANCH   5   6
ATOM      6  C   UNL     1      -0.799   3.327  -0.864  1.00  0.00     0.047 C 
BRANCH   6   7
ATOM      7  C   UNL     1      -1.599   4.628  -0.808  1.00  0.00     0.112 C 
ATOM      8  C   UNL     1      -0.737   5.829  -1.192  1.00  0.00     0.038 C 
BRANCH   7   9
ATOM      9  O   UNL     1      -2.067   4.820   0.518  1.00  0.00    -0.393 OA
ATOM     10  H   UNL     1      -1.311   4.884   1.121  1.00  0.00     0.210 HD
ENDBRANCH   7   9
ENDBRANCH   6   7
ENDBRANCH   5   6
BRANCH   5  11
ATOM     11  C   UNL     1      -1.257   0.981  -1.834  1.00  0.00     0.051 C 
BRANCH  11  12
ATOM     12  C   UNL     1      -1.466   1.314  -3.299  1.00  0.00    -0.046 A 
ATOM     13  C   UNL     1      -2.229   2.390  -3.767  1.00  0.00     0.004 A 
ATOM     14  C   UNL     1      -0.897   0.447  -4.250  1.00  0.00     0.019 A 
ATOM     15  C   UNL     1      -2.411   2.606  -5.136  1.00  0.00     0.001 A 
ATOM     16  C   UNL     1      -1.081   0.665  -5.617  1.00  0.00     0.018 A 
ATOM     17  C   UNL     1      -1.836   1.743  -6.064  1.00  0.00     0.016 A 
ATOM     18  Br  UNL     1      -0.307  -0.522  -6.869  1.00  0.00    -0.051 Br
ENDBRANCH  11  12
ENDBRANCH   5  11
ENDBRANCH   3   5
ENDBRANCH   2   3
ENDBRANCH   1   2
BRANCH   1  19
ATOM     19  C   UNL     1      -5.815   0.284  -0.768  1.00  0.00     0.275 C 
BRANCH  19  20
ATOM     20  O   UNL     1      -5.354  -0.197   0.507  1.00  0.00    -0.458 OA
BRANCH  20  21
ATOM     21  C   UNL     1      -4.231  -0.949   0.462  1.00  0.00     0.338 C 
ATOM     22  O   UNL     1      -3.627  -1.323  -0.529  1.00  0.00    -0.246 OA
BRANCH  21  23
ATOM     23  C   UNL     1      -3.710  -1.147   1.822  1.00  0.00     0.060 A 
ATOM     24  C   UNL     1      -2.427  -0.665   2.092  1.00  0.00     0.016 A 
ATOM     25  C   UNL     1      -4.422  -1.853   2.792  1.00  0.00     0.016 A 
ATOM     26  C   UNL     1      -1.843  -0.883   3.333  1.00  0.00     0.010 A 
ATOM     27  C   UNL     1      -3.831  -2.082   4.041  1.00  0.00     0.010 A 
ATOM     28  C   UNL     1      -2.535  -1.607   4.311  1.00  0.00    -0.014 A 
BRANCH  28  29
ATOM     29  C   UNL     1      -1.847  -1.925   5.583  1.00  0.00     0.031 A 
ATOM     30  C   UNL     1      -1.280  -3.297   5.794  1.00  0.00     0.074 A 
ATOM     31  C   UNL     1      -1.673  -0.964   6.508  1.00  0.00     0.049 A 
ATOM     32  N   UNL     1      -0.670  -3.791   6.841  1.00  0.00    -0.248 NA
ATOM     33  C   UNL     1      -1.412  -4.240   4.673  1.00  0.00     0.031 C 
ATOM     34  C   UNL     1      -2.129   0.419   6.382  1.00  0.00     0.029 A 
ATOM     35  N   UNL     1      -1.056  -1.006   7.733  1.00  0.00    -0.354 N 
ATOM     36  C   UNL     1      -0.353  -5.101   6.510  1.00  0.00     0.074 A 
ATOM     37  C   UNL     1      -0.857  -5.335   5.173  1.00  0.00     0.031 C 
ATOM     38  C   UNL     1      -1.778   1.097   7.487  1.00  0.00     0.029 A 
ATOM     39  C   UNL     1      -1.106   0.187   8.411  1.00  0.00     0.049 A 
ATOM     40  H   UNL     1      -0.621  -1.813   8.091  1.00  0.00     0.167 HD
ATOM     41  C   UNL     1       0.306  -6.021   7.253  1.00  0.00     0.037 A 
ATOM     42  C   UNL     1      -0.676   0.498   9.648  1.00  0.00     0.037 A 
ATOM     43  C   UNL     1       0.807  -5.781   8.581  1.00  0.00     0.049 A 
ATOM     44  C   UNL     1       0.004  -0.560  10.475  1.00  0.00     0.074 A 
ATOM     45  C   UNL     1       1.459  -6.656   9.432  1.00  0.00     0.029 A 
ATOM     46  N   UNL     1       0.714  -4.568   9.249  1.00  0.00    -0.354 N 
ATOM     47  N   UNL     1       0.274  -1.805  10.166  1.00  0.00    -0.248 NA
ATOM     48  C   UNL     1       0.439  -0.169  11.822  1.00  0.00     0.031 C 
ATOM     49  C   UNL     1       1.735  -5.980  10.627  1.00  0.00     0.029 A 
ATOM     50  C   UNL     1       1.291  -4.674  10.504  1.00  0.00     0.049 A 
ATOM     51  H   UNL     1       0.300  -3.753   8.884  1.00  0.00     0.167 HD
ATOM     52  C   UNL     1       0.922  -2.341  11.269  1.00  0.00     0.074 A 
ATOM     53  C   UNL     1       1.026  -1.278  12.248  1.00  0.00     0.031 C 
ATOM     54  C   UNL     1       1.386  -3.600  11.460  1.00  0.00     0.037 A 
BRANCH  41  55
ATOM     55  C   UNL     1       0.500  -7.381   6.652  1.00  0.00     0.064 A 
ATOM     56  C   UNL     1       1.426  -7.604   5.622  1.00  0.00     0.173 A 
ATOM     57  C   UNL     1      -0.231  -8.479   7.128  1.00  0.00     0.173 A 
ATOM     58  F   UNL     1       2.137  -6.582   5.121  1.00  0.00    -0.203 F 
ATOM     59  C   UNL     1       1.598  -8.873   5.076  1.00  0.00     0.198 A 
ATOM     60  C   UNL     1      -0.040  -9.752   6.596  1.00  0.00     0.198 A 
ATOM     61  F   UNL     1      -1.128  -8.319   8.112  1.00  0.00    -0.203 F 
ATOM     62  F   UNL     1       2.458  -9.056   4.065  1.00  0.00    -0.200 F 
ATOM     63  C   UNL     1       0.870  -9.947   5.568  1.00  0.00     0.200 A 
ATOM     64  F   UNL     1      -0.738 -10.790   7.078  1.00  0.00    -0.200 F 
ATOM     65  F   UNL     1       1.039 -11.169   5.044  1.00  0.00    -0.200 F 
ENDBRANCH  41  55
BRANCH  42  66
ATOM     66  C   UNL     1      -0.899   1.864  10.189  1.00  0.00     0.064 A 
ATOM     67  C   UNL     1       0.172   2.737  10.421  1.00  0.00     0.173 A 
ATOM     68  C   UNL     1      -2.190   2.316  10.501  1.00  0.00     0.173 A 
ATOM     69  F   UNL     1       1.427   2.341  10.164  1.00  0.00    -0.203 F 
ATOM     70  C   UNL     1      -0.038   4.005  10.962  1.00  0.00     0.198 A 
ATOM     71  C   UNL     1      -2.401   3.593  11.015  1.00  0.00     0.198 A 
ATOM     72  F   UNL     1      -3.248   1.517  10.302  1.00  0.00    -0.203 F 
ATOM     73  F   UNL     1       1.008   4.802  11.220  1.00  0.00    -0.200 F 
ATOM     74  C   UNL     1      -1.325   4.434  11.253  1.00  0.00     0.200 A 
ATOM     75  F   UNL     1      -3.647   4.007  11.286  1.00  0.00    -0.200 F 
ATOM     76  F   UNL     1      -1.526   5.652  11.773  1.00  0.00    -0.200 F 
ENDBRANCH  42  66
BRANCH  54  77
ATOM     77  C   UNL     1       2.069  -3.884  12.764  1.00  0.00     0.064 A 
ATOM     78  C   UNL     1       1.345  -4.001  13.960  1.00  0.00     0.173 A 
ATOM     79  C   UNL     1       3.459  -4.063  12.814  1.00  0.00     0.173 A 
ATOM     80  F   UNL     1       0.016  -3.822  13.964  1.00  0.00    -0.203 F 
ATOM     81  C   UNL     1       1.993  -4.261  15.164  1.00  0.00     0.198 A 
ATOM     82  C   UNL     1       4.101  -4.348  14.016  1.00  0.00     0.198 A 
ATOM     83  F   UNL     1       4.195  -3.967  11.697  1.00  0.00    -0.203 F 
ATOM     84  F   UNL     1       1.288  -4.321  16.303  1.00  0.00    -0.200 F 
ATOM     85  C   UNL     1       3.369  -4.439  15.191  1.00  0.00     0.200 A 
ATOM     86  F   UNL     1       5.428  -4.530  14.039  1.00  0.00    -0.200 F 
ATOM     87  F   UNL     1       3.990  -4.689  16.351  1.00  0.00    -0.200 F 
ENDBRANCH  54  77
ENDBRANCH  28  29
ENDBRANCH  21  23
ENDBRANCH  20  21
ENDBRANCH  19  20
ENDBRANCH   1  19
TORSDOF 16
