REMARK SMILES O=C(OCCOC(=O)c1cc2ccccc2cc1NS(=O)(=O)c1ccccc1Br)c1ccc(-c2c3nc(c(-c4c(F)c(F)c(F)c(F)c4F)c4ccc([nH]4)c(-c4c(F)c(F)c(F)c(F)c4F)c4nc(c(-c5c(F)c(F)c(F)c(F)c5F)c5ccc2[nH]5)C=C4)C=C3)cc1
REMARK SMILES IDX 5 1 4 2 3 3 2 4 1 5 30 6 31 7 92 8 32 9 91 10 33 11 34 12
REMARK SMILES IDX 35 13 85 14 36 15 90 16 84 17 86 18 37 19 89 20 83 21 82 22
REMARK SMILES IDX 38 24 70 25 50 26 69 27 51 28 54 29 68 30 87 31 52 32 53 33
REMARK SMILES IDX 67 35 88 36 55 37 39 38 40 39 48 40 41 41 42 42 46 43 49 44
REMARK SMILES IDX 43 45 44 46 47 47 45 48 71 49 72 50 80 51 73 52 74 53 78 54
REMARK SMILES IDX 81 55 75 56 76 57 79 58 77 59 56 60 57 61 65 62 58 63 59 64
REMARK SMILES IDX 63 65 66 66 60 67 61 68 64 69 62 70 6 71 7 72 8 73 9 74
REMARK SMILES IDX 10 75 18 76 11 77 17 78 12 79 16 80 13 81 15 82 14 83 19 84
REMARK SMILES IDX 20 86 21 87 22 88 23 89 24 90 28 91 25 92 27 93 29 94 26 95
REMARK H PARENT 86 23 54 34 19 85
REMARK Flexibility Score: inf
ROOT
ATOM      1  C   UNL     1       3.915   2.119   0.264  1.00  0.00     0.275 C 
ENDROOT
BRANCH   1   2
ATOM      2  C   UNL     1       4.073   1.156  -0.917  1.00  0.00     0.275 C 
BRANCH   2   3
ATOM      3  O   UNL     1       3.085   0.113  -1.009  1.00  0.00    -0.458 OA
BRANCH   3   4
ATOM      4  C   UNL     1       3.165  -1.141  -0.504  1.00  0.00     0.338 C 
ATOM      5  O   UNL     1       2.405  -2.025  -0.890  1.00  0.00    -0.246 OA
BRANCH   4   6
ATOM      6  C   UNL     1       4.017  -1.424   0.678  1.00  0.00     0.060 A 
ATOM      7  C   UNL     1       5.388  -1.175   0.741  1.00  0.00     0.016 A 
ATOM      8  C   UNL     1       3.390  -2.052   1.764  1.00  0.00     0.016 A 
ATOM      9  C   UNL     1       6.101  -1.457   1.910  1.00  0.00     0.010 A 
ATOM     10  C   UNL     1       4.090  -2.317   2.940  1.00  0.00     0.010 A 
ATOM     11  C   UNL     1       5.457  -2.028   3.014  1.00  0.00    -0.014 A 
BRANCH  11  12
ATOM     12  C   UNL     1       6.243  -2.474   4.185  1.00  0.00     0.031 A 
ATOM     13  C   UNL     1       6.570  -3.933   4.324  1.00  0.00     0.074 A 
ATOM     14  C   UNL     1       6.677  -1.593   5.104  1.00  0.00     0.049 A 
ATOM     15  N   UNL     1       7.270  -4.535   5.250  1.00  0.00    -0.248 NA
ATOM     16  C   UNL     1       6.073  -4.828   3.265  1.00  0.00     0.031 C 
ATOM     17  C   UNL     1       6.473  -0.146   5.063  1.00  0.00     0.029 A 
ATOM     18  N   UNL     1       7.340  -1.803   6.286  1.00  0.00    -0.354 N 
ATOM     19  C   UNL     1       7.399  -5.847   4.820  1.00  0.00     0.074 A 
ATOM     20  C   UNL     1       6.585  -5.992   3.634  1.00  0.00     0.031 C 
ATOM     21  C   UNL     1       6.899   0.388   6.223  1.00  0.00     0.029 A 
ATOM     22  C   UNL     1       7.421  -0.679   7.070  1.00  0.00     0.049 A 
ATOM     23  H   UNL     1       7.720  -2.673   6.546  1.00  0.00     0.167 HD
ATOM     24  C   UNL     1       8.199  -6.817   5.320  1.00  0.00     0.037 A 
ATOM     25  C   UNL     1       7.830  -0.550   8.345  1.00  0.00     0.037 A 
ATOM     26  C   UNL     1       8.957  -6.691   6.533  1.00  0.00     0.049 A 
ATOM     27  C   UNL     1       8.449  -1.726   9.039  1.00  0.00     0.074 A 
ATOM     28  C   UNL     1       9.824  -7.596   7.118  1.00  0.00     0.029 A 
ATOM     29  N   UNL     1       8.909  -5.585   7.369  1.00  0.00    -0.354 N 
ATOM     30  N   UNL     1       8.616  -2.949   8.602  1.00  0.00    -0.248 NA
ATOM     31  C   UNL     1       8.991  -1.482  10.383  1.00  0.00     0.031 C 
ATOM     32  C   UNL     1      10.273  -7.051   8.329  1.00  0.00     0.029 A 
ATOM     33  C   UNL     1       9.711  -5.793   8.478  1.00  0.00     0.049 A 
ATOM     34  H   UNL     1       8.381  -4.772   7.198  1.00  0.00     0.167 HD
ATOM     35  C   UNL     1       9.352  -3.601   9.581  1.00  0.00     0.074 A 
ATOM     36  C   UNL     1       9.539  -2.656  10.664  1.00  0.00     0.031 C 
ATOM     37  C   UNL     1       9.878  -4.849   9.552  1.00  0.00     0.037 A 
BRANCH  24  38
ATOM     38  C   UNL     1       8.339  -8.059   4.495  1.00  0.00     0.064 A 
ATOM     39  C   UNL     1       9.061  -8.030   3.290  1.00  0.00     0.173 A 
ATOM     40  C   UNL     1       7.766  -9.273   4.892  1.00  0.00     0.173 A 
ATOM     41  F   UNL     1       9.614  -6.885   2.861  1.00  0.00    -0.203 F 
ATOM     42  C   UNL     1       9.181  -9.168   2.498  1.00  0.00     0.198 A 
ATOM     43  C   UNL     1       7.905 -10.415   4.106  1.00  0.00     0.198 A 
ATOM     44  F   UNL     1       7.064  -9.349   6.032  1.00  0.00    -0.203 F 
ATOM     45  F   UNL     1       9.837  -9.104   1.331  1.00  0.00    -0.200 F 
ATOM     46  C   UNL     1       8.606 -10.360   2.908  1.00  0.00     0.200 A 
ATOM     47  F   UNL     1       7.350 -11.569   4.501  1.00  0.00    -0.200 F 
ATOM     48  F   UNL     1       8.717 -11.455   2.144  1.00  0.00    -0.200 F 
ENDBRANCH  24  38
BRANCH  25  49
ATOM     49  C   UNL     1       7.616   0.717   9.079  1.00  0.00     0.064 A 
ATOM     50  C   UNL     1       8.523   1.779   9.027  1.00  0.00     0.173 A 
ATOM     51  C   UNL     1       6.491   0.852   9.903  1.00  0.00     0.173 A 
ATOM     52  F   UNL     1       9.643   1.667   8.300  1.00  0.00    -0.203 F 
ATOM     53  C   UNL     1       8.299   2.942   9.763  1.00  0.00     0.198 A 
ATOM     54  C   UNL     1       6.255   2.021  10.620  1.00  0.00     0.198 A 
ATOM     55  F   UNL     1       5.658  -0.186  10.059  1.00  0.00    -0.203 F 
ATOM     56  F   UNL     1       9.200   3.933   9.734  1.00  0.00    -0.200 F 
ATOM     57  C   UNL     1       7.161   3.067  10.549  1.00  0.00     0.200 A 
ATOM     58  F   UNL     1       5.172   2.118  11.404  1.00  0.00    -0.200 F 
ATOM     59  F   UNL     1       6.956   4.180  11.267  1.00  0.00    -0.200 F 
ENDBRANCH  25  49
BRANCH  37  60
ATOM     60  C   UNL     1      10.782  -5.221  10.685  1.00  0.00     0.064 A 
ATOM     61  C   UNL     1      10.288  -5.561  11.950  1.00  0.00     0.173 A 
ATOM     62  C   UNL     1      12.172  -5.220  10.494  1.00  0.00     0.173 A 
ATOM     63  F   UNL     1       8.967  -5.548  12.185  1.00  0.00    -0.203 F 
ATOM     64  C   UNL     1      11.158  -5.864  12.995  1.00  0.00     0.198 A 
ATOM     65  C   UNL     1      13.037  -5.544  11.533  1.00  0.00     0.198 A 
ATOM     66  F   UNL     1      12.689  -4.894   9.299  1.00  0.00    -0.203 F 
ATOM     67  F   UNL     1      10.669  -6.137  14.213  1.00  0.00    -0.200 F 
ATOM     68  C   UNL     1      12.530  -5.859  12.784  1.00  0.00     0.200 A 
ATOM     69  F   UNL     1      14.361  -5.540  11.326  1.00  0.00    -0.200 F 
ATOM     70  F   UNL     1      13.364  -6.143  13.793  1.00  0.00    -0.200 F 
ENDBRANCH  37  60
ENDBRANCH  11  12
ENDBRANCH   4   6
ENDBRANCH   3   4
ENDBRANCH   2   3
ENDBRANCH   1   2
BRANCH   1  71
ATOM     71  O   UNL     1       3.423   1.501   1.465  1.00  0.00    -0.458 OA
BRANCH  71  72
ATOM     72  C   UNL     1       2.071   1.574   1.589  1.00  0.00     0.340 C 
ATOM     73  O   UNL     1       1.299   2.113   0.814  1.00  0.00    -0.246 OA
BRANCH  72  74
ATOM     74  C   UNL     1       1.600   0.785   2.738  1.00  0.00     0.084 A 
ATOM     75  C   UNL     1       0.699  -0.251   2.430  1.00  0.00     0.026 A 
ATOM     76  C   UNL     1       1.949   1.061   4.066  1.00  0.00     0.064 A 
ATOM     77  C   UNL     1       0.229  -1.103   3.438  1.00  0.00    -0.017 A 
ATOM     78  C   UNL     1       1.257   0.367   5.062  1.00  0.00     0.036 A 
ATOM     79  C   UNL     1      -0.458  -2.295   3.159  1.00  0.00     0.009 A 
ATOM     80  C   UNL     1       0.497  -0.770   4.776  1.00  0.00    -0.016 A 
ATOM     81  C   UNL     1      -0.835  -3.156   4.193  1.00  0.00     0.001 A 
ATOM     82  C   UNL     1       0.072  -1.618   5.809  1.00  0.00     0.009 A 
ATOM     83  C   UNL     1      -0.572  -2.817   5.517  1.00  0.00     0.001 A 
BRANCH  76  84
ATOM     84  N   UNL     1       3.153   1.775   4.398  1.00  0.00    -0.279 N 
ATOM     85  H   UNL     1       3.906   1.715   3.767  1.00  0.00     0.180 HD
BRANCH  84  86
ATOM     86  S   UNL     1       3.372   2.706   5.784  1.00  0.00     0.263 S 
ATOM     87  O   UNL     1       4.717   3.229   5.692  1.00  0.00    -0.201 OA
ATOM     88  O   UNL     1       2.215   3.574   5.857  1.00  0.00    -0.201 OA
BRANCH  86  89
ATOM     89  C   UNL     1       3.367   1.607   7.188  1.00  0.00     0.101 A 
ATOM     90  C   UNL     1       3.661   0.246   6.997  1.00  0.00     0.023 A 
ATOM     91  C   UNL     1       2.914   2.038   8.439  1.00  0.00     0.038 A 
ATOM     92  C   UNL     1       3.415  -0.687   8.005  1.00  0.00     0.001 A 
ATOM     93  C   UNL     1       2.656   1.093   9.442  1.00  0.00     0.017 A 
ATOM     94  Br  UNL     1       2.692   3.857   8.930  1.00  0.00    -0.049 Br
ATOM     95  C   UNL     1       2.881  -0.265   9.217  1.00  0.00     0.001 A 
ENDBRANCH  86  89
ENDBRANCH  84  86
ENDBRANCH  76  84
ENDBRANCH  72  74
ENDBRANCH  71  72
ENDBRANCH   1  71
TORSDOF 14
