REMARK SMILES COc1cc(NS(=O)(=O)c2cc(C)c(C(=O)OCCOC(=O)c3ccc(-c4c5nc(c(-c6c(F)c(F)c(F)c(F)c6F)c6ccc([nH]6)c(-c6c(F)c(F)c(F)c(F)c6F)c6nc(c(-c7c(F)c(F)c(F)c(F)c7F)c7ccc4[nH]7)C=C6)C=C5)cc3)s2)cc(OC)c1
REMARK SMILES IDX 18 1 17 2 15 3 16 4 14 5 10 6 11 7 86 8 12 9 13 10 7 11 8 12
REMARK SMILES IDX 9 13 6 14 5 16 3 17 4 18 91 19 88 20 87 21 2 22 1 23 89 24
REMARK SMILES IDX 90 25 19 26 20 27 21 28 22 29 23 30 24 31 85 32 25 33 84 34
REMARK SMILES IDX 26 35 27 36 28 37 78 38 29 39 83 40 77 41 79 42 30 43 82 44
REMARK SMILES IDX 76 45 75 46 31 48 63 49 43 50 62 51 44 52 47 53 61 54 80 55
REMARK SMILES IDX 45 56 46 57 60 59 81 60 48 61 32 62 33 63 41 64 34 65 35 66
REMARK SMILES IDX 39 67 42 68 36 69 37 70 40 71 38 72 64 73 65 74 73 75 66 76
REMARK SMILES IDX 67 77 71 78 74 79 68 80 69 81 72 82 70 83 49 84 50 85 58 86
REMARK SMILES IDX 51 87 52 88 56 89 59 90 53 91 54 92 57 93 55 94
REMARK H PARENT 6 15 79 47 47 58
REMARK Flexibility Score: inf
ROOT
ATOM      1  C   UNL     1      -3.730  -2.161  -0.145  1.00  0.00     0.275 C 
ENDROOT
BRANCH   1   2
ATOM      2  O   UNL     1      -3.154  -1.098  -0.932  1.00  0.00    -0.458 OA
BRANCH   2   3
ATOM      3  C   UNL     1      -3.957  -0.027  -1.214  1.00  0.00     0.348 C 
ATOM      4  O   UNL     1      -5.099   0.089  -0.805  1.00  0.00    -0.245 OA
BRANCH   3   5
ATOM      5  C   UNL     1      -3.222   0.971  -1.992  1.00  0.00     0.116 A 
ATOM      6  C   UNL     1      -2.365   3.210  -2.636  1.00  0.00     0.141 A 
ATOM      7  C   UNL     1      -1.681   2.185  -3.256  1.00  0.00     0.038 A 
ATOM      8  S   UNL     1      -3.763   2.613  -1.869  1.00  0.00    -0.115 S 
ATOM      9  C   UNL     1      -2.120   0.879  -2.839  1.00  0.00    -0.024 A 
ATOM     10  C   UNL     1      -1.386  -0.352  -3.270  1.00  0.00     0.046 C 
BRANCH   6  11
ATOM     11  S   UNL     1      -1.968   4.940  -2.455  1.00  0.00     0.271 S 
ATOM     12  O   UNL     1      -3.211   5.639  -2.208  1.00  0.00    -0.200 OA
ATOM     13  O   UNL     1      -1.155   5.254  -3.610  1.00  0.00    -0.200 OA
BRANCH  11  14
ATOM     14  N   UNL     1      -0.988   5.177  -1.067  1.00  0.00    -0.279 N 
ATOM     15  H   UNL     1      -1.193   5.889  -0.419  1.00  0.00     0.180 HD
BRANCH  14  16
ATOM     16  C   UNL     1       0.139   4.306  -0.877  1.00  0.00     0.056 A 
ATOM     17  C   UNL     1       0.981   2.072  -0.462  1.00  0.00     0.124 A 
ATOM     18  C   UNL     1      -0.076   2.969  -0.567  1.00  0.00     0.073 A 
ATOM     19  C   UNL     1       2.289   2.533  -0.549  1.00  0.00     0.093 A 
ATOM     20  C   UNL     1       2.527   3.897  -0.751  1.00  0.00     0.124 A 
ATOM     21  C   UNL     1       1.450   4.777  -0.954  1.00  0.00     0.073 A 
BRANCH  17  22
ATOM     22  O   UNL     1       0.614   0.759  -0.389  1.00  0.00    -0.497 OA
ATOM     23  C   UNL     1       1.375  -0.034   0.511  1.00  0.00     0.278 C 
ENDBRANCH  17  22
BRANCH  20  24
ATOM     24  O   UNL     1       3.769   4.476  -0.799  1.00  0.00    -0.497 OA
ATOM     25  C   UNL     1       4.853   3.693  -0.304  1.00  0.00     0.278 C 
ENDBRANCH  20  24
ENDBRANCH  14  16
ENDBRANCH  11  14
ENDBRANCH   6  11
ENDBRANCH   3   5
ENDBRANCH   2   3
ENDBRANCH   1   2
BRANCH   1  26
ATOM     26  C   UNL     1      -3.170  -2.171   1.278  1.00  0.00     0.275 C 
BRANCH  26  27
ATOM     27  O   UNL     1      -3.623  -1.014   2.005  1.00  0.00    -0.458 OA
BRANCH  27  28
ATOM     28  C   UNL     1      -2.688  -0.064   2.225  1.00  0.00     0.338 C 
ATOM     29  O   UNL     1      -1.501  -0.107   1.956  1.00  0.00    -0.246 OA
BRANCH  28  30
ATOM     30  C   UNL     1      -3.347   1.150   2.728  1.00  0.00     0.060 A 
ATOM     31  C   UNL     1      -3.421   2.239   1.861  1.00  0.00     0.016 A 
ATOM     32  C   UNL     1      -3.819   1.251   4.037  1.00  0.00     0.016 A 
ATOM     33  C   UNL     1      -3.973   3.441   2.290  1.00  0.00     0.010 A 
ATOM     34  C   UNL     1      -4.374   2.462   4.471  1.00  0.00     0.010 A 
ATOM     35  C   UNL     1      -4.447   3.567   3.603  1.00  0.00    -0.014 A 
BRANCH  35  36
ATOM     36  C   UNL     1      -4.970   4.881   4.053  1.00  0.00     0.031 A 
ATOM     37  C   UNL     1      -4.134   5.765   4.933  1.00  0.00     0.074 A 
ATOM     38  C   UNL     1      -6.166   5.309   3.610  1.00  0.00     0.049 A 
ATOM     39  N   UNL     1      -4.397   6.962   5.396  1.00  0.00    -0.248 NA
ATOM     40  C   UNL     1      -2.829   5.232   5.349  1.00  0.00     0.031 C 
ATOM     41  C   UNL     1      -7.054   4.555   2.726  1.00  0.00     0.029 A 
ATOM     42  N   UNL     1      -6.831   6.490   3.827  1.00  0.00    -0.354 N 
ATOM     43  C   UNL     1      -3.296   7.322   6.161  1.00  0.00     0.074 A 
ATOM     44  C   UNL     1      -2.374   6.207   6.125  1.00  0.00     0.031 C 
ATOM     45  C   UNL     1      -8.137   5.301   2.456  1.00  0.00     0.029 A 
ATOM     46  C   UNL     1      -8.036   6.570   3.174  1.00  0.00     0.049 A 
ATOM     47  H   UNL     1      -6.477   7.211   4.397  1.00  0.00     0.167 HD
ATOM     48  C   UNL     1      -3.072   8.483   6.824  1.00  0.00     0.037 A 
ATOM     49  C   UNL     1      -8.956   7.553   3.159  1.00  0.00     0.037 A 
ATOM     50  C   UNL     1      -3.984   9.598   6.847  1.00  0.00     0.049 A 
ATOM     51  C   UNL     1      -8.697   8.817   3.935  1.00  0.00     0.074 A 
ATOM     52  C   UNL     1      -3.837  10.822   7.478  1.00  0.00     0.029 A 
ATOM     53  N   UNL     1      -5.217   9.625   6.210  1.00  0.00    -0.354 N 
ATOM     54  N   UNL     1      -7.648   9.153   4.646  1.00  0.00    -0.248 NA
ATOM     55  C   UNL     1      -9.752   9.839   3.904  1.00  0.00     0.031 C 
ATOM     56  C   UNL     1      -4.998  11.572   7.260  1.00  0.00     0.029 A 
ATOM     57  C   UNL     1      -5.850  10.835   6.453  1.00  0.00     0.049 A 
ATOM     58  H   UNL     1      -5.587   8.893   5.666  1.00  0.00     0.167 HD
ATOM     59  C   UNL     1      -7.908  10.427   5.133  1.00  0.00     0.074 A 
ATOM     60  C   UNL     1      -9.204  10.814   4.616  1.00  0.00     0.031 C 
ATOM     61  C   UNL     1      -7.144  11.204   5.939  1.00  0.00     0.037 A 
BRANCH  48  62
ATOM     62  C   UNL     1      -1.795   8.598   7.604  1.00  0.00     0.064 A 
ATOM     63  C   UNL     1      -0.553   8.747   6.970  1.00  0.00     0.173 A 
ATOM     64  C   UNL     1      -1.820   8.593   9.007  1.00  0.00     0.173 A 
ATOM     65  F   UNL     1      -0.474   8.745   5.630  1.00  0.00    -0.203 F 
ATOM     66  C   UNL     1       0.620   8.863   7.711  1.00  0.00     0.198 A 
ATOM     67  C   UNL     1      -0.648   8.735   9.745  1.00  0.00     0.198 A 
ATOM     68  F   UNL     1      -2.982   8.457   9.663  1.00  0.00    -0.203 F 
ATOM     69  F   UNL     1       1.801   8.960   7.085  1.00  0.00    -0.200 F 
ATOM     70  C   UNL     1       0.571   8.863   9.098  1.00  0.00     0.200 A 
ATOM     71  F   UNL     1      -0.699   8.746  11.085  1.00  0.00    -0.200 F 
ATOM     72  F   UNL     1       1.701   8.979   9.810  1.00  0.00    -0.200 F 
ENDBRANCH  48  62
BRANCH  49  73
ATOM     73  C   UNL     1     -10.211   7.380   2.384  1.00  0.00     0.064 A 
ATOM     74  C   UNL     1     -10.470   8.147   1.240  1.00  0.00     0.173 A 
ATOM     75  C   UNL     1     -11.183   6.448   2.779  1.00  0.00     0.173 A 
ATOM     76  F   UNL     1      -9.585   9.072   0.841  1.00  0.00    -0.203 F 
ATOM     77  C   UNL     1     -11.659   7.998   0.528  1.00  0.00     0.198 A 
ATOM     78  C   UNL     1     -12.358   6.280   2.051  1.00  0.00     0.198 A 
ATOM     79  F   UNL     1     -10.987   5.695   3.871  1.00  0.00    -0.203 F 
ATOM     80  F   UNL     1     -11.903   8.777  -0.534  1.00  0.00    -0.200 F 
ATOM     81  C   UNL     1     -12.598   7.060   0.930  1.00  0.00     0.200 A 
ATOM     82  F   UNL     1     -13.259   5.368   2.438  1.00  0.00    -0.200 F 
ATOM     83  F   UNL     1     -13.740   6.917   0.244  1.00  0.00    -0.200 F 
ENDBRANCH  49  73
BRANCH  61  84
ATOM     84  C   UNL     1      -7.689  12.555   6.301  1.00  0.00     0.064 A 
ATOM     85  C   UNL     1      -8.769  12.697   7.186  1.00  0.00     0.173 A 
ATOM     86  C   UNL     1      -7.117  13.721   5.771  1.00  0.00     0.173 A 
ATOM     87  F   UNL     1      -9.361  11.613   7.709  1.00  0.00    -0.203 F 
ATOM     88  C   UNL     1      -9.275  13.956   7.502  1.00  0.00     0.198 A 
ATOM     89  C   UNL     1      -7.607  14.979   6.111  1.00  0.00     0.198 A 
ATOM     90  F   UNL     1      -6.078  13.641   4.926  1.00  0.00    -0.203 F 
ATOM     91  F   UNL     1     -10.340  14.065   8.308  1.00  0.00    -0.200 F 
ATOM     92  C   UNL     1      -8.691  15.095   6.968  1.00  0.00     0.200 A 
ATOM     93  F   UNL     1      -7.034  16.079   5.604  1.00  0.00    -0.200 F 
ATOM     94  F   UNL     1      -9.179  16.305   7.273  1.00  0.00    -0.200 F 
ENDBRANCH  61  84
ENDBRANCH  35  36
ENDBRANCH  28  30
ENDBRANCH  27  28
ENDBRANCH  26  27
ENDBRANCH   1  26
TORSDOF 16
