REMARK SMILES Nc1ccc(-c2cc(Cl)cc3c2O[C@H](C(F)(F)F)C(C(=O)OCCOC(=O)c2ccc(-c4c5nc(c(-c6c(F)c(F)c(F)c(F)c6F)c6ccc([nH]6)c(-c6c(F)c(F)c(F)c(F)c6F)c6nc(c(-c7c(F)c(F)c(F)c(F)c7F)c7ccc4[nH]7)C=C6)C=C5)cc2)=C3)cc1
REMARK SMILES IDX 23 1 22 2 20 3 21 4 19 5 6 6 7 7 12 8 8 9 11 10 13 11 9 12
REMARK SMILES IDX 10 13 91 14 14 15 5 16 2 17 3 18 93 19 4 20 92 21 1 22 15 25
REMARK SMILES IDX 16 26 17 27 18 28 24 29 25 30 26 31 27 32 28 33 29 34 90 35
REMARK SMILES IDX 30 36 89 37 31 38 32 39 33 40 83 41 34 42 88 43 82 44 84 45
REMARK SMILES IDX 35 46 87 47 81 48 80 49 36 51 68 52 48 53 67 54 49 55 52 56
REMARK SMILES IDX 66 57 85 58 50 59 51 60 65 62 86 63 53 64 37 65 38 66 46 67
REMARK SMILES IDX 39 68 40 69 44 70 47 71 41 72 42 73 45 74 43 75 69 76 70 77
REMARK SMILES IDX 78 78 71 79 72 80 76 81 79 82 73 83 74 84 77 85 75 86 54 87
REMARK SMILES IDX 55 88 63 89 56 90 57 91 61 92 64 93 58 94 59 95 62 96 60 97
REMARK H PARENT 1 23 1 24 84 50 52 61
REMARK Flexibility Score: inf
ROOT
ATOM      1  C   UNL     1      -6.114  -3.497   6.153  1.00  0.00     0.275 C 
ENDROOT
BRANCH   1   2
ATOM      2  O   UNL     1      -5.436  -2.751   5.117  1.00  0.00    -0.459 OA
BRANCH   2   3
ATOM      3  C   UNL     1      -5.855  -2.983   3.852  1.00  0.00     0.338 C 
ATOM      4  O   UNL     1      -6.739  -3.748   3.502  1.00  0.00    -0.246 OA
BRANCH   3   5
ATOM      5  C   UNL     1      -5.117  -2.124   2.905  1.00  0.00     0.087 C 
ATOM      6  C   UNL     1      -3.002   0.042  -0.002  1.00  0.00     0.026 A 
ATOM      7  C   UNL     1      -3.733   0.692  -1.014  1.00  0.00     0.033 A 
ATOM      8  C   UNL     1      -3.709  -0.641   1.009  1.00  0.00     0.135 A 
ATOM      9  C   UNL     1      -5.125   0.657  -1.020  1.00  0.00     0.042 A 
ATOM     10  C   UNL     1      -5.103  -0.704   0.970  1.00  0.00     0.019 A 
ATOM     11  O   UNL     1      -2.981  -1.195   2.031  1.00  0.00    -0.475 OA
ATOM     12  Cl  UNL     1      -6.000   1.464  -2.263  1.00  0.00    -0.084 Cl
ATOM     13  C   UNL     1      -5.814  -0.042  -0.037  1.00  0.00     0.032 A 
ATOM     14  C   UNL     1      -5.815  -1.485   1.960  1.00  0.00     0.027 C 
ATOM     15  C   UNL     1      -3.618  -2.100   2.969  1.00  0.00     0.316 C 
BRANCH   6  16
ATOM     16  C   UNL     1      -1.532   0.053  -0.042  1.00  0.00    -0.014 A 
ATOM     17  C   UNL     1       1.297   0.050  -0.062  1.00  0.00     0.031 A 
ATOM     18  C   UNL     1       0.587  -1.147  -0.121  1.00  0.00     0.026 A 
ATOM     19  C   UNL     1       0.585   1.251  -0.054  1.00  0.00     0.026 A 
ATOM     20  C   UNL     1      -0.810  -1.148  -0.103  1.00  0.00     0.011 A 
ATOM     21  C   UNL     1      -0.813   1.255  -0.032  1.00  0.00     0.011 A 
BRANCH  17  22
ATOM     22  N   UNL     1       2.680   0.051  -0.140  1.00  0.00    -0.399 N 
ATOM     23  H   UNL     1       3.173  -0.802  -0.144  1.00  0.00     0.156 HD
ATOM     24  H   UNL     1       3.170   0.903  -0.191  1.00  0.00     0.156 HD
ENDBRANCH  17  22
ENDBRANCH   6  16
BRANCH  15  25
ATOM     25  C   UNL     1      -3.033  -3.507   2.764  1.00  0.00     0.430 C 
ATOM     26  F   UNL     1      -1.679  -3.494   2.794  1.00  0.00    -0.167 F 
ATOM     27  F   UNL     1      -3.435  -4.361   3.736  1.00  0.00    -0.167 F 
ATOM     28  F   UNL     1      -3.406  -4.042   1.578  1.00  0.00    -0.167 F 
ENDBRANCH  15  25
ENDBRANCH   3   5
ENDBRANCH   2   3
ENDBRANCH   1   2
BRANCH   1  29
ATOM     29  C   UNL     1      -7.114  -2.617   6.903  1.00  0.00     0.275 C 
BRANCH  29  30
ATOM     30  O   UNL     1      -8.202  -2.258   6.032  1.00  0.00    -0.458 OA
BRANCH  30  31
ATOM     31  C   UNL     1      -8.284  -0.951   5.697  1.00  0.00     0.338 C 
ATOM     32  O   UNL     1      -7.580  -0.034   6.079  1.00  0.00    -0.246 OA
BRANCH  31  33
ATOM     33  C   UNL     1      -9.341  -0.780   4.689  1.00  0.00     0.060 A 
ATOM     34  C   UNL     1     -10.482  -0.033   4.952  1.00  0.00     0.016 A 
ATOM     35  C   UNL     1      -9.114  -1.275   3.411  1.00  0.00     0.016 A 
ATOM     36  C   UNL     1     -11.404   0.185   3.919  1.00  0.00     0.010 A 
ATOM     37  C   UNL     1      -9.952  -0.935   2.355  1.00  0.00     0.010 A 
ATOM     38  C   UNL     1     -11.136  -0.234   2.599  1.00  0.00    -0.014 A 
BRANCH  38  39
ATOM     39  C   UNL     1     -12.088   0.040   1.483  1.00  0.00     0.031 A 
ATOM     40  C   UNL     1     -12.636  -1.083   0.632  1.00  0.00     0.074 A 
ATOM     41  C   UNL     1     -12.437   1.312   1.201  1.00  0.00     0.049 A 
ATOM     42  N   UNL     1     -13.484  -1.026  -0.368  1.00  0.00    -0.248 NA
ATOM     43  C   UNL     1     -12.139  -2.442   0.902  1.00  0.00     0.031 C 
ATOM     44  C   UNL     1     -11.900   2.502   1.863  1.00  0.00     0.029 A 
ATOM     45  N   UNL     1     -13.342   1.816   0.299  1.00  0.00    -0.354 N 
ATOM     46  C   UNL     1     -13.590  -2.324  -0.854  1.00  0.00     0.074 A 
ATOM     47  C   UNL     1     -12.668  -3.135  -0.094  1.00  0.00     0.031 C 
ATOM     48  C   UNL     1     -12.545   3.588   1.408  1.00  0.00     0.029 A 
ATOM     49  C   UNL     1     -13.515   3.176   0.398  1.00  0.00     0.049 A 
ATOM     50  H   UNL     1     -13.820   1.258  -0.355  1.00  0.00     0.167 HD
ATOM     51  C   UNL     1     -14.414  -2.811  -1.812  1.00  0.00     0.037 A 
ATOM     52  C   UNL     1     -14.378   3.996  -0.231  1.00  0.00     0.037 A 
ATOM     53  C   UNL     1     -15.389  -2.022  -2.516  1.00  0.00     0.049 A 
ATOM     54  C   UNL     1     -15.344   3.423  -1.230  1.00  0.00     0.074 A 
ATOM     55  C   UNL     1     -16.334  -2.438  -3.437  1.00  0.00     0.029 A 
ATOM     56  N   UNL     1     -15.555  -0.654  -2.359  1.00  0.00    -0.354 N 
ATOM     57  N   UNL     1     -15.489   2.180  -1.619  1.00  0.00    -0.248 NA
ATOM     58  C   UNL     1     -16.271   4.366  -1.873  1.00  0.00     0.031 C 
ATOM     59  C   UNL     1     -17.058  -1.317  -3.856  1.00  0.00     0.029 A 
ATOM     60  C   UNL     1     -16.586  -0.210  -3.170  1.00  0.00     0.049 A 
ATOM     61  H   UNL     1     -15.020  -0.084  -1.761  1.00  0.00     0.167 HD
ATOM     62  C   UNL     1     -16.527   2.188  -2.539  1.00  0.00     0.074 A 
ATOM     63  C   UNL     1     -16.993   3.555  -2.635  1.00  0.00     0.031 C 
ATOM     64  C   UNL     1     -17.042   1.153  -3.247  1.00  0.00     0.037 A 
BRANCH  51  65
ATOM     65  C   UNL     1     -14.338  -4.279  -2.123  1.00  0.00     0.064 A 
ATOM     66  C   UNL     1     -14.786  -5.244  -1.207  1.00  0.00     0.173 A 
ATOM     67  C   UNL     1     -13.867  -4.727  -3.367  1.00  0.00     0.173 A 
ATOM     68  F   UNL     1     -15.240  -4.869  -0.001  1.00  0.00    -0.203 F 
ATOM     69  C   UNL     1     -14.737  -6.601  -1.512  1.00  0.00     0.198 A 
ATOM     70  C   UNL     1     -13.849  -6.084  -3.680  1.00  0.00     0.198 A 
ATOM     71  F   UNL     1     -13.438  -3.848  -4.285  1.00  0.00    -0.203 F 
ATOM     72  F   UNL     1     -15.128  -7.504  -0.602  1.00  0.00    -0.200 F 
ATOM     73  C   UNL     1     -14.277  -7.020  -2.750  1.00  0.00     0.200 A 
ATOM     74  F   UNL     1     -13.420  -6.487  -4.884  1.00  0.00    -0.200 F 
ATOM     75  F   UNL     1     -14.243  -8.326  -3.047  1.00  0.00    -0.200 F 
ENDBRANCH  51  65
BRANCH  52  76
ATOM     76  C   UNL     1     -14.421   5.435   0.136  1.00  0.00     0.064 A 
ATOM     77  C   UNL     1     -15.487   5.944   0.891  1.00  0.00     0.173 A 
ATOM     78  C   UNL     1     -13.392   6.318  -0.220  1.00  0.00     0.173 A 
ATOM     79  F   UNL     1     -16.503   5.141   1.240  1.00  0.00    -0.203 F 
ATOM     80  C   UNL     1     -15.526   7.284   1.270  1.00  0.00     0.198 A 
ATOM     81  C   UNL     1     -13.420   7.653   0.180  1.00  0.00     0.198 A 
ATOM     82  F   UNL     1     -12.346   5.877  -0.934  1.00  0.00    -0.203 F 
ATOM     83  F   UNL     1     -16.570   7.750   1.968  1.00  0.00    -0.200 F 
ATOM     84  C   UNL     1     -14.489   8.135   0.921  1.00  0.00     0.200 A 
ATOM     85  F   UNL     1     -12.409   8.469  -0.145  1.00  0.00    -0.200 F 
ATOM     86  F   UNL     1     -14.520   9.421   1.298  1.00  0.00    -0.200 F 
ENDBRANCH  52  76
BRANCH  64  87
ATOM     87  C   UNL     1     -18.174   1.449  -4.183  1.00  0.00     0.064 A 
ATOM     88  C   UNL     1     -17.956   2.100  -5.405  1.00  0.00     0.173 A 
ATOM     89  C   UNL     1     -19.473   1.007  -3.892  1.00  0.00     0.173 A 
ATOM     90  F   UNL     1     -16.733   2.550  -5.722  1.00  0.00    -0.203 F 
ATOM     91  C   UNL     1     -19.003   2.309  -6.299  1.00  0.00     0.198 A 
ATOM     92  C   UNL     1     -20.512   1.196  -4.798  1.00  0.00     0.198 A 
ATOM     93  F   UNL     1     -19.728   0.372  -2.738  1.00  0.00    -0.203 F 
ATOM     94  F   UNL     1     -18.779   2.958  -7.450  1.00  0.00    -0.200 F 
ATOM     95  C   UNL     1     -20.277   1.849  -5.999  1.00  0.00     0.200 A 
ATOM     96  F   UNL     1     -21.739   0.739  -4.513  1.00  0.00    -0.200 F 
ATOM     97  F   UNL     1     -21.279   2.036  -6.868  1.00  0.00    -0.200 F 
ENDBRANCH  64  87
ENDBRANCH  38  39
ENDBRANCH  31  33
ENDBRANCH  30  31
ENDBRANCH  29  30
ENDBRANCH   1  29
TORSDOF 14
