REMARK SMILES CC(C)CC1(CNc2ccnc(C(=O)OCCOC(=O)c3ccc(-c4c5nc(c(-c6c(F)c(F)c(F)c(F)c6F)c6ccc([nH]6)c(-c6c(F)c(F)c(F)c(F)c6F)c6nc(c(-c7c(F)c(F)c(F)c(F)c7F)c7ccc4[nH]7)C=C6)C=C5)cc3)c2)CCCC1
REMARK SMILES IDX 15 1 13 2 14 3 12 4 8 5 9 6 84 7 10 8 11 9 7 10 6 12 5 13
REMARK SMILES IDX 85 14 88 15 86 16 87 17 4 18 2 19 1 20 3 21 16 22 17 23
REMARK SMILES IDX 18 24 19 25 20 26 21 27 22 28 83 29 23 30 82 31 24 32 25 33
REMARK SMILES IDX 26 34 76 35 27 36 81 37 75 38 77 39 28 40 80 41 74 42 73 43
REMARK SMILES IDX 29 45 61 46 41 47 60 48 42 49 45 50 59 51 78 52 43 53 44 54
REMARK SMILES IDX 58 56 79 57 46 58 30 59 31 60 39 61 32 62 33 63 37 64 40 65
REMARK SMILES IDX 34 66 35 67 38 68 36 69 62 70 63 71 71 72 64 73 65 74 69 75
REMARK SMILES IDX 72 76 66 77 67 78 70 79 68 80 47 81 48 82 56 83 49 84 50 85
REMARK SMILES IDX 54 86 57 87 51 88 52 89 55 90 53 91
REMARK H PARENT 7 11 77 44 45 55
REMARK Flexibility Score: inf
ROOT
ATOM      1  O   UNL     1      -2.160  -6.590  -1.042  1.00  0.00    -0.457 OA
ENDROOT
BRANCH   1   2
ATOM      2  C   UNL     1      -3.499  -6.585  -1.294  1.00  0.00     0.357 C 
ATOM      3  O   UNL     1      -4.223  -7.569  -1.302  1.00  0.00    -0.244 OA
BRANCH   2   4
ATOM      4  C   UNL     1      -3.992  -5.180  -1.460  1.00  0.00     0.150 A 
ATOM      5  C   UNL     1      -3.648  -2.856  -1.961  1.00  0.00     0.038 A 
ATOM      6  C   UNL     1      -4.932  -2.616  -1.479  1.00  0.00     0.046 A 
ATOM      7  C   UNL     1      -3.168  -4.169  -1.935  1.00  0.00     0.061 A 
ATOM      8  C   UNL     1      -5.705  -3.686  -1.067  1.00  0.00     0.114 A 
ATOM      9  N   UNL     1      -5.275  -4.962  -1.069  1.00  0.00    -0.249 NA
BRANCH   5  10
ATOM     10  N   UNL     1      -2.803  -1.848  -2.382  1.00  0.00    -0.384 N 
ATOM     11  H   UNL     1      -2.188  -2.038  -3.127  1.00  0.00     0.160 HD
BRANCH  10  12
ATOM     12  C   UNL     1      -2.771  -0.520  -1.784  1.00  0.00     0.119 C 
BRANCH  12  13
ATOM     13  C   UNL     1      -1.301  -0.099  -1.438  1.00  0.00    -0.012 C 
ATOM     14  C   UNL     1      -1.334   1.355  -0.919  1.00  0.00     0.009 C 
ATOM     15  C   UNL     1      -0.441   0.055  -2.707  1.00  0.00     0.009 C 
ATOM     16  C   UNL     1      -1.381   2.239  -2.164  1.00  0.00     0.001 C 
ATOM     17  C   UNL     1      -0.871   1.385  -3.321  1.00  0.00     0.001 C 
BRANCH  13  18
ATOM     18  C   UNL     1      -0.744  -1.083  -0.362  1.00  0.00     0.012 C 
BRANCH  18  19
ATOM     19  C   UNL     1       0.779  -1.295  -0.214  1.00  0.00    -0.017 C 
ATOM     20  C   UNL     1       1.544  -0.056   0.243  1.00  0.00     0.007 C 
ATOM     21  C   UNL     1       1.029  -2.430   0.791  1.00  0.00     0.007 C 
ENDBRANCH  18  19
ENDBRANCH  13  18
ENDBRANCH  12  13
ENDBRANCH  10  12
ENDBRANCH   5  10
ENDBRANCH   2   4
ENDBRANCH   1   2
BRANCH   1  22
ATOM     22  C   UNL     1      -1.580  -7.871  -0.723  1.00  0.00     0.275 C 
BRANCH  22  23
ATOM     23  C   UNL     1      -1.355  -8.036   0.784  1.00  0.00     0.275 C 
BRANCH  23  24
ATOM     24  O   UNL     1      -2.601  -8.128   1.500  1.00  0.00    -0.458 OA
BRANCH  24  25
ATOM     25  C   UNL     1      -3.006  -6.984   2.097  1.00  0.00     0.338 C 
ATOM     26  O   UNL     1      -2.416  -5.918   2.135  1.00  0.00    -0.246 OA
BRANCH  25  27
ATOM     27  C   UNL     1      -4.371  -7.154   2.619  1.00  0.00     0.060 A 
ATOM     28  C   UNL     1      -5.392  -6.473   1.961  1.00  0.00     0.016 A 
ATOM     29  C   UNL     1      -4.641  -7.873   3.783  1.00  0.00     0.016 A 
ATOM     30  C   UNL     1      -6.689  -6.488   2.458  1.00  0.00     0.010 A 
ATOM     31  C   UNL     1      -5.952  -7.901   4.280  1.00  0.00     0.010 A 
ATOM     32  C   UNL     1      -6.982  -7.196   3.628  1.00  0.00    -0.014 A 
BRANCH  32  33
ATOM     33  C   UNL     1      -8.358  -7.136   4.181  1.00  0.00     0.031 A 
ATOM     34  C   UNL     1      -8.631  -6.361   5.437  1.00  0.00     0.074 A 
ATOM     35  C   UNL     1      -9.371  -7.733   3.528  1.00  0.00     0.049 A 
ATOM     36  N   UNL     1      -9.747  -6.236   6.110  1.00  0.00    -0.248 NA
ATOM     37  C   UNL     1      -7.494  -5.630   6.015  1.00  0.00     0.031 C 
ATOM     38  C   UNL     1      -9.243  -8.473   2.273  1.00  0.00     0.029 A 
ATOM     39  N   UNL     1     -10.709  -7.808   3.828  1.00  0.00    -0.354 N 
ATOM     40  C   UNL     1      -9.440  -5.444   7.207  1.00  0.00     0.074 A 
ATOM     41  C   UNL     1      -8.031  -5.124   7.116  1.00  0.00     0.031 C 
ATOM     42  C   UNL     1     -10.453  -8.921   1.905  1.00  0.00     0.029 A 
ATOM     43  C   UNL     1     -11.431  -8.544   2.923  1.00  0.00     0.049 A 
ATOM     44  H   UNL     1     -11.111  -7.374   4.615  1.00  0.00     0.167 HD
ATOM     45  C   UNL     1     -10.261  -5.024   8.200  1.00  0.00     0.037 A 
ATOM     46  C   UNL     1     -12.729  -8.902   2.928  1.00  0.00     0.037 A 
ATOM     47  C   UNL     1     -11.670  -5.317   8.270  1.00  0.00     0.049 A 
ATOM     48  C   UNL     1     -13.615  -8.449   4.053  1.00  0.00     0.074 A 
ATOM     49  C   UNL     1     -12.592  -4.907   9.217  1.00  0.00     0.029 A 
ATOM     50  N   UNL     1     -12.360  -6.095   7.351  1.00  0.00    -0.354 N 
ATOM     51  N   UNL     1     -13.316  -7.709   5.093  1.00  0.00    -0.248 NA
ATOM     52  C   UNL     1     -15.018  -8.886   4.011  1.00  0.00     0.031 C 
ATOM     53  C   UNL     1     -13.832  -5.472   8.895  1.00  0.00     0.029 A 
ATOM     54  C   UNL     1     -13.692  -6.198   7.723  1.00  0.00     0.049 A 
ATOM     55  H   UNL     1     -11.963  -6.512   6.553  1.00  0.00     0.167 HD
ATOM     56  C   UNL     1     -14.488  -7.586   5.825  1.00  0.00     0.074 A 
ATOM     57  C   UNL     1     -15.511  -8.311   5.099  1.00  0.00     0.031 C 
ATOM     58  C   UNL     1     -14.696  -6.934   6.996  1.00  0.00     0.037 A 
BRANCH  45  59
ATOM     59  C   UNL     1      -9.640  -4.239   9.318  1.00  0.00     0.064 A 
ATOM     60  C   UNL     1      -9.205  -2.917   9.147  1.00  0.00     0.173 A 
ATOM     61  C   UNL     1      -9.479  -4.825  10.583  1.00  0.00     0.173 A 
ATOM     62  F   UNL     1      -9.323  -2.316   7.953  1.00  0.00    -0.203 F 
ATOM     63  C   UNL     1      -8.601  -2.222  10.192  1.00  0.00     0.198 A 
ATOM     64  C   UNL     1      -8.899  -4.118  11.633  1.00  0.00     0.198 A 
ATOM     65  F   UNL     1      -9.883  -6.085  10.801  1.00  0.00    -0.203 F 
ATOM     66  F   UNL     1      -8.143  -0.978   9.991  1.00  0.00    -0.200 F 
ATOM     67  C   UNL     1      -8.451  -2.821  11.434  1.00  0.00     0.200 A 
ATOM     68  F   UNL     1      -8.765  -4.695  12.835  1.00  0.00    -0.200 F 
ATOM     69  F   UNL     1      -7.866  -2.152  12.437  1.00  0.00    -0.200 F 
ENDBRANCH  45  59
BRANCH  46  70
ATOM     70  C   UNL     1     -13.248  -9.761   1.834  1.00  0.00     0.064 A 
ATOM     71  C   UNL     1     -14.110  -9.248   0.856  1.00  0.00     0.173 A 
ATOM     72  C   UNL     1     -12.859 -11.104   1.725  1.00  0.00     0.173 A 
ATOM     73  F   UNL     1     -14.531  -7.978   0.933  1.00  0.00    -0.203 F 
ATOM     74  C   UNL     1     -14.562 -10.048  -0.192  1.00  0.00     0.198 A 
ATOM     75  C   UNL     1     -13.290 -11.895   0.663  1.00  0.00     0.198 A 
ATOM     76  F   UNL     1     -12.038 -11.641   2.640  1.00  0.00    -0.203 F 
ATOM     77  F   UNL     1     -15.406  -9.543  -1.102  1.00  0.00    -0.200 F 
ATOM     78  C   UNL     1     -14.143 -11.367  -0.294  1.00  0.00     0.200 A 
ATOM     79  F   UNL     1     -12.875 -13.165   0.564  1.00  0.00    -0.200 F 
ATOM     80  F   UNL     1     -14.565 -12.130  -1.311  1.00  0.00    -0.200 F 
ENDBRANCH  46  70
BRANCH  58  81
ATOM     81  C   UNL     1     -16.085  -6.970   7.561  1.00  0.00     0.064 A 
ATOM     82  C   UNL     1     -16.600  -8.127   8.163  1.00  0.00     0.173 A 
ATOM     83  C   UNL     1     -16.895  -5.825   7.535  1.00  0.00     0.173 A 
ATOM     84  F   UNL     1     -15.869  -9.252   8.198  1.00  0.00    -0.203 F 
ATOM     85  C   UNL     1     -17.884  -8.142   8.701  1.00  0.00     0.198 A 
ATOM     86  C   UNL     1     -18.169  -5.837   8.095  1.00  0.00     0.198 A 
ATOM     87  F   UNL     1     -16.447  -4.692   6.974  1.00  0.00    -0.203 F 
ATOM     88  F   UNL     1     -18.371  -9.271   9.236  1.00  0.00    -0.200 F 
ATOM     89  C   UNL     1     -18.665  -6.996   8.672  1.00  0.00     0.200 A 
ATOM     90  F   UNL     1     -18.919  -4.726   8.075  1.00  0.00    -0.200 F 
ATOM     91  F   UNL     1     -19.899  -7.011   9.195  1.00  0.00    -0.200 F 
ENDBRANCH  58  81
ENDBRANCH  32  33
ENDBRANCH  25  27
ENDBRANCH  24  25
ENDBRANCH  23  24
ENDBRANCH  22  23
ENDBRANCH   1  22
TORSDOF 16
