REMARK SMILES O=C(CC1(CC(=O)OCCOC(=O)c2ccc(-c3c4nc(c(-c5c(F)c(F)c(F)c(F)c5F)c5ccc([nH]5)c(-c5c(F)c(F)c(F)c(F)c5F)c5nc(c(-c6c(F)c(F)c(F)c(F)c6F)c6ccc3[nH]6)C=C5)C=C4)cc2)CCCCC1)Nc1ccc2ccccc2n1
REMARK SMILES IDX 9 1 8 2 6 3 7 4 5 5 4 6 77 7 81 8 78 9 80 10 79 11 3 12 2 13
REMARK SMILES IDX 1 14 82 15 83 17 84 18 92 19 85 20 91 21 86 22 90 23 87 24
REMARK SMILES IDX 89 25 88 26 10 27 11 28 12 29 13 30 14 31 15 32 76 33 16 34
REMARK SMILES IDX 75 35 17 36 18 37 19 38 69 39 20 40 74 41 68 42 70 43 21 44
REMARK SMILES IDX 73 45 67 46 66 47 22 49 54 50 34 51 53 52 35 53 38 54 52 55
REMARK SMILES IDX 71 56 36 57 37 58 51 60 72 61 39 62 23 63 24 64 32 65 25 66
REMARK SMILES IDX 26 67 30 68 33 69 27 70 28 71 31 72 29 73 55 74 56 75 64 76
REMARK SMILES IDX 57 77 58 78 62 79 65 80 59 81 60 82 63 83 61 84 40 85 41 86
REMARK SMILES IDX 49 87 42 88 43 89 47 90 50 91 44 92 45 93 48 94 46 95
REMARK H PARENT 82 16 70 48 38 59
REMARK Flexibility Score: inf
ROOT
ATOM      1  C   UNL     1       6.575  -1.645  -3.326  1.00  0.00     0.274 C 
ENDROOT
BRANCH   1   2
ATOM      2  O   UNL     1       5.856  -0.561  -2.702  1.00  0.00    -0.462 OA
BRANCH   2   3
ATOM      3  C   UNL     1       5.242   0.292  -3.555  1.00  0.00     0.306 C 
ATOM      4  O   UNL     1       5.191   0.137  -4.772  1.00  0.00    -0.252 OA
BRANCH   3   5
ATOM      5  C   UNL     1       4.679   1.540  -2.905  1.00  0.00     0.130 C 
BRANCH   5   6
ATOM      6  C   UNL     1       4.282   1.589  -1.398  1.00  0.00    -0.010 C 
ATOM      7  C   UNL     1       3.650   2.994  -1.136  1.00  0.00     0.008 C 
ATOM      8  C   UNL     1       5.488   1.446  -0.440  1.00  0.00     0.008 C 
ATOM      9  C   UNL     1       4.642   4.149  -1.267  1.00  0.00     0.001 C 
ATOM     10  C   UNL     1       6.510   2.568  -0.590  1.00  0.00     0.001 C 
ATOM     11  C   UNL     1       5.870   3.937  -0.389  1.00  0.00     0.000 C 
BRANCH   6  12
ATOM     12  C   UNL     1       3.283   0.447  -1.099  1.00  0.00     0.108 C 
BRANCH  12  13
ATOM     13  C   UNL     1       2.039   0.849  -0.338  1.00  0.00     0.226 C 
ATOM     14  O   UNL     1       1.064   1.260  -0.963  1.00  0.00    -0.275 OA
ATOM     15  N   UNL     1       2.126   0.602   1.024  1.00  0.00    -0.311 N 
ATOM     16  H   UNL     1       2.997   0.573   1.482  1.00  0.00     0.171 HD
BRANCH  15  17
ATOM     17  C   UNL     1       0.931   0.395   1.726  1.00  0.00     0.133 A 
ATOM     18  C   UNL     1       0.779  -0.882   2.242  1.00  0.00     0.048 A 
ATOM     19  N   UNL     1      -0.093   1.244   1.536  1.00  0.00    -0.231 NA
ATOM     20  C   UNL     1      -0.505  -1.409   2.250  1.00  0.00     0.014 A 
ATOM     21  C   UNL     1      -1.332   0.741   1.553  1.00  0.00     0.073 A 
ATOM     22  C   UNL     1      -1.578  -0.620   1.818  1.00  0.00     0.000 A 
ATOM     23  C   UNL     1      -2.400   1.555   1.206  1.00  0.00     0.029 A 
ATOM     24  C   UNL     1      -2.855  -1.157   1.593  1.00  0.00     0.010 A 
ATOM     25  C   UNL     1      -3.676   1.028   0.999  1.00  0.00     0.002 A 
ATOM     26  C   UNL     1      -3.894  -0.337   1.157  1.00  0.00     0.001 A 
ENDBRANCH  15  17
ENDBRANCH  12  13
ENDBRANCH   6  12
ENDBRANCH   5   6
ENDBRANCH   3   5
ENDBRANCH   2   3
ENDBRANCH   1   2
BRANCH   1  27
ATOM     27  C   UNL     1       5.771  -2.945  -3.347  1.00  0.00     0.275 C 
BRANCH  27  28
ATOM     28  O   UNL     1       4.542  -2.786  -4.075  1.00  0.00    -0.458 OA
BRANCH  28  29
ATOM     29  C   UNL     1       3.433  -2.675  -3.316  1.00  0.00     0.338 C 
ATOM     30  O   UNL     1       3.349  -2.743  -2.096  1.00  0.00    -0.246 OA
BRANCH  29  31
ATOM     31  C   UNL     1       2.278  -2.399  -4.177  1.00  0.00     0.060 A 
ATOM     32  C   UNL     1       1.970  -1.075  -4.494  1.00  0.00     0.016 A 
ATOM     33  C   UNL     1       1.436  -3.439  -4.569  1.00  0.00     0.016 A 
ATOM     34  C   UNL     1       0.791  -0.776  -5.168  1.00  0.00     0.010 A 
ATOM     35  C   UNL     1       0.275  -3.142  -5.288  1.00  0.00     0.010 A 
ATOM     36  C   UNL     1      -0.065  -1.807  -5.573  1.00  0.00    -0.014 A 
BRANCH  36  37
ATOM     37  C   UNL     1      -1.333  -1.488  -6.268  1.00  0.00     0.031 A 
ATOM     38  C   UNL     1      -2.644  -1.720  -5.578  1.00  0.00     0.074 A 
ATOM     39  C   UNL     1      -1.304  -0.997  -7.520  1.00  0.00     0.049 A 
ATOM     40  N   UNL     1      -3.858  -1.662  -6.062  1.00  0.00    -0.248 NA
ATOM     41  C   UNL     1      -2.579  -2.078  -4.153  1.00  0.00     0.031 C 
ATOM     42  C   UNL     1      -0.091  -0.684  -8.275  1.00  0.00     0.029 A 
ATOM     43  N   UNL     1      -2.326  -0.685  -8.380  1.00  0.00    -0.354 N 
ATOM     44  C   UNL     1      -4.699  -2.011  -5.015  1.00  0.00     0.074 A 
ATOM     45  C   UNL     1      -3.857  -2.290  -3.870  1.00  0.00     0.031 C 
ATOM     46  C   UNL     1      -0.438  -0.225  -9.488  1.00  0.00     0.029 A 
ATOM     47  C   UNL     1      -1.892  -0.266  -9.613  1.00  0.00     0.049 A 
ATOM     48  H   UNL     1      -3.277  -0.754  -8.137  1.00  0.00     0.167 HD
ATOM     49  C   UNL     1      -6.051  -2.091  -5.014  1.00  0.00     0.037 A 
ATOM     50  C   UNL     1      -2.587   0.015 -10.730  1.00  0.00     0.037 A 
ATOM     51  C   UNL     1      -6.882  -1.772  -6.147  1.00  0.00     0.049 A 
ATOM     52  C   UNL     1      -4.084  -0.114 -10.715  1.00  0.00     0.074 A 
ATOM     53  C   UNL     1      -8.263  -1.794  -6.240  1.00  0.00     0.029 A 
ATOM     54  N   UNL     1      -6.405  -1.366  -7.386  1.00  0.00    -0.354 N 
ATOM     55  N   UNL     1      -4.873  -0.473  -9.732  1.00  0.00    -0.248 NA
ATOM     56  C   UNL     1      -4.786   0.192 -11.969  1.00  0.00     0.031 C 
ATOM     57  C   UNL     1      -8.620  -1.437  -7.546  1.00  0.00     0.029 A 
ATOM     58  C   UNL     1      -7.463  -1.152  -8.255  1.00  0.00     0.049 A 
ATOM     59  H   UNL     1      -5.455  -1.247  -7.613  1.00  0.00     0.167 HD
ATOM     60  C   UNL     1      -6.163  -0.424 -10.240  1.00  0.00     0.074 A 
ATOM     61  C   UNL     1      -6.052   0.015 -11.617  1.00  0.00     0.031 C 
ATOM     62  C   UNL     1      -7.333  -0.718  -9.622  1.00  0.00     0.037 A 
BRANCH  49  63
ATOM     63  C   UNL     1      -6.714  -2.577  -3.760  1.00  0.00     0.064 A 
ATOM     64  C   UNL     1      -6.785  -1.788  -2.603  1.00  0.00     0.173 A 
ATOM     65  C   UNL     1      -7.306  -3.849  -3.724  1.00  0.00     0.173 A 
ATOM     66  F   UNL     1      -6.224  -0.570  -2.579  1.00  0.00    -0.203 F 
ATOM     67  C   UNL     1      -7.399  -2.266  -1.447  1.00  0.00     0.198 A 
ATOM     68  C   UNL     1      -7.944  -4.312  -2.577  1.00  0.00     0.198 A 
ATOM     69  F   UNL     1      -7.268  -4.643  -4.805  1.00  0.00    -0.203 F 
ATOM     70  F   UNL     1      -7.407  -1.517  -0.336  1.00  0.00    -0.200 F 
ATOM     71  C   UNL     1      -7.983  -3.524  -1.437  1.00  0.00     0.200 A 
ATOM     72  F   UNL     1      -8.515  -5.525  -2.572  1.00  0.00    -0.200 F 
ATOM     73  F   UNL     1      -8.575  -3.981  -0.325  1.00  0.00    -0.200 F 
ENDBRANCH  49  63
BRANCH  50  74
ATOM     74  C   UNL     1      -1.861   0.419 -11.960  1.00  0.00     0.064 A 
ATOM     75  C   UNL     1      -1.922   1.737 -12.432  1.00  0.00     0.173 A 
ATOM     76  C   UNL     1      -1.074  -0.497 -12.673  1.00  0.00     0.173 A 
ATOM     77  F   UNL     1      -2.683   2.641 -11.797  1.00  0.00    -0.203 F 
ATOM     78  C   UNL     1      -1.226   2.122 -13.575  1.00  0.00     0.198 A 
ATOM     79  C   UNL     1      -0.358  -0.105 -13.801  1.00  0.00     0.198 A 
ATOM     80  F   UNL     1      -0.986  -1.770 -12.261  1.00  0.00    -0.203 F 
ATOM     81  F   UNL     1      -1.325   3.380 -14.025  1.00  0.00    -0.200 F 
ATOM     82  C   UNL     1      -0.437   1.204 -14.254  1.00  0.00     0.200 A 
ATOM     83  F   UNL     1       0.411  -0.992 -14.446  1.00  0.00    -0.200 F 
ATOM     84  F   UNL     1       0.241   1.578 -15.347  1.00  0.00    -0.200 F 
ENDBRANCH  50  74
BRANCH  62  85
ATOM     85  C   UNL     1      -8.588  -0.554 -10.427  1.00  0.00     0.064 A 
ATOM     86  C   UNL     1      -8.941  -1.472 -11.426  1.00  0.00     0.173 A 
ATOM     87  C   UNL     1      -9.460   0.514 -10.172  1.00  0.00     0.173 A 
ATOM     88  F   UNL     1      -8.130  -2.500 -11.717  1.00  0.00    -0.203 F 
ATOM     89  C   UNL     1     -10.116  -1.313 -12.157  1.00  0.00     0.198 A 
ATOM     90  C   UNL     1     -10.645   0.655 -10.889  1.00  0.00     0.198 A 
ATOM     91  F   UNL     1      -9.167   1.415  -9.223  1.00  0.00    -0.203 F 
ATOM     92  F   UNL     1     -10.415  -2.178 -13.136  1.00  0.00    -0.200 F 
ATOM     93  C   UNL     1     -10.969  -0.255 -11.884  1.00  0.00     0.200 A 
ATOM     94  F   UNL     1     -11.473   1.674 -10.617  1.00  0.00    -0.200 F 
ATOM     95  F   UNL     1     -12.101  -0.106 -12.586  1.00  0.00    -0.200 F 
ENDBRANCH  62  85
ENDBRANCH  36  37
ENDBRANCH  29  31
ENDBRANCH  28  29
ENDBRANCH  27  28
ENDBRANCH   1  27
TORSDOF 15
