REMARK SMILES COCCS(=O)(=O)CCn1cc(C(=O)OCCOC(=O)c2ccc(-c3c4nc(c(-c5c(F)c(F)c(F)c(F)c5F)c5ccc([nH]5)c(-c5c(F)c(F)c(F)c(F)c5F)c5nc(c(-c6c(F)c(F)c(F)c(F)c6F)c6ccc3[nH]6)C=C5)C=C4)cc2)nn1
REMARK SMILES IDX 13 1 14 2 12 3 10 4 11 5 85 6 84 7 9 8 8 9 5 10 6 11 7 12
REMARK SMILES IDX 4 13 3 14 2 15 1 16 15 17 16 18 17 19 18 20 19 21 20 22
REMARK SMILES IDX 21 23 22 24 83 25 23 26 82 27 24 28 25 29 26 30 76 31 27 32
REMARK SMILES IDX 81 33 75 34 77 35 28 36 80 37 74 38 73 39 29 41 61 42 41 43
REMARK SMILES IDX 60 44 42 45 45 46 59 47 78 48 43 49 44 50 58 52 79 53 46 54
REMARK SMILES IDX 30 55 31 56 39 57 32 58 33 59 37 60 40 61 34 62 35 63 38 64
REMARK SMILES IDX 36 65 62 66 63 67 71 68 64 69 65 70 69 71 72 72 66 73 67 74
REMARK SMILES IDX 70 75 68 76 47 77 48 78 56 79 49 80 50 81 54 82 57 83 51 84
REMARK SMILES IDX 52 85 55 86 53 87
REMARK H PARENT 77 40 45 51
REMARK Flexibility Score: inf
ROOT
ATOM      1  C   UNL     1      -3.763   0.075   3.511  1.00  0.00     0.360 C 
ATOM      2  O   UNL     1      -4.171   1.187   3.834  1.00  0.00    -0.244 OA
ENDROOT
BRANCH   1   3
ATOM      3  C   UNL     1      -3.093  -0.217   2.253  1.00  0.00     0.190 A 
ATOM      4  N   UNL     1      -2.003  -1.171   0.646  1.00  0.00    -0.251 N 
ATOM      5  C   UNL     1      -2.696  -1.454   1.780  1.00  0.00     0.147 A 
ATOM      6  N   UNL     1      -2.015   0.141   0.374  1.00  0.00    -0.067 NA
ATOM      7  N   UNL     1      -2.676   0.743   1.358  1.00  0.00    -0.123 NA
BRANCH   4   8
ATOM      8  C   UNL     1      -1.340  -2.103  -0.229  1.00  0.00     0.162 C 
BRANCH   8   9
ATOM      9  C   UNL     1       0.176  -2.061  -0.241  1.00  0.00     0.160 C 
BRANCH   9  10
ATOM     10  S   UNL     1       0.983  -2.449   1.292  1.00  0.00     0.154 S 
ATOM     11  O   UNL     1       2.399  -2.569   0.994  1.00  0.00    -0.229 OA
ATOM     12  O   UNL     1       0.274  -3.596   1.834  1.00  0.00    -0.229 OA
BRANCH  10  13
ATOM     13  C   UNL     1       0.789  -1.111   2.451  1.00  0.00     0.165 C 
BRANCH  13  14
ATOM     14  C   UNL     1       1.766   0.038   2.306  1.00  0.00     0.176 C 
BRANCH  14  15
ATOM     15  O   UNL     1       1.195   1.184   1.675  1.00  0.00    -0.384 OA
ATOM     16  C   UNL     1       1.431   1.278   0.282  1.00  0.00     0.194 C 
ENDBRANCH  14  15
ENDBRANCH  13  14
ENDBRANCH  10  13
ENDBRANCH   9  10
ENDBRANCH   8   9
ENDBRANCH   4   8
ENDBRANCH   1   3
BRANCH   1  17
ATOM     17  O   UNL     1      -3.829  -1.031   4.319  1.00  0.00    -0.457 OA
BRANCH  17  18
ATOM     18  C   UNL     1      -4.223  -0.812   5.682  1.00  0.00     0.275 C 
BRANCH  18  19
ATOM     19  C   UNL     1      -3.019  -0.504   6.558  1.00  0.00     0.275 C 
BRANCH  19  20
ATOM     20  O   UNL     1      -2.519   0.810   6.309  1.00  0.00    -0.458 OA
BRANCH  20  21
ATOM     21  C   UNL     1      -1.447   0.857   5.487  1.00  0.00     0.338 C 
ATOM     22  O   UNL     1      -1.122   0.031   4.651  1.00  0.00    -0.246 OA
BRANCH  21  23
ATOM     23  C   UNL     1      -0.537   1.899   5.966  1.00  0.00     0.060 A 
ATOM     24  C   UNL     1       0.526   2.282   5.144  1.00  0.00     0.016 A 
ATOM     25  C   UNL     1      -0.582   2.244   7.324  1.00  0.00     0.016 A 
ATOM     26  C   UNL     1       1.626   2.889   5.718  1.00  0.00     0.010 A 
ATOM     27  C   UNL     1       0.513   2.838   7.896  1.00  0.00     0.010 A 
ATOM     28  C   UNL     1       1.628   3.101   7.100  1.00  0.00    -0.014 A 
BRANCH  28  29
ATOM     29  C   UNL     1       2.752   3.784   7.714  1.00  0.00     0.031 A 
ATOM     30  C   UNL     1       2.774   5.236   7.393  1.00  0.00     0.074 A 
ATOM     31  C   UNL     1       3.505   3.172   8.650  1.00  0.00     0.049 A 
ATOM     32  N   UNL     1       3.732   5.925   6.870  1.00  0.00    -0.248 NA
ATOM     33  C   UNL     1       1.513   5.992   7.541  1.00  0.00     0.031 C 
ATOM     34  C   UNL     1       3.301   1.824   9.197  1.00  0.00     0.029 A 
ATOM     35  N   UNL     1       4.520   3.659   9.417  1.00  0.00    -0.354 N 
ATOM     36  C   UNL     1       3.259   7.236   6.810  1.00  0.00     0.074 A 
ATOM     37  C   UNL     1       1.846   7.182   7.045  1.00  0.00     0.031 C 
ATOM     38  C   UNL     1       3.993   1.700  10.351  1.00  0.00     0.029 A 
ATOM     39  C   UNL     1       4.774   2.906  10.558  1.00  0.00     0.049 A 
ATOM     40  H   UNL     1       5.027   4.470   9.184  1.00  0.00     0.167 HD
ATOM     41  C   UNL     1       4.122   8.283   6.895  1.00  0.00     0.037 A 
ATOM     42  C   UNL     1       5.512   3.289  11.630  1.00  0.00     0.037 A 
ATOM     43  C   UNL     1       5.465   7.856   6.608  1.00  0.00     0.049 A 
ATOM     44  C   UNL     1       6.352   4.432  11.201  1.00  0.00     0.074 A 
ATOM     45  C   UNL     1       6.163   7.453   5.492  1.00  0.00     0.029 A 
ATOM     46  N   UNL     1       6.168   7.438   7.706  1.00  0.00    -0.354 N 
ATOM     47  N   UNL     1       7.327   4.333  10.341  1.00  0.00    -0.248 NA
ATOM     48  C   UNL     1       5.884   5.789  11.457  1.00  0.00     0.031 C 
ATOM     49  C   UNL     1       7.183   6.576   5.967  1.00  0.00     0.029 A 
ATOM     50  C   UNL     1       7.098   6.500   7.357  1.00  0.00     0.049 A 
ATOM     51  H   UNL     1       6.022   7.768   8.622  1.00  0.00     0.167 HD
ATOM     52  C   UNL     1       7.294   5.526   9.643  1.00  0.00     0.074 A 
ATOM     53  C   UNL     1       6.524   6.437  10.480  1.00  0.00     0.031 C 
ATOM     54  C   UNL     1       7.620   5.556   8.319  1.00  0.00     0.037 A 
BRANCH  41  55
ATOM     55  C   UNL     1       3.864   9.521   7.734  1.00  0.00     0.064 A 
ATOM     56  C   UNL     1       4.821  10.557   7.715  1.00  0.00     0.173 A 
ATOM     57  C   UNL     1       2.927   9.586   8.790  1.00  0.00     0.173 A 
ATOM     58  F   UNL     1       5.773  10.589   6.770  1.00  0.00    -0.203 F 
ATOM     59  C   UNL     1       4.886  11.524   8.723  1.00  0.00     0.198 A 
ATOM     60  C   UNL     1       2.963  10.583   9.764  1.00  0.00     0.198 A 
ATOM     61  F   UNL     1       2.013   8.634   9.004  1.00  0.00    -0.203 F 
ATOM     62  F   UNL     1       5.894  12.407   8.734  1.00  0.00    -0.200 F 
ATOM     63  C   UNL     1       3.962  11.532   9.750  1.00  0.00     0.200 A 
ATOM     64  F   UNL     1       2.072  10.557  10.765  1.00  0.00    -0.200 F 
ATOM     65  F   UNL     1       4.061  12.414  10.753  1.00  0.00    -0.200 F 
ENDBRANCH  41  55
BRANCH  42  66
ATOM     66  C   UNL     1       5.343   2.924  13.057  1.00  0.00     0.064 A 
ATOM     67  C   UNL     1       6.374   3.137  13.989  1.00  0.00     0.173 A 
ATOM     68  C   UNL     1       4.077   2.614  13.590  1.00  0.00     0.173 A 
ATOM     69  F   UNL     1       7.601   3.477  13.570  1.00  0.00    -0.203 F 
ATOM     70  C   UNL     1       6.144   3.074  15.368  1.00  0.00     0.198 A 
ATOM     71  C   UNL     1       3.850   2.542  14.966  1.00  0.00     0.198 A 
ATOM     72  F   UNL     1       3.010   2.469  12.791  1.00  0.00    -0.203 F 
ATOM     73  F   UNL     1       7.137   3.348  16.225  1.00  0.00    -0.200 F 
ATOM     74  C   UNL     1       4.880   2.788  15.855  1.00  0.00     0.200 A 
ATOM     75  F   UNL     1       2.613   2.300  15.423  1.00  0.00    -0.200 F 
ATOM     76  F   UNL     1       4.643   2.790  17.174  1.00  0.00    -0.200 F 
ENDBRANCH  42  66
BRANCH  54  77
ATOM     77  C   UNL     1       8.437   4.416   7.792  1.00  0.00     0.064 A 
ATOM     78  C   UNL     1       7.982   3.091   7.692  1.00  0.00     0.173 A 
ATOM     79  C   UNL     1       9.707   4.707   7.278  1.00  0.00     0.173 A 
ATOM     80  F   UNL     1       6.748   2.754   8.084  1.00  0.00    -0.203 F 
ATOM     81  C   UNL     1       8.786   2.096   7.140  1.00  0.00     0.198 A 
ATOM     82  C   UNL     1      10.490   3.721   6.690  1.00  0.00     0.198 A 
ATOM     83  F   UNL     1      10.170   5.967   7.306  1.00  0.00    -0.203 F 
ATOM     84  F   UNL     1       8.340   0.832   7.074  1.00  0.00    -0.200 F 
ATOM     85  C   UNL     1      10.035   2.413   6.633  1.00  0.00     0.200 A 
ATOM     86  F   UNL     1      11.677   4.043   6.159  1.00  0.00    -0.200 F 
ATOM     87  F   UNL     1      10.793   1.464   6.066  1.00  0.00    -0.200 F 
ENDBRANCH  54  77
ENDBRANCH  28  29
ENDBRANCH  21  23
ENDBRANCH  20  21
ENDBRANCH  19  20
ENDBRANCH  18  19
ENDBRANCH  17  18
ENDBRANCH   1  17
TORSDOF 17
