REMARK SMILES CC(C)(C)OC(=O)N1C[C@H](Oc2ccncc2)C[C@H]1C(=O)OCCOC(=O)c1ccc(-c2c3nc(c(-c4c(F)c(F)c(F)c(F)c4F)c4ccc([nH]4)c(-c4c(F)c(F)c(F)c(F)c4F)c4nc(c(-c5c(F)c(F)c(F)c(F)c5F)c5ccc2[nH]5)C=C4)C=C3)cc1
REMARK SMILES IDX 23 1 22 2 20 3 21 4 19 5 8 6 9 7 10 8 18 9 6 10 7 11 5 12
REMARK SMILES IDX 2 13 1 14 3 15 4 16 11 17 12 18 13 19 17 20 14 21 16 22
REMARK SMILES IDX 15 23 24 24 25 25 26 26 27 27 28 28 29 29 90 30 30 31 89 32
REMARK SMILES IDX 31 33 32 34 33 35 83 36 34 37 88 38 82 39 84 40 35 41 87 42
REMARK SMILES IDX 81 43 80 44 36 46 68 47 48 48 67 49 49 50 52 51 66 52 85 53
REMARK SMILES IDX 50 54 51 55 65 57 86 58 53 59 37 60 38 61 46 62 39 63 40 64
REMARK SMILES IDX 44 65 47 66 41 67 42 68 45 69 43 70 69 71 70 72 78 73 71 74
REMARK SMILES IDX 72 75 76 76 79 77 73 78 74 79 77 80 75 81 54 82 55 83 63 84
REMARK SMILES IDX 56 85 57 86 61 87 64 88 58 89 59 90 62 91 60 92
REMARK H PARENT 84 45 52 56
REMARK Flexibility Score: inf
ROOT
ATOM      1  C   UNL     1      -1.098   5.133  -6.921  1.00  0.00     0.274 C 
ENDROOT
BRANCH   1   2
ATOM      2  O   UNL     1      -0.838   5.333  -5.517  1.00  0.00    -0.461 OA
BRANCH   2   3
ATOM      3  C   UNL     1      -0.086   4.357  -4.931  1.00  0.00     0.329 C 
ATOM      4  O   UNL     1       0.432   3.429  -5.543  1.00  0.00    -0.250 OA
BRANCH   3   5
ATOM      5  C   UNL     1       0.062   4.595  -3.417  1.00  0.00     0.202 C 
ATOM      6  N   UNL     1       0.780   3.479  -2.799  1.00  0.00    -0.291 N 
ATOM      7  C   UNL     1       2.058   3.874  -2.242  1.00  0.00     0.169 C 
ATOM      8  C   UNL     1       1.914   5.374  -2.010  1.00  0.00     0.195 C 
ATOM      9  C   UNL     1       0.904   5.836  -3.079  1.00  0.00     0.084 C 
BRANCH   6  10
ATOM     10  C   UNL     1       0.182   2.249  -2.689  1.00  0.00     0.411 C 
ATOM     11  O   UNL     1      -0.868   1.974  -3.237  1.00  0.00    -0.224 OA
BRANCH  10  12
ATOM     12  O   UNL     1       0.884   1.432  -1.866  1.00  0.00    -0.444 OA
BRANCH  12  13
ATOM     13  C   UNL     1       0.451   0.077  -1.586  1.00  0.00     0.106 C 
ATOM     14  C   UNL     1       1.116  -0.266  -0.246  1.00  0.00     0.056 C 
ATOM     15  C   UNL     1       0.996  -0.837  -2.683  1.00  0.00     0.056 C 
ATOM     16  C   UNL     1      -1.065  -0.091  -1.419  1.00  0.00     0.056 C 
ENDBRANCH  12  13
ENDBRANCH  10  12
ENDBRANCH   6  10
BRANCH   8  17
ATOM     17  O   UNL     1       1.591   5.752  -0.657  1.00  0.00    -0.488 OA
BRANCH  17  18
ATOM     18  C   UNL     1       0.414   5.281  -0.152  1.00  0.00     0.122 A 
ATOM     19  C   UNL     1       0.302   3.993   0.354  1.00  0.00     0.066 A 
ATOM     20  C   UNL     1      -0.661   6.153  -0.061  1.00  0.00     0.066 A 
ATOM     21  C   UNL     1      -0.935   3.581   0.812  1.00  0.00     0.115 A 
ATOM     22  C   UNL     1      -1.850   5.657   0.443  1.00  0.00     0.115 A 
ATOM     23  N   UNL     1      -2.018   4.383   0.858  1.00  0.00    -0.264 NA
ENDBRANCH  17  18
ENDBRANCH   8  17
ENDBRANCH   3   5
ENDBRANCH   2   3
ENDBRANCH   1   2
BRANCH   1  24
ATOM     24  C   UNL     1      -0.113   5.895  -7.809  1.00  0.00     0.275 C 
BRANCH  24  25
ATOM     25  O   UNL     1       1.239   5.443  -7.602  1.00  0.00    -0.458 OA
BRANCH  25  26
ATOM     26  C   UNL     1       2.048   6.304  -6.946  1.00  0.00     0.338 C 
ATOM     27  O   UNL     1       1.781   7.425  -6.548  1.00  0.00    -0.246 OA
BRANCH  26  28
ATOM     28  C   UNL     1       3.340   5.663  -6.656  1.00  0.00     0.060 A 
ATOM     29  C   UNL     1       3.405   4.760  -5.601  1.00  0.00     0.016 A 
ATOM     30  C   UNL     1       4.509   6.075  -7.290  1.00  0.00     0.016 A 
ATOM     31  C   UNL     1       4.630   4.319  -5.120  1.00  0.00     0.010 A 
ATOM     32  C   UNL     1       5.742   5.561  -6.860  1.00  0.00     0.010 A 
ATOM     33  C   UNL     1       5.816   4.698  -5.751  1.00  0.00    -0.014 A 
BRANCH  33  34
ATOM     34  C   UNL     1       7.115   4.228  -5.198  1.00  0.00     0.031 A 
ATOM     35  C   UNL     1       8.123   5.228  -4.705  1.00  0.00     0.074 A 
ATOM     36  C   UNL     1       7.371   2.910  -5.076  1.00  0.00     0.049 A 
ATOM     37  N   UNL     1       9.372   5.046  -4.361  1.00  0.00    -0.248 NA
ATOM     38  C   UNL     1       7.663   6.620  -4.580  1.00  0.00     0.031 C 
ATOM     39  C   UNL     1       6.442   1.829  -5.414  1.00  0.00     0.029 A 
ATOM     40  N   UNL     1       8.489   2.252  -4.624  1.00  0.00    -0.354 N 
ATOM     41  C   UNL     1       9.864   6.305  -4.041  1.00  0.00     0.074 A 
ATOM     42  C   UNL     1       8.776   7.242  -4.221  1.00  0.00     0.031 C 
ATOM     43  C   UNL     1       7.017   0.650  -5.135  1.00  0.00     0.029 A 
ATOM     44  C   UNL     1       8.390   0.884  -4.704  1.00  0.00     0.049 A 
ATOM     45  H   UNL     1       9.285   2.717  -4.276  1.00  0.00     0.167 HD
ATOM     46  C   UNL     1      11.114   6.642  -3.644  1.00  0.00     0.037 A 
ATOM     47  C   UNL     1       9.317  -0.075  -4.518  1.00  0.00     0.037 A 
ATOM     48  C   UNL     1      12.175   5.693  -3.423  1.00  0.00     0.049 A 
ATOM     49  C   UNL     1      10.720   0.331  -4.159  1.00  0.00     0.074 A 
ATOM     50  C   UNL     1      13.478   5.932  -3.022  1.00  0.00     0.029 A 
ATOM     51  N   UNL     1      12.050   4.319  -3.576  1.00  0.00    -0.354 N 
ATOM     52  N   UNL     1      11.203   1.528  -3.932  1.00  0.00    -0.248 NA
ATOM     53  C   UNL     1      11.713  -0.747  -4.055  1.00  0.00     0.031 C 
ATOM     54  C   UNL     1      14.154   4.708  -2.982  1.00  0.00     0.029 A 
ATOM     55  C   UNL     1      13.258   3.700  -3.300  1.00  0.00     0.049 A 
ATOM     56  H   UNL     1      11.224   3.853  -3.841  1.00  0.00     0.167 HD
ATOM     57  C   UNL     1      12.548   1.348  -3.640  1.00  0.00     0.074 A 
ATOM     58  C   UNL     1      12.801  -0.077  -3.700  1.00  0.00     0.031 C 
ATOM     59  C   UNL     1      13.490   2.279  -3.353  1.00  0.00     0.037 A 
BRANCH  46  60
ATOM     60  C   UNL     1      11.424   8.102  -3.481  1.00  0.00     0.064 A 
ATOM     61  C   UNL     1      10.915   8.863  -2.420  1.00  0.00     0.173 A 
ATOM     62  C   UNL     1      12.278   8.740  -4.395  1.00  0.00     0.173 A 
ATOM     63  F   UNL     1      10.081   8.307  -1.528  1.00  0.00    -0.203 F 
ATOM     64  C   UNL     1      11.229  10.215  -2.295  1.00  0.00     0.198 A 
ATOM     65  C   UNL     1      12.614  10.083  -4.249  1.00  0.00     0.198 A 
ATOM     66  F   UNL     1      12.796   8.057  -5.427  1.00  0.00    -0.203 F 
ATOM     67  F   UNL     1      10.692  10.936  -1.300  1.00  0.00    -0.200 F 
ATOM     68  C   UNL     1      12.083  10.821  -3.204  1.00  0.00     0.200 A 
ATOM     69  F   UNL     1      13.450  10.662  -5.122  1.00  0.00    -0.200 F 
ATOM     70  F   UNL     1      12.389  12.120  -3.077  1.00  0.00    -0.200 F 
ENDBRANCH  46  60
BRANCH  47  71
ATOM     71  C   UNL     1       8.968  -1.503  -4.744  1.00  0.00     0.064 A 
ATOM     72  C   UNL     1       8.981  -2.429  -3.693  1.00  0.00     0.173 A 
ATOM     73  C   UNL     1       8.626  -1.975  -6.022  1.00  0.00     0.173 A 
ATOM     74  F   UNL     1       9.329  -2.036  -2.459  1.00  0.00    -0.203 F 
ATOM     75  C   UNL     1       8.681  -3.773  -3.913  1.00  0.00     0.198 A 
ATOM     76  C   UNL     1       8.290  -3.309  -6.234  1.00  0.00     0.198 A 
ATOM     77  F   UNL     1       8.603  -1.133  -7.066  1.00  0.00    -0.203 F 
ATOM     78  F   UNL     1       8.751  -4.647  -2.900  1.00  0.00    -0.200 F 
ATOM     79  C   UNL     1       8.327  -4.210  -5.181  1.00  0.00     0.200 A 
ATOM     80  F   UNL     1       7.934  -3.722  -7.458  1.00  0.00    -0.200 F 
ATOM     81  F   UNL     1       8.031  -5.500  -5.390  1.00  0.00    -0.200 F 
ENDBRANCH  47  71
BRANCH  59  82
ATOM     82  C   UNL     1      14.871   1.785  -3.038  1.00  0.00     0.064 A 
ATOM     83  C   UNL     1      15.713   1.264  -4.031  1.00  0.00     0.173 A 
ATOM     84  C   UNL     1      15.371   1.871  -1.730  1.00  0.00     0.173 A 
ATOM     85  F   UNL     1      15.275   1.144  -5.293  1.00  0.00    -0.203 F 
ATOM     86  C   UNL     1      16.998   0.827  -3.721  1.00  0.00     0.198 A 
ATOM     87  C   UNL     1      16.667   1.463  -1.430  1.00  0.00     0.198 A 
ATOM     88  F   UNL     1      14.607   2.367  -0.745  1.00  0.00    -0.203 F 
ATOM     89  F   UNL     1      17.769   0.289  -4.676  1.00  0.00    -0.200 F 
ATOM     90  C   UNL     1      17.477   0.934  -2.424  1.00  0.00     0.200 A 
ATOM     91  F   UNL     1      17.133   1.581  -0.179  1.00  0.00    -0.200 F 
ATOM     92  F   UNL     1      18.718   0.522  -2.130  1.00  0.00    -0.200 F 
ENDBRANCH  59  82
ENDBRANCH  33  34
ENDBRANCH  26  28
ENDBRANCH  25  26
ENDBRANCH  24  25
ENDBRANCH   1  24
TORSDOF 16
