REMARK SMILES O=C(COc1ccccc1Br)Nc1cccc(C(=O)Nc2ccc(C(=O)OCCOC(=O)c3ccc(-c4c5nc(c(-c6c(F)c(F)c(F)c(F)c6F)c6ccc([nH]6)c(-c6c(F)c(F)c(F)c(F)c6F)c6nc(c(-c7c(F)c(F)c(F)c(F)c7F)c7ccc4[nH]7)C=C6)C=C5)cc3)cc2)c1
REMARK SMILES IDX 25 1 26 2 24 3 21 4 22 5 97 6 23 7 96 8 20 9 18 10 19 11
REMARK SMILES IDX 17 13 13 14 14 15 98 16 15 17 16 18 12 19 1 20 2 21 3 23
REMARK SMILES IDX 4 24 5 25 6 26 10 27 7 28 9 29 11 30 8 31 27 32 28 33 29 34
REMARK SMILES IDX 30 35 31 36 32 37 33 38 34 39 95 40 35 41 94 42 36 43 37 44
REMARK SMILES IDX 38 45 88 46 39 47 93 48 87 49 89 50 40 51 92 52 86 53 85 54
REMARK SMILES IDX 41 56 73 57 53 58 72 59 54 60 57 61 71 62 90 63 55 64 56 65
REMARK SMILES IDX 70 67 91 68 58 69 42 70 43 71 51 72 44 73 45 74 49 75 52 76
REMARK SMILES IDX 46 77 47 78 50 79 48 80 74 81 75 82 83 83 76 84 77 85 81 86
REMARK SMILES IDX 84 87 78 88 79 89 82 90 80 91 59 92 60 93 68 94 61 95 62 96
REMARK SMILES IDX 66 97 69 98 63 99 64 100 67 101 65 102
REMARK H PARENT 20 12 12 22 89 55 57 66
REMARK Flexibility Score: inf
ROOT
ATOM      1  C   UNL     1       1.976  -1.491   2.429  1.00  0.00     0.338 C 
ATOM      2  O   UNL     1       1.450  -2.180   1.565  1.00  0.00    -0.246 OA
ENDROOT
BRANCH   1   3
ATOM      3  C   UNL     1       1.340  -0.256   2.956  1.00  0.00     0.060 A 
ATOM      4  C   UNL     1       0.042   2.201   3.223  1.00  0.00     0.041 A 
ATOM      5  C   UNL     1      -0.715   1.037   3.138  1.00  0.00     0.027 A 
ATOM      6  C   UNL     1       1.433   2.121   3.373  1.00  0.00     0.027 A 
ATOM      7  C   UNL     1      -0.061  -0.176   2.946  1.00  0.00     0.018 A 
ATOM      8  C   UNL     1       2.087   0.886   3.250  1.00  0.00     0.018 A 
BRANCH   4   9
ATOM      9  N   UNL     1      -0.637   3.398   2.954  1.00  0.00    -0.322 N 
ATOM     10  C   UNL     1      -0.333   4.389   2.034  1.00  0.00     0.255 C 
ATOM     11  O   UNL     1      -1.043   5.394   1.984  1.00  0.00    -0.269 OA
ATOM     12  H   UNL     1      -1.444   3.558   3.495  1.00  0.00     0.170 HD
BRANCH  10  13
ATOM     13  C   UNL     1       0.784   4.256   1.053  1.00  0.00     0.042 A 
ATOM     14  C   UNL     1       2.357   2.905  -0.210  1.00  0.00     0.042 A 
ATOM     15  C   UNL     1       3.052   4.064  -0.564  1.00  0.00     0.026 A 
ATOM     16  C   UNL     1       1.177   3.023   0.521  1.00  0.00     0.040 A 
ATOM     17  C   UNL     1       2.570   5.317  -0.186  1.00  0.00     0.003 A 
ATOM     18  C   UNL     1       1.448   5.413   0.638  1.00  0.00     0.014 A 
BRANCH  14  19
ATOM     19  N   UNL     1       2.908   1.670  -0.594  1.00  0.00    -0.323 N 
ATOM     20  O   UNL     1       1.159   0.186  -0.164  1.00  0.00    -0.271 OA
ATOM     21  C   UNL     1       2.299   0.425  -0.546  1.00  0.00     0.262 C 
ATOM     22  H   UNL     1       3.831   1.691  -0.936  1.00  0.00     0.170 HD
BRANCH  21  23
ATOM     23  C   UNL     1       3.224  -0.681  -1.043  1.00  0.00     0.329 C 
BRANCH  23  24
ATOM     24  O   UNL     1       3.881  -0.254  -2.246  1.00  0.00    -0.483 OA
BRANCH  24  25
ATOM     25  C   UNL     1       3.264  -0.791  -3.346  1.00  0.00     0.134 A 
ATOM     26  C   UNL     1       3.701  -2.046  -3.777  1.00  0.00     0.047 A 
ATOM     27  C   UNL     1       2.284  -0.105  -4.075  1.00  0.00     0.060 A 
ATOM     28  C   UNL     1       3.123  -2.638  -4.901  1.00  0.00     0.004 A 
ATOM     29  C   UNL     1       1.688  -0.716  -5.179  1.00  0.00     0.019 A 
ATOM     30  Br  UNL     1       1.747   1.669  -3.693  1.00  0.00    -0.047 Br
ATOM     31  C   UNL     1       2.107  -1.980  -5.591  1.00  0.00     0.001 A 
ENDBRANCH  24  25
ENDBRANCH  23  24
ENDBRANCH  21  23
ENDBRANCH  14  19
ENDBRANCH  10  13
ENDBRANCH   4   9
ENDBRANCH   1   3
BRANCH   1  32
ATOM     32  O   UNL     1       3.178  -1.749   2.998  1.00  0.00    -0.458 OA
BRANCH  32  33
ATOM     33  C   UNL     1       3.807  -2.959   2.522  1.00  0.00     0.275 C 
BRANCH  33  34
ATOM     34  C   UNL     1       3.488  -4.160   3.414  1.00  0.00     0.275 C 
BRANCH  34  35
ATOM     35  O   UNL     1       2.083  -4.475   3.384  1.00  0.00    -0.458 OA
BRANCH  35  36
ATOM     36  C   UNL     1       1.396  -4.151   4.504  1.00  0.00     0.338 C 
ATOM     37  O   UNL     1       1.841  -3.670   5.533  1.00  0.00    -0.246 OA
BRANCH  36  38
ATOM     38  C   UNL     1      -0.041  -4.423   4.334  1.00  0.00     0.060 A 
ATOM     39  C   UNL     1      -0.771  -3.677   3.417  1.00  0.00     0.016 A 
ATOM     40  C   UNL     1      -0.704  -5.266   5.223  1.00  0.00     0.016 A 
ATOM     41  C   UNL     1      -2.160  -3.644   3.481  1.00  0.00     0.010 A 
ATOM     42  C   UNL     1      -2.102  -5.340   5.191  1.00  0.00     0.010 A 
ATOM     43  C   UNL     1      -2.850  -4.489   4.356  1.00  0.00    -0.014 A 
BRANCH  43  44
ATOM     44  C   UNL     1      -4.339  -4.452   4.428  1.00  0.00     0.031 A 
ATOM     45  C   UNL     1      -5.024  -4.203   5.746  1.00  0.00     0.074 A 
ATOM     46  C   UNL     1      -5.086  -4.627   3.318  1.00  0.00     0.049 A 
ATOM     47  N   UNL     1      -6.284  -4.354   6.071  1.00  0.00    -0.248 NA
ATOM     48  C   UNL     1      -4.174  -3.737   6.853  1.00  0.00     0.031 C 
ATOM     49  C   UNL     1      -4.564  -4.813   1.963  1.00  0.00     0.029 A 
ATOM     50  N   UNL     1      -6.449  -4.676   3.154  1.00  0.00    -0.354 N 
ATOM     51  C   UNL     1      -6.362  -4.072   7.430  1.00  0.00     0.074 A 
ATOM     52  C   UNL     1      -5.024  -3.740   7.870  1.00  0.00     0.031 C 
ATOM     53  C   UNL     1      -5.588  -4.915   1.104  1.00  0.00     0.029 A 
ATOM     54  C   UNL     1      -6.836  -4.915   1.857  1.00  0.00     0.049 A 
ATOM     55  H   UNL     1      -7.087  -4.550   3.893  1.00  0.00     0.167 HD
ATOM     56  C   UNL     1      -7.453  -4.094   8.235  1.00  0.00     0.037 A 
ATOM     57  C   UNL     1      -8.050  -5.168   1.334  1.00  0.00     0.037 A 
ATOM     58  C   UNL     1      -8.791  -4.364   7.773  1.00  0.00     0.049 A 
ATOM     59  C   UNL     1      -9.240  -5.223   2.249  1.00  0.00     0.074 A 
ATOM     60  C   UNL     1      -9.967  -4.396   8.501  1.00  0.00     0.029 A 
ATOM     61  N   UNL     1      -9.131  -4.631   6.454  1.00  0.00    -0.354 N 
ATOM     62  N   UNL     1      -9.296  -5.031   3.544  1.00  0.00    -0.248 NA
ATOM     63  C   UNL     1     -10.531  -5.554   1.633  1.00  0.00     0.031 C 
ATOM     64  C   UNL     1     -11.013  -4.722   7.631  1.00  0.00     0.029 A 
ATOM     65  C   UNL     1     -10.497  -4.844   6.351  1.00  0.00     0.049 A 
ATOM     66  H   UNL     1      -8.496  -4.665   5.703  1.00  0.00     0.167 HD
ATOM     67  C   UNL     1     -10.626  -5.204   3.898  1.00  0.00     0.074 A 
ATOM     68  C   UNL     1     -11.347  -5.498   2.676  1.00  0.00     0.031 C 
ATOM     69  C   UNL     1     -11.197  -5.133   5.125  1.00  0.00     0.037 A 
BRANCH  56  70
ATOM     70  C   UNL     1      -7.240  -3.864   9.704  1.00  0.00     0.064 A 
ATOM     71  C   UNL     1      -6.894  -2.608  10.224  1.00  0.00     0.173 A 
ATOM     72  C   UNL     1      -7.407  -4.922  10.612  1.00  0.00     0.173 A 
ATOM     73  F   UNL     1      -6.709  -1.565   9.401  1.00  0.00    -0.203 F 
ATOM     74  C   UNL     1      -6.691  -2.428  11.591  1.00  0.00     0.198 A 
ATOM     75  C   UNL     1      -7.235  -4.732  11.981  1.00  0.00     0.198 A 
ATOM     76  F   UNL     1      -7.745  -6.144  10.172  1.00  0.00    -0.203 F 
ATOM     77  F   UNL     1      -6.308  -1.232  12.058  1.00  0.00    -0.200 F 
ATOM     78  C   UNL     1      -6.868  -3.487  12.468  1.00  0.00     0.200 A 
ATOM     79  F   UNL     1      -7.420  -5.755  12.827  1.00  0.00    -0.200 F 
ATOM     80  F   UNL     1      -6.676  -3.311  13.783  1.00  0.00    -0.200 F 
ENDBRANCH  56  70
BRANCH  57  81
ATOM     81  C   UNL     1      -8.183  -5.439  -0.122  1.00  0.00     0.064 A 
ATOM     82  C   UNL     1      -8.841  -4.536  -0.968  1.00  0.00     0.173 A 
ATOM     83  C   UNL     1      -7.632  -6.593  -0.701  1.00  0.00     0.173 A 
ATOM     84  F   UNL     1      -9.408  -3.433  -0.458  1.00  0.00    -0.203 F 
ATOM     85  C   UNL     1      -8.947  -4.779  -2.336  1.00  0.00     0.198 A 
ATOM     86  C   UNL     1      -7.709  -6.818  -2.073  1.00  0.00     0.198 A 
ATOM     87  F   UNL     1      -6.993  -7.489   0.064  1.00  0.00    -0.203 F 
ATOM     88  F   UNL     1      -9.613  -3.919  -3.117  1.00  0.00    -0.200 F 
ATOM     89  C   UNL     1      -8.371  -5.914  -2.889  1.00  0.00     0.200 A 
ATOM     90  F   UNL     1      -7.136  -7.907  -2.604  1.00  0.00    -0.200 F 
ATOM     91  F   UNL     1      -8.459  -6.138  -4.207  1.00  0.00    -0.200 F 
ENDBRANCH  57  81
BRANCH  69  92
ATOM     92  C   UNL     1     -12.680  -5.344   5.199  1.00  0.00     0.064 A 
ATOM     93  C   UNL     1     -13.252  -6.614   5.032  1.00  0.00     0.173 A 
ATOM     94  C   UNL     1     -13.537  -4.265   5.465  1.00  0.00     0.173 A 
ATOM     95  F   UNL     1     -12.475  -7.673   4.757  1.00  0.00    -0.203 F 
ATOM     96  C   UNL     1     -14.630  -6.791   5.105  1.00  0.00     0.198 A 
ATOM     97  C   UNL     1     -14.912  -4.452   5.566  1.00  0.00     0.198 A 
ATOM     98  F   UNL     1     -13.038  -3.032   5.636  1.00  0.00    -0.203 F 
ATOM     99  F   UNL     1     -15.160  -8.005   4.894  1.00  0.00    -0.200 F 
ATOM    100  C   UNL     1     -15.458  -5.712   5.378  1.00  0.00     0.200 A 
ATOM    101  F   UNL     1     -15.710  -3.410   5.840  1.00  0.00    -0.200 F 
ATOM    102  F   UNL     1     -16.785  -5.886   5.452  1.00  0.00    -0.200 F 
ENDBRANCH  69  92
ENDBRANCH  43  44
ENDBRANCH  36  38
ENDBRANCH  35  36
ENDBRANCH  34  35
ENDBRANCH  33  34
ENDBRANCH  32  33
ENDBRANCH   1  32
TORSDOF 17
