REMARK SMILES COc1cc(/C=C2/SC(=O)N(c3ccc(O)cc3C)C2=O)ccc1OCC(=O)OCCOC(=O)c1ccc(-c2c3nc(c(-c4c(F)c(F)c(F)c(F)c4F)c4ccc([nH]4)c(-c4c(F)c(F)c(F)c(F)c4F)c4nc(c(-c5c(F)c(F)c(F)c(F)c5F)c5ccc2[nH]5)C=C4)C=C3)cc1
REMARK SMILES IDX 29 1 27 2 28 3 26 4 25 5 24 6 3 7 4 8 5 9 23 10 22 11 2 12
REMARK SMILES IDX 1 13 6 14 7 15 8 16 20 17 9 18 11 19 21 20 10 21 12 22 13 23
REMARK SMILES IDX 18 24 14 25 17 26 19 27 15 28 16 29 30 31 31 32 32 33 33 34
REMARK SMILES IDX 34 35 35 36 36 37 97 38 37 39 96 40 38 41 39 42 40 43 90 44
REMARK SMILES IDX 41 45 95 46 89 47 91 48 42 49 94 50 88 51 87 52 43 54 75 55
REMARK SMILES IDX 55 56 74 57 56 58 59 59 73 60 92 61 57 62 58 63 72 65 93 66
REMARK SMILES IDX 60 67 44 68 45 69 53 70 46 71 47 72 51 73 54 74 48 75 49 76
REMARK SMILES IDX 52 77 50 78 76 79 77 80 85 81 78 82 79 83 83 84 86 85 80 86
REMARK SMILES IDX 81 87 84 88 82 89 61 90 62 91 70 92 63 93 64 94 68 95 71 96
REMARK SMILES IDX 65 97 66 98 69 99 67 100
REMARK H PARENT 16 30 91 53 59 64
REMARK Flexibility Score: inf
ROOT
ATOM      1  O   UNL     1       2.023   0.876   2.257  1.00  0.00    -0.460 OA
ENDROOT
BRANCH   1   2
ATOM      2  C   UNL     1       3.096   0.135   1.876  1.00  0.00     0.344 C 
ATOM      3  O   UNL     1       3.253  -1.050   2.153  1.00  0.00    -0.248 OA
BRANCH   2   4
ATOM      4  C   UNL     1       4.097   0.922   1.017  1.00  0.00     0.352 C 
BRANCH   4   5
ATOM      5  O   UNL     1       3.950   2.295   0.744  1.00  0.00    -0.478 OA
BRANCH   5   6
ATOM      6  C   UNL     1       2.836   2.790   0.135  1.00  0.00     0.162 A 
ATOM      7  C   UNL     1       2.016   2.218  -0.846  1.00  0.00     0.161 A 
ATOM      8  C   UNL     1       0.946   2.969  -1.385  1.00  0.00     0.058 A 
ATOM      9  C   UNL     1       0.750   4.311  -1.012  1.00  0.00    -0.020 A 
ATOM     10  C   UNL     1       2.608   4.119   0.516  1.00  0.00     0.051 A 
ATOM     11  C   UNL     1       1.589   4.879  -0.053  1.00  0.00     0.012 A 
BRANCH   7  12
ATOM     12  O   UNL     1       2.413   1.117  -1.567  1.00  0.00    -0.493 OA
ATOM     13  C   UNL     1       1.973  -0.132  -1.061  1.00  0.00     0.278 C 
ENDBRANCH   7  12
BRANCH   9  14
ATOM     14  C   UNL     1      -0.155   5.221  -1.735  1.00  0.00     0.029 C 
ATOM     15  C   UNL     1       0.173   5.814  -2.897  1.00  0.00     0.083 C 
ATOM     16  S   UNL     1      -0.772   7.039  -3.659  1.00  0.00    -0.022 SA
ATOM     17  C   UNL     1       1.413   5.573  -3.690  1.00  0.00     0.272 C 
ATOM     18  C   UNL     1       0.412   7.284  -4.945  1.00  0.00     0.298 C 
ATOM     19  N   UNL     1       1.462   6.421  -4.784  1.00  0.00    -0.236 N 
ATOM     20  O   UNL     1       2.261   4.748  -3.386  1.00  0.00    -0.268 OA
ATOM     21  O   UNL     1       0.212   8.097  -5.845  1.00  0.00    -0.260 OA
BRANCH  19  22
ATOM     22  C   UNL     1       2.543   6.314  -5.701  1.00  0.00     0.056 A 
ATOM     23  C   UNL     1       2.847   5.030  -6.199  1.00  0.00     0.031 A 
ATOM     24  C   UNL     1       3.370   7.400  -6.051  1.00  0.00    -0.023 A 
ATOM     25  C   UNL     1       3.948   4.812  -7.021  1.00  0.00     0.048 A 
ATOM     26  C   UNL     1       4.481   7.161  -6.889  1.00  0.00     0.051 A 
ATOM     27  C   UNL     1       3.206   8.800  -5.526  1.00  0.00     0.047 C 
ATOM     28  C   UNL     1       4.765   5.878  -7.350  1.00  0.00     0.115 A 
BRANCH  28  29
ATOM     29  O   UNL     1       5.861   5.619  -8.117  1.00  0.00    -0.508 OA
ATOM     30  H   UNL     1       6.029   4.746  -8.414  1.00  0.00     0.293 HD
ENDBRANCH  28  29
ENDBRANCH  19  22
ENDBRANCH   9  14
ENDBRANCH   5   6
ENDBRANCH   4   5
ENDBRANCH   2   4
ENDBRANCH   1   2
BRANCH   1  31
ATOM     31  C   UNL     1       0.989   0.183   2.989  1.00  0.00     0.274 C 
BRANCH  31  32
ATOM     32  C   UNL     1      -0.371   0.777   2.617  1.00  0.00     0.275 C 
BRANCH  32  33
ATOM     33  O   UNL     1      -0.741   0.310   1.304  1.00  0.00    -0.458 OA
BRANCH  33  34
ATOM     34  C   UNL     1      -1.841   0.896   0.766  1.00  0.00     0.338 C 
ATOM     35  O   UNL     1      -2.548   1.729   1.310  1.00  0.00    -0.246 OA
BRANCH  34  36
ATOM     36  C   UNL     1      -2.049   0.422  -0.633  1.00  0.00     0.060 A 
ATOM     37  C   UNL     1      -1.235  -0.556  -1.201  1.00  0.00     0.016 A 
ATOM     38  C   UNL     1      -3.052   0.992  -1.421  1.00  0.00     0.016 A 
ATOM     39  C   UNL     1      -1.326  -0.864  -2.561  1.00  0.00     0.010 A 
ATOM     40  C   UNL     1      -3.231   0.578  -2.752  1.00  0.00     0.010 A 
ATOM     41  C   UNL     1      -2.360  -0.350  -3.351  1.00  0.00    -0.014 A 
BRANCH  41  42
ATOM     42  C   UNL     1      -2.567  -0.806  -4.764  1.00  0.00     0.031 A 
ATOM     43  C   UNL     1      -2.770   0.199  -5.870  1.00  0.00     0.074 A 
ATOM     44  C   UNL     1      -2.623  -2.121  -5.071  1.00  0.00     0.049 A 
ATOM     45  N   UNL     1      -3.310   0.039  -7.052  1.00  0.00    -0.248 NA
ATOM     46  C   UNL     1      -2.318   1.573  -5.601  1.00  0.00     0.031 C 
ATOM     47  C   UNL     1      -2.378  -3.228  -4.144  1.00  0.00     0.029 A 
ATOM     48  N   UNL     1      -2.924  -2.756  -6.256  1.00  0.00    -0.354 N 
ATOM     49  C   UNL     1      -3.333   1.300  -7.638  1.00  0.00     0.074 A 
ATOM     50  C   UNL     1      -2.736   2.214  -6.685  1.00  0.00     0.031 C 
ATOM     51  C   UNL     1      -2.507  -4.392  -4.793  1.00  0.00     0.029 A 
ATOM     52  C   UNL     1      -2.982  -4.125  -6.142  1.00  0.00     0.049 A 
ATOM     53  H   UNL     1      -3.081  -2.276  -7.102  1.00  0.00     0.167 HD
ATOM     54  C   UNL     1      -3.824   1.657  -8.851  1.00  0.00     0.037 A 
ATOM     55  C   UNL     1      -3.451  -5.070  -6.981  1.00  0.00     0.037 A 
ATOM     56  C   UNL     1      -4.363   0.727  -9.813  1.00  0.00     0.049 A 
ATOM     57  C   UNL     1      -4.043  -4.652  -8.295  1.00  0.00     0.074 A 
ATOM     58  C   UNL     1      -4.898   0.987 -11.064  1.00  0.00     0.029 A 
ATOM     59  N   UNL     1      -4.414  -0.648  -9.638  1.00  0.00    -0.354 N 
ATOM     60  N   UNL     1      -4.171  -3.448  -8.796  1.00  0.00    -0.248 NA
ATOM     61  C   UNL     1      -4.583  -5.719  -9.148  1.00  0.00     0.031 C 
ATOM     62  C   UNL     1      -5.302  -0.227 -11.631  1.00  0.00     0.029 A 
ATOM     63  C   UNL     1      -4.977  -1.248 -10.754  1.00  0.00     0.049 A 
ATOM     64  H   UNL     1      -4.097  -1.128  -8.839  1.00  0.00     0.167 HD
ATOM     65  C   UNL     1      -4.795  -3.611 -10.023  1.00  0.00     0.074 A 
ATOM     66  C   UNL     1      -5.004  -5.034 -10.201  1.00  0.00     0.031 C 
ATOM     67  C   UNL     1      -5.168  -2.666 -10.919  1.00  0.00     0.037 A 
BRANCH  54  68
ATOM     68  C   UNL     1      -3.848   3.120  -9.197  1.00  0.00     0.064 A 
ATOM     69  C   UNL     1      -2.683   3.838  -9.498  1.00  0.00     0.173 A 
ATOM     70  C   UNL     1      -5.074   3.804  -9.272  1.00  0.00     0.173 A 
ATOM     71  F   UNL     1      -1.485   3.238  -9.430  1.00  0.00    -0.203 F 
ATOM     72  C   UNL     1      -2.740   5.189  -9.838  1.00  0.00     0.198 A 
ATOM     73  C   UNL     1      -5.130   5.146  -9.639  1.00  0.00     0.198 A 
ATOM     74  F   UNL     1      -6.222   3.164  -9.004  1.00  0.00    -0.203 F 
ATOM     75  F   UNL     1      -1.608   5.864 -10.082  1.00  0.00    -0.200 F 
ATOM     76  C   UNL     1      -3.962   5.840  -9.915  1.00  0.00     0.200 A 
ATOM     77  F   UNL     1      -6.314   5.767  -9.728  1.00  0.00    -0.200 F 
ATOM     78  F   UNL     1      -4.016   7.136 -10.250  1.00  0.00    -0.200 F 
ENDBRANCH  54  68
BRANCH  55  79
ATOM     79  C   UNL     1      -3.461  -6.496  -6.554  1.00  0.00     0.064 A 
ATOM     80  C   UNL     1      -2.642  -7.445  -7.177  1.00  0.00     0.173 A 
ATOM     81  C   UNL     1      -4.273  -6.932  -5.494  1.00  0.00     0.173 A 
ATOM     82  F   UNL     1      -1.869  -7.086  -8.213  1.00  0.00    -0.203 F 
ATOM     83  C   UNL     1      -2.635  -8.775  -6.758  1.00  0.00     0.198 A 
ATOM     84  C   UNL     1      -4.238  -8.252  -5.052  1.00  0.00     0.198 A 
ATOM     85  F   UNL     1      -5.078  -6.064  -4.863  1.00  0.00    -0.203 F 
ATOM     86  F   UNL     1      -1.869  -9.671  -7.395  1.00  0.00    -0.200 F 
ATOM     87  C   UNL     1      -3.423  -9.175  -5.689  1.00  0.00     0.200 A 
ATOM     88  F   UNL     1      -4.985  -8.626  -4.005  1.00  0.00    -0.200 F 
ATOM     89  F   UNL     1      -3.399 -10.448  -5.274  1.00  0.00    -0.200 F 
ENDBRANCH  55  79
BRANCH  67  90
ATOM     90  C   UNL     1      -5.798  -3.145 -12.192  1.00  0.00     0.064 A 
ATOM     91  C   UNL     1      -7.117  -3.619 -12.227  1.00  0.00     0.173 A 
ATOM     92  C   UNL     1      -5.080  -3.100 -13.397  1.00  0.00     0.173 A 
ATOM     93  F   UNL     1      -7.835  -3.701 -11.096  1.00  0.00    -0.203 F 
ATOM     94  C   UNL     1      -7.689  -4.049 -13.421  1.00  0.00     0.198 A 
ATOM     95  C   UNL     1      -5.664  -3.507 -14.592  1.00  0.00     0.198 A 
ATOM     96  F   UNL     1      -3.816  -2.653 -13.414  1.00  0.00    -0.203 F 
ATOM     97  F   UNL     1      -8.937  -4.539 -13.425  1.00  0.00    -0.200 F 
ATOM     98  C   UNL     1      -6.966  -3.986 -14.603  1.00  0.00     0.200 A 
ATOM     99  F   UNL     1      -4.967  -3.438 -15.735  1.00  0.00    -0.200 F 
ATOM    100  F   UNL     1      -7.520  -4.396 -15.752  1.00  0.00    -0.200 F 
ENDBRANCH  67  90
ENDBRANCH  41  42
ENDBRANCH  34  36
ENDBRANCH  33  34
ENDBRANCH  32  33
ENDBRANCH  31  32
ENDBRANCH   1  31
TORSDOF 17
