REMARK SMILES O=C(OCCOC(=O)c1ccc(-c2c3nc(c(-c4c(F)c(F)c(F)c(F)c4F)c4ccc([nH]4)c(-c4c(F)c(F)c(F)c(F)c4F)c4nc(c(-c5c(F)c(F)c(F)c(F)c5F)c5ccc2[nH]5)C=C4)C=C3)cc1)C1=Cc2cc(C(F)(F)F)ccc2O[C@@H]1C(F)(F)F
REMARK SMILES IDX 5 1 4 2 3 3 2 4 1 5 72 6 73 7 85 8 74 9 84 10 75 11 83 12
REMARK SMILES IDX 76 13 82 14 81 15 86 16 87 17 88 18 89 19 77 20 78 21 79 22
REMARK SMILES IDX 80 23 6 24 7 25 8 26 9 27 10 28 71 29 11 30 70 31 12 32
REMARK SMILES IDX 13 33 14 34 64 35 15 36 69 37 63 38 65 39 16 40 68 41 62 42
REMARK SMILES IDX 61 43 17 45 49 46 29 47 48 48 30 49 33 50 47 51 66 52 31 53
REMARK SMILES IDX 32 54 46 56 67 57 34 58 18 59 19 60 27 61 20 62 21 63 25 64
REMARK SMILES IDX 28 65 22 66 23 67 26 68 24 69 50 70 51 71 59 72 52 73 53 74
REMARK SMILES IDX 57 75 60 76 54 77 55 78 58 79 56 80 35 81 36 82 44 83 37 84
REMARK SMILES IDX 38 85 42 86 45 87 39 88 40 89 43 90 41 91
REMARK H PARENT 65 44 33 55
REMARK Flexibility Score: inf
ROOT
ATOM      1  C   UNL     1       4.591  -0.730   0.695  1.00  0.00     0.275 C 
ENDROOT
BRANCH   1   2
ATOM      2  C   UNL     1       3.721   0.293  -1.027  1.00  0.00     0.275 C 
BRANCH   2   3
ATOM      3  O   UNL     1       2.751  -0.318  -2.057  1.00  0.00    -0.459 OA
BRANCH   3   4
ATOM      4  C   UNL     1       2.920  -1.636  -2.216  1.00  0.00     0.338 C 
ATOM      5  O   UNL     1       2.227  -2.430  -2.800  1.00  0.00    -0.246 OA
BRANCH   4   6
ATOM      6  C   UNL     1       3.842  -1.793  -1.113  1.00  0.00     0.087 C 
ATOM      7  C   UNL     1       5.201  -1.400  -1.413  1.00  0.00     0.027 C 
ATOM      8  C   UNL     1       2.687  -0.966   0.184  1.00  0.00     0.316 C 
ATOM      9  C   UNL     1       5.938   0.098  -0.799  1.00  0.00     0.018 A 
ATOM     10  O   UNL     1       3.435   0.717   0.805  1.00  0.00    -0.475 OA
ATOM     11  C   UNL     1       7.159   0.423  -1.297  1.00  0.00     0.025 A 
ATOM     12  C   UNL     1       5.090   1.230   0.203  1.00  0.00     0.128 A 
ATOM     13  C   UNL     1       7.622   1.711  -0.973  1.00  0.00     0.056 A 
ATOM     14  C   UNL     1       5.594   2.465   0.490  1.00  0.00     0.048 A 
ATOM     15  C   UNL     1       6.870   2.672  -0.132  1.00  0.00     0.017 A 
BRANCH   8  16
ATOM     16  C   UNL     1       2.358  -2.403   0.849  1.00  0.00     0.430 C 
ATOM     17  F   UNL     1       1.082  -2.480   1.249  1.00  0.00    -0.167 F 
ATOM     18  F   UNL     1       2.429  -3.389  -0.105  1.00  0.00    -0.167 F 
ATOM     19  F   UNL     1       3.195  -2.884   1.782  1.00  0.00    -0.167 F 
ENDBRANCH   8  16
BRANCH  13  20
ATOM     20  C   UNL     1       8.985   2.038  -1.573  1.00  0.00     0.416 C 
ATOM     21  F   UNL     1       9.983   1.333  -0.970  1.00  0.00    -0.166 F 
ATOM     22  F   UNL     1       9.052   1.697  -2.894  1.00  0.00    -0.166 F 
ATOM     23  F   UNL     1       9.334   3.345  -1.502  1.00  0.00    -0.166 F 
ENDBRANCH  13  20
ENDBRANCH   4   6
ENDBRANCH   3   4
ENDBRANCH   2   3
ENDBRANCH   1   2
BRANCH   1  24
ATOM     24  O   UNL     1       3.837  -0.825   2.262  1.00  0.00    -0.458 OA
BRANCH  24  25
ATOM     25  C   UNL     1       2.897  -0.227   3.075  1.00  0.00     0.338 C 
ATOM     26  O   UNL     1       2.386   0.876   3.009  1.00  0.00    -0.246 OA
BRANCH  25  27
ATOM     27  C   UNL     1       2.236  -1.352   3.807  1.00  0.00     0.060 A 
ATOM     28  C   UNL     1       0.871  -1.598   3.553  1.00  0.00     0.016 A 
ATOM     29  C   UNL     1       3.031  -2.350   4.370  1.00  0.00     0.016 A 
ATOM     30  C   UNL     1       0.365  -2.905   3.671  1.00  0.00     0.010 A 
ATOM     31  C   UNL     1       2.530  -3.651   4.468  1.00  0.00     0.010 A 
ATOM     32  C   UNL     1       1.211  -3.951   4.072  1.00  0.00    -0.014 A 
BRANCH  32  33
ATOM     33  C   UNL     1       0.640  -5.268   4.448  1.00  0.00     0.031 A 
ATOM     34  C   UNL     1       0.211  -5.354   5.883  1.00  0.00     0.074 A 
ATOM     35  C   UNL     1       0.549  -6.338   3.632  1.00  0.00     0.049 A 
ATOM     36  N   UNL     1      -0.284  -6.352   6.559  1.00  0.00    -0.248 NA
ATOM     37  C   UNL     1       0.418  -4.127   6.677  1.00  0.00     0.031 C 
ATOM     38  C   UNL     1       0.950  -6.396   2.227  1.00  0.00     0.029 A 
ATOM     39  N   UNL     1       0.084  -7.610   3.890  1.00  0.00    -0.354 N 
ATOM     40  C   UNL     1      -0.444  -5.864   7.848  1.00  0.00     0.074 A 
ATOM     41  C   UNL     1       0.101  -4.532   7.888  1.00  0.00     0.031 C 
ATOM     42  C   UNL     1       0.703  -7.633   1.746  1.00  0.00     0.029 A 
ATOM     43  C   UNL     1       0.135  -8.462   2.809  1.00  0.00     0.049 A 
ATOM     44  H   UNL     1      -0.256  -7.886   4.772  1.00  0.00     0.167 HD
ATOM     45  C   UNL     1      -1.037  -6.455   8.906  1.00  0.00     0.037 A 
ATOM     46  C   UNL     1      -0.251  -9.754   2.708  1.00  0.00     0.037 A 
ATOM     47  C   UNL     1      -1.552  -7.788   8.869  1.00  0.00     0.049 A 
ATOM     48  C   UNL     1      -0.852 -10.428   3.928  1.00  0.00     0.074 A 
ATOM     49  C   UNL     1      -2.169  -8.504   9.873  1.00  0.00     0.029 A 
ATOM     50  N   UNL     1      -1.486  -8.614   7.755  1.00  0.00    -0.354 N 
ATOM     51  N   UNL     1      -1.080  -9.938   5.124  1.00  0.00    -0.248 NA
ATOM     52  C   UNL     1      -1.266 -11.832   3.776  1.00  0.00     0.031 C 
ATOM     53  C   UNL     1      -2.423  -9.789   9.385  1.00  0.00     0.029 A 
ATOM     54  C   UNL     1      -2.036  -9.845   8.053  1.00  0.00     0.049 A 
ATOM     55  H   UNL     1      -1.105  -8.360   6.884  1.00  0.00     0.167 HD
ATOM     56  C   UNL     1      -1.714 -10.946   5.843  1.00  0.00     0.074 A 
ATOM     57  C   UNL     1      -1.833 -12.078   4.949  1.00  0.00     0.031 C 
ATOM     58  C   UNL     1      -2.168 -10.938   7.123  1.00  0.00     0.037 A 
BRANCH  45  59
ATOM     59  C   UNL     1      -1.101  -5.642  10.164  1.00  0.00     0.064 A 
ATOM     60  C   UNL     1      -1.857  -4.458  10.236  1.00  0.00     0.173 A 
ATOM     61  C   UNL     1      -0.303  -5.982  11.263  1.00  0.00     0.173 A 
ATOM     62  F   UNL     1      -2.602  -4.066   9.191  1.00  0.00    -0.203 F 
ATOM     63  C   UNL     1      -1.758  -3.614  11.338  1.00  0.00     0.198 A 
ATOM     64  C   UNL     1      -0.242  -5.156  12.382  1.00  0.00     0.198 A 
ATOM     65  F   UNL     1       0.450  -7.091  11.237  1.00  0.00    -0.203 F 
ATOM     66  F   UNL     1      -2.398  -2.436  11.336  1.00  0.00    -0.200 F 
ATOM     67  C   UNL     1      -0.953  -3.965  12.410  1.00  0.00     0.200 A 
ATOM     68  F   UNL     1       0.535  -5.495  13.419  1.00  0.00    -0.200 F 
ATOM     69  F   UNL     1      -0.842  -3.142  13.461  1.00  0.00    -0.200 F 
ENDBRANCH  45  59
BRANCH  46  70
ATOM     70  C   UNL     1      -0.147 -10.505   1.419  1.00  0.00     0.064 A 
ATOM     71  C   UNL     1      -1.300 -10.931   0.737  1.00  0.00     0.173 A 
ATOM     72  C   UNL     1       1.091 -10.883   0.878  1.00  0.00     0.173 A 
ATOM     73  F   UNL     1      -2.513 -10.633   1.225  1.00  0.00    -0.203 F 
ATOM     74  C   UNL     1      -1.220 -11.722  -0.410  1.00  0.00     0.198 A 
ATOM     75  C   UNL     1       1.171 -11.652  -0.286  1.00  0.00     0.198 A 
ATOM     76  F   UNL     1       2.229 -10.523   1.490  1.00  0.00    -0.203 F 
ATOM     77  F   UNL     1      -2.340 -12.166  -0.997  1.00  0.00    -0.200 F 
ATOM     78  C   UNL     1       0.017 -12.080  -0.923  1.00  0.00     0.200 A 
ATOM     79  F   UNL     1       2.369 -11.998  -0.779  1.00  0.00    -0.200 F 
ATOM     80  F   UNL     1       0.095 -12.850  -2.018  1.00  0.00    -0.200 F 
ENDBRANCH  46  70
BRANCH  58  81
ATOM     81  C   UNL     1      -2.911 -12.149   7.610  1.00  0.00     0.064 A 
ATOM     82  C   UNL     1      -2.273 -13.374   7.849  1.00  0.00     0.173 A 
ATOM     83  C   UNL     1      -4.278 -12.049   7.919  1.00  0.00     0.173 A 
ATOM     84  F   UNL     1      -0.969 -13.523   7.568  1.00  0.00    -0.203 F 
ATOM     85  C   UNL     1      -2.982 -14.462   8.350  1.00  0.00     0.198 A 
ATOM     86  C   UNL     1      -4.973 -13.126   8.458  1.00  0.00     0.198 A 
ATOM     87  F   UNL     1      -4.933 -10.893   7.726  1.00  0.00    -0.203 F 
ATOM     88  F   UNL     1      -2.364 -15.639   8.523  1.00  0.00    -0.200 F 
ATOM     89  C   UNL     1      -4.327 -14.334   8.664  1.00  0.00     0.200 A 
ATOM     90  F   UNL     1      -6.265 -12.990   8.786  1.00  0.00    -0.200 F 
ATOM     91  F   UNL     1      -5.003 -15.378   9.163  1.00  0.00    -0.200 F 
ENDBRANCH  58  81
ENDBRANCH  32  33
ENDBRANCH  25  27
ENDBRANCH  24  25
ENDBRANCH   1  24
TORSDOF 13
