REMARK SMILES C[C@@H]1CN(S(=O)(=O)[C@@H](C)C(=O)OCCOC(=O)c2ccc(-c3c4nc(c(-c5c(F)c(F)c(F)c(F)c5F)c5ccc([nH]5)c(-c5c(F)c(F)c(F)c(F)c5F)c5nc(c(-c6c(F)c(F)c(F)c(F)c6F)c6ccc3[nH]6)C=C5)C=C4)cc2)CC[C@@H]1[NH3+]
REMARK SMILES IDX 13 1 12 2 10 3 11 4 8 5 9 6 5 7 6 8 7 9 4 10 1 11 2 12 3 13
REMARK SMILES IDX 83 14 82 15 81 16 84 17 14 21 15 22 16 23 17 24 18 25 19 26
REMARK SMILES IDX 80 27 20 28 79 29 21 30 22 31 23 32 73 33 24 34 78 35 72 36
REMARK SMILES IDX 74 37 25 38 77 39 71 40 70 41 26 43 58 44 38 45 57 46 39 47
REMARK SMILES IDX 42 48 56 49 75 50 40 51 41 52 55 54 76 55 43 56 27 57 28 58
REMARK SMILES IDX 36 59 29 60 30 61 34 62 37 63 31 64 32 65 35 66 33 67 59 68
REMARK SMILES IDX 60 69 68 70 61 71 62 72 66 73 69 74 63 75 64 76 67 77 65 78
REMARK SMILES IDX 44 79 45 80 53 81 46 82 47 83 51 84 54 85 48 86 49 87 52 88
REMARK SMILES IDX 50 89
REMARK H PARENT 84 18 84 19 84 20 74 42 42 53
REMARK Flexibility Score: inf
ROOT
ATOM      1  C   UNL     1       1.960   4.325  -2.830  1.00  0.00     0.274 C 
ENDROOT
BRANCH   1   2
ATOM      2  O   UNL     1       2.081   4.286  -1.390  1.00  0.00    -0.461 OA
BRANCH   2   3
ATOM      3  C   UNL     1       3.001   5.064  -0.787  1.00  0.00     0.325 C 
ATOM      4  O   UNL     1       3.679   5.892  -1.390  1.00  0.00    -0.251 OA
BRANCH   3   5
ATOM      5  C   UNL     1       3.258   4.747   0.658  1.00  0.00     0.230 C 
ATOM      6  C   UNL     1       4.413   3.789   0.850  1.00  0.00     0.039 C 
BRANCH   5   7
ATOM      7  S   UNL     1       1.837   4.396   1.665  1.00  0.00     0.227 S 
ATOM      8  O   UNL     1       0.729   5.204   1.206  1.00  0.00    -0.211 OA
ATOM      9  O   UNL     1       2.280   4.550   3.040  1.00  0.00    -0.211 OA
BRANCH   7  10
ATOM     10  N   UNL     1       1.379   2.735   1.512  1.00  0.00    -0.200 NA
ATOM     11  C   UNL     1       1.533  -0.130   0.061  1.00  0.00     0.015 C 
ATOM     12  C   UNL     1       0.396   0.902   0.031  1.00  0.00     0.059 C 
ATOM     13  C   UNL     1       0.942   2.328   0.146  1.00  0.00     0.111 C 
ATOM     14  C   UNL     1      -0.699   0.672   1.077  1.00  0.00     0.186 C 
ATOM     15  C   UNL     1      -0.168   0.981   2.473  1.00  0.00     0.082 C 
ATOM     16  C   UNL     1       0.322   2.422   2.545  1.00  0.00     0.108 C 
BRANCH  14  17
ATOM     17  N   UNL     1      -1.234  -0.688   1.008  1.00  0.00    -0.355 N 
ATOM     18  H   UNL     1      -0.491  -1.357   1.207  1.00  0.00     0.344 HD
ATOM     19  H   UNL     1      -1.605  -0.861   0.073  1.00  0.00     0.344 HD
ATOM     20  H   UNL     1      -1.981  -0.795   1.694  1.00  0.00     0.344 HD
ENDBRANCH  14  17
ENDBRANCH   7  10
ENDBRANCH   5   7
ENDBRANCH   3   5
ENDBRANCH   2   3
ENDBRANCH   1   2
BRANCH   1  21
ATOM     21  C   UNL     1       0.633   4.951  -3.241  1.00  0.00     0.275 C 
BRANCH  21  22
ATOM     22  O   UNL     1       0.656   6.340  -2.890  1.00  0.00    -0.458 OA
BRANCH  22  23
ATOM     23  C   UNL     1      -0.073   6.673  -1.801  1.00  0.00     0.338 C 
ATOM     24  O   UNL     1      -0.867   5.984  -1.194  1.00  0.00    -0.246 OA
BRANCH  23  25
ATOM     25  C   UNL     1       0.307   8.043  -1.435  1.00  0.00     0.060 A 
ATOM     26  C   UNL     1       1.248   8.251  -0.424  1.00  0.00     0.016 A 
ATOM     27  C   UNL     1      -0.282   9.117  -2.101  1.00  0.00     0.016 A 
ATOM     28  C   UNL     1       1.604   9.548  -0.065  1.00  0.00     0.010 A 
ATOM     29  C   UNL     1       0.077  10.416  -1.744  1.00  0.00     0.010 A 
ATOM     30  C   UNL     1       1.011  10.638  -0.716  1.00  0.00    -0.014 A 
BRANCH  30  31
ATOM     31  C   UNL     1       1.299  12.019  -0.271  1.00  0.00     0.031 A 
ATOM     32  C   UNL     1       0.276  12.754   0.543  1.00  0.00     0.074 A 
ATOM     33  C   UNL     1       2.461  12.608  -0.604  1.00  0.00     0.049 A 
ATOM     34  N   UNL     1       0.273  13.999   0.945  1.00  0.00    -0.248 NA
ATOM     35  C   UNL     1      -0.908  11.983   0.953  1.00  0.00     0.031 C 
ATOM     36  C   UNL     1       3.541  11.976  -1.360  1.00  0.00     0.029 A 
ATOM     37  N   UNL     1       2.919  13.877  -0.356  1.00  0.00    -0.354 N 
ATOM     38  C   UNL     1      -0.918  14.166   1.638  1.00  0.00     0.074 A 
ATOM     39  C   UNL     1      -1.622  12.903   1.585  1.00  0.00     0.031 C 
ATOM     40  C   UNL     1       4.537  12.864  -1.521  1.00  0.00     0.029 A 
ATOM     41  C   UNL     1       4.146  14.134  -0.915  1.00  0.00     0.049 A 
ATOM     42  H   UNL     1       2.417  14.539   0.172  1.00  0.00     0.167 HD
ATOM     43  C   UNL     1      -1.376  15.275   2.266  1.00  0.00     0.037 A 
ATOM     44  C   UNL     1       4.858  15.276  -0.953  1.00  0.00     0.037 A 
ATOM     45  C   UNL     1      -0.663  16.524   2.323  1.00  0.00     0.049 A 
ATOM     46  C   UNL     1       4.303  16.508  -0.288  1.00  0.00     0.074 A 
ATOM     47  C   UNL     1      -1.034  17.704   2.943  1.00  0.00     0.029 A 
ATOM     48  N   UNL     1       0.572  16.753   1.734  1.00  0.00    -0.354 N 
ATOM     49  N   UNL     1       3.178  16.661   0.368  1.00  0.00    -0.248 NA
ATOM     50  C   UNL     1       5.119  17.728  -0.371  1.00  0.00     0.031 C 
ATOM     51  C   UNL     1      -0.042  18.659   2.695  1.00  0.00     0.029 A 
ATOM     52  C   UNL     1       0.970  18.061   1.961  1.00  0.00     0.049 A 
ATOM     53  H   UNL     1       1.090  16.085   1.230  1.00  0.00     0.167 HD
ATOM     54  C   UNL     1       3.160  17.982   0.794  1.00  0.00     0.074 A 
ATOM     55  C   UNL     1       4.395  18.584   0.337  1.00  0.00     0.031 C 
ATOM     56  C   UNL     1       2.206  18.639   1.499  1.00  0.00     0.037 A 
BRANCH  43  57
ATOM     57  C   UNL     1      -2.725  15.191   2.916  1.00  0.00     0.064 A 
ATOM     58  C   UNL     1      -2.933  14.457   4.093  1.00  0.00     0.173 A 
ATOM     59  C   UNL     1      -3.820  15.873   2.365  1.00  0.00     0.173 A 
ATOM     60  F   UNL     1      -1.922  13.775   4.651  1.00  0.00    -0.203 F 
ATOM     61  C   UNL     1      -4.194  14.388   4.680  1.00  0.00     0.198 A 
ATOM     62  C   UNL     1      -5.074  15.824   2.970  1.00  0.00     0.198 A 
ATOM     63  F   UNL     1      -3.675  16.592   1.242  1.00  0.00    -0.203 F 
ATOM     64  F   UNL     1      -4.380  13.643   5.779  1.00  0.00    -0.200 F 
ATOM     65  C   UNL     1      -5.261  15.076   4.122  1.00  0.00     0.200 A 
ATOM     66  F   UNL     1      -6.101  16.498   2.434  1.00  0.00    -0.200 F 
ATOM     67  F   UNL     1      -6.473  15.012   4.691  1.00  0.00    -0.200 F 
ENDBRANCH  43  57
BRANCH  44  68
ATOM     68  C   UNL     1       6.167  15.312  -1.653  1.00  0.00     0.064 A 
ATOM     69  C   UNL     1       7.364  15.461  -0.939  1.00  0.00     0.173 A 
ATOM     70  C   UNL     1       6.249  15.207  -3.050  1.00  0.00     0.173 A 
ATOM     71  F   UNL     1       7.335  15.592   0.395  1.00  0.00    -0.203 F 
ATOM     72  C   UNL     1       8.591  15.522  -1.596  1.00  0.00     0.198 A 
ATOM     73  C   UNL     1       7.478  15.240  -3.704  1.00  0.00     0.198 A 
ATOM     74  F   UNL     1       5.133  15.066  -3.780  1.00  0.00    -0.203 F 
ATOM     75  F   UNL     1       9.716  15.711  -0.894  1.00  0.00    -0.200 F 
ATOM     76  C   UNL     1       8.648  15.405  -2.977  1.00  0.00     0.200 A 
ATOM     77  F   UNL     1       7.530  15.116  -5.037  1.00  0.00    -0.200 F 
ATOM     78  F   UNL     1       9.829  15.460  -3.608  1.00  0.00    -0.200 F 
ENDBRANCH  44  68
BRANCH  56  79
ATOM     79  C   UNL     1       2.479  20.074   1.843  1.00  0.00     0.064 A 
ATOM     80  C   UNL     1       2.432  21.085   0.872  1.00  0.00     0.173 A 
ATOM     81  C   UNL     1       2.763  20.445   3.166  1.00  0.00     0.173 A 
ATOM     82  F   UNL     1       2.179  20.779  -0.410  1.00  0.00    -0.203 F 
ATOM     83  C   UNL     1       2.688  22.412   1.208  1.00  0.00     0.198 A 
ATOM     84  C   UNL     1       2.990  21.776   3.503  1.00  0.00     0.198 A 
ATOM     85  F   UNL     1       2.813  19.517   4.133  1.00  0.00    -0.203 F 
ATOM     86  F   UNL     1       2.687  23.354   0.255  1.00  0.00    -0.200 F 
ATOM     87  C   UNL     1       2.961  22.757   2.523  1.00  0.00     0.200 A 
ATOM     88  F   UNL     1       3.242  22.110   4.777  1.00  0.00    -0.200 F 
ATOM     89  F   UNL     1       3.204  24.035   2.845  1.00  0.00    -0.200 F 
ENDBRANCH  56  79
ENDBRANCH  30  31
ENDBRANCH  23  25
ENDBRANCH  22  23
ENDBRANCH  21  22
ENDBRANCH   1  21
TORSDOF 14
