REMARK SMILES CC(C)Cc1ccc(S(=O)(=O)Nc2cnc(N3CCCC3)c(C(=O)OCCOC(=O)c3ccc(-c4c5nc(c(-c6c(F)c(F)c(F)c(F)c6F)c6ccc([nH]6)c(-c6c(F)c(F)c(F)c(F)c6F)c6nc(c(-c7c(F)c(F)c(F)c(F)c7F)c7ccc4[nH]7)C=C6)C=C5)cc3)c2)cc1
REMARK SMILES IDX 25 1 23 2 24 3 22 4 13 5 14 6 94 7 15 8 16 9 12 10 9 12
REMARK SMILES IDX 10 13 11 14 8 15 5 16 6 17 96 18 7 19 95 20 4 21 2 22 1 23
REMARK SMILES IDX 3 24 17 25 18 26 21 27 19 28 20 29 26 30 27 31 28 32 29 33
REMARK SMILES IDX 30 34 31 35 32 36 93 37 33 38 92 39 34 40 35 41 36 42 86 43
REMARK SMILES IDX 37 44 91 45 85 46 87 47 38 48 90 49 84 50 83 51 39 53 71 54
REMARK SMILES IDX 51 55 70 56 52 57 55 58 69 59 88 60 53 61 54 62 68 64 89 65
REMARK SMILES IDX 56 66 40 67 41 68 49 69 42 70 43 71 47 72 50 73 44 74 45 75
REMARK SMILES IDX 48 76 46 77 72 78 73 79 81 80 74 81 75 82 79 83 82 84 76 85
REMARK SMILES IDX 77 86 80 87 78 88 57 89 58 90 66 91 59 92 60 93 64 94 67 95
REMARK SMILES IDX 61 96 62 97 65 98 63 99
REMARK H PARENT 12 11 87 52 55 63
REMARK Flexibility Score: inf
ROOT
ATOM      1  O   UNL     1       2.157  -3.287   0.663  1.00  0.00    -0.458 OA
ENDROOT
BRANCH   1   2
ATOM      2  C   UNL     1       0.967  -3.191   0.021  1.00  0.00     0.342 C 
ATOM      3  O   UNL     1       0.447  -2.157  -0.372  1.00  0.00    -0.246 OA
BRANCH   2   4
ATOM      4  C   UNL     1       0.211  -4.448   0.031  1.00  0.00     0.104 A 
ATOM      5  C   UNL     1      -1.565  -5.286   1.408  1.00  0.00     0.068 A 
ATOM      6  C   UNL     1      -1.959  -6.018   0.297  1.00  0.00     0.140 A 
ATOM      7  C   UNL     1      -0.369  -4.615   1.307  1.00  0.00     0.048 A 
ATOM      8  N   UNL     1      -1.352  -5.969  -0.920  1.00  0.00    -0.236 NA
ATOM      9  C   UNL     1      -0.311  -5.119  -1.107  1.00  0.00     0.143 A 
BRANCH   5  10
ATOM     10  N   UNL     1      -2.474  -5.114   2.489  1.00  0.00    -0.278 N 
ATOM     11  H   UNL     1      -3.151  -5.818   2.616  1.00  0.00     0.180 HD
BRANCH  10  12
ATOM     12  S   UNL     1      -2.506  -3.829   3.570  1.00  0.00     0.261 S 
ATOM     13  O   UNL     1      -1.314  -3.916   4.388  1.00  0.00    -0.201 OA
ATOM     14  O   UNL     1      -3.825  -3.882   4.167  1.00  0.00    -0.201 OA
BRANCH  12  15
ATOM     15  C   UNL     1      -2.414  -2.269   2.702  1.00  0.00     0.087 A 
ATOM     16  C   UNL     1      -1.903   0.228   1.478  1.00  0.00    -0.048 A 
ATOM     17  C   UNL     1      -1.867   0.101   2.870  1.00  0.00     0.005 A 
ATOM     18  C   UNL     1      -2.254  -0.899   0.715  1.00  0.00     0.005 A 
ATOM     19  C   UNL     1      -2.110  -1.138   3.476  1.00  0.00     0.022 A 
ATOM     20  C   UNL     1      -2.528  -2.138   1.320  1.00  0.00     0.022 A 
BRANCH  16  21
ATOM     21  C   UNL     1      -1.533   1.542   0.810  1.00  0.00     0.038 C 
BRANCH  21  22
ATOM     22  C   UNL     1      -0.030   1.898   0.879  1.00  0.00    -0.013 C 
ATOM     23  C   UNL     1       0.825   0.819   0.236  1.00  0.00     0.008 C 
ATOM     24  C   UNL     1       0.270   3.231   0.193  1.00  0.00     0.008 C 
ENDBRANCH  21  22
ENDBRANCH  16  21
ENDBRANCH  12  15
ENDBRANCH  10  12
ENDBRANCH   5  10
BRANCH   9  25
ATOM     25  N   UNL     1      -0.067  -4.840  -2.449  1.00  0.00    -0.356 N 
ATOM     26  C   UNL     1       1.562  -5.236  -3.417  1.00  0.00     0.118 C 
ATOM     27  C   UNL     1      -0.868  -3.283  -3.018  1.00  0.00     0.118 C 
ATOM     28  C   UNL     1       1.860  -3.460  -4.742  1.00  0.00     0.023 C 
ATOM     29  C   UNL     1       0.213  -2.355  -4.349  1.00  0.00     0.023 C 
ENDBRANCH   9  25
ENDBRANCH   2   4
ENDBRANCH   1   2
BRANCH   1  30
ATOM     30  C   UNL     1       2.893  -2.046   0.784  1.00  0.00     0.275 C 
BRANCH  30  31
ATOM     31  C   UNL     1       4.219  -2.121   0.043  1.00  0.00     0.275 C 
BRANCH  31  32
ATOM     32  O   UNL     1       3.906  -2.284  -1.349  1.00  0.00    -0.458 OA
BRANCH  32  33
ATOM     33  C   UNL     1       3.816  -3.577  -1.696  1.00  0.00     0.338 C 
ATOM     34  O   UNL     1       4.216  -4.556  -1.089  1.00  0.00    -0.246 OA
BRANCH  33  35
ATOM     35  C   UNL     1       3.064  -3.730  -2.930  1.00  0.00     0.060 A 
ATOM     36  C   UNL     1       1.346  -3.473  -3.023  1.00  0.00     0.016 A 
ATOM     37  C   UNL     1       3.740  -4.707  -4.086  1.00  0.00     0.016 A 
ATOM     38  C   UNL     1       0.335  -4.419  -4.493  1.00  0.00     0.010 A 
ATOM     39  C   UNL     1       2.908  -5.448  -5.342  1.00  0.00     0.010 A 
ATOM     40  C   UNL     1       1.251  -5.370  -5.630  1.00  0.00    -0.014 A 
BRANCH  40  41
ATOM     41  C   UNL     1       0.758  -5.904  -6.940  1.00  0.00     0.031 A 
ATOM     42  C   UNL     1       1.114  -7.307  -7.362  1.00  0.00     0.074 A 
ATOM     43  C   UNL     1       0.205  -5.075  -7.853  1.00  0.00     0.049 A 
ATOM     44  N   UNL     1       1.038  -7.862  -8.547  1.00  0.00    -0.248 NA
ATOM     45  C   UNL     1       1.690  -8.182  -6.330  1.00  0.00     0.031 C 
ATOM     46  C   UNL     1      -0.059  -3.661  -7.647  1.00  0.00     0.029 A 
ATOM     47  N   UNL     1      -0.196  -5.267  -9.157  1.00  0.00    -0.354 N 
ATOM     48  C   UNL     1       1.589  -9.131  -8.411  1.00  0.00     0.074 A 
ATOM     49  C   UNL     1       2.034  -9.249  -7.038  1.00  0.00     0.031 C 
ATOM     50  C   UNL     1      -0.629  -3.118  -8.724  1.00  0.00     0.029 A 
ATOM     51  C   UNL     1      -0.692  -4.129  -9.759  1.00  0.00     0.049 A 
ATOM     52  H   UNL     1      -0.134  -6.136  -9.616  1.00  0.00     0.167 HD
ATOM     53  C   UNL     1       1.706 -10.108  -9.345  1.00  0.00     0.037 A 
ATOM     54  C   UNL     1      -1.115  -3.886 -11.013  1.00  0.00     0.037 A 
ATOM     55  C   UNL     1       1.241  -9.980 -10.704  1.00  0.00     0.049 A 
ATOM     56  C   UNL     1      -1.021  -4.993 -12.012  1.00  0.00     0.074 A 
ATOM     57  C   UNL     1       1.263 -10.921 -11.718  1.00  0.00     0.029 A 
ATOM     58  N   UNL     1       0.668  -8.832 -11.238  1.00  0.00    -0.354 N 
ATOM     59  N   UNL     1      -0.535  -6.198 -11.851  1.00  0.00    -0.248 NA
ATOM     60  C   UNL     1      -1.508  -4.708 -13.366  1.00  0.00     0.031 C 
ATOM     61  C   UNL     1       0.740 -10.332 -12.874  1.00  0.00     0.029 A 
ATOM     62  C   UNL     1       0.342  -9.040 -12.569  1.00  0.00     0.049 A 
ATOM     63  H   UNL     1       0.516  -7.995 -10.743  1.00  0.00     0.167 HD
ATOM     64  C   UNL     1      -0.667  -6.824 -13.077  1.00  0.00     0.074 A 
ATOM     65  C   UNL     1      -1.299  -5.870 -13.968  1.00  0.00     0.031 C 
ATOM     66  C   UNL     1      -0.291  -8.075 -13.433  1.00  0.00     0.037 A 
BRANCH  53  67
ATOM     67  C   UNL     1       2.366 -11.395  -8.928  1.00  0.00     0.064 A 
ATOM     68  C   UNL     1       1.769 -12.267  -8.003  1.00  0.00     0.173 A 
ATOM     69  C   UNL     1       3.606 -11.773  -9.468  1.00  0.00     0.173 A 
ATOM     70  F   UNL     1       0.587 -11.956  -7.450  1.00  0.00    -0.203 F 
ATOM     71  C   UNL     1       2.407 -13.438  -7.600  1.00  0.00     0.198 A 
ATOM     72  C   UNL     1       4.226 -12.962  -9.089  1.00  0.00     0.198 A 
ATOM     73  F   UNL     1       4.221 -10.988 -10.366  1.00  0.00    -0.203 F 
ATOM     74  F   UNL     1       1.845 -14.219  -6.667  1.00  0.00    -0.200 F 
ATOM     75  C   UNL     1       3.632 -13.787  -8.146  1.00  0.00     0.200 A 
ATOM     76  F   UNL     1       5.403 -13.306  -9.630  1.00  0.00    -0.200 F 
ATOM     77  F   UNL     1       4.246 -14.913  -7.756  1.00  0.00    -0.200 F 
ENDBRANCH  53  67
BRANCH  54  78
ATOM     78  C   UNL     1      -1.678  -2.553 -11.370  1.00  0.00     0.064 A 
ATOM     79  C   UNL     1      -3.049  -2.407 -11.625  1.00  0.00     0.173 A 
ATOM     80  C   UNL     1      -0.886  -1.394 -11.408  1.00  0.00     0.173 A 
ATOM     81  F   UNL     1      -3.849  -3.483 -11.615  1.00  0.00    -0.203 F 
ATOM     82  C   UNL     1      -3.604  -1.160 -11.911  1.00  0.00     0.198 A 
ATOM     83  C   UNL     1      -1.447  -0.143 -11.660  1.00  0.00     0.198 A 
ATOM     84  F   UNL     1       0.429  -1.471 -11.155  1.00  0.00    -0.203 F 
ATOM     85  F   UNL     1      -4.912  -1.057 -12.181  1.00  0.00    -0.200 F 
ATOM     86  C   UNL     1      -2.805  -0.027 -11.917  1.00  0.00     0.200 A 
ATOM     87  F   UNL     1      -0.676   0.953 -11.637  1.00  0.00    -0.200 F 
ATOM     88  F   UNL     1      -3.342   1.174 -12.170  1.00  0.00    -0.200 F 
ENDBRANCH  54  78
BRANCH  66  89
ATOM     89  C   UNL     1      -0.591  -8.490 -14.839  1.00  0.00     0.064 A 
ATOM     90  C   UNL     1       0.148  -7.999 -15.924  1.00  0.00     0.173 A 
ATOM     91  C   UNL     1      -1.613  -9.416 -15.095  1.00  0.00     0.173 A 
ATOM     92  F   UNL     1       1.117  -7.092 -15.726  1.00  0.00    -0.203 F 
ATOM     93  C   UNL     1      -0.136  -8.411 -17.222  1.00  0.00     0.198 A 
ATOM     94  C   UNL     1      -1.875  -9.847 -16.391  1.00  0.00     0.198 A 
ATOM     95  F   UNL     1      -2.348  -9.908 -14.087  1.00  0.00    -0.203 F 
ATOM     96  F   UNL     1       0.553  -7.899 -18.251  1.00  0.00    -0.200 F 
ATOM     97  C   UNL     1      -1.139  -9.341 -17.453  1.00  0.00     0.200 A 
ATOM     98  F   UNL     1      -2.839 -10.750 -16.612  1.00  0.00    -0.200 F 
ATOM     99  F   UNL     1      -1.404  -9.744 -18.703  1.00  0.00    -0.200 F 
ENDBRANCH  66  89
ENDBRANCH  40  41
ENDBRANCH  33  35
ENDBRANCH  32  33
ENDBRANCH  31  32
ENDBRANCH  30  31
ENDBRANCH   1  30
TORSDOF 17
