REMARK SMILES C[NH2+][C@@]1(C(=O)OCCOC(=O)c2ccc(-c3c4nc(c(-c5c(F)c(F)c(F)c(F)c5F)c5ccc([nH]5)c(-c5c(F)c(F)c(F)c(F)c5F)c5nc(c(-c6c(F)c(F)c(F)c(F)c6F)c6ccc3[nH]6)C=C5)C=C4)cc2)CC[C@H](n2ccc(C)n2)C1
REMARK SMILES IDX 8 1 7 2 6 3 4 4 5 5 3 6 75 7 84 8 76 9 77 10 2 11 1 12 78 15
REMARK SMILES IDX 79 16 83 17 80 18 81 19 82 20 9 21 10 22 11 23 12 24 13 25
REMARK SMILES IDX 74 26 14 27 73 28 15 29 16 30 17 31 67 32 18 33 72 34 66 35
REMARK SMILES IDX 68 36 19 37 71 38 65 39 64 40 20 42 52 43 32 44 51 45 33 46
REMARK SMILES IDX 36 47 50 48 69 49 34 50 35 51 49 53 70 54 37 55 21 56 22 57
REMARK SMILES IDX 30 58 23 59 24 60 28 61 31 62 25 63 26 64 29 65 27 66 53 67
REMARK SMILES IDX 54 68 62 69 55 70 56 71 60 72 63 73 57 74 58 75 61 76 59 77
REMARK SMILES IDX 38 78 39 79 47 80 40 81 41 82 45 83 48 84 42 85 43 86 46 87
REMARK SMILES IDX 44 88
REMARK H PARENT 2 13 2 14 68 41 36 52
REMARK Flexibility Score: inf
ROOT
ATOM      1  C   UNL     1      -2.213  -2.487   3.178  1.00  0.00     0.275 C 
ENDROOT
BRANCH   1   2
ATOM      2  C   UNL     1      -2.791  -1.219   2.559  1.00  0.00     0.274 C 
BRANCH   2   3
ATOM      3  O   UNL     1      -2.521  -1.215   1.145  1.00  0.00    -0.457 OA
BRANCH   3   4
ATOM      4  C   UNL     1      -1.489  -0.454   0.694  1.00  0.00     0.368 C 
ATOM      5  O   UNL     1      -0.905   0.370   1.388  1.00  0.00    -0.245 OA
BRANCH   4   6
ATOM      6  C   UNL     1      -1.228  -0.701  -0.834  1.00  0.00     0.196 C 
ATOM      7  C   UNL     1      -2.085   0.247  -1.676  1.00  0.00     0.083 C 
ATOM      8  C   UNL     1      -1.718  -2.094  -1.300  1.00  0.00     0.108 C 
ATOM      9  C   UNL     1      -3.459  -0.410  -1.702  1.00  0.00     0.034 C 
ATOM     10  C   UNL     1      -3.203  -1.929  -1.710  1.00  0.00     0.114 C 
BRANCH   6  11
ATOM     11  N   UNL     1       0.224  -0.612  -1.169  1.00  0.00    -0.334 N 
ATOM     12  C   UNL     1       0.854   0.679  -0.918  1.00  0.00     0.331 C 
ATOM     13  H   UNL     1       0.717  -1.313  -0.616  1.00  0.00     0.347 HD
ATOM     14  H   UNL     1       0.286  -0.759  -2.176  1.00  0.00     0.347 HD
ENDBRANCH   6  11
BRANCH  10  15
ATOM     15  N   UNL     1      -4.185  -2.665  -0.928  1.00  0.00    -0.269 N 
ATOM     16  C   UNL     1      -5.544  -2.515  -0.988  1.00  0.00     0.109 A 
ATOM     17  N   UNL     1      -3.811  -3.627  -0.065  1.00  0.00    -0.178 NA
ATOM     18  C   UNL     1      -6.066  -3.356  -0.035  1.00  0.00     0.045 A 
ATOM     19  C   UNL     1      -4.949  -4.018   0.517  1.00  0.00     0.059 A 
ATOM     20  C   UNL     1      -4.932  -5.019   1.610  1.00  0.00     0.069 C 
ENDBRANCH  10  15
ENDBRANCH   4   6
ENDBRANCH   3   4
ENDBRANCH   2   3
ENDBRANCH   1   2
BRANCH   1  21
ATOM     21  O   UNL     1      -0.789  -2.466   2.997  1.00  0.00    -0.458 OA
BRANCH  21  22
ATOM     22  C   UNL     1      -0.211  -3.654   2.725  1.00  0.00     0.338 C 
ATOM     23  O   UNL     1      -0.720  -4.765   2.739  1.00  0.00    -0.246 OA
BRANCH  22  24
ATOM     24  C   UNL     1       1.208  -3.405   2.447  1.00  0.00     0.060 A 
ATOM     25  C   UNL     1       1.577  -2.697   1.302  1.00  0.00     0.016 A 
ATOM     26  C   UNL     1       2.175  -3.909   3.315  1.00  0.00     0.016 A 
ATOM     27  C   UNL     1       2.925  -2.493   1.011  1.00  0.00     0.010 A 
ATOM     28  C   UNL     1       3.524  -3.683   3.038  1.00  0.00     0.010 A 
ATOM     29  C   UNL     1       3.908  -2.988   1.877  1.00  0.00    -0.014 A 
BRANCH  29  30
ATOM     30  C   UNL     1       5.346  -2.856   1.542  1.00  0.00     0.031 A 
ATOM     31  C   UNL     1       6.109  -4.067   1.093  1.00  0.00     0.074 A 
ATOM     32  C   UNL     1       5.966  -1.667   1.650  1.00  0.00     0.049 A 
ATOM     33  N   UNL     1       7.395  -4.214   0.896  1.00  0.00    -0.248 NA
ATOM     34  C   UNL     1       5.316  -5.279   0.833  1.00  0.00     0.031 C 
ATOM     35  C   UNL     1       5.322  -0.409   2.021  1.00  0.00     0.029 A 
ATOM     36  N   UNL     1       7.284  -1.331   1.468  1.00  0.00    -0.354 N 
ATOM     37  C   UNL     1       7.567  -5.537   0.514  1.00  0.00     0.074 A 
ATOM     38  C   UNL     1       6.258  -6.155   0.515  1.00  0.00     0.031 C 
ATOM     39  C   UNL     1       6.248   0.564   2.046  1.00  0.00     0.029 A 
ATOM     40  C   UNL     1       7.556  -0.014   1.744  1.00  0.00     0.049 A 
ATOM     41  H   UNL     1       7.969  -1.972   1.168  1.00  0.00     0.167 HD
ATOM     42  C   UNL     1       8.716  -6.177   0.192  1.00  0.00     0.037 A 
ATOM     43  C   UNL     1       8.732   0.640   1.784  1.00  0.00     0.037 A 
ATOM     44  C   UNL     1      10.015  -5.556   0.179  1.00  0.00     0.049 A 
ATOM     45  C   UNL     1      10.004  -0.109   1.487  1.00  0.00     0.074 A 
ATOM     46  C   UNL     1      11.240  -6.120  -0.130  1.00  0.00     0.029 A 
ATOM     47  N   UNL     1      10.253  -4.226   0.490  1.00  0.00    -0.354 N 
ATOM     48  N   UNL     1      10.165  -1.366   1.151  1.00  0.00    -0.248 NA
ATOM     49  C   UNL     1      11.259   0.649   1.588  1.00  0.00     0.031 C 
ATOM     50  C   UNL     1      12.225  -5.139   0.028  1.00  0.00     0.029 A 
ATOM     51  C   UNL     1      11.608  -3.954   0.396  1.00  0.00     0.049 A 
ATOM     52  H   UNL     1       9.562  -3.571   0.741  1.00  0.00     0.167 HD
ATOM     53  C   UNL     1      11.531  -1.545   0.983  1.00  0.00     0.074 A 
ATOM     54  C   UNL     1      12.155  -0.263   1.239  1.00  0.00     0.031 C 
ATOM     55  C   UNL     1      12.209  -2.670   0.648  1.00  0.00     0.037 A 
BRANCH  42  56
ATOM     56  C   UNL     1       8.622  -7.635  -0.141  1.00  0.00     0.064 A 
ATOM     57  C   UNL     1       8.090  -8.080  -1.360  1.00  0.00     0.173 A 
ATOM     58  C   UNL     1       9.092  -8.599   0.764  1.00  0.00     0.173 A 
ATOM     59  F   UNL     1       7.613  -7.198  -2.251  1.00  0.00    -0.203 F 
ATOM     60  C   UNL     1       8.013  -9.440  -1.651  1.00  0.00     0.198 A 
ATOM     61  C   UNL     1       9.035  -9.956   0.459  1.00  0.00     0.198 A 
ATOM     62  F   UNL     1       9.613  -8.223   1.942  1.00  0.00    -0.203 F 
ATOM     63  F   UNL     1       7.464  -9.846  -2.805  1.00  0.00    -0.200 F 
ATOM     64  C   UNL     1       8.490 -10.375  -0.745  1.00  0.00     0.200 A 
ATOM     65  F   UNL     1       9.506 -10.857   1.331  1.00  0.00    -0.200 F 
ATOM     66  F   UNL     1       8.419 -11.683  -1.030  1.00  0.00    -0.200 F 
ENDBRANCH  42  56
BRANCH  43  67
ATOM     67  C   UNL     1       8.768   2.080   2.149  1.00  0.00     0.064 A 
ATOM     68  C   UNL     1       9.102   3.056   1.202  1.00  0.00     0.173 A 
ATOM     69  C   UNL     1       8.480   2.507   3.454  1.00  0.00     0.173 A 
ATOM     70  F   UNL     1       9.413   2.694  -0.052  1.00  0.00    -0.203 F 
ATOM     71  C   UNL     1       9.159   4.405   1.548  1.00  0.00     0.198 A 
ATOM     72  C   UNL     1       8.512   3.857   3.793  1.00  0.00     0.198 A 
ATOM     73  F   UNL     1       8.162   1.610   4.399  1.00  0.00    -0.203 F 
ATOM     74  F   UNL     1       9.523   5.314   0.634  1.00  0.00    -0.200 F 
ATOM     75  C   UNL     1       8.858   4.805   2.842  1.00  0.00     0.200 A 
ATOM     76  F   UNL     1       8.212   4.240   5.042  1.00  0.00    -0.200 F 
ATOM     77  F   UNL     1       8.911   6.102   3.174  1.00  0.00    -0.200 F 
ENDBRANCH  43  67
BRANCH  55  78
ATOM     78  C   UNL     1      13.699  -2.558   0.511  1.00  0.00     0.064 A 
ATOM     79  C   UNL     1      14.532  -2.455   1.634  1.00  0.00     0.173 A 
ATOM     80  C   UNL     1      14.300  -2.597  -0.756  1.00  0.00     0.173 A 
ATOM     81  F   UNL     1      14.003  -2.398   2.865  1.00  0.00    -0.203 F 
ATOM     82  C   UNL     1      15.915  -2.374   1.491  1.00  0.00     0.198 A 
ATOM     83  C   UNL     1      15.684  -2.541  -0.893  1.00  0.00     0.198 A 
ATOM     84  F   UNL     1      13.544  -2.700  -1.860  1.00  0.00    -0.203 F 
ATOM     85  F   UNL     1      16.692  -2.236   2.575  1.00  0.00    -0.200 F 
ATOM     86  C   UNL     1      16.489  -2.425   0.229  1.00  0.00     0.200 A 
ATOM     87  F   UNL     1      16.238  -2.599  -2.112  1.00  0.00    -0.200 F 
ATOM     88  F   UNL     1      17.821  -2.353   0.095  1.00  0.00    -0.200 F 
ENDBRANCH  55  78
ENDBRANCH  29  30
ENDBRANCH  22  24
ENDBRANCH  21  22
ENDBRANCH   1  21
TORSDOF 13
