REMARK SMILES O=C(OCCOC(=O)[C@H]1Cc2ccc(Cl)cc2C[N@@H+]1Cc1ccccc1Cl)c1ccc(-c2c3nc(c(-c4c(F)c(F)c(F)c(F)c4F)c4ccc([nH]4)c(-c4c(F)c(F)c(F)c(F)c4F)c4nc(c(-c5c(F)c(F)c(F)c(F)c5F)c5ccc2[nH]5)C=C4)C=C3)cc1
REMARK SMILES IDX 4 1 3 2 2 3 1 4 28 5 29 6 90 7 30 8 89 9 31 10 32 11 33 12
REMARK SMILES IDX 83 13 34 14 88 15 82 16 84 17 35 18 87 19 81 20 80 21 36 23
REMARK SMILES IDX 68 24 48 25 67 26 49 27 52 28 66 29 85 30 50 31 51 32 65 34
REMARK SMILES IDX 86 35 53 36 37 37 38 38 46 39 39 40 40 41 44 42 47 43 41 44
REMARK SMILES IDX 42 45 45 46 43 47 69 48 70 49 78 50 71 51 72 52 76 53 79 54
REMARK SMILES IDX 73 55 74 56 77 57 75 58 54 59 55 60 63 61 56 62 57 63 61 64
REMARK SMILES IDX 64 65 58 66 59 67 62 68 60 69 5 70 6 71 7 72 8 73 9 74 10 75
REMARK SMILES IDX 19 76 11 77 18 78 12 80 17 81 13 82 16 83 14 84 15 85 20 86
REMARK SMILES IDX 21 87 22 88 26 89 23 90 25 91 27 92 24 93
REMARK H PARENT 84 22 52 33 19 79
REMARK Flexibility Score: inf
ROOT
ATOM      1  C   UNL     1       4.261   0.534  -1.448  1.00  0.00     0.275 C 
ENDROOT
BRANCH   1   2
ATOM      2  O   UNL     1       3.504  -0.643  -1.155  1.00  0.00    -0.458 OA
BRANCH   2   3
ATOM      3  C   UNL     1       3.609  -1.477  -0.100  1.00  0.00     0.338 C 
ATOM      4  O   UNL     1       2.961  -2.525  -0.118  1.00  0.00    -0.246 OA
BRANCH   3   5
ATOM      5  C   UNL     1       4.333  -1.128   1.167  1.00  0.00     0.060 A 
ATOM      6  C   UNL     1       3.825  -1.745   2.311  1.00  0.00     0.016 A 
ATOM      7  C   UNL     1       5.388  -0.225   1.347  1.00  0.00     0.016 A 
ATOM      8  C   UNL     1       4.199  -1.303   3.577  1.00  0.00     0.010 A 
ATOM      9  C   UNL     1       5.812   0.171   2.631  1.00  0.00     0.010 A 
ATOM     10  C   UNL     1       5.177  -0.313   3.771  1.00  0.00    -0.014 A 
BRANCH  10  11
ATOM     11  C   UNL     1       5.527   0.113   5.161  1.00  0.00     0.031 A 
ATOM     12  C   UNL     1       5.468   1.548   5.635  1.00  0.00     0.074 A 
ATOM     13  C   UNL     1       5.818  -0.854   6.055  1.00  0.00     0.049 A 
ATOM     14  N   UNL     1       5.598   2.018   6.856  1.00  0.00    -0.248 NA
ATOM     15  C   UNL     1       5.229   2.598   4.635  1.00  0.00     0.031 C 
ATOM     16  C   UNL     1       5.933  -2.278   5.733  1.00  0.00     0.029 A 
ATOM     17  N   UNL     1       6.033  -0.805   7.409  1.00  0.00    -0.354 N 
ATOM     18  C   UNL     1       5.394   3.391   6.774  1.00  0.00     0.074 A 
ATOM     19  C   UNL     1       5.200   3.700   5.377  1.00  0.00     0.031 C 
ATOM     20  C   UNL     1       6.092  -2.974   6.860  1.00  0.00     0.029 A 
ATOM     21  C   UNL     1       6.256  -2.039   7.965  1.00  0.00     0.049 A 
ATOM     22  H   UNL     1       6.028   0.031   7.928  1.00  0.00     0.167 HD
ATOM     23  C   UNL     1       5.352   4.303   7.776  1.00  0.00     0.037 A 
ATOM     24  C   UNL     1       6.630  -2.398   9.206  1.00  0.00     0.037 A 
ATOM     25  C   UNL     1       5.651   4.011   9.156  1.00  0.00     0.049 A 
ATOM     26  C   UNL     1       6.827  -1.337  10.238  1.00  0.00     0.074 A 
ATOM     27  C   UNL     1       5.668   4.876  10.238  1.00  0.00     0.029 A 
ATOM     28  N   UNL     1       6.040   2.769   9.634  1.00  0.00    -0.354 N 
ATOM     29  N   UNL     1       6.572  -0.056  10.153  1.00  0.00    -0.248 NA
ATOM     30  C   UNL     1       7.398  -1.760  11.520  1.00  0.00     0.031 C 
ATOM     31  C   UNL     1       6.169   4.181  11.345  1.00  0.00     0.029 A 
ATOM     32  C   UNL     1       6.394   2.867  10.971  1.00  0.00     0.049 A 
ATOM     33  H   UNL     1       6.062   1.941   9.102  1.00  0.00     0.167 HD
ATOM     34  C   UNL     1       6.957   0.487  11.367  1.00  0.00     0.074 A 
ATOM     35  C   UNL     1       7.443  -0.610  12.180  1.00  0.00     0.031 C 
ATOM     36  C   UNL     1       6.914   1.782  11.763  1.00  0.00     0.037 A 
BRANCH  23  37
ATOM     37  C   UNL     1       4.998   5.727   7.445  1.00  0.00     0.064 A 
ATOM     38  C   UNL     1       3.666   6.114   7.230  1.00  0.00     0.173 A 
ATOM     39  C   UNL     1       5.973   6.735   7.497  1.00  0.00     0.173 A 
ATOM     40  F   UNL     1       2.695   5.191   7.163  1.00  0.00    -0.203 F 
ATOM     41  C   UNL     1       3.324   7.460   7.096  1.00  0.00     0.198 A 
ATOM     42  C   UNL     1       5.625   8.079   7.378  1.00  0.00     0.198 A 
ATOM     43  F   UNL     1       7.259   6.419   7.708  1.00  0.00    -0.203 F 
ATOM     44  F   UNL     1       2.045   7.807   6.894  1.00  0.00    -0.200 F 
ATOM     45  C   UNL     1       4.300   8.441   7.183  1.00  0.00     0.200 A 
ATOM     46  F   UNL     1       6.569   9.026   7.474  1.00  0.00    -0.200 F 
ATOM     47  F   UNL     1       3.965   9.735   7.082  1.00  0.00    -0.200 F 
ENDBRANCH  23  37
BRANCH  24  48
ATOM     48  C   UNL     1       6.935  -3.829   9.458  1.00  0.00     0.064 A 
ATOM     49  C   UNL     1       6.107  -4.623  10.257  1.00  0.00     0.173 A 
ATOM     50  C   UNL     1       7.994  -4.458   8.778  1.00  0.00     0.173 A 
ATOM     51  F   UNL     1       5.102  -4.064  10.945  1.00  0.00    -0.203 F 
ATOM     52  C   UNL     1       6.302  -6.001  10.335  1.00  0.00     0.198 A 
ATOM     53  C   UNL     1       8.160  -5.838   8.823  1.00  0.00     0.198 A 
ATOM     54  F   UNL     1       8.813  -3.737   7.997  1.00  0.00    -0.203 F 
ATOM     55  F   UNL     1       5.497  -6.747  11.103  1.00  0.00    -0.200 F 
ATOM     56  C   UNL     1       7.311  -6.609   9.599  1.00  0.00     0.200 A 
ATOM     57  F   UNL     1       9.112  -6.420   8.081  1.00  0.00    -0.200 F 
ATOM     58  F   UNL     1       7.458  -7.941   9.630  1.00  0.00    -0.200 F 
ENDBRANCH  24  48
BRANCH  36  59
ATOM     59  C   UNL     1       7.430   2.094  13.134  1.00  0.00     0.064 A 
ATOM     60  C   UNL     1       8.804   2.066  13.415  1.00  0.00     0.173 A 
ATOM     61  C   UNL     1       6.553   2.460  14.165  1.00  0.00     0.173 A 
ATOM     62  F   UNL     1       9.681   1.706  12.466  1.00  0.00    -0.203 F 
ATOM     63  C   UNL     1       9.279   2.374  14.687  1.00  0.00     0.198 A 
ATOM     64  C   UNL     1       7.034   2.796  15.427  1.00  0.00     0.198 A 
ATOM     65  F   UNL     1       5.231   2.508  13.944  1.00  0.00    -0.203 F 
ATOM     66  F   UNL     1      10.592   2.300  14.945  1.00  0.00    -0.200 F 
ATOM     67  C   UNL     1       8.395   2.747  15.688  1.00  0.00     0.200 A 
ATOM     68  F   UNL     1       6.180   3.170  16.390  1.00  0.00    -0.200 F 
ATOM     69  F   UNL     1       8.855   3.052  16.910  1.00  0.00    -0.200 F 
ENDBRANCH  36  59
ENDBRANCH  10  11
ENDBRANCH   3   5
ENDBRANCH   2   3
ENDBRANCH   1   2
BRANCH   1  70
ATOM     70  C   UNL     1       3.691   1.822  -0.851  1.00  0.00     0.274 C 
BRANCH  70  71
ATOM     71  O   UNL     1       3.294   1.765   0.536  1.00  0.00    -0.458 OA
BRANCH  71  72
ATOM     72  C   UNL     1       1.950   1.651   0.758  1.00  0.00     0.365 C 
ATOM     73  O   UNL     1       1.142   1.363  -0.126  1.00  0.00    -0.245 OA
BRANCH  72  74
ATOM     74  C   UNL     1       1.498   1.893   2.213  1.00  0.00     0.300 C 
ATOM     75  C   UNL     1       1.287   0.513   2.877  1.00  0.00     0.113 C 
ATOM     76  N   UNL     1       2.352   2.849   2.994  1.00  0.00    -0.315 N 
ATOM     77  C   UNL     1       1.453   0.454   4.377  1.00  0.00    -0.033 A 
ATOM     78  C   UNL     1       1.832   2.927   4.375  1.00  0.00     0.300 C 
ATOM     79  H   UNL     1       3.304   2.485   2.980  1.00  0.00     0.349 HD
ATOM     80  C   UNL     1       1.295  -0.756   5.070  1.00  0.00     0.006 A 
ATOM     81  C   UNL     1       1.808   1.605   5.087  1.00  0.00     0.011 A 
ATOM     82  C   UNL     1       1.523  -0.821   6.448  1.00  0.00     0.021 A 
ATOM     83  C   UNL     1       2.000   1.543   6.477  1.00  0.00     0.030 A 
ATOM     84  C   UNL     1       1.877   0.329   7.146  1.00  0.00     0.041 A 
ATOM     85  Cl  UNL     1       2.143   0.257   8.844  1.00  0.00    -0.084 Cl
BRANCH  76  86
ATOM     86  C   UNL     1       2.439   4.216   2.392  1.00  0.00     0.301 C 
BRANCH  86  87
ATOM     87  C   UNL     1       1.111   4.814   1.959  1.00  0.00     0.025 A 
ATOM     88  C   UNL     1       0.176   5.181   2.943  1.00  0.00     0.011 A 
ATOM     89  C   UNL     1       0.688   4.811   0.622  1.00  0.00     0.049 A 
ATOM     90  C   UNL     1      -1.181   5.256   2.640  1.00  0.00     0.001 A 
ATOM     91  C   UNL     1      -0.672   4.887   0.317  1.00  0.00     0.021 A 
ATOM     92  Cl  UNL     1       1.799   4.736  -0.694  1.00  0.00    -0.084 Cl
ATOM     93  C   UNL     1      -1.610   5.054   1.333  1.00  0.00     0.002 A 
ENDBRANCH  86  87
ENDBRANCH  76  86
ENDBRANCH  72  74
ENDBRANCH  71  72
ENDBRANCH  70  71
ENDBRANCH   1  70
TORSDOF 13
