REMARK SMILES O=C(OCCOC(=O)c1ccccc1Nc1nc(Cl)nc(Nc2ccc(N3CCOCC3=O)cc2)n1)c1ccc(-c2c3nc(c(-c4c(F)c(F)c(F)c(F)c4F)c4ccc([nH]4)c(-c4c(F)c(F)c(F)c(F)c4F)c4nc(c(-c5c(F)c(F)c(F)c(F)c5F)c5ccc2[nH]5)C=C4)C=C3)cc1
REMARK SMILES IDX 6 1 5 2 4 3 3 4 2 5 1 6 37 7 38 8 99 9 39 10 98 11 40 12
REMARK SMILES IDX 41 13 42 14 92 15 43 16 97 17 91 18 93 19 44 20 96 21 90 22
REMARK SMILES IDX 89 23 45 25 77 26 57 27 76 28 58 29 61 30 75 31 94 32 59 33
REMARK SMILES IDX 60 34 74 36 95 37 62 38 46 39 47 40 55 41 48 42 49 43 53 44
REMARK SMILES IDX 56 45 50 46 51 47 54 48 52 49 78 50 79 51 87 52 80 53 81 54
REMARK SMILES IDX 85 55 88 56 82 57 83 58 86 59 84 60 63 61 64 62 72 63 65 64
REMARK SMILES IDX 66 65 70 66 73 67 67 68 68 69 71 70 69 71 7 72 8 73 9 74
REMARK SMILES IDX 10 75 14 76 11 77 13 78 12 79 15 80 16 82 17 83 36 84 18 85
REMARK SMILES IDX 21 86 19 87 20 88 22 89 23 91 24 92 35 93 25 94 34 95 26 96
REMARK SMILES IDX 27 97 28 98 32 99 29 100 31 101 33 102 30 103
REMARK H PARENT 93 24 61 35 15 81 22 90
REMARK Flexibility Score: inf
ROOT
ATOM      1  O   UNL     1       3.634  -1.957   0.284  1.00  0.00    -0.458 OA
ENDROOT
BRANCH   1   2
ATOM      2  C   UNL     1       4.124  -1.364   1.496  1.00  0.00     0.275 C 
BRANCH   2   3
ATOM      3  C   UNL     1       4.341   0.144   1.362  1.00  0.00     0.275 C 
BRANCH   3   4
ATOM      4  O   UNL     1       3.222   0.840   0.784  1.00  0.00    -0.458 OA
BRANCH   4   5
ATOM      5  C   UNL     1       2.909   1.131  -0.497  1.00  0.00     0.338 C 
ATOM      6  O   UNL     1       1.962   1.893  -0.699  1.00  0.00    -0.246 OA
BRANCH   5   7
ATOM      7  C   UNL     1       3.569   0.537  -1.712  1.00  0.00     0.060 A 
ATOM      8  C   UNL     1       4.800  -0.123  -1.760  1.00  0.00     0.016 A 
ATOM      9  C   UNL     1       2.857   0.664  -2.925  1.00  0.00     0.016 A 
ATOM     10  C   UNL     1       5.296  -0.649  -2.959  1.00  0.00     0.010 A 
ATOM     11  C   UNL     1       3.346   0.141  -4.127  1.00  0.00     0.010 A 
ATOM     12  C   UNL     1       4.580  -0.509  -4.150  1.00  0.00    -0.014 A 
BRANCH  12  13
ATOM     13  C   UNL     1       5.184  -0.969  -5.421  1.00  0.00     0.031 A 
ATOM     14  C   UNL     1       5.924   0.013  -6.261  1.00  0.00     0.074 A 
ATOM     15  C   UNL     1       5.108  -2.261  -5.785  1.00  0.00     0.049 A 
ATOM     16  N   UNL     1       6.596  -0.191  -7.361  1.00  0.00    -0.248 NA
ATOM     17  C   UNL     1       5.906   1.410  -5.804  1.00  0.00     0.031 C 
ATOM     18  C   UNL     1       4.417  -3.269  -5.005  1.00  0.00     0.029 A 
ATOM     19  N   UNL     1       5.608  -2.959  -6.851  1.00  0.00    -0.354 N 
ATOM     20  C   UNL     1       7.072   1.053  -7.737  1.00  0.00     0.074 A 
ATOM     21  C   UNL     1       6.604   2.008  -6.757  1.00  0.00     0.031 C 
ATOM     22  C   UNL     1       4.548  -4.468  -5.589  1.00  0.00     0.029 A 
ATOM     23  C   UNL     1       5.338  -4.309  -6.799  1.00  0.00     0.049 A 
ATOM     24  H   UNL     1       6.111  -2.537  -7.585  1.00  0.00     0.167 HD
ATOM     25  C   UNL     1       7.825   1.358  -8.818  1.00  0.00     0.037 A 
ATOM     26  C   UNL     1       5.708  -5.305  -7.626  1.00  0.00     0.037 A 
ATOM     27  C   UNL     1       8.248   0.389  -9.793  1.00  0.00     0.049 A 
ATOM     28  C   UNL     1       6.549  -4.932  -8.817  1.00  0.00     0.074 A 
ATOM     29  C   UNL     1       8.977   0.586 -10.949  1.00  0.00     0.029 A 
ATOM     30  N   UNL     1       7.961  -0.971  -9.724  1.00  0.00    -0.354 N 
ATOM     31  N   UNL     1       7.028  -3.756  -9.149  1.00  0.00    -0.248 NA
ATOM     32  C   UNL     1       6.898  -6.008  -9.753  1.00  0.00     0.031 C 
ATOM     33  C   UNL     1       9.088  -0.644 -11.607  1.00  0.00     0.029 A 
ATOM     34  C   UNL     1       8.474  -1.620 -10.835  1.00  0.00     0.049 A 
ATOM     35  H   UNL     1       7.466  -1.407  -8.994  1.00  0.00     0.167 HD
ATOM     36  C   UNL     1       7.737  -3.947 -10.322  1.00  0.00     0.074 A 
ATOM     37  C   UNL     1       7.664  -5.364 -10.623  1.00  0.00     0.031 C 
ATOM     38  C   UNL     1       8.374  -3.035 -11.097  1.00  0.00     0.037 A 
BRANCH  25  39
ATOM     39  C   UNL     1       8.151   2.806  -9.018  1.00  0.00     0.064 A 
ATOM     40  C   UNL     1       9.050   3.485  -8.182  1.00  0.00     0.173 A 
ATOM     41  C   UNL     1       7.506   3.539 -10.024  1.00  0.00     0.173 A 
ATOM     42  F   UNL     1       9.667   2.836  -7.183  1.00  0.00    -0.203 F 
ATOM     43  C   UNL     1       9.262   4.855  -8.323  1.00  0.00     0.198 A 
ATOM     44  C   UNL     1       7.741   4.902 -10.180  1.00  0.00     0.198 A 
ATOM     45  F   UNL     1       6.629   2.938 -10.842  1.00  0.00    -0.203 F 
ATOM     46  F   UNL     1      10.070   5.498  -7.468  1.00  0.00    -0.200 F 
ATOM     47  C   UNL     1       8.609   5.561  -9.323  1.00  0.00     0.200 A 
ATOM     48  F   UNL     1       7.110   5.582 -11.147  1.00  0.00    -0.200 F 
ATOM     49  F   UNL     1       8.802   6.881  -9.448  1.00  0.00    -0.200 F 
ENDBRANCH  25  39
BRANCH  26  50
ATOM     50  C   UNL     1       5.323  -6.720  -7.350  1.00  0.00     0.064 A 
ATOM     51  C   UNL     1       6.297  -7.704  -7.120  1.00  0.00     0.173 A 
ATOM     52  C   UNL     1       3.981  -7.133  -7.337  1.00  0.00     0.173 A 
ATOM     53  F   UNL     1       7.597  -7.372  -7.132  1.00  0.00    -0.203 F 
ATOM     54  C   UNL     1       5.950  -9.043  -6.943  1.00  0.00     0.198 A 
ATOM     55  C   UNL     1       3.632  -8.465  -7.110  1.00  0.00     0.198 A 
ATOM     56  F   UNL     1       2.999  -6.244  -7.545  1.00  0.00    -0.203 F 
ATOM     57  F   UNL     1       6.910  -9.972  -6.829  1.00  0.00    -0.200 F 
ATOM     58  C   UNL     1       4.618  -9.423  -6.936  1.00  0.00     0.200 A 
ATOM     59  F   UNL     1       2.341  -8.823  -7.084  1.00  0.00    -0.200 F 
ATOM     60  F   UNL     1       4.281 -10.713  -6.799  1.00  0.00    -0.200 F 
ENDBRANCH  26  50
BRANCH  38  61
ATOM     61  C   UNL     1       9.026  -3.550 -12.345  1.00  0.00     0.064 A 
ATOM     62  C   UNL     1       8.262  -3.959 -13.448  1.00  0.00     0.173 A 
ATOM     63  C   UNL     1      10.423  -3.587 -12.456  1.00  0.00     0.173 A 
ATOM     64  F   UNL     1       6.922  -3.957 -13.380  1.00  0.00    -0.203 F 
ATOM     65  C   UNL     1       8.875  -4.405 -14.613  1.00  0.00     0.198 A 
ATOM     66  C   UNL     1      11.032  -4.006 -13.634  1.00  0.00     0.198 A 
ATOM     67  F   UNL     1      11.194  -3.201 -11.429  1.00  0.00    -0.203 F 
ATOM     68  F   UNL     1       8.127  -4.832 -15.640  1.00  0.00    -0.200 F 
ATOM     69  C   UNL     1      10.259  -4.419 -14.709  1.00  0.00     0.200 A 
ATOM     70  F   UNL     1      12.369  -4.006 -13.731  1.00  0.00    -0.200 F 
ATOM     71  F   UNL     1      10.848  -4.838 -15.837  1.00  0.00    -0.200 F 
ENDBRANCH  38  61
ENDBRANCH  12  13
ENDBRANCH   5   7
ENDBRANCH   4   5
ENDBRANCH   3   4
ENDBRANCH   2   3
ENDBRANCH   1   2
BRANCH   1  72
ATOM     72  C   UNL     1       2.277  -2.076   0.219  1.00  0.00     0.340 C 
ATOM     73  O   UNL     1       1.483  -1.758   1.080  1.00  0.00    -0.246 OA
BRANCH  72  74
ATOM     74  C   UNL     1       1.868  -2.561  -1.119  1.00  0.00     0.083 A 
ATOM     75  C   UNL     1       0.764  -1.916  -1.703  1.00  0.00     0.018 A 
ATOM     76  C   UNL     1       2.529  -3.610  -1.786  1.00  0.00     0.055 A 
ATOM     77  C   UNL     1       0.292  -2.323  -2.947  1.00  0.00     0.001 A 
ATOM     78  C   UNL     1       1.925  -4.108  -2.953  1.00  0.00     0.027 A 
ATOM     79  C   UNL     1       0.852  -3.440  -3.556  1.00  0.00     0.002 A 
BRANCH  76  80
ATOM     80  N   UNL     1       3.765  -4.107  -1.312  1.00  0.00    -0.323 N 
ATOM     81  H   UNL     1       4.059  -3.744  -0.445  1.00  0.00     0.170 HD
BRANCH  80  82
ATOM     82  C   UNL     1       4.625  -5.035  -1.891  1.00  0.00     0.233 A 
ATOM     83  N   UNL     1       5.821  -4.600  -2.250  1.00  0.00    -0.182 NA
ATOM     84  N   UNL     1       4.216  -6.286  -2.049  1.00  0.00    -0.176 NA
ATOM     85  C   UNL     1       6.545  -5.512  -2.881  1.00  0.00     0.228 A 
ATOM     86  C   UNL     1       5.080  -7.142  -2.582  1.00  0.00     0.233 A 
ATOM     87  Cl  UNL     1       7.999  -4.960  -3.588  1.00  0.00    -0.041 Cl
ATOM     88  N   UNL     1       6.248  -6.785  -3.085  1.00  0.00    -0.182 NA
BRANCH  86  89
ATOM     89  N   UNL     1       4.623  -8.451  -2.630  1.00  0.00    -0.324 N 
ATOM     90  H   UNL     1       3.706  -8.551  -2.285  1.00  0.00     0.170 HD
BRANCH  89  91
ATOM     91  C   UNL     1       5.178  -9.656  -3.058  1.00  0.00     0.041 A 
ATOM     92  C   UNL     1       4.298 -10.703  -3.364  1.00  0.00     0.028 A 
ATOM     93  C   UNL     1       6.539  -9.856  -3.296  1.00  0.00     0.028 A 
ATOM     94  C   UNL     1       4.755 -11.890  -3.938  1.00  0.00     0.028 A 
ATOM     95  C   UNL     1       7.008 -11.066  -3.830  1.00  0.00     0.028 A 
ATOM     96  C   UNL     1       6.114 -12.077  -4.193  1.00  0.00     0.044 A 
BRANCH  96  97
ATOM     97  N   UNL     1       6.553 -13.242  -4.884  1.00  0.00    -0.308 N 
ATOM     98  C   UNL     1       5.896 -13.525  -6.168  1.00  0.00     0.154 C 
ATOM     99  C   UNL     1       7.752 -13.882  -4.552  1.00  0.00     0.253 C 
ATOM    100  C   UNL     1       6.155 -14.935  -6.678  1.00  0.00     0.183 C 
ATOM    101  C   UNL     1       8.114 -15.093  -5.431  1.00  0.00     0.260 C 
ATOM    102  O   UNL     1       8.440 -13.613  -3.565  1.00  0.00    -0.272 OA
ATOM    103  O   UNL     1       7.560 -15.163  -6.736  1.00  0.00    -0.370 OA
ENDBRANCH  96  97
ENDBRANCH  89  91
ENDBRANCH  86  89
ENDBRANCH  80  82
ENDBRANCH  76  80
ENDBRANCH  72  74
ENDBRANCH   1  72
TORSDOF 16
