REMARK SMILES O=C(OCCOC(=O)[C@@H]1CN(c2nc(-c3ccccc3)no2)CC[NH2+]1)c1ccc(-c2c3nc(c(-c4c(F)c(F)c(F)c(F)c4F)c4ccc([nH]4)c(-c4c(F)c(F)c(F)c(F)c4F)c4nc(c(-c5c(F)c(F)c(F)c(F)c5F)c5ccc2[nH]5)C=C4)C=C3)cc1
REMARK SMILES IDX 4 1 3 2 2 3 1 4 26 5 27 6 88 7 28 8 87 9 29 10 30 11 31 12
REMARK SMILES IDX 81 13 32 14 86 15 80 16 82 17 33 18 85 19 79 20 78 21 34 23
REMARK SMILES IDX 66 24 46 25 65 26 47 27 50 28 64 29 83 30 48 31 49 32 63 34
REMARK SMILES IDX 84 35 51 36 35 37 36 38 44 39 37 40 38 41 42 42 45 43 39 44
REMARK SMILES IDX 40 45 43 46 41 47 67 48 68 49 76 50 69 51 70 52 74 53 77 54
REMARK SMILES IDX 71 55 72 56 75 57 73 58 52 59 53 60 61 61 54 62 55 63 59 64
REMARK SMILES IDX 62 65 56 66 57 67 60 68 58 69 5 70 6 71 7 72 8 73 9 74 10 75
REMARK SMILES IDX 25 76 11 77 24 78 23 81 12 82 13 83 22 84 14 85 21 86 15 87
REMARK SMILES IDX 16 88 20 89 17 90 19 91 18 92
REMARK H PARENT 82 22 50 33 25 79 25 80
REMARK Flexibility Score: inf
ROOT
ATOM      1  C   UNL     1       4.164  -1.440  -0.697  1.00  0.00     0.275 C 
ENDROOT
BRANCH   1   2
ATOM      2  O   UNL     1       3.049  -1.236   0.191  1.00  0.00    -0.458 OA
BRANCH   2   3
ATOM      3  C   UNL     1       2.844  -0.280   1.127  1.00  0.00     0.338 C 
ATOM      4  O   UNL     1       1.880  -0.398   1.883  1.00  0.00    -0.246 OA
BRANCH   3   5
ATOM      5  C   UNL     1       3.634   0.990   1.215  1.00  0.00     0.060 A 
ATOM      6  C   UNL     1       4.962   1.165   0.816  1.00  0.00     0.016 A 
ATOM      7  C   UNL     1       2.952   2.108   1.734  1.00  0.00     0.016 A 
ATOM      8  C   UNL     1       5.564   2.426   0.830  1.00  0.00     0.010 A 
ATOM      9  C   UNL     1       3.552   3.369   1.761  1.00  0.00     0.010 A 
ATOM     10  C   UNL     1       4.862   3.536   1.293  1.00  0.00    -0.014 A 
BRANCH  10  11
ATOM     11  C   UNL     1       5.556   4.830   1.459  1.00  0.00     0.031 A 
ATOM     12  C   UNL     1       6.000   5.205   2.836  1.00  0.00     0.074 A 
ATOM     13  C   UNL     1       5.815   5.634   0.411  1.00  0.00     0.049 A 
ATOM     14  N   UNL     1       6.654   6.263   3.233  1.00  0.00    -0.248 NA
ATOM     15  C   UNL     1       5.705   4.237   3.905  1.00  0.00     0.031 C 
ATOM     16  C   UNL     1       5.547   5.317  -0.987  1.00  0.00     0.029 A 
ATOM     17  N   UNL     1       6.328   6.905   0.365  1.00  0.00    -0.354 N 
ATOM     18  C   UNL     1       6.910   6.051   4.578  1.00  0.00     0.074 A 
ATOM     19  C   UNL     1       6.249   4.824   4.957  1.00  0.00     0.031 C 
ATOM     20  C   UNL     1       5.772   6.406  -1.742  1.00  0.00     0.029 A 
ATOM     21  C   UNL     1       6.252   7.479  -0.881  1.00  0.00     0.049 A 
ATOM     22  H   UNL     1       6.713   7.361   1.148  1.00  0.00     0.167 HD
ATOM     23  C   UNL     1       7.681   6.791   5.405  1.00  0.00     0.037 A 
ATOM     24  C   UNL     1       6.537   8.735  -1.273  1.00  0.00     0.037 A 
ATOM     25  C   UNL     1       8.283   8.037   5.021  1.00  0.00     0.049 A 
ATOM     26  C   UNL     1       7.196   9.650  -0.279  1.00  0.00     0.074 A 
ATOM     27  C   UNL     1       9.075   8.885   5.769  1.00  0.00     0.029 A 
ATOM     28  N   UNL     1       8.125   8.627   3.772  1.00  0.00    -0.354 N 
ATOM     29  N   UNL     1       7.507   9.416   0.974  1.00  0.00    -0.248 NA
ATOM     30  C   UNL     1       7.607  10.973  -0.764  1.00  0.00     0.031 C 
ATOM     31  C   UNL     1       9.340  10.022   4.995  1.00  0.00     0.029 A 
ATOM     32  C   UNL     1       8.768   9.852   3.742  1.00  0.00     0.049 A 
ATOM     33  H   UNL     1       7.628   8.232   3.020  1.00  0.00     0.167 HD
ATOM     34  C   UNL     1       8.217  10.525   1.406  1.00  0.00     0.074 A 
ATOM     35  C   UNL     1       8.265  11.445   0.285  1.00  0.00     0.031 C 
ATOM     36  C   UNL     1       8.805  10.745   2.608  1.00  0.00     0.037 A 
BRANCH  23  37
ATOM     37  C   UNL     1       7.871   6.256   6.793  1.00  0.00     0.064 A 
ATOM     38  C   UNL     1       8.600   5.077   7.029  1.00  0.00     0.173 A 
ATOM     39  C   UNL     1       7.259   6.879   7.887  1.00  0.00     0.173 A 
ATOM     40  F   UNL     1       9.184   4.428   6.009  1.00  0.00    -0.203 F 
ATOM     41  C   UNL     1       8.662   4.515   8.301  1.00  0.00     0.198 A 
ATOM     42  C   UNL     1       7.350   6.330   9.164  1.00  0.00     0.198 A 
ATOM     43  F   UNL     1       6.547   8.002   7.715  1.00  0.00    -0.203 F 
ATOM     44  F   UNL     1       9.292   3.347   8.486  1.00  0.00    -0.200 F 
ATOM     45  C   UNL     1       8.037   5.143   9.367  1.00  0.00     0.200 A 
ATOM     46  F   UNL     1       6.748   6.938  10.195  1.00  0.00    -0.200 F 
ATOM     47  F   UNL     1       8.080   4.591  10.588  1.00  0.00    -0.200 F 
ENDBRANCH  23  37
BRANCH  24  48
ATOM     48  C   UNL     1       6.256   9.169  -2.666  1.00  0.00     0.064 A 
ATOM     49  C   UNL     1       7.288   9.362  -3.592  1.00  0.00     0.173 A 
ATOM     50  C   UNL     1       4.941   9.399  -3.100  1.00  0.00     0.173 A 
ATOM     51  F   UNL     1       8.562   9.166  -3.222  1.00  0.00    -0.203 F 
ATOM     52  C   UNL     1       7.021   9.788  -4.893  1.00  0.00     0.198 A 
ATOM     53  C   UNL     1       4.673   9.810  -4.405  1.00  0.00     0.198 A 
ATOM     54  F   UNL     1       3.913   9.220  -2.257  1.00  0.00    -0.203 F 
ATOM     55  F   UNL     1       8.031   9.994  -5.748  1.00  0.00    -0.200 F 
ATOM     56  C   UNL     1       5.714  10.010  -5.299  1.00  0.00     0.200 A 
ATOM     57  F   UNL     1       3.407  10.013  -4.797  1.00  0.00    -0.200 F 
ATOM     58  F   UNL     1       5.458  10.418  -6.550  1.00  0.00    -0.200 F 
ENDBRANCH  24  48
BRANCH  36  59
ATOM     59  C   UNL     1       9.604  12.006   2.756  1.00  0.00     0.064 A 
ATOM     60  C   UNL     1       8.995  13.266   2.828  1.00  0.00     0.173 A 
ATOM     61  C   UNL     1      11.001  11.940   2.877  1.00  0.00     0.173 A 
ATOM     62  F   UNL     1       7.665  13.381   2.698  1.00  0.00    -0.203 F 
ATOM     63  C   UNL     1       9.758  14.418   2.994  1.00  0.00     0.198 A 
ATOM     64  C   UNL     1      11.757  13.089   3.079  1.00  0.00     0.198 A 
ATOM     65  F   UNL     1      11.631  10.756   2.818  1.00  0.00    -0.203 F 
ATOM     66  F   UNL     1       9.161  15.617   3.010  1.00  0.00    -0.200 F 
ATOM     67  C   UNL     1      11.136  14.328   3.130  1.00  0.00     0.200 A 
ATOM     68  F   UNL     1      13.086  12.998   3.227  1.00  0.00    -0.200 F 
ATOM     69  F   UNL     1      11.867  15.437   3.304  1.00  0.00    -0.200 F 
ENDBRANCH  36  59
ENDBRANCH  10  11
ENDBRANCH   3   5
ENDBRANCH   2   3
ENDBRANCH   1   2
BRANCH   1  70
ATOM     70  C   UNL     1       4.106  -0.617  -1.986  1.00  0.00     0.274 C 
BRANCH  70  71
ATOM     71  O   UNL     1       3.598   0.708  -1.766  1.00  0.00    -0.458 OA
BRANCH  71  72
ATOM     72  C   UNL     1       2.303   0.936  -2.138  1.00  0.00     0.366 C 
ATOM     73  O   UNL     1       1.618   0.130  -2.759  1.00  0.00    -0.245 OA
BRANCH  72  74
ATOM     74  C   UNL     1       1.781   2.290  -1.623  1.00  0.00     0.313 C 
ATOM     75  C   UNL     1       0.474   2.647  -2.371  1.00  0.00     0.199 C 
ATOM     76  N   UNL     1       2.829   3.357  -1.734  1.00  0.00    -0.332 N 
ATOM     77  N   UNL     1       0.034   4.020  -2.097  1.00  0.00    -0.312 N 
ATOM     78  C   UNL     1       2.245   4.641  -1.291  1.00  0.00     0.283 C 
ATOM     79  H   UNL     1       3.138   3.436  -2.703  1.00  0.00     0.347 HD
ATOM     80  H   UNL     1       3.631   3.119  -1.151  1.00  0.00     0.347 HD
ATOM     81  C   UNL     1       1.050   5.065  -2.157  1.00  0.00     0.183 C 
BRANCH  77  82
ATOM     82  C   UNL     1      -1.080   4.266  -1.380  1.00  0.00     0.324 A 
ATOM     83  N   UNL     1      -1.679   3.549  -0.460  1.00  0.00    -0.171 NA
ATOM     84  O   UNL     1      -1.694   5.469  -1.602  1.00  0.00    -0.315 OA
ATOM     85  C   UNL     1      -2.701   4.383  -0.064  1.00  0.00     0.204 A 
ATOM     86  N   UNL     1      -2.774   5.539  -0.737  1.00  0.00    -0.055 NA
BRANCH  85  87
ATOM     87  C   UNL     1      -3.608   4.081   1.020  1.00  0.00     0.023 A 
ATOM     88  C   UNL     1      -4.849   3.495   0.750  1.00  0.00     0.012 A 
ATOM     89  C   UNL     1      -3.293   4.473   2.328  1.00  0.00     0.012 A 
ATOM     90  C   UNL     1      -5.775   3.317   1.778  1.00  0.00     0.001 A 
ATOM     91  C   UNL     1      -4.223   4.295   3.353  1.00  0.00     0.001 A 
ATOM     92  C   UNL     1      -5.464   3.723   3.077  1.00  0.00     0.000 A 
ENDBRANCH  85  87
ENDBRANCH  77  82
ENDBRANCH  72  74
ENDBRANCH  71  72
ENDBRANCH  70  71
ENDBRANCH   1  70
TORSDOF 13
