REMARK SMILES O=C(C[C@H]1C[C@H]2CC[C@@H](C1)N2C(=O)NCc1ncn[nH]1)OCCOC(=O)c1ccc(-c2c3nc(c(-c4c(F)c(F)c(F)c(F)c4F)c4ccc([nH]4)c(-c4c(F)c(F)c(F)c(F)c4F)c4nc(c(-c5c(F)c(F)c(F)c(F)c5F)c5ccc2[nH]5)C=C4)C=C3)cc1
REMARK SMILES IDX 22 1 21 2 2 3 1 4 3 5 4 6 5 7 10 8 6 9 9 10 7 11 11 12 8 13
REMARK SMILES IDX 12 14 13 15 14 16 15 18 16 19 17 20 20 21 18 22 19 23 23 25
REMARK SMILES IDX 24 26 25 27 26 28 27 29 28 30 89 31 29 32 88 33 30 34 31 35
REMARK SMILES IDX 32 36 82 37 33 38 87 39 81 40 83 41 34 42 86 43 80 44 79 45
REMARK SMILES IDX 35 47 67 48 47 49 66 50 48 51 51 52 65 53 84 54 49 55 50 56
REMARK SMILES IDX 64 58 85 59 52 60 36 61 37 62 45 63 38 64 39 65 43 66 46 67
REMARK SMILES IDX 40 68 41 69 44 70 42 71 68 72 69 73 77 74 70 75 71 76 75 77
REMARK SMILES IDX 78 78 72 79 73 80 76 81 74 82 53 83 54 84 62 85 55 86 56 87
REMARK SMILES IDX 60 88 63 89 57 90 58 91 61 92 59 93
REMARK H PARENT 14 17 20 24 83 46 51 57
REMARK Flexibility Score: inf
ROOT
ATOM      1  C   UNL     1       4.906  -0.429  -1.396  1.00  0.00     0.274 C 
ENDROOT
BRANCH   1   2
ATOM      2  O   UNL     1       3.644  -0.970  -0.960  1.00  0.00    -0.462 OA
BRANCH   2   3
ATOM      3  C   UNL     1       2.882  -0.468   0.032  1.00  0.00     0.306 C 
ATOM      4  O   UNL     1       1.738  -0.886   0.203  1.00  0.00    -0.252 OA
BRANCH   3   5
ATOM      5  C   UNL     1       3.440   0.617   0.924  1.00  0.00     0.126 C 
BRANCH   5   6
ATOM      6  C   UNL     1       3.886   0.191   2.332  1.00  0.00     0.004 C 
ATOM      7  C   UNL     1       4.208   1.454   3.184  1.00  0.00     0.029 C 
ATOM      8  C   UNL     1       2.934  -0.767   3.088  1.00  0.00     0.029 C 
ATOM      9  C   UNL     1       3.039   1.935   4.072  1.00  0.00     0.087 C 
ATOM     10  C   UNL     1       1.881  -0.060   3.957  1.00  0.00     0.087 C 
ATOM     11  C   UNL     1       1.766   2.264   3.297  1.00  0.00     0.027 C 
ATOM     12  N   UNL     1       2.603   0.808   4.881  1.00  0.00    -0.319 N 
ATOM     13  C   UNL     1       1.025   0.933   3.163  1.00  0.00     0.027 C 
BRANCH  12  14
ATOM     14  C   UNL     1       2.956   0.738   6.182  1.00  0.00     0.318 C 
ATOM     15  O   UNL     1       3.647   1.614   6.710  1.00  0.00    -0.249 OA
ATOM     16  N   UNL     1       2.616  -0.273   6.991  1.00  0.00    -0.331 N 
ATOM     17  H   UNL     1       2.985  -0.160   7.897  1.00  0.00     0.165 HD
BRANCH  16  18
ATOM     18  C   UNL     1       1.843  -1.488   6.867  1.00  0.00     0.194 C 
BRANCH  18  19
ATOM     19  C   UNL     1       2.704  -2.638   6.492  1.00  0.00     0.143 A 
ATOM     20  N   UNL     1       2.342  -3.897   6.344  1.00  0.00    -0.218 NA
ATOM     21  N   UNL     1       4.056  -2.550   6.305  1.00  0.00    -0.262 N 
ATOM     22  C   UNL     1       3.520  -4.536   6.080  1.00  0.00     0.246 A 
ATOM     23  N   UNL     1       4.596  -3.749   6.040  1.00  0.00    -0.162 NA
ATOM     24  H   UNL     1       4.568  -1.711   6.358  1.00  0.00     0.192 HD
ENDBRANCH  18  19
ENDBRANCH  16  18
ENDBRANCH  12  14
ENDBRANCH   5   6
ENDBRANCH   3   5
ENDBRANCH   2   3
ENDBRANCH   1   2
BRANCH   1  25
ATOM     25  C   UNL     1       4.717   0.693  -2.424  1.00  0.00     0.275 C 
BRANCH  25  26
ATOM     26  O   UNL     1       4.200   1.893  -1.808  1.00  0.00    -0.458 OA
BRANCH  26  27
ATOM     27  C   UNL     1       2.887   2.162  -2.022  1.00  0.00     0.338 C 
ATOM     28  O   UNL     1       2.124   1.521  -2.723  1.00  0.00    -0.246 OA
BRANCH  27  29
ATOM     29  C   UNL     1       2.442   3.290  -1.159  1.00  0.00     0.060 A 
ATOM     30  C   UNL     1       1.116   3.288  -0.708  1.00  0.00     0.016 A 
ATOM     31  C   UNL     1       3.294   4.337  -0.784  1.00  0.00     0.016 A 
ATOM     32  C   UNL     1       0.638   4.332   0.092  1.00  0.00     0.010 A 
ATOM     33  C   UNL     1       2.812   5.389   0.010  1.00  0.00     0.010 A 
ATOM     34  C   UNL     1       1.475   5.405   0.439  1.00  0.00    -0.014 A 
BRANCH  34  35
ATOM     35  C   UNL     1       0.893   6.580   1.143  1.00  0.00     0.031 A 
ATOM     36  C   UNL     1       0.289   7.690   0.335  1.00  0.00     0.074 A 
ATOM     37  C   UNL     1       0.848   6.647   2.486  1.00  0.00     0.049 A 
ATOM     38  N   UNL     1      -0.360   8.751   0.741  1.00  0.00    -0.248 NA
ATOM     39  C   UNL     1       0.465   7.607  -1.122  1.00  0.00     0.031 C 
ATOM     40  C   UNL     1       1.464   5.685   3.386  1.00  0.00     0.029 A 
ATOM     41  N   UNL     1       0.239   7.545   3.329  1.00  0.00    -0.354 N 
ATOM     42  C   UNL     1      -0.667   9.465  -0.407  1.00  0.00     0.074 A 
ATOM     43  C   UNL     1      -0.117   8.727  -1.525  1.00  0.00     0.031 C 
ATOM     44  C   UNL     1       1.131   5.981   4.653  1.00  0.00     0.029 A 
ATOM     45  C   UNL     1       0.325   7.200   4.659  1.00  0.00     0.049 A 
ATOM     46  H   UNL     1      -0.215   8.359   3.012  1.00  0.00     0.167 HD
ATOM     47  C   UNL     1      -1.343  10.633  -0.518  1.00  0.00     0.037 A 
ATOM     48  C   UNL     1      -0.182   7.802   5.754  1.00  0.00     0.037 A 
ATOM     49  C   UNL     1      -1.867  11.387   0.590  1.00  0.00     0.049 A 
ATOM     50  C   UNL     1      -0.951   9.089   5.595  1.00  0.00     0.074 A 
ATOM     51  C   UNL     1      -2.549  12.592   0.569  1.00  0.00     0.029 A 
ATOM     52  N   UNL     1      -1.762  11.012   1.921  1.00  0.00    -0.354 N 
ATOM     53  N   UNL     1      -1.268   9.736   4.500  1.00  0.00    -0.248 NA
ATOM     54  C   UNL     1      -1.413   9.742   6.830  1.00  0.00     0.031 C 
ATOM     55  C   UNL     1      -2.826  12.963   1.889  1.00  0.00     0.029 A 
ATOM     56  C   UNL     1      -2.357  11.968   2.730  1.00  0.00     0.049 A 
ATOM     57  H   UNL     1      -1.329  10.189   2.244  1.00  0.00     0.167 HD
ATOM     58  C   UNL     1      -1.958  10.868   4.912  1.00  0.00     0.074 A 
ATOM     59  C   UNL     1      -2.057  10.798   6.355  1.00  0.00     0.031 C 
ATOM     60  C   UNL     1      -2.446  11.888   4.165  1.00  0.00     0.037 A 
BRANCH  47  61
ATOM     61  C   UNL     1      -1.531  11.181  -1.899  1.00  0.00     0.064 A 
ATOM     62  C   UNL     1      -2.441  10.603  -2.796  1.00  0.00     0.173 A 
ATOM     63  C   UNL     1      -0.813  12.310  -2.322  1.00  0.00     0.173 A 
ATOM     64  F   UNL     1      -3.134   9.510  -2.443  1.00  0.00    -0.203 F 
ATOM     65  C   UNL     1      -2.613  11.126  -4.074  1.00  0.00     0.198 A 
ATOM     66  C   UNL     1      -1.006  12.844  -3.592  1.00  0.00     0.198 A 
ATOM     67  F   UNL     1       0.071  12.896  -1.500  1.00  0.00    -0.203 F 
ATOM     68  F   UNL     1      -3.458  10.534  -4.930  1.00  0.00    -0.200 F 
ATOM     69  C   UNL     1      -1.902  12.249  -4.468  1.00  0.00     0.200 A 
ATOM     70  F   UNL     1      -0.323  13.934  -3.969  1.00  0.00    -0.200 F 
ATOM     71  F   UNL     1      -2.073  12.755  -5.698  1.00  0.00    -0.200 F 
ENDBRANCH  47  61
BRANCH  48  72
ATOM     72  C   UNL     1       0.026   7.220   7.109  1.00  0.00     0.064 A 
ATOM     73  C   UNL     1      -1.058   6.749   7.866  1.00  0.00     0.173 A 
ATOM     74  C   UNL     1       1.296   7.182   7.701  1.00  0.00     0.173 A 
ATOM     75  F   UNL     1      -2.299   6.795   7.359  1.00  0.00    -0.203 F 
ATOM     76  C   UNL     1      -0.882   6.291   9.171  1.00  0.00     0.198 A 
ATOM     77  C   UNL     1       1.475   6.693   8.994  1.00  0.00     0.198 A 
ATOM     78  F   UNL     1       2.366   7.629   7.027  1.00  0.00    -0.203 F 
ATOM     79  F   UNL     1      -1.945   5.913   9.894  1.00  0.00    -0.200 F 
ATOM     80  C   UNL     1       0.385   6.260   9.732  1.00  0.00     0.200 A 
ATOM     81  F   UNL     1       2.702   6.661   9.532  1.00  0.00    -0.200 F 
ATOM     82  F   UNL     1       0.551   5.831  10.991  1.00  0.00    -0.200 F 
ENDBRANCH  48  72
BRANCH  60  83
ATOM     83  C   UNL     1      -3.134  13.005   4.895  1.00  0.00     0.064 A 
ATOM     84  C   UNL     1      -2.415  13.920   5.679  1.00  0.00     0.173 A 
ATOM     85  C   UNL     1      -4.523  13.177   4.793  1.00  0.00     0.173 A 
ATOM     86  F   UNL     1      -1.087  13.791   5.821  1.00  0.00    -0.203 F 
ATOM     87  C   UNL     1      -3.066  14.947   6.359  1.00  0.00     0.198 A 
ATOM     88  C   UNL     1      -5.166  14.221   5.452  1.00  0.00     0.198 A 
ATOM     89  F   UNL     1      -5.256  12.333   4.051  1.00  0.00    -0.203 F 
ATOM     90  F   UNL     1      -2.365  15.777   7.144  1.00  0.00    -0.200 F 
ATOM     91  C   UNL     1      -4.439  15.100   6.241  1.00  0.00     0.200 A 
ATOM     92  F   UNL     1      -6.492  14.374   5.328  1.00  0.00    -0.200 F 
ATOM     93  F   UNL     1      -5.063  16.088   6.895  1.00  0.00    -0.200 F 
ENDBRANCH  60  83
ENDBRANCH  34  35
ENDBRANCH  27  29
ENDBRANCH  26  27
ENDBRANCH  25  26
ENDBRANCH   1  25
TORSDOF 15
