REMARK SMILES O=C(OCCOC(=O)c1cc(S(=O)(=O)Cc2cccc(O)c2)ccc1F)c1ccc(-c2c3nc(c(-c4c(F)c(F)c(F)c(F)c4F)c4ccc([nH]4)c(-c4c(F)c(F)c(F)c(F)c4F)c4nc(c(-c5c(F)c(F)c(F)c(F)c5F)c5ccc2[nH]5)C=C4)C=C3)cc1
REMARK SMILES IDX 5 1 4 2 3 3 2 4 1 5 27 6 28 7 89 8 29 9 88 10 30 11 31 12
REMARK SMILES IDX 32 13 82 14 33 15 87 16 81 17 83 18 34 19 86 20 80 21 79 22
REMARK SMILES IDX 35 24 67 25 47 26 66 27 48 28 51 29 65 30 84 31 49 32 50 33
REMARK SMILES IDX 64 35 85 36 52 37 36 38 37 39 45 40 38 41 39 42 43 43 46 44
REMARK SMILES IDX 40 45 41 46 44 47 42 48 68 49 69 50 77 51 70 52 71 53 75 54
REMARK SMILES IDX 78 55 72 56 73 57 76 58 74 59 53 60 54 61 62 62 55 63 56 64
REMARK SMILES IDX 60 65 63 66 57 67 58 68 61 69 59 70 6 71 7 72 8 73 9 74
REMARK SMILES IDX 10 75 25 76 11 77 24 78 26 79 23 80 12 81 13 82 14 83 15 84
REMARK SMILES IDX 16 85 17 86 22 87 18 88 20 89 19 90 21 91
REMARK H PARENT 83 23 51 34 21 92
REMARK Flexibility Score: inf
ROOT
ATOM      1  C   UNL     1       3.728   1.874   1.172  1.00  0.00     0.275 C 
ENDROOT
BRANCH   1   2
ATOM      2  C   UNL     1       3.977   1.713  -0.330  1.00  0.00     0.275 C 
BRANCH   2   3
ATOM      3  O   UNL     1       3.040   0.867  -1.015  1.00  0.00    -0.458 OA
BRANCH   3   4
ATOM      4  C   UNL     1       3.016  -0.478  -1.160  1.00  0.00     0.338 C 
ATOM      5  O   UNL     1       2.170  -0.973  -1.903  1.00  0.00    -0.246 OA
BRANCH   4   6
ATOM      6  C   UNL     1       3.874  -1.418  -0.370  1.00  0.00     0.060 A 
ATOM      7  C   UNL     1       5.134  -1.144   0.163  1.00  0.00     0.016 A 
ATOM      8  C   UNL     1       3.343  -2.700  -0.150  1.00  0.00     0.016 A 
ATOM      9  C   UNL     1       5.798  -2.075   0.969  1.00  0.00     0.010 A 
ATOM     10  C   UNL     1       3.993  -3.630   0.667  1.00  0.00     0.010 A 
ATOM     11  C   UNL     1       5.226  -3.318   1.243  1.00  0.00    -0.014 A 
BRANCH  11  12
ATOM     12  C   UNL     1       5.983  -4.311   2.040  1.00  0.00     0.031 A 
ATOM     13  C   UNL     1       6.545  -5.521   1.350  1.00  0.00     0.074 A 
ATOM     14  C   UNL     1       6.182  -4.112   3.358  1.00  0.00     0.049 A 
ATOM     15  N   UNL     1       7.249  -6.508   1.847  1.00  0.00    -0.248 NA
ATOM     16  C   UNL     1       6.276  -5.646  -0.093  1.00  0.00     0.031 C 
ATOM     17  C   UNL     1       5.666  -2.983   4.132  1.00  0.00     0.029 A 
ATOM     18  N   UNL     1       6.857  -4.864   4.288  1.00  0.00    -0.354 N 
ATOM     19  C   UNL     1       7.547  -7.330   0.769  1.00  0.00     0.074 A 
ATOM     20  C   UNL     1       6.864  -6.795  -0.385  1.00  0.00     0.031 C 
ATOM     21  C   UNL     1       6.010  -3.134   5.422  1.00  0.00     0.029 A 
ATOM     22  C   UNL     1       6.775  -4.369   5.567  1.00  0.00     0.049 A 
ATOM     23  H   UNL     1       7.354  -5.683   4.059  1.00  0.00     0.167 HD
ATOM     24  C   UNL     1       8.366  -8.405   0.738  1.00  0.00     0.037 A 
ATOM     25  C   UNL     1       7.265  -4.863   6.720  1.00  0.00     0.037 A 
ATOM     26  C   UNL     1       9.049  -8.925   1.889  1.00  0.00     0.049 A 
ATOM     27  C   UNL     1       8.097  -6.119   6.671  1.00  0.00     0.074 A 
ATOM     28  C   UNL     1       9.900 -10.011   1.970  1.00  0.00     0.029 A 
ATOM     29  N   UNL     1       8.965  -8.382   3.163  1.00  0.00    -0.354 N 
ATOM     30  N   UNL     1       8.419  -6.859   5.636  1.00  0.00    -0.248 NA
ATOM     31  C   UNL     1       8.659  -6.594   7.943  1.00  0.00     0.031 C 
ATOM     32  C   UNL     1      10.292 -10.157   3.303  1.00  0.00     0.029 A 
ATOM     33  C   UNL     1       9.720  -9.135   4.045  1.00  0.00     0.049 A 
ATOM     34  H   UNL     1       8.447  -7.581   3.404  1.00  0.00     0.167 HD
ATOM     35  C   UNL     1       9.254  -7.856   6.123  1.00  0.00     0.074 A 
ATOM     36  C   UNL     1       9.392  -7.625   7.546  1.00  0.00     0.031 C 
ATOM     37  C   UNL     1       9.855  -8.869   5.454  1.00  0.00     0.037 A 
BRANCH  24  38
ATOM     38  C   UNL     1       8.591  -9.066  -0.589  1.00  0.00     0.064 A 
ATOM     39  C   UNL     1       8.073 -10.340  -0.855  1.00  0.00     0.173 A 
ATOM     40  C   UNL     1       9.366  -8.448  -1.584  1.00  0.00     0.173 A 
ATOM     41  F   UNL     1       7.326 -10.971   0.064  1.00  0.00    -0.203 F 
ATOM     42  C   UNL     1       8.333 -10.979  -2.065  1.00  0.00     0.198 A 
ATOM     43  C   UNL     1       9.602  -9.079  -2.802  1.00  0.00     0.198 A 
ATOM     44  F   UNL     1       9.870  -7.221  -1.382  1.00  0.00    -0.203 F 
ATOM     45  F   UNL     1       7.849 -12.209  -2.288  1.00  0.00    -0.200 F 
ATOM     46  C   UNL     1       9.093 -10.347  -3.038  1.00  0.00     0.200 A 
ATOM     47  F   UNL     1      10.317  -8.456  -3.749  1.00  0.00    -0.200 F 
ATOM     48  F   UNL     1       9.335 -10.960  -4.205  1.00  0.00    -0.200 F 
ENDBRANCH  24  38
BRANCH  25  49
ATOM     49  C   UNL     1       7.019  -4.157   8.006  1.00  0.00     0.064 A 
ATOM     50  C   UNL     1       5.742  -4.120   8.586  1.00  0.00     0.173 A 
ATOM     51  C   UNL     1       8.063  -3.521   8.693  1.00  0.00     0.173 A 
ATOM     52  F   UNL     1       4.705  -4.706   7.969  1.00  0.00    -0.203 F 
ATOM     53  C   UNL     1       5.521  -3.477   9.804  1.00  0.00     0.198 A 
ATOM     54  C   UNL     1       7.846  -2.899   9.922  1.00  0.00     0.198 A 
ATOM     55  F   UNL     1       9.305  -3.542   8.190  1.00  0.00    -0.203 F 
ATOM     56  F   UNL     1       4.289  -3.447  10.329  1.00  0.00    -0.200 F 
ATOM     57  C   UNL     1       6.575  -2.876  10.475  1.00  0.00     0.200 A 
ATOM     58  F   UNL     1       8.872  -2.342  10.579  1.00  0.00    -0.200 F 
ATOM     59  F   UNL     1       6.367  -2.281  11.658  1.00  0.00    -0.200 F 
ENDBRANCH  25  49
BRANCH  37  60
ATOM     60  C   UNL     1      10.741  -9.789   6.241  1.00  0.00     0.064 A 
ATOM     61  C   UNL     1      12.129  -9.779   6.040  1.00  0.00     0.173 A 
ATOM     62  C   UNL     1      10.208 -10.732   7.130  1.00  0.00     0.173 A 
ATOM     63  F   UNL     1      12.684  -8.901   5.191  1.00  0.00    -0.203 F 
ATOM     64  C   UNL     1      12.952 -10.692   6.692  1.00  0.00     0.198 A 
ATOM     65  C   UNL     1      11.038 -11.624   7.804  1.00  0.00     0.198 A 
ATOM     66  F   UNL     1       8.887 -10.773   7.360  1.00  0.00    -0.203 F 
ATOM     67  F   UNL     1      14.271 -10.690   6.457  1.00  0.00    -0.200 F 
ATOM     68  C   UNL     1      12.406 -11.610   7.577  1.00  0.00     0.200 A 
ATOM     69  F   UNL     1      10.512 -12.495   8.676  1.00  0.00    -0.200 F 
ATOM     70  F   UNL     1      13.200 -12.483   8.211  1.00  0.00    -0.200 F 
ENDBRANCH  37  60
ENDBRANCH  11  12
ENDBRANCH   4   6
ENDBRANCH   3   4
ENDBRANCH   2   3
ENDBRANCH   1   2
BRANCH   1  71
ATOM     71  O   UNL     1       3.383   0.652   1.843  1.00  0.00    -0.458 OA
BRANCH  71  72
ATOM     72  C   UNL     1       2.051   0.436   1.998  1.00  0.00     0.341 C 
ATOM     73  O   UNL     1       1.142   1.145   1.601  1.00  0.00    -0.246 OA
BRANCH  72  74
ATOM     74  C   UNL     1       1.823  -0.862   2.649  1.00  0.00     0.097 A 
ATOM     75  C   UNL     1       1.031  -1.828   2.014  1.00  0.00     0.039 A 
ATOM     76  C   UNL     1       2.363  -1.125   3.903  1.00  0.00     0.137 A 
ATOM     77  C   UNL     1       0.821  -3.073   2.631  1.00  0.00     0.068 A 
ATOM     78  C   UNL     1       2.099  -2.335   4.542  1.00  0.00     0.041 A 
ATOM     79  F   UNL     1       3.137  -0.225   4.526  1.00  0.00    -0.206 F 
ATOM     80  C   UNL     1       1.313  -3.307   3.916  1.00  0.00     0.023 A 
BRANCH  77  81
ATOM     81  S   UNL     1      -0.055  -4.315   1.688  1.00  0.00     0.182 S 
ATOM     82  O   UNL     1      -1.404  -3.788   1.575  1.00  0.00    -0.223 OA
ATOM     83  O   UNL     1       0.735  -4.555   0.495  1.00  0.00    -0.223 OA
BRANCH  81  84
ATOM     84  C   UNL     1      -0.178  -5.827   2.608  1.00  0.00     0.177 C 
BRANCH  84  85
ATOM     85  C   UNL     1       1.016  -6.758   2.560  1.00  0.00    -0.029 A 
ATOM     86  C   UNL     1       0.786  -8.135   2.368  1.00  0.00     0.005 A 
ATOM     87  C   UNL     1       2.326  -6.367   2.851  1.00  0.00     0.051 A 
ATOM     88  C   UNL     1       1.822  -9.073   2.467  1.00  0.00     0.004 A 
ATOM     89  C   UNL     1       3.348  -7.310   2.963  1.00  0.00     0.115 A 
ATOM     90  C   UNL     1       3.114  -8.660   2.773  1.00  0.00     0.046 A 
BRANCH  89  91
ATOM     91  O   UNL     1       4.577  -6.847   3.311  1.00  0.00    -0.508 OA
ATOM     92  H   UNL     1       5.295  -7.443   3.398  1.00  0.00     0.293 HD
ENDBRANCH  89  91
ENDBRANCH  84  85
ENDBRANCH  81  84
ENDBRANCH  77  81
ENDBRANCH  72  74
ENDBRANCH  71  72
ENDBRANCH   1  71
TORSDOF 15
