REMARK SMILES C/C(=C/C[NH+]1C[C@@H](C)[C@H](C)C1)C(=O)OCCOC(=O)c1ccc(-c2c3nc(c(-c4c(F)c(F)c(F)c(F)c4F)c4ccc([nH]4)c(-c4c(F)c(F)c(F)c(F)c4F)c4nc(c(-c5c(F)c(F)c(F)c(F)c5F)c5ccc2[nH]5)C=C4)C=C3)cc1
REMARK SMILES IDX 15 1 14 2 12 3 13 4 2 5 1 6 3 7 4 8 5 9 6 10 11 11 7 13 9 14
REMARK SMILES IDX 8 15 10 16 16 17 17 18 18 19 19 20 20 21 21 22 82 23 22 24
REMARK SMILES IDX 81 25 23 26 24 27 25 28 75 29 26 30 80 31 74 32 76 33 27 34
REMARK SMILES IDX 79 35 73 36 72 37 28 39 60 40 40 41 59 42 41 43 44 44 58 45
REMARK SMILES IDX 77 46 42 47 43 48 57 50 78 51 45 52 29 53 30 54 38 55 31 56
REMARK SMILES IDX 32 57 36 58 39 59 33 60 34 61 37 62 35 63 61 64 62 65 70 66
REMARK SMILES IDX 63 67 64 68 68 69 71 70 65 71 66 72 69 73 67 74 46 75 47 76
REMARK SMILES IDX 55 77 48 78 49 79 53 80 56 81 50 82 51 83 54 84 52 85
REMARK H PARENT 5 12 76 38 44 49
REMARK Flexibility Score: inf
ROOT
ATOM      1  C   UNL     1       1.185  -3.329  -3.256  1.00  0.00     0.275 C 
ENDROOT
BRANCH   1   2
ATOM      2  O   UNL     1       0.541  -2.827  -2.069  1.00  0.00    -0.459 OA
BRANCH   2   3
ATOM      3  C   UNL     1       1.327  -2.291  -1.107  1.00  0.00     0.333 C 
ATOM      4  O   UNL     1       2.531  -2.102  -1.200  1.00  0.00    -0.247 OA
BRANCH   3   5
ATOM      5  C   UNL     1       0.522  -1.817   0.059  1.00  0.00     0.036 C 
ATOM      6  C   UNL     1       1.059  -0.600   0.762  1.00  0.00     0.052 C 
ATOM      7  C   UNL     1      -0.548  -2.459   0.570  1.00  0.00     0.044 C 
BRANCH   7   8
ATOM      8  C   UNL     1      -1.167  -3.753   0.143  1.00  0.00     0.291 C 
BRANCH   8   9
ATOM      9  N   UNL     1      -0.720  -4.798   1.057  1.00  0.00    -0.331 N 
ATOM     10  C   UNL     1      -1.613  -5.000   2.196  1.00  0.00     0.266 C 
ATOM     11  C   UNL     1      -0.571  -6.101   0.408  1.00  0.00     0.266 C 
ATOM     12  H   UNL     1       0.184  -4.451   1.380  1.00  0.00     0.348 HD
ATOM     13  C   UNL     1      -1.057  -6.291   2.782  1.00  0.00     0.049 C 
ATOM     14  C   UNL     1      -0.721  -7.128   1.537  1.00  0.00     0.049 C 
ATOM     15  C   UNL     1      -2.039  -6.977   3.719  1.00  0.00     0.014 C 
ATOM     16  C   UNL     1       0.530  -7.975   1.732  1.00  0.00     0.014 C 
ENDBRANCH   8   9
ENDBRANCH   7   8
ENDBRANCH   3   5
ENDBRANCH   2   3
ENDBRANCH   1   2
BRANCH   1  17
ATOM     17  C   UNL     1       0.666  -2.589  -4.488  1.00  0.00     0.275 C 
BRANCH  17  18
ATOM     18  O   UNL     1       1.177  -1.245  -4.498  1.00  0.00    -0.458 OA
BRANCH  18  19
ATOM     19  C   UNL     1       0.350  -0.311  -3.983  1.00  0.00     0.338 C 
ATOM     20  O   UNL     1      -0.810  -0.441  -3.627  1.00  0.00    -0.246 OA
BRANCH  19  21
ATOM     21  C   UNL     1       1.121   0.917  -3.766  1.00  0.00     0.060 A 
ATOM     22  C   UNL     1       1.611   1.154  -2.483  1.00  0.00     0.016 A 
ATOM     23  C   UNL     1       1.296   1.855  -4.780  1.00  0.00     0.016 A 
ATOM     24  C   UNL     1       2.241   2.356  -2.184  1.00  0.00     0.010 A 
ATOM     25  C   UNL     1       1.966   3.049  -4.491  1.00  0.00     0.010 A 
ATOM     26  C   UNL     1       2.422   3.317  -3.186  1.00  0.00    -0.014 A 
BRANCH  26  27
ATOM     27  C   UNL     1       3.036   4.624  -2.848  1.00  0.00     0.031 A 
ATOM     28  C   UNL     1       2.197   5.869  -2.879  1.00  0.00     0.074 A 
ATOM     29  C   UNL     1       4.329   4.691  -2.482  1.00  0.00     0.049 A 
ATOM     30  N   UNL     1       2.563   7.119  -2.747  1.00  0.00    -0.248 NA
ATOM     31  C   UNL     1       0.753   5.684  -3.091  1.00  0.00     0.031 C 
ATOM     32  C   UNL     1       5.232   3.548  -2.353  1.00  0.00     0.029 A 
ATOM     33  N   UNL     1       5.106   5.771  -2.144  1.00  0.00    -0.354 N 
ATOM     34  C   UNL     1       1.405   7.869  -2.904  1.00  0.00     0.074 A 
ATOM     35  C   UNL     1       0.324   6.936  -3.139  1.00  0.00     0.031 C 
ATOM     36  C   UNL     1       6.435   3.983  -1.945  1.00  0.00     0.029 A 
ATOM     37  C   UNL     1       6.404   5.439  -1.845  1.00  0.00     0.049 A 
ATOM     38  H   UNL     1       4.766   6.694  -2.119  1.00  0.00     0.167 HD
ATOM     39  C   UNL     1       1.263   9.214  -2.857  1.00  0.00     0.037 A 
ATOM     40  C   UNL     1       7.458   6.225  -1.555  1.00  0.00     0.037 A 
ATOM     41  C   UNL     1       2.333  10.136  -2.581  1.00  0.00     0.049 A 
ATOM     42  C   UNL     1       7.279   7.718  -1.538  1.00  0.00     0.074 A 
ATOM     43  C   UNL     1       2.289  11.517  -2.514  1.00  0.00     0.029 A 
ATOM     44  N   UNL     1       3.641   9.762  -2.310  1.00  0.00    -0.354 N 
ATOM     45  N   UNL     1       6.194   8.423  -1.743  1.00  0.00    -0.248 NA
ATOM     46  C   UNL     1       8.477   8.525  -1.266  1.00  0.00     0.031 C 
ATOM     47  C   UNL     1       3.578  11.982  -2.227  1.00  0.00     0.029 A 
ATOM     48  C   UNL     1       4.416  10.888  -2.083  1.00  0.00     0.049 A 
ATOM     49  H   UNL     1       3.970   8.835  -2.284  1.00  0.00     0.167 HD
ATOM     50  C   UNL     1       6.573   9.751  -1.619  1.00  0.00     0.074 A 
ATOM     51  C   UNL     1       7.986   9.756  -1.300  1.00  0.00     0.031 C 
ATOM     52  C   UNL     1       5.820  10.869  -1.765  1.00  0.00     0.037 A 
BRANCH  39  53
ATOM     53  C   UNL     1      -0.097   9.774  -3.147  1.00  0.00     0.064 A 
ATOM     54  C   UNL     1      -1.140   9.703  -2.213  1.00  0.00     0.173 A 
ATOM     55  C   UNL     1      -0.350  10.413  -4.370  1.00  0.00     0.173 A 
ATOM     56  F   UNL     1      -0.952   9.086  -1.036  1.00  0.00    -0.203 F 
ATOM     57  C   UNL     1      -2.394  10.236  -2.501  1.00  0.00     0.198 A 
ATOM     58  C   UNL     1      -1.598  10.964  -4.645  1.00  0.00     0.198 A 
ATOM     59  F   UNL     1       0.616  10.507  -5.295  1.00  0.00    -0.203 F 
ATOM     60  F   UNL     1      -3.389  10.123  -1.610  1.00  0.00    -0.200 F 
ATOM     61  C   UNL     1      -2.620  10.871  -3.714  1.00  0.00     0.200 A 
ATOM     62  F   UNL     1      -1.812  11.584  -5.814  1.00  0.00    -0.200 F 
ATOM     63  F   UNL     1      -3.827  11.386  -3.987  1.00  0.00    -0.200 F 
ENDBRANCH  39  53
BRANCH  40  64
ATOM     64  C   UNL     1       8.784   5.613  -1.286  1.00  0.00     0.064 A 
ATOM     65  C   UNL     1       9.336   5.628   0.002  1.00  0.00     0.173 A 
ATOM     66  C   UNL     1       9.521   4.997  -2.308  1.00  0.00     0.173 A 
ATOM     67  F   UNL     1       8.680   6.230   1.004  1.00  0.00    -0.203 F 
ATOM     68  C   UNL     1      10.582   5.057   0.255  1.00  0.00     0.198 A 
ATOM     69  C   UNL     1      10.754   4.404  -2.048  1.00  0.00     0.198 A 
ATOM     70  F   UNL     1       9.037   4.961  -3.558  1.00  0.00    -0.203 F 
ATOM     71  F   UNL     1      11.105   5.117   1.487  1.00  0.00    -0.200 F 
ATOM     72  C   UNL     1      11.286   4.439  -0.768  1.00  0.00     0.200 A 
ATOM     73  F   UNL     1      11.427   3.801  -3.037  1.00  0.00    -0.200 F 
ATOM     74  F   UNL     1      12.481   3.885  -0.522  1.00  0.00    -0.200 F 
ENDBRANCH  40  64
BRANCH  52  75
ATOM     75  C   UNL     1       6.507  12.184  -1.561  1.00  0.00     0.064 A 
ATOM     76  C   UNL     1       7.358  12.721  -2.538  1.00  0.00     0.173 A 
ATOM     77  C   UNL     1       6.283  12.931  -0.395  1.00  0.00     0.173 A 
ATOM     78  F   UNL     1       7.613  12.035  -3.662  1.00  0.00    -0.203 F 
ATOM     79  C   UNL     1       7.976  13.953  -2.345  1.00  0.00     0.198 A 
ATOM     80  C   UNL     1       6.887  14.172  -0.216  1.00  0.00     0.198 A 
ATOM     81  F   UNL     1       5.474  12.459   0.565  1.00  0.00    -0.203 F 
ATOM     82  F   UNL     1       8.815  14.432  -3.274  1.00  0.00    -0.200 F 
ATOM     83  C   UNL     1       7.736  14.680  -1.188  1.00  0.00     0.200 A 
ATOM     84  F   UNL     1       6.649  14.876   0.900  1.00  0.00    -0.200 F 
ATOM     85  F   UNL     1       8.330  15.867  -1.006  1.00  0.00    -0.200 F 
ENDBRANCH  52  75
ENDBRANCH  26  27
ENDBRANCH  19  21
ENDBRANCH  18  19
ENDBRANCH  17  18
ENDBRANCH   1  17
TORSDOF 13
