REMARK SMILES C[C@@H]([NH+]1CCC(CCC(=O)OCCOC(=O)c2ccc(-c3c4nc(c(-c5c(F)c(F)c(F)c(F)c5F)c5ccc([nH]5)c(-c5c(F)c(F)c(F)c(F)c5F)c5nc(c(-c6c(F)c(F)c(F)c(F)c6F)c6ccc3[nH]6)C=C5)C=C4)cc2)CC1)C1(C)CC1
REMARK SMILES IDX 12 1 11 2 9 3 10 4 8 5 7 6 6 7 3 8 4 9 81 10 5 12 80 13 2 14
REMARK SMILES IDX 1 15 82 16 83 17 84 18 85 19 13 20 14 21 15 22 16 23 17 24
REMARK SMILES IDX 18 25 79 26 19 27 78 28 20 29 21 30 22 31 72 32 23 33 77 34
REMARK SMILES IDX 71 35 73 36 24 37 76 38 70 39 69 40 25 42 57 43 37 44 56 45
REMARK SMILES IDX 38 46 41 47 55 48 74 49 39 50 40 51 54 53 75 54 42 55 26 56
REMARK SMILES IDX 27 57 35 58 28 59 29 60 33 61 36 62 30 63 31 64 34 65 32 66
REMARK SMILES IDX 58 67 59 68 67 69 60 70 61 71 65 72 68 73 62 74 63 75 66 76
REMARK SMILES IDX 64 77 43 78 44 79 52 80 45 81 46 82 50 83 53 84 47 85 48 86
REMARK SMILES IDX 51 87 49 88
REMARK H PARENT 3 11 73 41 41 52
REMARK Flexibility Score: inf
ROOT
ATOM      1  C   UNL     1       4.036   5.575  -2.097  1.00  0.00     0.274 C 
ENDROOT
BRANCH   1   2
ATOM      2  O   UNL     1       3.870   5.284  -0.697  1.00  0.00    -0.462 OA
BRANCH   2   3
ATOM      3  C   UNL     1       4.691   5.907   0.181  1.00  0.00     0.305 C 
ATOM      4  O   UNL     1       5.605   6.660  -0.132  1.00  0.00    -0.252 OA
BRANCH   3   5
ATOM      5  C   UNL     1       4.405   5.526   1.622  1.00  0.00     0.123 C 
BRANCH   5   6
ATOM      6  C   UNL     1       2.929   5.343   2.006  1.00  0.00     0.016 C 
BRANCH   6   7
ATOM      7  C   UNL     1       2.279   4.053   1.487  1.00  0.00     0.001 C 
ATOM      8  N   UNL     1       0.850   1.497   1.683  1.00  0.00    -0.332 N 
ATOM      9  C   UNL     1       2.297   1.553   1.426  1.00  0.00     0.262 C 
ATOM     10  C   UNL     1       0.172   2.713   1.210  1.00  0.00     0.262 C 
ATOM     11  H   UNL     1       0.698   1.489   2.691  1.00  0.00     0.348 HD
ATOM     12  C   UNL     1       2.957   2.791   2.023  1.00  0.00     0.065 C 
ATOM     13  C   UNL     1       0.788   3.980   1.824  1.00  0.00     0.065 C 
BRANCH   8  14
ATOM     14  C   UNL     1       0.258   0.220   1.202  1.00  0.00     0.186 C 
ATOM     15  C   UNL     1       0.629  -0.139  -0.250  1.00  0.00     0.076 C 
BRANCH  14  16
ATOM     16  C   UNL     1      -1.253   0.141   1.519  1.00  0.00     0.019 C 
ATOM     17  C   UNL     1      -1.583   0.304   2.991  1.00  0.00     0.018 C 
ATOM     18  C   UNL     1      -2.270   0.639   0.501  1.00  0.00     0.013 C 
ATOM     19  C   UNL     1      -2.156  -0.831   0.771  1.00  0.00     0.013 C 
ENDBRANCH  14  16
ENDBRANCH   8  14
ENDBRANCH   6   7
ENDBRANCH   5   6
ENDBRANCH   3   5
ENDBRANCH   2   3
ENDBRANCH   1   2
BRANCH   1  20
ATOM     20  C   UNL     1       2.999   6.594  -2.574  1.00  0.00     0.275 C 
BRANCH  20  21
ATOM     21  O   UNL     1       3.263   7.891  -2.010  1.00  0.00    -0.458 OA
BRANCH  21  22
ATOM     22  C   UNL     1       2.540   8.193  -0.907  1.00  0.00     0.338 C 
ATOM     23  O   UNL     1       1.630   7.548  -0.417  1.00  0.00    -0.246 OA
BRANCH  22  24
ATOM     24  C   UNL     1       3.120   9.374  -0.250  1.00  0.00     0.060 A 
ATOM     25  C   UNL     1       3.588   9.222   1.058  1.00  0.00     0.016 A 
ATOM     26  C   UNL     1       3.137  10.625  -0.869  1.00  0.00     0.016 A 
ATOM     27  C   UNL     1       4.066  10.319   1.763  1.00  0.00     0.010 A 
ATOM     28  C   UNL     1       3.608  11.733  -0.156  1.00  0.00     0.010 A 
ATOM     29  C   UNL     1       4.055  11.587   1.170  1.00  0.00    -0.014 A 
BRANCH  29  30
ATOM     30  C   UNL     1       4.400  12.763   2.001  1.00  0.00     0.031 A 
ATOM     31  C   UNL     1       3.297  13.611   2.562  1.00  0.00     0.074 A 
ATOM     32  C   UNL     1       5.683  13.021   2.311  1.00  0.00     0.049 A 
ATOM     33  N   UNL     1       3.370  14.686   3.305  1.00  0.00    -0.248 NA
ATOM     34  C   UNL     1       1.923  13.190   2.246  1.00  0.00     0.031 C 
ATOM     35  C   UNL     1       6.832  12.233   1.869  1.00  0.00     0.029 A 
ATOM     36  N   UNL     1       6.230  14.015   3.082  1.00  0.00    -0.354 N 
ATOM     37  C   UNL     1       2.058  15.078   3.532  1.00  0.00     0.074 A 
ATOM     38  C   UNL     1       1.207  14.138   2.833  1.00  0.00     0.031 C 
ATOM     39  C   UNL     1       7.952  12.772   2.381  1.00  0.00     0.029 A 
ATOM     40  C   UNL     1       7.598  13.958   3.158  1.00  0.00     0.049 A 
ATOM     41  H   UNL     1       5.692  14.703   3.536  1.00  0.00     0.167 HD
ATOM     42  C   UNL     1       1.605  16.124   4.262  1.00  0.00     0.037 A 
ATOM     43  C   UNL     1       8.466  14.782   3.776  1.00  0.00     0.037 A 
ATOM     44  C   UNL     1       2.454  17.048   4.968  1.00  0.00     0.049 A 
ATOM     45  C   UNL     1       7.938  15.960   4.549  1.00  0.00     0.074 A 
ATOM     46  C   UNL     1       2.093  18.144   5.731  1.00  0.00     0.029 A 
ATOM     47  N   UNL     1       3.839  16.977   4.999  1.00  0.00    -0.354 N 
ATOM     48  N   UNL     1       6.696  16.333   4.748  1.00  0.00    -0.248 NA
ATOM     49  C   UNL     1       8.934  16.833   5.186  1.00  0.00     0.031 C 
ATOM     50  C   UNL     1       3.263  18.757   6.196  1.00  0.00     0.029 A 
ATOM     51  C   UNL     1       4.349  18.018   5.758  1.00  0.00     0.049 A 
ATOM     52  H   UNL     1       4.380  16.289   4.548  1.00  0.00     0.167 HD
ATOM     53  C   UNL     1       6.760  17.467   5.545  1.00  0.00     0.074 A 
ATOM     54  C   UNL     1       8.163  17.711   5.811  1.00  0.00     0.031 C 
ATOM     55  C   UNL     1       5.749  18.241   6.013  1.00  0.00     0.037 A 
BRANCH  42  56
ATOM     56  C   UNL     1       0.122  16.340   4.305  1.00  0.00     0.064 A 
ATOM     57  C   UNL     1      -0.725  15.500   5.043  1.00  0.00     0.173 A 
ATOM     58  C   UNL     1      -0.457  17.412   3.609  1.00  0.00     0.173 A 
ATOM     59  F   UNL     1      -0.222  14.451   5.710  1.00  0.00    -0.203 F 
ATOM     60  C   UNL     1      -2.102  15.711   5.061  1.00  0.00     0.198 A 
ATOM     61  C   UNL     1      -1.830  17.635   3.651  1.00  0.00     0.198 A 
ATOM     62  F   UNL     1       0.310  18.244   2.890  1.00  0.00    -0.203 F 
ATOM     63  F   UNL     1      -2.898  14.869   5.734  1.00  0.00    -0.200 F 
ATOM     64  C   UNL     1      -2.652  16.780   4.370  1.00  0.00     0.200 A 
ATOM     65  F   UNL     1      -2.360  18.673   2.989  1.00  0.00    -0.200 F 
ATOM     66  F   UNL     1      -3.977  16.983   4.390  1.00  0.00    -0.200 F 
ENDBRANCH  42  56
BRANCH  43  67
ATOM     67  C   UNL     1       9.926  14.526   3.683  1.00  0.00     0.064 A 
ATOM     68  C   UNL     1      10.663  14.120   4.803  1.00  0.00     0.173 A 
ATOM     69  C   UNL     1      10.617  14.700   2.475  1.00  0.00     0.173 A 
ATOM     70  F   UNL     1      10.052  13.966   5.987  1.00  0.00    -0.203 F 
ATOM     71  C   UNL     1      12.039  13.913   4.723  1.00  0.00     0.198 A 
ATOM     72  C   UNL     1      11.987  14.468   2.389  1.00  0.00     0.198 A 
ATOM     73  F   UNL     1       9.957  15.093   1.375  1.00  0.00    -0.203 F 
ATOM     74  F   UNL     1      12.728  13.569   5.820  1.00  0.00    -0.200 F 
ATOM     75  C   UNL     1      12.699  14.082   3.515  1.00  0.00     0.200 A 
ATOM     76  F   UNL     1      12.620  14.624   1.218  1.00  0.00    -0.200 F 
ATOM     77  F   UNL     1      14.022  13.883   3.438  1.00  0.00    -0.200 F 
ENDBRANCH  43  67
BRANCH  55  78
ATOM     78  C   UNL     1       6.128  19.404   6.882  1.00  0.00     0.064 A 
ATOM     79  C   UNL     1       6.734  20.551   6.351  1.00  0.00     0.173 A 
ATOM     80  C   UNL     1       5.863  19.376   8.260  1.00  0.00     0.173 A 
ATOM     81  F   UNL     1       7.021  20.618   5.042  1.00  0.00    -0.203 F 
ATOM     82  C   UNL     1       7.091  21.617   7.172  1.00  0.00     0.198 A 
ATOM     83  C   UNL     1       6.197  20.455   9.074  1.00  0.00     0.198 A 
ATOM     84  F   UNL     1       5.279  18.305   8.815  1.00  0.00    -0.203 F 
ATOM     85  F   UNL     1       7.717  22.681   6.652  1.00  0.00    -0.200 F 
ATOM     86  C   UNL     1       6.818  21.570   8.531  1.00  0.00     0.200 A 
ATOM     87  F   UNL     1       5.923  20.413  10.385  1.00  0.00    -0.200 F 
ATOM     88  F   UNL     1       7.164  22.596   9.321  1.00  0.00    -0.200 F 
ENDBRANCH  55  78
ENDBRANCH  29  30
ENDBRANCH  22  24
ENDBRANCH  21  22
ENDBRANCH  20  21
ENDBRANCH   1  20
TORSDOF 15
