REMARK SMILES CNC(=O)NC1=[NH+]N=CN[C@@H]1C(=O)OCCOC(=O)c1ccc(-c2c3nc(c(-c4c(F)c(F)c(F)c(F)c4F)c4ccc([nH]4)c(-c4c(F)c(F)c(F)c(F)c4F)c4nc(c(-c5c(F)c(F)c(F)c(F)c5F)c5ccc2[nH]5)C=C4)C=C3)cc1
REMARK SMILES IDX 16 1 15 2 14 3 12 4 13 5 11 6 1 7 2 8 3 9 4 11 5 12 6 13
REMARK SMILES IDX 7 15 8 16 10 18 9 19 17 21 18 22 19 23 20 24 21 25 82 26
REMARK SMILES IDX 22 27 81 28 23 29 24 30 25 31 75 32 26 33 80 34 74 35 76 36
REMARK SMILES IDX 27 37 79 38 73 39 72 40 28 42 60 43 40 44 59 45 41 46 44 47
REMARK SMILES IDX 58 48 77 49 42 50 43 51 57 53 78 54 45 55 29 56 30 57 38 58
REMARK SMILES IDX 31 59 32 60 36 61 39 62 33 63 34 64 37 65 35 66 61 67 62 68
REMARK SMILES IDX 70 69 63 70 64 71 68 72 71 73 65 74 66 75 69 76 67 77 46 78
REMARK SMILES IDX 47 79 55 80 48 81 49 82 53 83 56 84 50 85 51 86 54 87 52 88
REMARK H PARENT 2 10 5 14 7 17 10 20 76 41 44 52
REMARK Flexibility Score: inf
ROOT
ATOM      1  C   UNL     1      -4.338  -2.739   1.342  1.00  0.00     0.275 C 
ENDROOT
BRANCH   1   2
ATOM      2  C   UNL     1      -4.040  -2.842  -0.159  1.00  0.00     0.274 C 
BRANCH   2   3
ATOM      3  O   UNL     1      -2.621  -2.942  -0.388  1.00  0.00    -0.460 OA
BRANCH   3   4
ATOM      4  C   UNL     1      -1.990  -1.837  -0.884  1.00  0.00     0.341 C 
ATOM      5  O   UNL     1      -2.573  -0.815  -1.230  1.00  0.00    -0.249 OA
BRANCH   4   6
ATOM      6  C   UNL     1      -0.462  -1.959  -0.846  1.00  0.00     0.308 C 
ATOM      7  C   UNL     1       1.920   0.488  -0.522  1.00  0.00     0.147 C 
ATOM      8  N   UNL     1       0.718   1.068  -1.085  1.00  0.00    -0.321 N 
ATOM      9  C   UNL     1       0.082   0.725  -2.236  1.00  0.00     0.406 C 
ATOM     10  H   UNL     1       0.311   1.802  -0.571  1.00  0.00     0.167 HD
ATOM     11  O   UNL     1      -0.642   1.544  -2.793  1.00  0.00    -0.221 OA
ATOM     12  N   UNL     1       0.311  -0.512  -2.764  1.00  0.00    -0.191 N 
ATOM     13  C   UNL     1       0.145  -1.768  -2.226  1.00  0.00     0.311 C 
ATOM     14  H   UNL     1       0.654  -0.506  -3.687  1.00  0.00     0.317 HD
ATOM     15  N   UNL     1       0.537  -2.751  -2.979  1.00  0.00    -0.148 N 
ATOM     16  N   UNL     1       0.510  -4.061  -2.455  1.00  0.00    -0.077 NA
ATOM     17  H   UNL     1       0.847  -2.585  -3.898  1.00  0.00     0.342 HD
ATOM     18  N   UNL     1      -0.022  -3.237  -0.298  1.00  0.00    -0.350 N 
ATOM     19  C   UNL     1       0.295  -4.211  -1.189  1.00  0.00     0.241 C 
ATOM     20  H   UNL     1       0.043  -3.386   0.672  1.00  0.00     0.163 HD
ENDBRANCH   4   6
ENDBRANCH   3   4
ENDBRANCH   2   3
ENDBRANCH   1   2
BRANCH   1  21
ATOM     21  O   UNL     1      -3.953  -1.461   1.892  1.00  0.00    -0.458 OA
BRANCH  21  22
ATOM     22  C   UNL     1      -2.655  -1.363   2.255  1.00  0.00     0.338 C 
ATOM     23  O   UNL     1      -1.792  -2.223   2.164  1.00  0.00    -0.246 OA
BRANCH  22  24
ATOM     24  C   UNL     1      -2.335   0.011   2.676  1.00  0.00     0.060 A 
ATOM     25  C   UNL     1      -1.292   0.650   2.005  1.00  0.00     0.016 A 
ATOM     26  C   UNL     1      -2.921   0.604   3.794  1.00  0.00     0.016 A 
ATOM     27  C   UNL     1      -0.767   1.840   2.490  1.00  0.00     0.010 A 
ATOM     28  C   UNL     1      -2.414   1.823   4.265  1.00  0.00     0.010 A 
ATOM     29  C   UNL     1      -1.306   2.425   3.640  1.00  0.00    -0.014 A 
BRANCH  29  30
ATOM     30  C   UNL     1      -0.616   3.601   4.227  1.00  0.00     0.031 A 
ATOM     31  C   UNL     1       0.157   3.447   5.508  1.00  0.00     0.074 A 
ATOM     32  C   UNL     1      -0.588   4.771   3.564  1.00  0.00     0.049 A 
ATOM     33  N   UNL     1       0.812   4.347   6.196  1.00  0.00    -0.248 NA
ATOM     34  C   UNL     1       0.201   2.097   6.090  1.00  0.00     0.031 C 
ATOM     35  C   UNL     1      -1.231   5.027   2.276  1.00  0.00     0.029 A 
ATOM     36  N   UNL     1       0.031   5.956   3.872  1.00  0.00    -0.354 N 
ATOM     37  C   UNL     1       1.308   3.684   7.311  1.00  0.00     0.074 A 
ATOM     38  C   UNL     1       0.877   2.306   7.210  1.00  0.00     0.031 C 
ATOM     39  C   UNL     1      -0.940   6.278   1.884  1.00  0.00     0.029 A 
ATOM     40  C   UNL     1      -0.138   6.927   2.917  1.00  0.00     0.049 A 
ATOM     41  H   UNL     1       0.548   6.096   4.698  1.00  0.00     0.167 HD
ATOM     42  C   UNL     1       2.054   4.180   8.327  1.00  0.00     0.037 A 
ATOM     43  C   UNL     1       0.295   8.202   2.887  1.00  0.00     0.037 A 
ATOM     44  C   UNL     1       2.519   5.539   8.408  1.00  0.00     0.049 A 
ATOM     45  C   UNL     1       1.094   8.738   4.041  1.00  0.00     0.074 A 
ATOM     46  C   UNL     1       3.275   6.138   9.400  1.00  0.00     0.029 A 
ATOM     47  N   UNL     1       2.282   6.509   7.445  1.00  0.00    -0.354 N 
ATOM     48  N   UNL     1       1.512   8.117   5.117  1.00  0.00    -0.248 NA
ATOM     49  C   UNL     1       1.470  10.157   3.981  1.00  0.00     0.031 C 
ATOM     50  C   UNL     1       3.473   7.479   9.051  1.00  0.00     0.029 A 
ATOM     51  C   UNL     1       2.870   7.705   7.824  1.00  0.00     0.049 A 
ATOM     52  H   UNL     1       1.770   6.369   6.616  1.00  0.00     0.167 HD
ATOM     53  C   UNL     1       2.214   9.062   5.853  1.00  0.00     0.074 A 
ATOM     54  C   UNL     1       2.176  10.296   5.095  1.00  0.00     0.031 C 
ATOM     55  C   UNL     1       2.832   8.920   7.051  1.00  0.00     0.037 A 
BRANCH  42  56
ATOM     56  C   UNL     1       2.374   3.247   9.457  1.00  0.00     0.064 A 
ATOM     57  C   UNL     1       3.323   2.223   9.327  1.00  0.00     0.173 A 
ATOM     58  C   UNL     1       1.715   3.382  10.688  1.00  0.00     0.173 A 
ATOM     59  F   UNL     1       3.963   2.040   8.162  1.00  0.00    -0.203 F 
ATOM     60  C   UNL     1       3.577   1.347  10.380  1.00  0.00     0.198 A 
ATOM     61  C   UNL     1       1.990   2.521  11.746  1.00  0.00     0.198 A 
ATOM     62  F   UNL     1       0.799   4.346  10.862  1.00  0.00    -0.203 F 
ATOM     63  F   UNL     1       4.448   0.341  10.217  1.00  0.00    -0.200 F 
ATOM     64  C   UNL     1       2.914   1.499  11.589  1.00  0.00     0.200 A 
ATOM     65  F   UNL     1       1.351   2.672  12.915  1.00  0.00    -0.200 F 
ATOM     66  F   UNL     1       3.155   0.651  12.598  1.00  0.00    -0.200 F 
ENDBRANCH  42  56
BRANCH  43  67
ATOM     67  C   UNL     1      -0.021   9.058   1.717  1.00  0.00     0.064 A 
ATOM     68  C   UNL     1       0.979   9.433   0.811  1.00  0.00     0.173 A 
ATOM     69  C   UNL     1      -1.327   9.509   1.475  1.00  0.00     0.173 A 
ATOM     70  F   UNL     1       2.247   9.045   1.016  1.00  0.00    -0.203 F 
ATOM     71  C   UNL     1       0.686  10.231  -0.293  1.00  0.00     0.198 A 
ATOM     72  C   UNL     1      -1.623  10.288   0.359  1.00  0.00     0.198 A 
ATOM     73  F   UNL     1      -2.317   9.180   2.317  1.00  0.00    -0.203 F 
ATOM     74  F   UNL     1       1.667  10.602  -1.128  1.00  0.00    -0.200 F 
ATOM     75  C   UNL     1      -0.616  10.652  -0.521  1.00  0.00     0.200 A 
ATOM     76  F   UNL     1      -2.883  10.685   0.138  1.00  0.00    -0.200 F 
ATOM     77  F   UNL     1      -0.898  11.414  -1.587  1.00  0.00    -0.200 F 
ENDBRANCH  43  67
BRANCH  55  78
ATOM     78  C   UNL     1       3.549  10.118   7.596  1.00  0.00     0.064 A 
ATOM     79  C   UNL     1       2.852  11.197   8.158  1.00  0.00     0.173 A 
ATOM     80  C   UNL     1       4.950  10.174   7.579  1.00  0.00     0.173 A 
ATOM     81  F   UNL     1       1.510  11.195   8.182  1.00  0.00    -0.203 F 
ATOM     82  C   UNL     1       3.533  12.300   8.666  1.00  0.00     0.198 A 
ATOM     83  C   UNL     1       5.628  11.269   8.107  1.00  0.00     0.198 A 
ATOM     84  F   UNL     1       5.661   9.164   7.055  1.00  0.00    -0.203 F 
ATOM     85  F   UNL     1       2.847  13.338   9.162  1.00  0.00    -0.200 F 
ATOM     86  C   UNL     1       4.920  12.333   8.644  1.00  0.00     0.200 A 
ATOM     87  F   UNL     1       6.968  11.296   8.092  1.00  0.00    -0.200 F 
ATOM     88  F   UNL     1       5.573  13.396   9.133  1.00  0.00    -0.200 F 
ENDBRANCH  55  78
ENDBRANCH  29  30
ENDBRANCH  22  24
ENDBRANCH  21  22
ENDBRANCH   1  21
TORSDOF 11
