REMARK SMILES CC[C@@]1(CC(=O)OCCOC(=O)c2ccc(-c3c4nc(c(-c5c(F)c(F)c(F)c(F)c5F)c5ccc([nH]5)c(-c5c(F)c(F)c(F)c(F)c5F)c5nc(c(-c6c(F)c(F)c(F)c(F)c6F)c6ccc3[nH]6)C=C5)C=C4)cc2)OC[C@H](Cc2ccccc2)c2c1[nH]c1ccccc21
REMARK SMILES IDX 8 1 7 2 5 3 6 4 4 5 3 6 76 7 87 8 77 9 86 10 88 11 78 12
REMARK SMILES IDX 94 13 89 14 93 16 90 17 92 18 91 19 2 20 1 21 79 22 80 23
REMARK SMILES IDX 81 24 85 25 82 26 84 27 83 28 9 29 10 30 11 31 12 32 13 33
REMARK SMILES IDX 14 34 75 35 15 36 74 37 16 38 17 39 18 40 68 41 19 42 73 43
REMARK SMILES IDX 67 44 69 45 20 46 72 47 66 48 65 49 21 51 53 52 33 53 52 54
REMARK SMILES IDX 34 55 37 56 51 57 70 58 35 59 36 60 50 62 71 63 38 64 22 65
REMARK SMILES IDX 23 66 31 67 24 68 25 69 29 70 32 71 26 72 27 73 30 74 28 75
REMARK SMILES IDX 54 76 55 77 63 78 56 79 57 80 61 81 64 82 58 83 59 84 62 85
REMARK SMILES IDX 60 86 39 87 40 88 48 89 41 90 42 91 46 92 49 93 43 94 44 95
REMARK SMILES IDX 47 96 45 97
REMARK H PARENT 88 15 69 50 37 61
REMARK Flexibility Score: inf
ROOT
ATOM      1  C   UNL     1       0.878   2.201   0.280  1.00  0.00     0.274 C 
ENDROOT
BRANCH   1   2
ATOM      2  O   UNL     1       0.756   0.874  -0.294  1.00  0.00    -0.462 OA
BRANCH   2   3
ATOM      3  C   UNL     1      -0.334   0.180   0.137  1.00  0.00     0.309 C 
ATOM      4  O   UNL     1      -1.305   0.738   0.642  1.00  0.00    -0.252 OA
BRANCH   3   5
ATOM      5  C   UNL     1      -0.255  -1.359   0.014  1.00  0.00     0.164 C 
BRANCH   5   6
ATOM      6  C   UNL     1       1.121  -2.061   0.065  1.00  0.00     0.118 C 
ATOM      7  O   UNL     1       1.609  -2.263  -1.295  1.00  0.00    -0.368 OA
ATOM      8  C   UNL     1       1.094  -3.492   0.608  1.00  0.00     0.053 A 
ATOM      9  C   UNL     1       0.870  -3.248  -2.108  1.00  0.00     0.170 C 
ATOM     10  C   UNL     1       0.969  -4.684  -0.097  1.00  0.00    -0.011 A 
ATOM     11  N   UNL     1       1.447  -3.842   1.884  1.00  0.00    -0.356 N 
ATOM     12  C   UNL     1       0.811  -4.715  -1.589  1.00  0.00     0.052 C 
ATOM     13  C   UNL     1       1.188  -5.770   0.816  1.00  0.00     0.003 A 
ATOM     14  C   UNL     1       1.501  -5.196   2.041  1.00  0.00     0.046 A 
ATOM     15  H   UNL     1       1.639  -3.195   2.601  1.00  0.00     0.166 HD
ATOM     16  C   UNL     1       1.222  -7.177   0.732  1.00  0.00     0.010 A 
ATOM     17  C   UNL     1       1.855  -5.916   3.181  1.00  0.00     0.026 A 
ATOM     18  C   UNL     1       1.547  -7.926   1.876  1.00  0.00     0.001 A 
ATOM     19  C   UNL     1       1.862  -7.301   3.081  1.00  0.00     0.002 A 
BRANCH   6  20
ATOM     20  C   UNL     1       2.047  -1.202   1.004  1.00  0.00     0.039 C 
ATOM     21  C   UNL     1       3.443  -0.920   0.526  1.00  0.00     0.007 C 
ENDBRANCH   6  20
BRANCH  12  22
ATOM     22  C   UNL     1      -0.498  -5.455  -2.010  1.00  0.00     0.046 C 
BRANCH  22  23
ATOM     23  C   UNL     1      -0.717  -5.806  -3.472  1.00  0.00    -0.047 A 
ATOM     24  C   UNL     1       0.152  -6.671  -4.154  1.00  0.00     0.004 A 
ATOM     25  C   UNL     1      -1.889  -5.391  -4.130  1.00  0.00     0.004 A 
ATOM     26  C   UNL     1      -0.128  -7.084  -5.464  1.00  0.00     0.000 A 
ATOM     27  C   UNL     1      -2.166  -5.802  -5.439  1.00  0.00     0.000 A 
ATOM     28  C   UNL     1      -1.284  -6.646  -6.108  1.00  0.00     0.000 A 
ENDBRANCH  22  23
ENDBRANCH  12  22
ENDBRANCH   5   6
ENDBRANCH   3   5
ENDBRANCH   2   3
ENDBRANCH   1   2
BRANCH   1  29
ATOM     29  C   UNL     1       1.936   3.038  -0.448  1.00  0.00     0.275 C 
BRANCH  29  30
ATOM     30  O   UNL     1       1.457   3.382  -1.758  1.00  0.00    -0.458 OA
BRANCH  30  31
ATOM     31  C   UNL     1       1.758   2.447  -2.690  1.00  0.00     0.338 C 
ATOM     32  O   UNL     1       2.881   2.017  -2.931  1.00  0.00    -0.246 OA
BRANCH  31  33
ATOM     33  C   UNL     1       0.494   1.786  -3.085  1.00  0.00     0.060 A 
ATOM     34  C   UNL     1      -0.744   2.436  -2.981  1.00  0.00     0.016 A 
ATOM     35  C   UNL     1       0.547   0.410  -3.291  1.00  0.00     0.016 A 
ATOM     36  C   UNL     1      -1.920   1.684  -2.918  1.00  0.00     0.010 A 
ATOM     37  C   UNL     1      -0.632  -0.321  -3.245  1.00  0.00     0.010 A 
ATOM     38  C   UNL     1      -1.860   0.288  -2.963  1.00  0.00    -0.014 A 
BRANCH  38  39
ATOM     39  C   UNL     1      -3.093  -0.514  -3.036  1.00  0.00     0.031 A 
ATOM     40  C   UNL     1      -3.582  -0.576  -4.434  1.00  0.00     0.074 A 
ATOM     41  C   UNL     1      -3.722  -1.236  -2.075  1.00  0.00     0.049 A 
ATOM     42  N   UNL     1      -4.625   0.031  -4.897  1.00  0.00    -0.248 NA
ATOM     43  C   UNL     1      -2.737  -1.201  -5.464  1.00  0.00     0.031 C 
ATOM     44  C   UNL     1      -3.358  -1.453  -0.684  1.00  0.00     0.029 A 
ATOM     45  N   UNL     1      -4.850  -2.013  -2.175  1.00  0.00    -0.354 N 
ATOM     46  C   UNL     1      -4.662  -0.285  -6.246  1.00  0.00     0.074 A 
ATOM     47  C   UNL     1      -3.383  -0.851  -6.575  1.00  0.00     0.031 C 
ATOM     48  C   UNL     1      -4.037  -2.495  -0.153  1.00  0.00     0.029 A 
ATOM     49  C   UNL     1      -5.062  -2.880  -1.098  1.00  0.00     0.049 A 
ATOM     50  H   UNL     1      -5.462  -1.964  -2.945  1.00  0.00     0.167 HD
ATOM     51  C   UNL     1      -5.840  -0.318  -6.920  1.00  0.00     0.037 A 
ATOM     52  C   UNL     1      -6.051  -3.798  -0.932  1.00  0.00     0.037 A 
ATOM     53  C   UNL     1      -6.876   0.387  -6.213  1.00  0.00     0.049 A 
ATOM     54  C   UNL     1      -7.157  -3.396  -1.823  1.00  0.00     0.074 A 
ATOM     55  C   UNL     1      -7.062   1.692  -5.802  1.00  0.00     0.029 A 
ATOM     56  N   UNL     1      -7.773  -0.363  -5.497  1.00  0.00    -0.354 N 
ATOM     57  N   UNL     1      -7.893  -2.340  -1.628  1.00  0.00    -0.248 NA
ATOM     58  C   UNL     1      -7.144  -3.923  -3.175  1.00  0.00     0.031 C 
ATOM     59  C   UNL     1      -7.734   1.598  -4.548  1.00  0.00     0.029 A 
ATOM     60  C   UNL     1      -7.970   0.248  -4.287  1.00  0.00     0.049 A 
ATOM     61  H   UNL     1      -8.202  -1.196  -5.800  1.00  0.00     0.167 HD
ATOM     62  C   UNL     1      -8.068  -1.809  -2.894  1.00  0.00     0.074 A 
ATOM     63  C   UNL     1      -7.656  -2.869  -3.813  1.00  0.00     0.031 C 
ATOM     64  C   UNL     1      -8.255  -0.469  -3.066  1.00  0.00     0.037 A 
BRANCH  51  65
ATOM     65  C   UNL     1      -6.128  -1.316  -8.007  1.00  0.00     0.064 A 
ATOM     66  C   UNL     1      -7.274  -1.151  -8.803  1.00  0.00     0.173 A 
ATOM     67  C   UNL     1      -5.481  -2.569  -8.116  1.00  0.00     0.173 A 
ATOM     68  F   UNL     1      -7.993  -0.020  -8.736  1.00  0.00    -0.203 F 
ATOM     69  C   UNL     1      -7.757  -2.179  -9.616  1.00  0.00     0.198 A 
ATOM     70  C   UNL     1      -5.927  -3.567  -8.976  1.00  0.00     0.198 A 
ATOM     71  F   UNL     1      -4.472  -2.927  -7.312  1.00  0.00    -0.203 F 
ATOM     72  F   UNL     1      -8.919  -2.022 -10.264  1.00  0.00    -0.200 F 
ATOM     73  C   UNL     1      -7.081  -3.383  -9.706  1.00  0.00     0.200 A 
ATOM     74  F   UNL     1      -5.273  -4.736  -9.022  1.00  0.00    -0.200 F 
ATOM     75  F   UNL     1      -7.568  -4.385 -10.448  1.00  0.00    -0.200 F 
ENDBRANCH  51  65
BRANCH  52  76
ATOM     76  C   UNL     1      -6.018  -5.137  -0.288  1.00  0.00     0.064 A 
ATOM     77  C   UNL     1      -7.206  -5.839  -0.006  1.00  0.00     0.173 A 
ATOM     78  C   UNL     1      -4.828  -5.887  -0.238  1.00  0.00     0.173 A 
ATOM     79  F   UNL     1      -8.391  -5.213  -0.069  1.00  0.00    -0.203 F 
ATOM     80  C   UNL     1      -7.207  -7.213   0.263  1.00  0.00     0.198 A 
ATOM     81  C   UNL     1      -4.830  -7.259   0.033  1.00  0.00     0.198 A 
ATOM     82  F   UNL     1      -3.655  -5.323  -0.556  1.00  0.00    -0.203 F 
ATOM     83  F   UNL     1      -8.367  -7.859   0.450  1.00  0.00    -0.200 F 
ATOM     84  C   UNL     1      -6.020  -7.925   0.266  1.00  0.00     0.200 A 
ATOM     85  F   UNL     1      -3.679  -7.946  -0.006  1.00  0.00    -0.200 F 
ATOM     86  F   UNL     1      -6.027  -9.253   0.447  1.00  0.00    -0.200 F 
ENDBRANCH  52  76
BRANCH  64  87
ATOM     87  C   UNL     1      -8.563   0.365  -1.853  1.00  0.00     0.064 A 
ATOM     88  C   UNL     1      -7.668   0.581  -0.790  1.00  0.00     0.173 A 
ATOM     89  C   UNL     1      -9.750   1.112  -1.859  1.00  0.00     0.173 A 
ATOM     90  F   UNL     1      -6.481  -0.038  -0.750  1.00  0.00    -0.203 F 
ATOM     91  C   UNL     1      -7.960   1.495   0.224  1.00  0.00     0.198 A 
ATOM     92  C   UNL     1     -10.022   2.048  -0.866  1.00  0.00     0.198 A 
ATOM     93  F   UNL     1     -10.622   0.976  -2.869  1.00  0.00    -0.203 F 
ATOM     94  F   UNL     1      -7.091   1.690   1.227  1.00  0.00    -0.200 F 
ATOM     95  C   UNL     1      -9.129   2.238   0.177  1.00  0.00     0.200 A 
ATOM     96  F   UNL     1     -11.132   2.795  -0.941  1.00  0.00    -0.200 F 
ATOM     97  F   UNL     1      -9.384   3.157   1.119  1.00  0.00    -0.200 F 
ENDBRANCH  64  87
ENDBRANCH  38  39
ENDBRANCH  31  33
ENDBRANCH  30  31
ENDBRANCH  29  30
ENDBRANCH   1  29
TORSDOF 15
