REMARK SMILES C=CCN(CC(=O)OCCOC(=O)c1ccc(-c2c3nc(c(-c4c(F)c(F)c(F)c(F)c4F)c4ccc([nH]4)c(-c4c(F)c(F)c(F)c(F)c4F)c4nc(c(-c5c(F)c(F)c(F)c(F)c5F)c5ccc2[nH]5)C=C4)C=C3)cc1)C(=O)/C=C/c1ccc(OC)cc1
REMARK SMILES IDX 8 1 6 2 7 3 5 4 4 5 3 6 2 7 1 8 77 9 78 10 79 11 80 12 81 13
REMARK SMILES IDX 82 14 88 15 83 16 87 17 84 18 85 19 86 20 9 21 10 22 11 23
REMARK SMILES IDX 12 24 13 25 14 26 15 27 76 28 16 29 75 30 17 31 18 32 19 33
REMARK SMILES IDX 69 34 20 35 74 36 68 37 70 38 21 39 73 40 67 41 66 42 22 44
REMARK SMILES IDX 54 45 34 46 53 47 35 48 38 49 52 50 71 51 36 52 37 53 51 55
REMARK SMILES IDX 72 56 39 57 23 58 24 59 32 60 25 61 26 62 30 63 33 64 27 65
REMARK SMILES IDX 28 66 31 67 29 68 55 69 56 70 64 71 57 72 58 73 62 74 65 75
REMARK SMILES IDX 59 76 60 77 63 78 61 79 40 80 41 81 49 82 42 83 43 84 47 85
REMARK SMILES IDX 50 86 44 87 45 88 48 89 46 90
REMARK H PARENT 70 43 38 54
REMARK Flexibility Score: inf
ROOT
ATOM      1  O   UNL     1      -4.627   0.272   2.000  1.00  0.00    -0.461 OA
ENDROOT
BRANCH   1   2
ATOM      2  C   UNL     1      -3.663   1.201   2.232  1.00  0.00     0.325 C 
ATOM      3  O   UNL     1      -3.903   2.371   2.531  1.00  0.00    -0.250 OA
BRANCH   2   4
ATOM      4  C   UNL     1      -2.236   0.649   2.335  1.00  0.00     0.242 C 
BRANCH   4   5
ATOM      5  N   UNL     1      -1.744  -0.534   1.614  1.00  0.00    -0.324 N 
BRANCH   5   6
ATOM      6  C   UNL     1      -1.209  -0.301   0.278  1.00  0.00     0.147 C 
BRANCH   6   7
ATOM      7  C   UNL     1       0.166   0.306   0.368  1.00  0.00    -0.014 C 
ATOM      8  C   UNL     1       1.269  -0.230  -0.172  1.00  0.00     0.006 C 
ENDBRANCH   6   7
ENDBRANCH   5   6
BRANCH   5   9
ATOM      9  C   UNL     1      -1.537  -1.785   2.190  1.00  0.00     0.247 C 
ATOM     10  O   UNL     1      -0.795  -2.641   1.714  1.00  0.00    -0.270 OA
BRANCH   9  11
ATOM     11  C   UNL     1      -2.322  -2.116   3.405  1.00  0.00     0.072 C 
ATOM     12  C   UNL     1      -1.747  -2.466   4.570  1.00  0.00     0.014 C 
BRANCH  12  13
ATOM     13  C   UNL     1      -2.459  -2.752   5.844  1.00  0.00    -0.025 A 
ATOM     14  C   UNL     1      -3.853  -2.809   5.966  1.00  0.00     0.012 A 
ATOM     15  C   UNL     1      -1.712  -2.923   7.018  1.00  0.00     0.012 A 
ATOM     16  C   UNL     1      -4.474  -2.902   7.220  1.00  0.00     0.047 A 
ATOM     17  C   UNL     1      -2.330  -3.027   8.278  1.00  0.00     0.047 A 
ATOM     18  C   UNL     1      -3.716  -2.967   8.386  1.00  0.00     0.118 A 
BRANCH  18  19
ATOM     19  O   UNL     1      -4.436  -2.965   9.547  1.00  0.00    -0.497 OA
ATOM     20  C   UNL     1      -3.727  -2.643  10.739  1.00  0.00     0.278 C 
ENDBRANCH  18  19
ENDBRANCH  12  13
ENDBRANCH   9  11
ENDBRANCH   5   9
ENDBRANCH   4   5
ENDBRANCH   2   4
ENDBRANCH   1   2
BRANCH   1  21
ATOM     21  C   UNL     1      -5.981   0.720   2.265  1.00  0.00     0.274 C 
BRANCH  21  22
ATOM     22  C   UNL     1      -6.473   0.449   3.706  1.00  0.00     0.275 C 
BRANCH  22  23
ATOM     23  O   UNL     1      -5.786   1.199   4.741  1.00  0.00    -0.458 OA
BRANCH  23  24
ATOM     24  C   UNL     1      -4.624   0.612   5.083  1.00  0.00     0.338 C 
ATOM     25  O   UNL     1      -4.158  -0.363   4.523  1.00  0.00    -0.246 OA
BRANCH  24  26
ATOM     26  C   UNL     1      -3.856   1.169   6.192  1.00  0.00     0.060 A 
ATOM     27  C   UNL     1      -2.646   1.811   5.898  1.00  0.00     0.016 A 
ATOM     28  C   UNL     1      -4.093   0.647   7.462  1.00  0.00     0.016 A 
ATOM     29  C   UNL     1      -1.646   1.895   6.867  1.00  0.00     0.010 A 
ATOM     30  C   UNL     1      -3.099   0.745   8.434  1.00  0.00     0.010 A 
ATOM     31  C   UNL     1      -1.864   1.349   8.139  1.00  0.00    -0.014 A 
BRANCH  31  32
ATOM     32  C   UNL     1      -0.916   1.603   9.245  1.00  0.00     0.031 A 
ATOM     33  C   UNL     1       0.107   0.608   9.693  1.00  0.00     0.074 A 
ATOM     34  C   UNL     1      -1.116   2.742   9.927  1.00  0.00     0.049 A 
ATOM     35  N   UNL     1       0.845   0.614  10.775  1.00  0.00    -0.248 NA
ATOM     36  C   UNL     1       0.328  -0.552   8.826  1.00  0.00     0.031 C 
ATOM     37  C   UNL     1      -2.107   3.760   9.572  1.00  0.00     0.029 A 
ATOM     38  N   UNL     1      -0.551   3.203  11.082  1.00  0.00    -0.354 N 
ATOM     39  C   UNL     1       1.595  -0.555  10.737  1.00  0.00     0.074 A 
ATOM     40  C   UNL     1       1.214  -1.254   9.526  1.00  0.00     0.031 C 
ATOM     41  C   UNL     1      -2.135   4.692  10.531  1.00  0.00     0.029 A 
ATOM     42  C   UNL     1      -1.170   4.328  11.561  1.00  0.00     0.049 A 
ATOM     43  H   UNL     1       0.218   2.774  11.523  1.00  0.00     0.167 HD
ATOM     44  C   UNL     1       2.522  -0.981  11.631  1.00  0.00     0.037 A 
ATOM     45  C   UNL     1      -1.002   4.982  12.721  1.00  0.00     0.037 A 
ATOM     46  C   UNL     1       2.932  -0.223  12.791  1.00  0.00     0.049 A 
ATOM     47  C   UNL     1       0.064   4.524  13.659  1.00  0.00     0.074 A 
ATOM     48  C   UNL     1       3.947  -0.500  13.693  1.00  0.00     0.029 A 
ATOM     49  N   UNL     1       2.351   0.968  13.205  1.00  0.00    -0.354 N 
ATOM     50  N   UNL     1       0.804   3.446  13.596  1.00  0.00    -0.248 NA
ATOM     51  C   UNL     1       0.348   5.394  14.804  1.00  0.00     0.031 C 
ATOM     52  C   UNL     1       3.959   0.506  14.667  1.00  0.00     0.029 A 
ATOM     53  C   UNL     1       2.977   1.430  14.352  1.00  0.00     0.049 A 
ATOM     54  H   UNL     1       1.603   1.418  12.750  1.00  0.00     0.167 HD
ATOM     55  C   UNL     1       1.668   3.517  14.675  1.00  0.00     0.074 A 
ATOM     56  C   UNL     1       1.355   4.748  15.377  1.00  0.00     0.031 C 
ATOM     57  C   UNL     1       2.642   2.649  15.042  1.00  0.00     0.037 A 
BRANCH  44  58
ATOM     58  C   UNL     1       3.181  -2.315  11.413  1.00  0.00     0.064 A 
ATOM     59  C   UNL     1       4.147  -2.510  10.415  1.00  0.00     0.173 A 
ATOM     60  C   UNL     1       2.932  -3.378  12.297  1.00  0.00     0.173 A 
ATOM     61  F   UNL     1       4.424  -1.529   9.544  1.00  0.00    -0.203 F 
ATOM     62  C   UNL     1       4.835  -3.719  10.308  1.00  0.00     0.198 A 
ATOM     63  C   UNL     1       3.637  -4.577  12.201  1.00  0.00     0.198 A 
ATOM     64  F   UNL     1       2.026  -3.243  13.278  1.00  0.00    -0.203 F 
ATOM     65  F   UNL     1       5.744  -3.886   9.338  1.00  0.00    -0.200 F 
ATOM     66  C   UNL     1       4.588  -4.746  11.206  1.00  0.00     0.200 A 
ATOM     67  F   UNL     1       3.409  -5.561  13.082  1.00  0.00    -0.200 F 
ATOM     68  F   UNL     1       5.269  -5.897  11.117  1.00  0.00    -0.200 F 
ENDBRANCH  44  58
BRANCH  45  69
ATOM     69  C   UNL     1      -1.854   6.159  12.986  1.00  0.00     0.064 A 
ATOM     70  C   UNL     1      -1.380   7.450  12.730  1.00  0.00     0.173 A 
ATOM     71  C   UNL     1      -3.200   6.005  13.348  1.00  0.00     0.173 A 
ATOM     72  F   UNL     1      -0.100   7.634  12.374  1.00  0.00    -0.203 F 
ATOM     73  C   UNL     1      -2.226   8.551  12.820  1.00  0.00     0.198 A 
ATOM     74  C   UNL     1      -4.049   7.105  13.422  1.00  0.00     0.198 A 
ATOM     75  F   UNL     1      -3.700   4.780  13.571  1.00  0.00    -0.203 F 
ATOM     76  F   UNL     1      -1.753   9.777  12.562  1.00  0.00    -0.200 F 
ATOM     77  C   UNL     1      -3.561   8.377  13.156  1.00  0.00     0.200 A 
ATOM     78  F   UNL     1      -5.343   6.932  13.721  1.00  0.00    -0.200 F 
ATOM     79  F   UNL     1      -4.382   9.434  13.209  1.00  0.00    -0.200 F 
ENDBRANCH  45  69
BRANCH  57  80
ATOM     80  C   UNL     1       3.449   3.028  16.245  1.00  0.00     0.064 A 
ATOM     81  C   UNL     1       2.927   2.910  17.541  1.00  0.00     0.173 A 
ATOM     82  C   UNL     1       4.748   3.533  16.095  1.00  0.00     0.173 A 
ATOM     83  F   UNL     1       1.681   2.451  17.727  1.00  0.00    -0.203 F 
ATOM     84  C   UNL     1       3.668   3.317  18.645  1.00  0.00     0.198 A 
ATOM     85  C   UNL     1       5.494   3.919  17.204  1.00  0.00     0.198 A 
ATOM     86  F   UNL     1       5.287   3.663  14.874  1.00  0.00    -0.203 F 
ATOM     87  F   UNL     1       3.132   3.249  19.872  1.00  0.00    -0.200 F 
ATOM     88  C   UNL     1       4.950   3.820  18.477  1.00  0.00     0.200 A 
ATOM     89  F   UNL     1       6.733   4.403  17.041  1.00  0.00    -0.200 F 
ATOM     90  F   UNL     1       5.657   4.225  19.541  1.00  0.00    -0.200 F 
ENDBRANCH  57  80
ENDBRANCH  31  32
ENDBRANCH  24  26
ENDBRANCH  23  24
ENDBRANCH  22  23
ENDBRANCH  21  22
ENDBRANCH   1  21
TORSDOF 18
