REMARK SMILES O=C(CC(=O)c1ccccc1)Nc1cccc(C(=O)OCCOC(=O)c2ccc(-c3c4nc(c(-c5c(F)c(F)c(F)c(F)c5F)c5ccc([nH]5)c(-c5c(F)c(F)c(F)c(F)c5F)c5nc(c(-c6c(F)c(F)c(F)c(F)c6F)c6ccc3[nH]6)C=C5)C=C4)cc2)c1
REMARK SMILES IDX 21 1 20 2 18 3 19 4 17 5 13 6 14 7 89 8 15 9 16 10 12 11
REMARK SMILES IDX 1 12 2 13 3 15 4 16 5 17 6 18 7 19 11 20 8 21 10 22 9 23
REMARK SMILES IDX 22 24 23 25 24 26 25 27 26 28 27 29 88 30 28 31 87 32 29 33
REMARK SMILES IDX 30 34 31 35 81 36 32 37 86 38 80 39 82 40 33 41 85 42 79 43
REMARK SMILES IDX 78 44 34 46 66 47 46 48 65 49 47 50 50 51 64 52 83 53 48 54
REMARK SMILES IDX 49 55 63 57 84 58 51 59 35 60 36 61 44 62 37 63 38 64 42 65
REMARK SMILES IDX 45 66 39 67 40 68 43 69 41 70 67 71 68 72 76 73 69 74 70 75
REMARK SMILES IDX 74 76 77 77 71 78 72 79 75 80 73 81 52 82 53 83 61 84 54 85
REMARK SMILES IDX 55 86 59 87 62 88 56 89 57 90 60 91 58 92
REMARK H PARENT 12 14 82 45 50 56
REMARK Flexibility Score: inf
ROOT
ATOM      1  C   UNL     1      -1.944   0.077   4.828  1.00  0.00     0.275 C 
ENDROOT
BRANCH   1   2
ATOM      2  O   UNL     1      -0.812   0.490   4.037  1.00  0.00    -0.458 OA
BRANCH   2   3
ATOM      3  C   UNL     1      -0.746   1.804   3.703  1.00  0.00     0.338 C 
ATOM      4  O   UNL     1      -1.538   2.673   4.011  1.00  0.00    -0.246 OA
BRANCH   3   5
ATOM      5  C   UNL     1       0.534   2.087   3.000  1.00  0.00     0.062 A 
ATOM      6  C   UNL     1       2.425   1.400   1.655  1.00  0.00     0.042 A 
ATOM      7  C   UNL     1       3.037   2.637   1.894  1.00  0.00     0.026 A 
ATOM      8  C   UNL     1       1.194   1.112   2.248  1.00  0.00     0.041 A 
ATOM      9  C   UNL     1       2.360   3.629   2.601  1.00  0.00     0.003 A 
ATOM     10  C   UNL     1       1.091   3.367   3.113  1.00  0.00     0.016 A 
BRANCH   6  11
ATOM     11  N   UNL     1       3.067   0.537   0.744  1.00  0.00    -0.326 N 
ATOM     12  O   UNL     1       1.260  -0.787   0.099  1.00  0.00    -0.274 OA
ATOM     13  C   UNL     1       2.424  -0.416  -0.029  1.00  0.00     0.232 C 
ATOM     14  H   UNL     1       4.043   0.617   0.651  1.00  0.00     0.169 HD
BRANCH  13  15
ATOM     15  C   UNL     1       3.266  -0.959  -1.150  1.00  0.00     0.181 C 
BRANCH  15  16
ATOM     16  C   UNL     1       4.058   0.075  -1.905  1.00  0.00     0.172 C 
ATOM     17  O   UNL     1       5.273   0.189  -1.752  1.00  0.00    -0.294 OA
BRANCH  16  18
ATOM     18  C   UNL     1       3.368   0.995  -2.841  1.00  0.00     0.018 A 
ATOM     19  C   UNL     1       3.873   1.107  -4.141  1.00  0.00     0.012 A 
ATOM     20  C   UNL     1       2.306   1.807  -2.431  1.00  0.00     0.012 A 
ATOM     21  C   UNL     1       3.304   2.017  -5.033  1.00  0.00     0.001 A 
ATOM     22  C   UNL     1       1.752   2.728  -3.323  1.00  0.00     0.001 A 
ATOM     23  C   UNL     1       2.247   2.830  -4.622  1.00  0.00     0.000 A 
ENDBRANCH  16  18
ENDBRANCH  15  16
ENDBRANCH  13  15
ENDBRANCH   6  11
ENDBRANCH   3   5
ENDBRANCH   2   3
ENDBRANCH   1   2
BRANCH   1  24
ATOM     24  C   UNL     1      -1.534  -0.175   6.279  1.00  0.00     0.275 C 
BRANCH  24  25
ATOM     25  O   UNL     1      -1.216   1.071   6.928  1.00  0.00    -0.458 OA
BRANCH  25  26
ATOM     26  C   UNL     1       0.088   1.256   7.226  1.00  0.00     0.338 C 
ATOM     27  O   UNL     1       1.012   0.475   7.081  1.00  0.00    -0.246 OA
BRANCH  26  28
ATOM     28  C   UNL     1       0.293   2.641   7.671  1.00  0.00     0.060 A 
ATOM     29  C   UNL     1       0.605   3.585   6.698  1.00  0.00     0.016 A 
ATOM     30  C   UNL     1       0.350   2.978   9.021  1.00  0.00     0.016 A 
ATOM     31  C   UNL     1       1.040   4.856   7.056  1.00  0.00     0.010 A 
ATOM     32  C   UNL     1       0.742   4.274   9.385  1.00  0.00     0.010 A 
ATOM     33  C   UNL     1       1.133   5.210   8.407  1.00  0.00    -0.014 A 
BRANCH  33  34
ATOM     34  C   UNL     1       1.766   6.504   8.783  1.00  0.00     0.031 A 
ATOM     35  C   UNL     1       3.085   6.500   9.510  1.00  0.00     0.074 A 
ATOM     36  C   UNL     1       1.216   7.678   8.417  1.00  0.00     0.049 A 
ATOM     37  N   UNL     1       3.756   7.499  10.026  1.00  0.00    -0.248 NA
ATOM     38  C   UNL     1       3.734   5.191   9.683  1.00  0.00     0.031 C 
ATOM     39  C   UNL     1      -0.015   7.832   7.642  1.00  0.00     0.029 A 
ATOM     40  N   UNL     1       1.636   8.968   8.635  1.00  0.00    -0.354 N 
ATOM     41  C   UNL     1       4.873   6.934  10.628  1.00  0.00     0.074 A 
ATOM     42  C   UNL     1       4.788   5.505  10.421  1.00  0.00     0.031 C 
ATOM     43  C   UNL     1      -0.233   9.139   7.421  1.00  0.00     0.029 A 
ATOM     44  C   UNL     1       0.804   9.917   8.094  1.00  0.00     0.049 A 
ATOM     45  H   UNL     1       2.456   9.191   9.132  1.00  0.00     0.167 HD
ATOM     46  C   UNL     1       5.880   7.551  11.292  1.00  0.00     0.037 A 
ATOM     47  C   UNL     1       0.856  11.261   8.156  1.00  0.00     0.037 A 
ATOM     48  C   UNL     1       5.995   8.977  11.452  1.00  0.00     0.049 A 
ATOM     49  C   UNL     1       1.966  11.923   8.926  1.00  0.00     0.074 A 
ATOM     50  C   UNL     1       6.971   9.698  12.119  1.00  0.00     0.029 A 
ATOM     51  N   UNL     1       5.111   9.903  10.918  1.00  0.00    -0.354 N 
ATOM     52  N   UNL     1       2.980  11.378   9.553  1.00  0.00    -0.248 NA
ATOM     53  C   UNL     1       1.930  13.391   9.009  1.00  0.00     0.031 C 
ATOM     54  C   UNL     1       6.663  11.059  12.011  1.00  0.00     0.029 A 
ATOM     55  C   UNL     1       5.518  11.187  11.241  1.00  0.00     0.049 A 
ATOM     56  H   UNL     1       4.312   9.680  10.388  1.00  0.00     0.167 HD
ATOM     57  C   UNL     1       3.714  12.431  10.082  1.00  0.00     0.074 A 
ATOM     58  C   UNL     1       3.037  13.650   9.692  1.00  0.00     0.031 C 
ATOM     59  C   UNL     1       4.845  12.391  10.828  1.00  0.00     0.037 A 
BRANCH  46  60
ATOM     60  C   UNL     1       6.922   6.678  11.929  1.00  0.00     0.064 A 
ATOM     61  C   UNL     1       7.877   5.986  11.170  1.00  0.00     0.173 A 
ATOM     62  C   UNL     1       6.968   6.541  13.325  1.00  0.00     0.173 A 
ATOM     63  F   UNL     1       7.865   6.070   9.831  1.00  0.00    -0.203 F 
ATOM     64  C   UNL     1       8.820   5.164  11.783  1.00  0.00     0.198 A 
ATOM     65  C   UNL     1       7.930   5.742  13.937  1.00  0.00     0.198 A 
ATOM     66  F   UNL     1       6.081   7.185  14.098  1.00  0.00    -0.203 F 
ATOM     67  F   UNL     1       9.689   4.470  11.035  1.00  0.00    -0.200 F 
ATOM     68  C   UNL     1       8.849   5.047  13.165  1.00  0.00     0.200 A 
ATOM     69  F   UNL     1       7.964   5.640  15.272  1.00  0.00    -0.200 F 
ATOM     70  F   UNL     1       9.758   4.257  13.753  1.00  0.00    -0.200 F 
ENDBRANCH  46  60
BRANCH  47  71
ATOM     71  C   UNL     1      -0.187  12.077   7.480  1.00  0.00     0.064 A 
ATOM     72  C   UNL     1       0.126  12.866   6.364  1.00  0.00     0.173 A 
ATOM     73  C   UNL     1      -1.512  12.092   7.939  1.00  0.00     0.173 A 
ATOM     74  F   UNL     1       1.386  12.907   5.906  1.00  0.00    -0.203 F 
ATOM     75  C   UNL     1      -0.845  13.647   5.740  1.00  0.00     0.198 A 
ATOM     76  C   UNL     1      -2.488  12.851   7.297  1.00  0.00     0.198 A 
ATOM     77  F   UNL     1      -1.862  11.359   9.006  1.00  0.00    -0.203 F 
ATOM     78  F   UNL     1      -0.509  14.424   4.702  1.00  0.00    -0.200 F 
ATOM     79  C   UNL     1      -2.152  13.633   6.202  1.00  0.00     0.200 A 
ATOM     80  F   UNL     1      -3.752  12.826   7.740  1.00  0.00    -0.200 F 
ATOM     81  F   UNL     1      -3.086  14.380   5.598  1.00  0.00    -0.200 F 
ENDBRANCH  47  71
BRANCH  59  82
ATOM     82  C   UNL     1       5.450  13.704  11.228  1.00  0.00     0.064 A 
ATOM     83  C   UNL     1       4.873  14.512  12.218  1.00  0.00     0.173 A 
ATOM     84  C   UNL     1       6.642  14.144  10.632  1.00  0.00     0.173 A 
ATOM     85  F   UNL     1       3.725  14.142  12.807  1.00  0.00    -0.203 F 
ATOM     86  C   UNL     1       5.453  15.726  12.579  1.00  0.00     0.198 A 
ATOM     87  C   UNL     1       7.233  15.345  11.013  1.00  0.00     0.198 A 
ATOM     88  F   UNL     1       7.236  13.404   9.683  1.00  0.00    -0.203 F 
ATOM     89  F   UNL     1       4.860  16.504  13.495  1.00  0.00    -0.200 F 
ATOM     90  C   UNL     1       6.635  16.138  11.980  1.00  0.00     0.200 A 
ATOM     91  F   UNL     1       8.380  15.737  10.441  1.00  0.00    -0.200 F 
ATOM     92  F   UNL     1       7.193  17.305  12.331  1.00  0.00    -0.200 F 
ENDBRANCH  59  82
ENDBRANCH  33  34
ENDBRANCH  26  28
ENDBRANCH  25  26
ENDBRANCH  24  25
ENDBRANCH   1  24
TORSDOF 15
