REMARK SMILES CC(C)c1cc(C2CC[NH+](Cc3c[nH]nc3C(=O)OCCOC(=O)c3ccc(-c4c5nc(c(-c6c(F)c(F)c(F)c(F)c6F)c6ccc([nH]6)c(-c6c(F)c(F)c(F)c(F)c6F)c6nc(c(-c7c(F)c(F)c(F)c(F)c7F)c7ccc4[nH]7)C=C6)C=C5)cc3)CC2)n[nH]1
REMARK SMILES IDX 20 1 19 2 17 3 18 4 16 5 12 6 13 7 14 8 15 9 11 11 10 12
REMARK SMILES IDX 7 13 8 14 89 15 9 16 88 17 6 19 4 20 5 21 91 22 90 23 2 25
REMARK SMILES IDX 1 26 3 27 21 28 22 29 23 30 24 31 25 32 26 33 87 34 27 35
REMARK SMILES IDX 86 36 28 37 29 38 30 39 80 40 31 41 85 42 79 43 81 44 32 45
REMARK SMILES IDX 84 46 78 47 77 48 33 50 65 51 45 52 64 53 46 54 49 55 63 56
REMARK SMILES IDX 82 57 47 58 48 59 62 61 83 62 50 63 34 64 35 65 43 66 36 67
REMARK SMILES IDX 37 68 41 69 44 70 38 71 39 72 42 73 40 74 66 75 67 76 75 77
REMARK SMILES IDX 68 78 69 79 73 80 76 81 70 82 71 83 74 84 72 85 51 86 52 87
REMARK SMILES IDX 60 88 53 89 54 90 58 91 61 92 55 93 56 94 59 95 57 96
REMARK H PARENT 14 10 10 18 91 24 81 49 49 60
REMARK Flexibility Score: inf
ROOT
ATOM      1  C   UNL     1      -3.248   8.808   0.245  1.00  0.00     0.275 C 
ENDROOT
BRANCH   1   2
ATOM      2  O   UNL     1      -3.039   7.888  -0.844  1.00  0.00    -0.457 OA
BRANCH   2   3
ATOM      3  C   UNL     1      -1.886   8.076  -1.560  1.00  0.00     0.359 C 
ATOM      4  O   UNL     1      -1.101   8.985  -1.330  1.00  0.00    -0.244 OA
BRANCH   3   5
ATOM      5  C   UNL     1      -1.650   7.047  -2.601  1.00  0.00     0.178 A 
ATOM      6  C   UNL     1      -2.545   6.110  -3.232  1.00  0.00     0.059 A 
ATOM      7  C   UNL     1      -1.745   5.452  -4.151  1.00  0.00     0.115 A 
ATOM      8  N   UNL     1      -0.488   5.937  -4.004  1.00  0.00    -0.284 N 
ATOM      9  N   UNL     1      -0.402   6.917  -3.107  1.00  0.00    -0.168 NA
ATOM     10  H   UNL     1       0.285   5.598  -4.511  1.00  0.00     0.189 HD
BRANCH   6  11
ATOM     11  C   UNL     1      -4.028   5.950  -3.062  1.00  0.00     0.303 C 
BRANCH  11  12
ATOM     12  N   UNL     1      -4.467   4.641  -2.556  1.00  0.00    -0.331 N 
ATOM     13  C   UNL     1      -4.567   1.877  -1.561  1.00  0.00     0.051 C 
ATOM     14  C   UNL     1      -4.941   2.252  -2.998  1.00  0.00     0.071 C 
ATOM     15  C   UNL     1      -4.695   3.096  -0.636  1.00  0.00     0.071 C 
ATOM     16  C   UNL     1      -4.240   3.524  -3.472  1.00  0.00     0.263 C 
ATOM     17  C   UNL     1      -4.032   4.364  -1.186  1.00  0.00     0.263 C 
ATOM     18  H   UNL     1      -5.483   4.725  -2.508  1.00  0.00     0.348 HD
BRANCH  13  19
ATOM     19  C   UNL     1      -3.233   1.177  -1.454  1.00  0.00     0.066 A 
ATOM     20  C   UNL     1      -1.074   0.632  -1.369  1.00  0.00     0.038 A 
ATOM     21  C   UNL     1      -1.923   1.687  -1.621  1.00  0.00     0.049 A 
ATOM     22  N   UNL     1      -1.894  -0.429  -1.103  1.00  0.00    -0.282 N 
ATOM     23  N   UNL     1      -3.200  -0.129  -1.152  1.00  0.00    -0.180 NA
ATOM     24  H   UNL     1      -1.557  -1.331  -0.894  1.00  0.00     0.190 HD
BRANCH  20  25
ATOM     25  C   UNL     1       0.421   0.557  -1.358  1.00  0.00     0.031 C 
ATOM     26  C   UNL     1       0.951  -0.043  -0.056  1.00  0.00     0.014 C 
ATOM     27  C   UNL     1       0.943  -0.214  -2.569  1.00  0.00     0.014 C 
ENDBRANCH  20  25
ENDBRANCH  13  19
ENDBRANCH  11  12
ENDBRANCH   6  11
ENDBRANCH   3   5
ENDBRANCH   2   3
ENDBRANCH   1   2
BRANCH   1  28
ATOM     28  C   UNL     1      -2.812   8.218   1.592  1.00  0.00     0.275 C 
BRANCH  28  29
ATOM     29  O   UNL     1      -1.385   8.040   1.676  1.00  0.00    -0.458 OA
BRANCH  29  30
ATOM     30  C   UNL     1      -0.935   6.824   1.284  1.00  0.00     0.338 C 
ATOM     31  O   UNL     1      -1.611   5.879   0.907  1.00  0.00    -0.246 OA
BRANCH  30  32
ATOM     32  C   UNL     1       0.537   6.819   1.240  1.00  0.00     0.060 A 
ATOM     33  C   UNL     1       1.143   6.450   0.037  1.00  0.00     0.016 A 
ATOM     34  C   UNL     1       1.319   7.101   2.363  1.00  0.00     0.016 A 
ATOM     35  C   UNL     1       2.528   6.365  -0.057  1.00  0.00     0.010 A 
ATOM     36  C   UNL     1       2.714   7.005   2.273  1.00  0.00     0.010 A 
ATOM     37  C   UNL     1       3.325   6.628   1.063  1.00  0.00    -0.014 A 
BRANCH  37  38
ATOM     38  C   UNL     1       4.793   6.444   0.963  1.00  0.00     0.031 A 
ATOM     39  C   UNL     1       5.434   5.215   1.537  1.00  0.00     0.074 A 
ATOM     40  C   UNL     1       5.541   7.351   0.309  1.00  0.00     0.049 A 
ATOM     41  N   UNL     1       6.698   4.878   1.573  1.00  0.00    -0.248 NA
ATOM     42  C   UNL     1       4.529   4.231   2.150  1.00  0.00     0.031 C 
ATOM     43  C   UNL     1       5.027   8.560  -0.332  1.00  0.00     0.029 A 
ATOM     44  N   UNL     1       6.892   7.391   0.072  1.00  0.00    -0.354 N 
ATOM     45  C   UNL     1       6.743   3.650   2.218  1.00  0.00     0.074 A 
ATOM     46  C   UNL     1       5.382   3.310   2.576  1.00  0.00     0.031 C 
ATOM     47  C   UNL     1       6.051   9.227  -0.888  1.00  0.00     0.029 A 
ATOM     48  C   UNL     1       7.295   8.511  -0.612  1.00  0.00     0.049 A 
ATOM     49  H   UNL     1       7.513   6.685   0.365  1.00  0.00     0.167 HD
ATOM     50  C   UNL     1       7.822   2.874   2.482  1.00  0.00     0.037 A 
ATOM     51  C   UNL     1       8.530   8.923  -0.957  1.00  0.00     0.037 A 
ATOM     52  C   UNL     1       9.176   3.212   2.124  1.00  0.00     0.049 A 
ATOM     53  C   UNL     1       9.718   8.070  -0.606  1.00  0.00     0.074 A 
ATOM     54  C   UNL     1      10.336   2.493   2.353  1.00  0.00     0.029 A 
ATOM     55  N   UNL     1       9.549   4.372   1.460  1.00  0.00    -0.354 N 
ATOM     56  N   UNL     1       9.753   6.914   0.011  1.00  0.00    -0.248 NA
ATOM     57  C   UNL     1      11.040   8.580  -0.999  1.00  0.00     0.031 C 
ATOM     58  C   UNL     1      11.416   3.235   1.859  1.00  0.00     0.029 A 
ATOM     59  C   UNL     1      10.924   4.396   1.286  1.00  0.00     0.049 A 
ATOM     60  H   UNL     1       8.929   5.074   1.157  1.00  0.00     0.167 HD
ATOM     61  C   UNL     1      11.092   6.554   0.073  1.00  0.00     0.074 A 
ATOM     62  C   UNL     1      11.838   7.604  -0.589  1.00  0.00     0.031 C 
ATOM     63  C   UNL     1      11.652   5.452   0.630  1.00  0.00     0.037 A 
BRANCH  50  64
ATOM     64  C   UNL     1       7.580   1.593   3.222  1.00  0.00     0.064 A 
ATOM     65  C   UNL     1       6.974   0.489   2.603  1.00  0.00     0.173 A 
ATOM     66  C   UNL     1       7.971   1.463   4.563  1.00  0.00     0.173 A 
ATOM     67  F   UNL     1       6.568   0.569   1.327  1.00  0.00    -0.203 F 
ATOM     68  C   UNL     1       6.745  -0.689   3.309  1.00  0.00     0.198 A 
ATOM     69  C   UNL     1       7.762   0.275   5.258  1.00  0.00     0.198 A 
ATOM     70  F   UNL     1       8.558   2.488   5.199  1.00  0.00    -0.203 F 
ATOM     71  F   UNL     1       6.121  -1.715   2.712  1.00  0.00    -0.200 F 
ATOM     72  C   UNL     1       7.143  -0.797   4.633  1.00  0.00     0.200 A 
ATOM     73  F   UNL     1       8.155   0.170   6.535  1.00  0.00    -0.200 F 
ATOM     74  F   UNL     1       6.920  -1.931   5.311  1.00  0.00    -0.200 F 
ENDBRANCH  50  64
BRANCH  51  75
ATOM     75  C   UNL     1       8.699  10.222  -1.656  1.00  0.00     0.064 A 
ATOM     76  C   UNL     1       9.081  10.278  -3.002  1.00  0.00     0.173 A 
ATOM     77  C   UNL     1       8.471  11.435  -0.989  1.00  0.00     0.173 A 
ATOM     78  F   UNL     1       9.337   9.145  -3.673  1.00  0.00    -0.203 F 
ATOM     79  C   UNL     1       9.234  11.500  -3.654  1.00  0.00     0.198 A 
ATOM     80  C   UNL     1       8.600  12.654  -1.648  1.00  0.00     0.198 A 
ATOM     81  F   UNL     1       8.109  11.433   0.303  1.00  0.00    -0.203 F 
ATOM     82  F   UNL     1       9.634  11.528  -4.933  1.00  0.00    -0.200 F 
ATOM     83  C   UNL     1       8.986  12.686  -2.979  1.00  0.00     0.200 A 
ATOM     84  F   UNL     1       8.351  13.797  -0.994  1.00  0.00    -0.200 F 
ATOM     85  F   UNL     1       9.127  13.860  -3.610  1.00  0.00    -0.200 F 
ENDBRANCH  51  75
BRANCH  63  86
ATOM     86  C   UNL     1      13.144   5.322   0.538  1.00  0.00     0.064 A 
ATOM     87  C   UNL     1      13.997   6.100   1.333  1.00  0.00     0.173 A 
ATOM     88  C   UNL     1      13.724   4.382  -0.327  1.00  0.00     0.173 A 
ATOM     89  F   UNL     1      13.490   7.023   2.164  1.00  0.00    -0.203 F 
ATOM     90  C   UNL     1      15.380   5.956   1.252  1.00  0.00     0.198 A 
ATOM     91  C   UNL     1      15.106   4.224  -0.389  1.00  0.00     0.198 A 
ATOM     92  F   UNL     1      12.950   3.610  -1.105  1.00  0.00    -0.203 F 
ATOM     93  F   UNL     1      16.178   6.737   1.992  1.00  0.00    -0.200 F 
ATOM     94  C   UNL     1      15.932   5.014   0.396  1.00  0.00     0.200 A 
ATOM     95  F   UNL     1      15.639   3.308  -1.209  1.00  0.00    -0.200 F 
ATOM     96  F   UNL     1      17.263   4.874   0.322  1.00  0.00    -0.200 F 
ENDBRANCH  63  86
ENDBRANCH  37  38
ENDBRANCH  30  32
ENDBRANCH  29  30
ENDBRANCH  28  29
ENDBRANCH   1  28
TORSDOF 15
