REMARK SMILES Cc1ccc(S(=O)(=O)N2CCCC2)cc1C(=O)N[C@H](CC1=c2ccccc2=NC1)C(=O)OCCOC(=O)c1ccc(-c2c3nc(c(-c4c(F)c(F)c(F)c(F)c4F)c4ccc([nH]4)c(-c4c(F)c(F)c(F)c(F)c4F)c4nc(c(-c5c(F)c(F)c(F)c(F)c5F)c5ccc2[nH]5)C=C4)C=C3)cc1
REMARK SMILES IDX 33 1 32 2 30 3 31 4 19 5 18 6 16 7 17 8 15 10 1 11 2 12 3 13
REMARK SMILES IDX 4 14 14 15 5 16 6 17 7 18 8 19 9 20 10 21 13 22 11 23 12 24
REMARK SMILES IDX 20 25 21 26 22 27 29 28 23 29 27 30 28 31 24 32 26 33 25 34
REMARK SMILES IDX 34 35 35 36 36 37 37 38 38 39 39 40 100 41 40 42 99 43 41 44
REMARK SMILES IDX 42 45 43 46 93 47 44 48 98 49 92 50 94 51 45 52 97 53 91 54
REMARK SMILES IDX 90 55 46 57 78 58 58 59 77 60 59 61 62 62 76 63 95 64 60 65
REMARK SMILES IDX 61 66 75 68 96 69 63 70 47 71 48 72 56 73 49 74 50 75 54 76
REMARK SMILES IDX 57 77 51 78 52 79 55 80 53 81 79 82 80 83 88 84 81 85 82 86
REMARK SMILES IDX 86 87 89 88 83 89 84 90 87 91 85 92 64 93 65 94 73 95 66 96
REMARK SMILES IDX 67 97 71 98 74 99 68 100 69 101 72 102 70 103
REMARK H PARENT 18 9 94 56 62 67
REMARK Flexibility Score: inf
ROOT
ATOM      1  C   UNL     1       4.617   3.904   2.570  1.00  0.00     0.274 C 
ENDROOT
BRANCH   1   2
ATOM      2  O   UNL     1       3.570   3.308   1.796  1.00  0.00    -0.461 OA
BRANCH   2   3
ATOM      3  C   UNL     1       3.945   2.962   0.546  1.00  0.00     0.329 C 
ATOM      4  O   UNL     1       5.088   3.115   0.121  1.00  0.00    -0.250 OA
BRANCH   3   5
ATOM      5  C   UNL     1       2.829   2.372  -0.321  1.00  0.00     0.196 C 
BRANCH   5   6
ATOM      6  N   UNL     1       3.017   2.935  -1.673  1.00  0.00    -0.338 N 
ATOM      7  C   UNL     1       3.329   4.164  -2.197  1.00  0.00     0.252 C 
ATOM      8  O   UNL     1       3.400   4.175  -3.434  1.00  0.00    -0.269 OA
ATOM      9  H   UNL     1       2.886   2.257  -2.376  1.00  0.00     0.164 HD
BRANCH   7  10
ATOM     10  C   UNL     1       3.703   5.445  -1.481  1.00  0.00     0.044 A 
ATOM     11  C   UNL     1       2.010   5.552   0.467  1.00  0.00     0.045 C 
ATOM     12  C   UNL     1       3.150   6.054  -0.338  1.00  0.00    -0.038 A 
ATOM     13  C   UNL     1       3.556   7.351   0.056  1.00  0.00     0.005 A 
ATOM     14  C   UNL     1       4.370   8.122  -0.752  1.00  0.00     0.022 A 
ATOM     15  C   UNL     1       4.617   6.224  -2.224  1.00  0.00     0.035 A 
ATOM     16  C   UNL     1       4.847   7.571  -1.932  1.00  0.00     0.083 A 
BRANCH  16  17
ATOM     17  S   UNL     1       5.456   8.717  -3.150  1.00  0.00     0.243 S 
ATOM     18  O   UNL     1       4.282   9.206  -3.842  1.00  0.00    -0.207 OA
ATOM     19  O   UNL     1       6.347   9.616  -2.445  1.00  0.00    -0.207 OA
BRANCH  17  20
ATOM     20  N   UNL     1       6.375   7.861  -4.238  1.00  0.00    -0.198 NA
ATOM     21  C   UNL     1       5.793   6.976  -5.264  1.00  0.00     0.102 C 
ATOM     22  C   UNL     1       7.747   7.463  -3.915  1.00  0.00     0.102 C 
ATOM     23  C   UNL     1       6.830   5.863  -5.406  1.00  0.00     0.018 C 
ATOM     24  C   UNL     1       8.134   6.577  -5.090  1.00  0.00     0.018 C 
ENDBRANCH  17  20
ENDBRANCH  16  17
ENDBRANCH   7  10
ENDBRANCH   5   6
BRANCH   5  25
ATOM     25  C   UNL     1       1.314   2.225   0.021  1.00  0.00     0.070 C 
BRANCH  25  26
ATOM     26  C   UNL     1       0.785   2.130   1.428  1.00  0.00    -0.037 C 
ATOM     27  C   UNL     1       0.359   1.062   2.105  1.00  0.00     0.001 A 
ATOM     28  C   UNL     1       0.474   3.369   2.225  1.00  0.00     0.174 C 
ATOM     29  C   UNL     1       0.280  -0.344   1.861  1.00  0.00     0.010 A 
ATOM     30  C   UNL     1      -0.124   1.635   3.378  1.00  0.00     0.065 A 
ATOM     31  N   UNL     1      -0.141   2.926   3.488  1.00  0.00    -0.280 NA
ATOM     32  C   UNL     1      -0.118  -1.151   2.859  1.00  0.00     0.001 A 
ATOM     33  C   UNL     1      -0.533   0.687   4.431  1.00  0.00     0.028 A 
ATOM     34  C   UNL     1      -0.485  -0.627   4.165  1.00  0.00     0.002 A 
ENDBRANCH  25  26
ENDBRANCH   5  25
ENDBRANCH   3   5
ENDBRANCH   2   3
ENDBRANCH   1   2
BRANCH   1  35
ATOM     35  C   UNL     1       4.407   3.695   4.071  1.00  0.00     0.275 C 
BRANCH  35  36
ATOM     36  O   UNL     1       3.478   2.660   4.502  1.00  0.00    -0.458 OA
BRANCH  36  37
ATOM     37  C   UNL     1       3.406   1.337   4.183  1.00  0.00     0.338 C 
ATOM     38  O   UNL     1       2.597   0.583   4.654  1.00  0.00    -0.246 OA
BRANCH  37  39
ATOM     39  C   UNL     1       4.360   0.833   3.187  1.00  0.00     0.060 A 
ATOM     40  C   UNL     1       3.908   0.078   2.090  1.00  0.00     0.016 A 
ATOM     41  C   UNL     1       5.694   1.163   3.337  1.00  0.00     0.016 A 
ATOM     42  C   UNL     1       4.794  -0.279   1.083  1.00  0.00     0.010 A 
ATOM     43  C   UNL     1       6.531   0.974   2.274  1.00  0.00     0.010 A 
ATOM     44  C   UNL     1       6.097   0.194   1.186  1.00  0.00    -0.014 A 
BRANCH  44  45
ATOM     45  C   UNL     1       7.216  -0.423   0.507  1.00  0.00     0.031 A 
ATOM     46  C   UNL     1       7.830   0.131  -0.696  1.00  0.00     0.074 A 
ATOM     47  C   UNL     1       7.819  -1.294   1.344  1.00  0.00     0.049 A 
ATOM     48  N   UNL     1       8.570  -0.558  -1.492  1.00  0.00    -0.248 NA
ATOM     49  C   UNL     1       7.649   1.510  -1.130  1.00  0.00     0.031 C 
ATOM     50  C   UNL     1       9.203  -1.696   1.447  1.00  0.00     0.029 A 
ATOM     51  N   UNL     1       7.198  -1.959   2.401  1.00  0.00    -0.354 N 
ATOM     52  C   UNL     1       9.250   0.357  -2.268  1.00  0.00     0.074 A 
ATOM     53  C   UNL     1       8.500   1.584  -2.158  1.00  0.00     0.031 C 
ATOM     54  C   UNL     1       9.287  -2.696   2.348  1.00  0.00     0.029 A 
ATOM     55  C   UNL     1       7.936  -3.088   2.739  1.00  0.00     0.049 A 
ATOM     56  H   UNL     1       6.365  -1.673   2.841  1.00  0.00     0.167 HD
ATOM     57  C   UNL     1      10.514   0.062  -2.694  1.00  0.00     0.037 A 
ATOM     58  C   UNL     1       7.317  -4.275   2.451  1.00  0.00     0.037 A 
ATOM     59  C   UNL     1      10.948  -1.223  -2.129  1.00  0.00     0.049 A 
ATOM     60  C   UNL     1       7.780  -4.828   1.111  1.00  0.00     0.074 A 
ATOM     61  C   UNL     1      11.754  -1.577  -1.058  1.00  0.00     0.029 A 
ATOM     62  N   UNL     1      10.223  -2.360  -2.428  1.00  0.00    -0.354 N 
ATOM     63  N   UNL     1       8.809  -4.385   0.437  1.00  0.00    -0.248 NA
ATOM     64  C   UNL     1       7.054  -5.869   0.386  1.00  0.00     0.031 C 
ATOM     65  C   UNL     1      11.479  -2.940  -0.717  1.00  0.00     0.029 A 
ATOM     66  C   UNL     1      10.517  -3.418  -1.587  1.00  0.00     0.049 A 
ATOM     67  H   UNL     1       9.567  -2.411  -3.160  1.00  0.00     0.167 HD
ATOM     68  C   UNL     1       8.844  -4.973  -0.795  1.00  0.00     0.074 A 
ATOM     69  C   UNL     1       7.726  -5.902  -0.776  1.00  0.00     0.031 C 
ATOM     70  C   UNL     1       9.751  -4.645  -1.766  1.00  0.00     0.037 A 
BRANCH  57  71
ATOM     71  C   UNL     1      11.453   1.070  -3.324  1.00  0.00     0.064 A 
ATOM     72  C   UNL     1      12.851   0.930  -3.202  1.00  0.00     0.173 A 
ATOM     73  C   UNL     1      11.040   2.199  -4.063  1.00  0.00     0.173 A 
ATOM     74  F   UNL     1      13.399  -0.152  -2.635  1.00  0.00    -0.203 F 
ATOM     75  C   UNL     1      13.750   1.893  -3.668  1.00  0.00     0.198 A 
ATOM     76  C   UNL     1      11.935   3.189  -4.488  1.00  0.00     0.198 A 
ATOM     77  F   UNL     1       9.764   2.354  -4.444  1.00  0.00    -0.203 F 
ATOM     78  F   UNL     1      15.067   1.701  -3.512  1.00  0.00    -0.200 F 
ATOM     79  C   UNL     1      13.291   3.040  -4.280  1.00  0.00     0.200 A 
ATOM     80  F   UNL     1      11.472   4.286  -5.105  1.00  0.00    -0.200 F 
ATOM     81  F   UNL     1      14.151   3.980  -4.694  1.00  0.00    -0.200 F 
ENDBRANCH  57  71
BRANCH  58  82
ATOM     82  C   UNL     1       5.898  -4.257   2.963  1.00  0.00     0.064 A 
ATOM     83  C   UNL     1       5.714  -4.108   4.357  1.00  0.00     0.173 A 
ATOM     84  C   UNL     1       4.800  -3.943   2.146  1.00  0.00     0.173 A 
ATOM     85  F   UNL     1       6.723  -4.389   5.197  1.00  0.00    -0.203 F 
ATOM     86  C   UNL     1       4.554  -3.541   4.888  1.00  0.00     0.198 A 
ATOM     87  C   UNL     1       3.627  -3.402   2.686  1.00  0.00     0.198 A 
ATOM     88  F   UNL     1       4.890  -4.035   0.812  1.00  0.00    -0.203 F 
ATOM     89  F   UNL     1       4.478  -3.281   6.201  1.00  0.00    -0.200 F 
ATOM     90  C   UNL     1       3.522  -3.164   4.048  1.00  0.00     0.200 A 
ATOM     91  F   UNL     1       2.635  -3.019   1.868  1.00  0.00    -0.200 F 
ATOM     92  F   UNL     1       2.444  -2.541   4.542  1.00  0.00    -0.200 F 
ENDBRANCH  58  82
BRANCH  70  93
ATOM     93  C   UNL     1       9.933  -5.468  -3.019  1.00  0.00     0.064 A 
ATOM     94  C   UNL     1       9.791  -6.867  -3.007  1.00  0.00     0.173 A 
ATOM     95  C   UNL     1      10.388  -4.920  -4.240  1.00  0.00     0.173 A 
ATOM     96  F   UNL     1       9.518  -7.527  -1.872  1.00  0.00    -0.203 F 
ATOM     97  C   UNL     1       9.962  -7.638  -4.156  1.00  0.00     0.198 A 
ATOM     98  C   UNL     1      10.617  -5.699  -5.370  1.00  0.00     0.198 A 
ATOM     99  F   UNL     1      10.626  -3.613  -4.399  1.00  0.00    -0.203 F 
ATOM    100  F   UNL     1       9.733  -8.957  -4.106  1.00  0.00    -0.200 F 
ATOM    101  C   UNL     1      10.376  -7.054  -5.337  1.00  0.00     0.200 A 
ATOM    102  F   UNL     1      11.071  -5.120  -6.490  1.00  0.00    -0.200 F 
ATOM    103  F   UNL     1      10.557  -7.797  -6.436  1.00  0.00    -0.200 F 
ENDBRANCH  70  93
ENDBRANCH  44  45
ENDBRANCH  37  39
ENDBRANCH  36  37
ENDBRANCH  35  36
ENDBRANCH   1  35
TORSDOF 17
