REMARK SMILES C[C@@H](C(=O)OCCOC(=O)c1ccc(-c2c3nc(c(-c4c(F)c(F)c(F)c(F)c4F)c4ccc([nH]4)c(-c4c(F)c(F)c(F)c(F)c4F)c4nc(c(-c5c(F)c(F)c(F)c(F)c5F)c5ccc2[nH]5)C=C4)C=C3)cc1)c1cccn(C(F)F)c1=O
REMARK SMILES IDX 6 1 5 2 3 3 4 4 2 5 1 6 74 7 75 8 82 9 76 10 78 11 83 12
REMARK SMILES IDX 77 13 79 14 80 15 81 16 7 17 8 18 9 19 10 20 11 21 12 22
REMARK SMILES IDX 73 23 13 24 72 25 14 26 15 27 16 28 66 29 17 30 71 31 65 32
REMARK SMILES IDX 67 33 18 34 70 35 64 36 63 37 19 39 51 40 31 41 50 42 32 43
REMARK SMILES IDX 35 44 49 45 68 46 33 47 34 48 48 50 69 51 36 52 20 53 21 54
REMARK SMILES IDX 29 55 22 56 23 57 27 58 30 59 24 60 25 61 28 62 26 63 52 64
REMARK SMILES IDX 53 65 61 66 54 67 55 68 59 69 62 70 56 71 57 72 60 73 58 74
REMARK SMILES IDX 37 75 38 76 46 77 39 78 40 79 44 80 47 81 41 82 42 83 45 84
REMARK SMILES IDX 43 85
REMARK H PARENT 67 38 35 49
REMARK Flexibility Score: inf
ROOT
ATOM      1  C   UNL     1       2.222   2.571   2.736  1.00  0.00     0.274 C 
ENDROOT
BRANCH   1   2
ATOM      2  O   UNL     1       1.873   1.419   1.934  1.00  0.00    -0.462 OA
BRANCH   2   3
ATOM      3  C   UNL     1       0.892   0.600   2.412  1.00  0.00     0.313 C 
ATOM      4  O   UNL     1       0.289   0.787   3.464  1.00  0.00    -0.252 OA
BRANCH   3   5
ATOM      5  C   UNL     1       0.740  -0.672   1.543  1.00  0.00     0.132 C 
ATOM      6  C   UNL     1       1.039  -0.434   0.064  1.00  0.00     0.025 C 
BRANCH   5   7
ATOM      7  C   UNL     1      -0.628  -1.297   1.749  1.00  0.00     0.032 A 
ATOM      8  C   UNL     1      -0.871  -2.590   2.029  1.00  0.00     0.012 A 
ATOM      9  C   UNL     1      -1.791  -0.362   1.770  1.00  0.00     0.259 A 
ATOM     10  C   UNL     1      -2.193  -3.031   2.422  1.00  0.00     0.019 A 
ATOM     11  N   UNL     1      -2.906  -0.788   2.453  1.00  0.00    -0.258 N 
ATOM     12  O   UNL     1      -1.689   0.728   1.225  1.00  0.00    -0.269 OA
ATOM     13  C   UNL     1      -3.137  -2.123   2.703  1.00  0.00     0.095 A 
BRANCH  11  14
ATOM     14  C   UNL     1      -3.852   0.214   2.860  1.00  0.00     0.451 C 
ATOM     15  F   UNL     1      -5.026   0.041   2.203  1.00  0.00    -0.185 F 
ATOM     16  F   UNL     1      -4.126   0.070   4.186  1.00  0.00    -0.185 F 
ENDBRANCH  11  14
ENDBRANCH   5   7
ENDBRANCH   3   5
ENDBRANCH   2   3
ENDBRANCH   1   2
BRANCH   1  17
ATOM     17  C   UNL     1       1.946   3.862   1.964  1.00  0.00     0.275 C 
BRANCH  17  18
ATOM     18  O   UNL     1       0.527   4.092   1.942  1.00  0.00    -0.458 OA
BRANCH  18  19
ATOM     19  C   UNL     1       0.038   4.713   0.845  1.00  0.00     0.338 C 
ATOM     20  O   UNL     1       0.661   5.186  -0.093  1.00  0.00    -0.246 OA
BRANCH  19  21
ATOM     21  C   UNL     1      -1.425   4.602   0.905  1.00  0.00     0.060 A 
ATOM     22  C   UNL     1      -1.988   3.421   0.438  1.00  0.00     0.016 A 
ATOM     23  C   UNL     1      -2.235   5.606   1.438  1.00  0.00     0.016 A 
ATOM     24  C   UNL     1      -3.354   3.189   0.588  1.00  0.00     0.010 A 
ATOM     25  C   UNL     1      -3.620   5.389   1.549  1.00  0.00     0.010 A 
ATOM     26  C   UNL     1      -4.186   4.167   1.147  1.00  0.00    -0.014 A 
BRANCH  26  27
ATOM     27  C   UNL     1      -5.645   3.894   1.228  1.00  0.00     0.031 A 
ATOM     28  C   UNL     1      -6.469   3.916  -0.029  1.00  0.00     0.074 A 
ATOM     29  C   UNL     1      -6.218   3.485   2.376  1.00  0.00     0.049 A 
ATOM     30  N   UNL     1      -7.753   3.710  -0.184  1.00  0.00    -0.248 NA
ATOM     31  C   UNL     1      -5.744   4.177  -1.281  1.00  0.00     0.031 C 
ATOM     32  C   UNL     1      -5.516   3.254   3.636  1.00  0.00     0.029 A 
ATOM     33  N   UNL     1      -7.521   3.142   2.652  1.00  0.00    -0.354 N 
ATOM     34  C   UNL     1      -7.989   3.822  -1.546  1.00  0.00     0.074 A 
ATOM     35  C   UNL     1      -6.713   4.081  -2.178  1.00  0.00     0.031 C 
ATOM     36  C   UNL     1      -6.386   2.762   4.536  1.00  0.00     0.029 A 
ATOM     37  C   UNL     1      -7.723   2.716   3.943  1.00  0.00     0.049 A 
ATOM     38  H   UNL     1      -8.244   3.196   1.986  1.00  0.00     0.167 HD
ATOM     39  C   UNL     1      -9.166   3.755  -2.210  1.00  0.00     0.037 A 
ATOM     40  C   UNL     1      -8.859   2.359   4.579  1.00  0.00     0.037 A 
ATOM     41  C   UNL     1     -10.447   3.549  -1.592  1.00  0.00     0.049 A 
ATOM     42  C   UNL     1     -10.178   2.435   3.845  1.00  0.00     0.074 A 
ATOM     43  C   UNL     1     -11.704   3.601  -2.171  1.00  0.00     0.029 A 
ATOM     44  N   UNL     1     -10.636   3.256  -0.251  1.00  0.00    -0.354 N 
ATOM     45  N   UNL     1     -10.414   2.657   2.576  1.00  0.00    -0.248 NA
ATOM     46  C   UNL     1     -11.397   2.246   4.650  1.00  0.00     0.031 C 
ATOM     47  C   UNL     1     -12.657   3.385  -1.170  1.00  0.00     0.029 A 
ATOM     48  C   UNL     1     -11.991   3.147   0.021  1.00  0.00     0.049 A 
ATOM     49  H   UNL     1      -9.916   3.143   0.410  1.00  0.00     0.167 HD
ATOM     50  C   UNL     1     -11.797   2.628   2.430  1.00  0.00     0.074 A 
ATOM     51  C   UNL     1     -12.350   2.332   3.733  1.00  0.00     0.031 C 
ATOM     52  C   UNL     1     -12.540   2.846   1.318  1.00  0.00     0.037 A 
BRANCH  39  53
ATOM     53  C   UNL     1      -9.122   4.027  -3.680  1.00  0.00     0.064 A 
ATOM     54  C   UNL     1      -8.668   3.072  -4.600  1.00  0.00     0.173 A 
ATOM     55  C   UNL     1      -9.526   5.279  -4.169  1.00  0.00     0.173 A 
ATOM     56  F   UNL     1      -8.245   1.872  -4.174  1.00  0.00    -0.203 F 
ATOM     57  C   UNL     1      -8.602   3.370  -5.958  1.00  0.00     0.198 A 
ATOM     58  C   UNL     1      -9.480   5.564  -5.528  1.00  0.00     0.198 A 
ATOM     59  F   UNL     1      -9.962   6.225  -3.323  1.00  0.00    -0.203 F 
ATOM     60  F   UNL     1      -8.122   2.462  -6.819  1.00  0.00    -0.200 F 
ATOM     61  C   UNL     1      -9.011   4.613  -6.421  1.00  0.00     0.200 A 
ATOM     62  F   UNL     1      -9.879   6.764  -5.973  1.00  0.00    -0.200 F 
ATOM     63  F   UNL     1      -8.942   4.898  -7.729  1.00  0.00    -0.200 F 
ENDBRANCH  39  53
BRANCH  40  64
ATOM     64  C   UNL     1      -8.838   1.959   6.014  1.00  0.00     0.064 A 
ATOM     65  C   UNL     1      -9.261   0.683   6.417  1.00  0.00     0.173 A 
ATOM     66  C   UNL     1      -8.480   2.869   7.020  1.00  0.00     0.173 A 
ATOM     67  F   UNL     1      -9.657  -0.212   5.500  1.00  0.00    -0.203 F 
ATOM     68  C   UNL     1      -9.347   0.343   7.767  1.00  0.00     0.198 A 
ATOM     69  C   UNL     1      -8.532   2.517   8.367  1.00  0.00     0.198 A 
ATOM     70  F   UNL     1      -8.092   4.112   6.697  1.00  0.00    -0.203 F 
ATOM     71  F   UNL     1      -9.823  -0.858   8.124  1.00  0.00    -0.200 F 
ATOM     72  C   UNL     1      -8.977   1.258   8.740  1.00  0.00     0.200 A 
ATOM     73  F   UNL     1      -8.172   3.405   9.303  1.00  0.00    -0.200 F 
ATOM     74  F   UNL     1      -9.072   0.936  10.037  1.00  0.00    -0.200 F 
ENDBRANCH  40  64
BRANCH  52  75
ATOM     75  C   UNL     1     -14.035   2.766   1.445  1.00  0.00     0.064 A 
ATOM     76  C   UNL     1     -14.768   3.760   2.111  1.00  0.00     0.173 A 
ATOM     77  C   UNL     1     -14.749   1.720   0.842  1.00  0.00     0.173 A 
ATOM     78  F   UNL     1     -14.134   4.776   2.715  1.00  0.00    -0.203 F 
ATOM     79  C   UNL     1     -16.158   3.698   2.185  1.00  0.00     0.198 A 
ATOM     80  C   UNL     1     -16.140   1.676   0.894  1.00  0.00     0.198 A 
ATOM     81  F   UNL     1     -14.099   0.748   0.185  1.00  0.00    -0.203 F 
ATOM     82  F   UNL     1     -16.834   4.639   2.859  1.00  0.00    -0.200 F 
ATOM     83  C   UNL     1     -16.843   2.662   1.569  1.00  0.00     0.200 A 
ATOM     84  F   UNL     1     -16.802   0.681   0.286  1.00  0.00    -0.200 F 
ATOM     85  F   UNL     1     -18.181   2.611   1.631  1.00  0.00    -0.200 F 
ENDBRANCH  52  75
ENDBRANCH  26  27
ENDBRANCH  19  21
ENDBRANCH  18  19
ENDBRANCH  17  18
ENDBRANCH   1  17
TORSDOF 13
