REMARK SMILES O=C(Cn1nc(-c2ccccc2)ccc1=O)N[C@@H](C(=O)OCCOC(=O)c1ccc(-c2c3nc(c(-c4c(F)c(F)c(F)c(F)c4F)c4ccc([nH]4)c(-c4c(F)c(F)c(F)c(F)c4F)c4nc(c(-c5c(F)c(F)c(F)c(F)c5F)c5ccc2[nH]5)C=C4)C=C3)cc1)c1ccccc1
REMARK SMILES IDX 22 1 21 2 19 3 20 4 18 5 17 6 1 7 2 8 3 10 4 11 5 12 15 13
REMARK SMILES IDX 6 14 14 15 16 16 13 17 7 18 8 19 12 20 9 21 11 22 10 23
REMARK SMILES IDX 90 24 91 25 95 26 92 27 94 28 93 29 23 30 24 31 25 32 26 33
REMARK SMILES IDX 27 34 28 35 89 36 29 37 88 38 30 39 31 40 32 41 82 42 33 43
REMARK SMILES IDX 87 44 81 45 83 46 34 47 86 48 80 49 79 50 35 52 67 53 47 54
REMARK SMILES IDX 66 55 48 56 51 57 65 58 84 59 49 60 50 61 64 63 85 64 52 65
REMARK SMILES IDX 36 66 37 67 45 68 38 69 39 70 43 71 46 72 40 73 41 74 44 75
REMARK SMILES IDX 42 76 68 77 69 78 77 79 70 80 71 81 75 82 78 83 72 84 73 85
REMARK SMILES IDX 76 86 74 87 53 88 54 89 62 90 55 91 56 92 60 93 63 94 57 95
REMARK SMILES IDX 58 96 61 97 59 98
REMARK H PARENT 17 9 83 51 51 62
REMARK Flexibility Score: inf
ROOT
ATOM      1  C   UNL     1       2.959   4.886  -0.250  1.00  0.00     0.274 C 
ENDROOT
BRANCH   1   2
ATOM      2  O   UNL     1       2.605   3.519  -0.537  1.00  0.00    -0.460 OA
BRANCH   2   3
ATOM      3  C   UNL     1       1.926   3.279  -1.702  1.00  0.00     0.333 C 
ATOM      4  O   UNL     1       1.538   4.179  -2.440  1.00  0.00    -0.249 OA
BRANCH   3   5
ATOM      5  C   UNL     1       1.633   1.761  -1.906  1.00  0.00     0.223 C 
BRANCH   5   6
ATOM      6  N   UNL     1       2.475   0.967  -1.006  1.00  0.00    -0.337 N 
ATOM      7  O   UNL     1       0.775   0.099   0.253  1.00  0.00    -0.273 OA
ATOM      8  C   UNL     1       1.976   0.186   0.011  1.00  0.00     0.242 C 
ATOM      9  H   UNL     1       3.450   0.995  -1.136  1.00  0.00     0.164 HD
BRANCH   8  10
ATOM     10  C   UNL     1       3.043  -0.518   0.849  1.00  0.00     0.248 C 
BRANCH  10  11
ATOM     11  N   UNL     1       3.737  -1.534   0.061  1.00  0.00    -0.220 N 
ATOM     12  N   UNL     1       4.647  -1.073  -0.870  1.00  0.00    -0.169 NA
ATOM     13  C   UNL     1       3.444  -2.877   0.258  1.00  0.00     0.267 A 
ATOM     14  C   UNL     1       5.229  -1.951  -1.623  1.00  0.00     0.091 A 
ATOM     15  C   UNL     1       4.162  -3.833  -0.613  1.00  0.00     0.075 A 
ATOM     16  O   UNL     1       2.658  -3.317   1.092  1.00  0.00    -0.268 OA
ATOM     17  C   UNL     1       5.022  -3.409  -1.540  1.00  0.00     0.036 A 
BRANCH  14  18
ATOM     18  C   UNL     1       6.190  -1.495  -2.645  1.00  0.00     0.002 A 
ATOM     19  C   UNL     1       7.323  -0.788  -2.236  1.00  0.00     0.010 A 
ATOM     20  C   UNL     1       5.946  -1.731  -4.002  1.00  0.00     0.010 A 
ATOM     21  C   UNL     1       8.232  -0.336  -3.191  1.00  0.00     0.001 A 
ATOM     22  C   UNL     1       6.851  -1.260  -4.953  1.00  0.00     0.001 A 
ATOM     23  C   UNL     1       7.995  -0.571  -4.547  1.00  0.00     0.000 A 
ENDBRANCH  14  18
ENDBRANCH  10  11
ENDBRANCH   8  10
ENDBRANCH   5   6
BRANCH   5  24
ATOM     24  C   UNL     1       1.739   1.255  -3.354  1.00  0.00    -0.014 A 
ATOM     25  C   UNL     1       1.311   2.028  -4.449  1.00  0.00     0.006 A 
ATOM     26  C   UNL     1       2.181  -0.055  -3.634  1.00  0.00     0.006 A 
ATOM     27  C   UNL     1       1.394   1.547  -5.761  1.00  0.00     0.000 A 
ATOM     28  C   UNL     1       2.259  -0.538  -4.944  1.00  0.00     0.000 A 
ATOM     29  C   UNL     1       1.877   0.268  -6.010  1.00  0.00     0.000 A 
ENDBRANCH   5  24
ENDBRANCH   3   5
ENDBRANCH   2   3
ENDBRANCH   1   2
BRANCH   1  30
ATOM     30  C   UNL     1       4.476   5.075  -0.325  1.00  0.00     0.275 C 
BRANCH  30  31
ATOM     31  O   UNL     1       4.954   4.919  -1.674  1.00  0.00    -0.458 OA
BRANCH  31  32
ATOM     32  C   UNL     1       5.261   3.650  -2.041  1.00  0.00     0.338 C 
ATOM     33  O   UNL     1       5.236   2.656  -1.332  1.00  0.00    -0.246 OA
BRANCH  32  34
ATOM     34  C   UNL     1       5.456   3.598  -3.505  1.00  0.00     0.060 A 
ATOM     35  C   UNL     1       6.040   4.643  -4.229  1.00  0.00     0.016 A 
ATOM     36  C   UNL     1       4.998   2.458  -4.171  1.00  0.00     0.016 A 
ATOM     37  C   UNL     1       6.124   4.559  -5.624  1.00  0.00     0.010 A 
ATOM     38  C   UNL     1       5.054   2.388  -5.560  1.00  0.00     0.010 A 
ATOM     39  C   UNL     1       5.606   3.442  -6.296  1.00  0.00    -0.014 A 
BRANCH  39  40
ATOM     40  C   UNL     1       5.691   3.328  -7.768  1.00  0.00     0.031 A 
ATOM     41  C   UNL     1       4.593   3.841  -8.648  1.00  0.00     0.074 A 
ATOM     42  C   UNL     1       6.747   2.693  -8.306  1.00  0.00     0.049 A 
ATOM     43  N   UNL     1       4.546   3.896  -9.955  1.00  0.00    -0.248 NA
ATOM     44  C   UNL     1       3.385   4.344  -7.977  1.00  0.00     0.031 C 
ATOM     45  C   UNL     1       7.842   2.098  -7.542  1.00  0.00     0.029 A 
ATOM     46  N   UNL     1       7.064   2.431  -9.613  1.00  0.00    -0.354 N 
ATOM     47  C   UNL     1       3.323   4.474 -10.266  1.00  0.00     0.074 A 
ATOM     48  C   UNL     1       2.633   4.698  -9.012  1.00  0.00     0.031 C 
ATOM     49  C   UNL     1       8.710   1.531  -8.394  1.00  0.00     0.029 A 
ATOM     50  C   UNL     1       8.237   1.737  -9.762  1.00  0.00     0.049 A 
ATOM     51  H   UNL     1       6.503   2.714 -10.371  1.00  0.00     0.167 HD
ATOM     52  C   UNL     1       2.841   4.805 -11.488  1.00  0.00     0.037 A 
ATOM     53  C   UNL     1       8.871   1.332 -10.878  1.00  0.00     0.037 A 
ATOM     54  C   UNL     1       3.530   4.554 -12.730  1.00  0.00     0.049 A 
ATOM     55  C   UNL     1       8.308   1.697 -12.222  1.00  0.00     0.074 A 
ATOM     56  C   UNL     1       3.160   4.926 -14.012  1.00  0.00     0.029 A 
ATOM     57  N   UNL     1       4.718   3.848 -12.848  1.00  0.00    -0.354 N 
ATOM     58  N   UNL     1       7.218   2.366 -12.506  1.00  0.00    -0.248 NA
ATOM     59  C   UNL     1       9.078   1.275 -13.400  1.00  0.00     0.031 C 
ATOM     60  C   UNL     1       4.095   4.398 -14.909  1.00  0.00     0.029 A 
ATOM     61  C   UNL     1       5.076   3.744 -14.184  1.00  0.00     0.049 A 
ATOM     62  H   UNL     1       5.231   3.476 -12.095  1.00  0.00     0.167 HD
ATOM     63  C   UNL     1       7.183   2.470 -13.889  1.00  0.00     0.074 A 
ATOM     64  C   UNL     1       8.369   1.804 -14.388  1.00  0.00     0.031 C 
ATOM     65  C   UNL     1       6.253   3.070 -14.673  1.00  0.00     0.037 A 
BRANCH  52  66
ATOM     66  C   UNL     1       1.516   5.508 -11.559  1.00  0.00     0.064 A 
ATOM     67  C   UNL     1       1.383   6.844 -11.152  1.00  0.00     0.173 A 
ATOM     68  C   UNL     1       0.404   4.887 -12.146  1.00  0.00     0.173 A 
ATOM     69  F   UNL     1       2.417   7.483 -10.585  1.00  0.00    -0.203 F 
ATOM     70  C   UNL     1       0.183   7.530 -11.324  1.00  0.00     0.198 A 
ATOM     71  C   UNL     1      -0.787   5.584 -12.340  1.00  0.00     0.198 A 
ATOM     72  F   UNL     1       0.481   3.614 -12.565  1.00  0.00    -0.203 F 
ATOM     73  F   UNL     1       0.075   8.801 -10.913  1.00  0.00    -0.200 F 
ATOM     74  C   UNL     1      -0.896   6.903 -11.928  1.00  0.00     0.200 A 
ATOM     75  F   UNL     1      -1.823   4.983 -12.941  1.00  0.00    -0.200 F 
ATOM     76  F   UNL     1      -2.041   7.574 -12.118  1.00  0.00    -0.200 F 
ENDBRANCH  52  66
BRANCH  53  77
ATOM     77  C   UNL     1      10.158   0.608 -10.751  1.00  0.00     0.064 A 
ATOM     78  C   UNL     1      11.368   1.250 -11.041  1.00  0.00     0.173 A 
ATOM     79  C   UNL     1      10.209  -0.714 -10.288  1.00  0.00     0.173 A 
ATOM     80  F   UNL     1      11.364   2.511 -11.497  1.00  0.00    -0.203 F 
ATOM     81  C   UNL     1      12.586   0.595 -10.877  1.00  0.00     0.198 A 
ATOM     82  C   UNL     1      11.428  -1.362 -10.104  1.00  0.00     0.198 A 
ATOM     83  F   UNL     1       9.076  -1.365  -9.984  1.00  0.00    -0.203 F 
ATOM     84  F   UNL     1      13.729   1.225 -11.179  1.00  0.00    -0.200 F 
ATOM     85  C   UNL     1      12.615  -0.708 -10.402  1.00  0.00     0.200 A 
ATOM     86  F   UNL     1      11.455  -2.614  -9.627  1.00  0.00    -0.200 F 
ATOM     87  F   UNL     1      13.788  -1.332 -10.227  1.00  0.00    -0.200 F 
ENDBRANCH  53  77
BRANCH  65  88
ATOM     88  C   UNL     1       6.476   3.043 -16.157  1.00  0.00     0.064 A 
ATOM     89  C   UNL     1       6.314   1.865 -16.900  1.00  0.00     0.173 A 
ATOM     90  C   UNL     1       6.798   4.219 -16.852  1.00  0.00     0.173 A 
ATOM     91  F   UNL     1       6.021   0.712 -16.281  1.00  0.00    -0.203 F 
ATOM     92  C   UNL     1       6.482   1.862 -18.283  1.00  0.00     0.198 A 
ATOM     93  C   UNL     1       6.938   4.218 -18.237  1.00  0.00     0.198 A 
ATOM     94  F   UNL     1       6.958   5.374 -16.189  1.00  0.00    -0.203 F 
ATOM     95  F   UNL     1       6.360   0.716 -18.968  1.00  0.00    -0.200 F 
ATOM     96  C   UNL     1       6.785   3.039 -18.951  1.00  0.00     0.200 A 
ATOM     97  F   UNL     1       7.217   5.359 -18.883  1.00  0.00    -0.200 F 
ATOM     98  F   UNL     1       6.935   3.036 -20.282  1.00  0.00    -0.200 F 
ENDBRANCH  65  88
ENDBRANCH  39  40
ENDBRANCH  32  34
ENDBRANCH  31  32
ENDBRANCH  30  31
ENDBRANCH   1  30
TORSDOF 16
