REMARK SMILES C=CC[N@@H+](CC(=O)OCCOC(=O)c1ccc(-c2c3nc(c(-c4c(F)c(F)c(F)c(F)c4F)c4ccc([nH]4)c(-c4c(F)c(F)c(F)c(F)c4F)c4nc(c(-c5c(F)c(F)c(F)c(F)c5F)c5ccc2[nH]5)C=C4)C=C3)cc1)C[C@H]1CCC[C@H](C)C1
REMARK SMILES IDX 9 1 8 2 6 3 7 4 5 5 4 6 3 8 2 9 1 10 77 11 78 12 79 13 84 14
REMARK SMILES IDX 80 15 82 16 81 17 83 18 10 19 11 20 12 21 13 22 14 23 15 24
REMARK SMILES IDX 76 25 16 26 75 27 17 28 18 29 19 30 69 31 20 32 74 33 68 34
REMARK SMILES IDX 70 35 21 36 73 37 67 38 66 39 22 41 54 42 34 43 53 44 35 45
REMARK SMILES IDX 38 46 52 47 71 48 36 49 37 50 51 52 72 53 39 54 23 55 24 56
REMARK SMILES IDX 32 57 25 58 26 59 30 60 33 61 27 62 28 63 31 64 29 65 55 66
REMARK SMILES IDX 56 67 64 68 57 69 58 70 62 71 65 72 59 73 60 74 63 75 61 76
REMARK SMILES IDX 40 77 41 78 49 79 42 80 43 81 47 82 50 83 44 84 45 85 48 86
REMARK SMILES IDX 46 87
REMARK H PARENT 4 7 70 40 38 51
REMARK Flexibility Score: inf
ROOT
ATOM      1  C   UNL     1      -4.909  -0.877   0.734  1.00  0.00     0.274 C 
ENDROOT
BRANCH   1   2
ATOM      2  O   UNL     1      -3.675  -0.351   0.195  1.00  0.00    -0.458 OA
BRANCH   2   3
ATOM      3  C   UNL     1      -3.799   0.523  -0.839  1.00  0.00     0.361 C 
ATOM      4  O   UNL     1      -4.829   0.644  -1.502  1.00  0.00    -0.245 OA
BRANCH   3   5
ATOM      5  C   UNL     1      -2.617   1.472  -1.044  1.00  0.00     0.386 C 
BRANCH   5   6
ATOM      6  N   UNL     1      -1.293   1.067  -0.569  1.00  0.00    -0.322 N 
ATOM      7  H   UNL     1      -0.653   1.784  -0.912  1.00  0.00     0.348 HD
BRANCH   6   8
ATOM      8  C   UNL     1      -0.624   0.016  -1.295  1.00  0.00     0.290 C 
BRANCH   8   9
ATOM      9  C   UNL     1       0.851   0.277  -1.414  1.00  0.00     0.025 C 
ATOM     10  C   UNL     1       1.811  -0.569  -1.021  1.00  0.00     0.010 C 
ENDBRANCH   8   9
ENDBRANCH   6   8
BRANCH   6  11
ATOM     11  C   UNL     1      -0.824   1.533   0.730  1.00  0.00     0.266 C 
BRANCH  11  12
ATOM     12  C   UNL     1      -0.990   0.652   1.997  1.00  0.00     0.044 C 
ATOM     13  C   UNL     1      -0.189  -0.646   2.017  1.00  0.00     0.009 C 
ATOM     14  C   UNL     1      -0.645   1.502   3.246  1.00  0.00     0.012 C 
ATOM     15  C   UNL     1      -0.498  -1.430   3.292  1.00  0.00     0.001 C 
ATOM     16  C   UNL     1      -0.803   0.760   4.584  1.00  0.00    -0.014 C 
ATOM     17  C   UNL     1      -0.154  -0.629   4.543  1.00  0.00     0.003 C 
ATOM     18  C   UNL     1      -2.266   0.700   5.029  1.00  0.00     0.007 C 
ENDBRANCH  11  12
ENDBRANCH   6  11
ENDBRANCH   5   6
ENDBRANCH   3   5
ENDBRANCH   2   3
ENDBRANCH   1   2
BRANCH   1  19
ATOM     19  C   UNL     1      -5.053  -0.543   2.232  1.00  0.00     0.275 C 
BRANCH  19  20
ATOM     20  O   UNL     1      -5.536   0.792   2.539  1.00  0.00    -0.458 OA
BRANCH  20  21
ATOM     21  C   UNL     1      -4.674   1.783   2.261  1.00  0.00     0.338 C 
ATOM     22  O   UNL     1      -3.606   1.686   1.683  1.00  0.00    -0.246 OA
BRANCH  21  23
ATOM     23  C   UNL     1      -5.033   3.128   2.665  1.00  0.00     0.060 A 
ATOM     24  C   UNL     1      -4.798   4.120   1.700  1.00  0.00     0.016 A 
ATOM     25  C   UNL     1      -5.300   3.450   3.993  1.00  0.00     0.016 A 
ATOM     26  C   UNL     1      -4.850   5.452   2.057  1.00  0.00     0.010 A 
ATOM     27  C   UNL     1      -5.381   4.796   4.348  1.00  0.00     0.010 A 
ATOM     28  C   UNL     1      -5.176   5.792   3.376  1.00  0.00    -0.014 A 
BRANCH  28  29
ATOM     29  C   UNL     1      -5.554   7.189   3.636  1.00  0.00     0.031 A 
ATOM     30  C   UNL     1      -4.600   8.180   4.206  1.00  0.00     0.074 A 
ATOM     31  C   UNL     1      -6.797   7.531   3.253  1.00  0.00     0.049 A 
ATOM     32  N   UNL     1      -4.794   9.451   4.443  1.00  0.00    -0.248 NA
ATOM     33  C   UNL     1      -3.259   7.694   4.557  1.00  0.00     0.031 C 
ATOM     34  C   UNL     1      -7.764   6.608   2.648  1.00  0.00     0.029 A 
ATOM     35  N   UNL     1      -7.451   8.728   3.285  1.00  0.00    -0.354 N 
ATOM     36  C   UNL     1      -3.607   9.920   4.982  1.00  0.00     0.074 A 
ATOM     37  C   UNL     1      -2.694   8.796   5.040  1.00  0.00     0.031 C 
ATOM     38  C   UNL     1      -8.882   7.280   2.347  1.00  0.00     0.029 A 
ATOM     39  C   UNL     1      -8.721   8.662   2.773  1.00  0.00     0.049 A 
ATOM     40  H   UNL     1      -7.051   9.555   3.640  1.00  0.00     0.167 HD
ATOM     41  C   UNL     1      -3.328  11.180   5.394  1.00  0.00     0.037 A 
ATOM     42  C   UNL     1      -9.660   9.616   2.671  1.00  0.00     0.037 A 
ATOM     43  C   UNL     1      -4.263  12.275   5.321  1.00  0.00     0.049 A 
ATOM     44  C   UNL     1      -9.320  10.994   3.141  1.00  0.00     0.074 A 
ATOM     45  C   UNL     1      -4.086  13.593   5.703  1.00  0.00     0.029 A 
ATOM     46  N   UNL     1      -5.559  12.173   4.831  1.00  0.00    -0.354 N 
ATOM     47  N   UNL     1      -8.196  11.430   3.656  1.00  0.00    -0.248 NA
ATOM     48  C   UNL     1     -10.370  12.008   3.021  1.00  0.00     0.031 C 
ATOM     49  C   UNL     1      -5.285  14.280   5.474  1.00  0.00     0.029 A 
ATOM     50  C   UNL     1      -6.200  13.398   4.920  1.00  0.00     0.049 A 
ATOM     51  H   UNL     1      -5.963  11.349   4.473  1.00  0.00     0.167 HD
ATOM     52  C   UNL     1      -8.401  12.769   3.932  1.00  0.00     0.074 A 
ATOM     53  C   UNL     1      -9.751  13.080   3.498  1.00  0.00     0.031 C 
ATOM     54  C   UNL     1      -7.554  13.661   4.501  1.00  0.00     0.037 A 
BRANCH  41  55
ATOM     55  C   UNL     1      -1.977  11.434   5.992  1.00  0.00     0.064 A 
ATOM     56  C   UNL     1      -0.828  11.546   5.197  1.00  0.00     0.173 A 
ATOM     57  C   UNL     1      -1.839  11.617   7.376  1.00  0.00     0.173 A 
ATOM     58  F   UNL     1      -0.905  11.367   3.870  1.00  0.00    -0.203 F 
ATOM     59  C   UNL     1       0.413  11.823   5.768  1.00  0.00     0.198 A 
ATOM     60  C   UNL     1      -0.601  11.910   7.941  1.00  0.00     0.198 A 
ATOM     61  F   UNL     1      -2.909  11.521   8.180  1.00  0.00    -0.203 F 
ATOM     62  F   UNL     1       1.504  11.902   4.993  1.00  0.00    -0.200 F 
ATOM     63  C   UNL     1       0.524  12.011   7.138  1.00  0.00     0.200 A 
ATOM     64  F   UNL     1      -0.497  12.097   9.265  1.00  0.00    -0.200 F 
ATOM     65  F   UNL     1       1.717  12.284   7.684  1.00  0.00    -0.200 F 
ENDBRANCH  41  55
BRANCH  42  66
ATOM     66  C   UNL     1     -10.979   9.264   2.098  1.00  0.00     0.064 A 
ATOM     67  C   UNL     1     -11.332   9.665   0.805  1.00  0.00     0.173 A 
ATOM     68  C   UNL     1     -11.867   8.432   2.796  1.00  0.00     0.173 A 
ATOM     69  F   UNL     1     -10.513  10.463   0.105  1.00  0.00    -0.203 F 
ATOM     70  C   UNL     1     -12.526   9.241   0.226  1.00  0.00     0.198 A 
ATOM     71  C   UNL     1     -13.049   7.991   2.208  1.00  0.00     0.198 A 
ATOM     72  F   UNL     1     -11.560   8.008   4.031  1.00  0.00    -0.203 F 
ATOM     73  F   UNL     1     -12.847   9.643  -1.011  1.00  0.00    -0.200 F 
ATOM     74  C   UNL     1     -13.378   8.396   0.924  1.00  0.00     0.200 A 
ATOM     75  F   UNL     1     -13.857   7.157   2.877  1.00  0.00    -0.200 F 
ATOM     76  F   UNL     1     -14.513   7.969   0.356  1.00  0.00    -0.200 F 
ENDBRANCH  42  66
BRANCH  54  77
ATOM     77  C   UNL     1      -8.091  15.043   4.697  1.00  0.00     0.064 A 
ATOM     78  C   UNL     1      -8.986  15.328   5.738  1.00  0.00     0.173 A 
ATOM     79  C   UNL     1      -7.715  16.084   3.838  1.00  0.00     0.173 A 
ATOM     80  F   UNL     1      -9.388  14.354   6.568  1.00  0.00    -0.203 F 
ATOM     81  C   UNL     1      -9.505  16.608   5.899  1.00  0.00     0.198 A 
ATOM     82  C   UNL     1      -8.222  17.367   4.014  1.00  0.00     0.198 A 
ATOM     83  F   UNL     1      -6.863  15.853   2.828  1.00  0.00    -0.203 F 
ATOM     84  F   UNL     1     -10.394  16.851   6.872  1.00  0.00    -0.200 F 
ATOM     85  C   UNL     1      -9.121  17.627   5.039  1.00  0.00     0.200 A 
ATOM     86  F   UNL     1      -7.850  18.352   3.184  1.00  0.00    -0.200 F 
ATOM     87  F   UNL     1      -9.628  18.858   5.190  1.00  0.00    -0.200 F 
ENDBRANCH  54  77
ENDBRANCH  28  29
ENDBRANCH  21  23
ENDBRANCH  20  21
ENDBRANCH  19  20
ENDBRANCH   1  19
TORSDOF 16
