REMARK SMILES C[C@@H]1C(C(=O)OCCOC(=O)c2ccc(-c3c4nc(c(-c5c(F)c(F)c(F)c(F)c5F)c5ccc([nH]5)c(-c5c(F)c(F)c(F)c(F)c5F)c5nc(c(-c6c(F)c(F)c(F)c(F)c6F)c6ccc3[nH]6)C=C5)C=C4)cc2)=NC2=C1C(=O)C[C@H](c1ccccc1)C2
REMARK SMILES IDX 8 1 7 2 6 3 4 4 5 5 3 6 1 7 2 8 77 9 75 10 76 11 78 12 88 13
REMARK SMILES IDX 79 14 80 15 81 16 82 17 83 18 87 19 84 20 86 21 85 22 9 23
REMARK SMILES IDX 10 24 11 25 12 26 13 27 74 28 14 29 73 30 15 31 16 32 17 33
REMARK SMILES IDX 67 34 18 35 72 36 66 37 68 38 19 39 71 40 65 41 64 42 20 44
REMARK SMILES IDX 52 45 32 46 51 47 33 48 36 49 50 50 69 51 34 52 35 53 49 55
REMARK SMILES IDX 70 56 37 57 21 58 22 59 30 60 23 61 24 62 28 63 31 64 25 65
REMARK SMILES IDX 26 66 29 67 27 68 53 69 54 70 62 71 55 72 56 73 60 74 63 75
REMARK SMILES IDX 57 76 58 77 61 78 59 79 38 80 39 81 47 82 40 83 41 84 45 85
REMARK SMILES IDX 48 86 42 87 43 88 46 89 44 90
REMARK H PARENT 68 43 36 54
REMARK Flexibility Score: inf
ROOT
ATOM      1  C   UNL     1      -2.449  -0.252  -1.326  1.00  0.00     0.275 C 
ENDROOT
BRANCH   1   2
ATOM      2  C   UNL     1      -1.200   0.456  -1.816  1.00  0.00     0.275 C 
BRANCH   2   3
ATOM      3  O   UNL     1      -0.161   0.348  -0.827  1.00  0.00    -0.458 OA
BRANCH   3   4
ATOM      4  C   UNL     1      -0.150   1.291   0.151  1.00  0.00     0.353 C 
ATOM      5  O   UNL     1      -0.610   2.415   0.099  1.00  0.00    -0.245 OA
BRANCH   4   6
ATOM      6  C   UNL     1       0.363   0.635   1.429  1.00  0.00     0.133 C 
ATOM      7  C   UNL     1       2.747   0.060   1.444  1.00  0.00     0.020 C 
ATOM      8  C   UNL     1       1.340  -0.510   1.332  1.00  0.00     0.078 C 
ATOM      9  C   UNL     1       0.858  -1.126   2.593  1.00  0.00     0.026 C 
ATOM     10  N   UNL     1      -0.064   0.924   2.635  1.00  0.00    -0.249 NA
ATOM     11  C   UNL     1       0.190  -0.238   3.337  1.00  0.00     0.049 C 
ATOM     12  C   UNL     1       0.541  -2.553   2.745  1.00  0.00     0.161 C 
ATOM     13  C   UNL     1      -0.696  -0.694   4.460  1.00  0.00     0.065 C 
ATOM     14  O   UNL     1       1.348  -3.398   2.363  1.00  0.00    -0.294 OA
ATOM     15  C   UNL     1      -0.823  -2.939   3.322  1.00  0.00     0.089 C 
ATOM     16  C   UNL     1      -1.655  -1.772   3.918  1.00  0.00     0.033 C 
BRANCH  16  17
ATOM     17  C   UNL     1      -2.707  -1.177   2.963  1.00  0.00    -0.044 A 
ATOM     18  C   UNL     1      -2.976   0.629   2.890  1.00  0.00     0.004 A 
ATOM     19  C   UNL     1      -3.620  -2.243   1.772  1.00  0.00     0.004 A 
ATOM     20  C   UNL     1      -4.056   1.370   1.639  1.00  0.00     0.000 A 
ATOM     21  C   UNL     1      -4.691  -1.503   0.503  1.00  0.00     0.000 A 
ATOM     22  C   UNL     1      -4.921   0.302   0.412  1.00  0.00     0.000 A 
ENDBRANCH  16  17
ENDBRANCH   4   6
ENDBRANCH   3   4
ENDBRANCH   2   3
ENDBRANCH   1   2
BRANCH   1  23
ATOM     23  O   UNL     1      -2.952   0.450  -0.167  1.00  0.00    -0.458 OA
BRANCH  23  24
ATOM     24  C   UNL     1      -3.061  -0.367   1.082  1.00  0.00     0.338 C 
ATOM     25  O   UNL     1      -1.938  -0.942   1.021  1.00  0.00    -0.246 OA
BRANCH  24  26
ATOM     26  C   UNL     1      -4.746  -0.502   2.420  1.00  0.00     0.060 A 
ATOM     27  C   UNL     1      -4.921  -1.218   3.690  1.00  0.00     0.016 A 
ATOM     28  C   UNL     1      -6.138  -0.055   2.264  1.00  0.00     0.016 A 
ATOM     29  C   UNL     1      -5.966  -2.110   3.914  1.00  0.00     0.010 A 
ATOM     30  C   UNL     1      -7.174  -0.972   2.251  1.00  0.00     0.010 A 
ATOM     31  C   UNL     1      -7.028  -2.091   3.030  1.00  0.00    -0.014 A 
BRANCH  31  32
ATOM     32  C   UNL     1      -8.231  -2.799   3.387  1.00  0.00     0.031 A 
ATOM     33  C   UNL     1      -8.806  -2.160   4.601  1.00  0.00     0.074 A 
ATOM     34  C   UNL     1      -8.822  -3.763   2.667  1.00  0.00     0.049 A 
ATOM     35  N   UNL     1      -8.723  -2.612   5.807  1.00  0.00    -0.248 NA
ATOM     36  C   UNL     1      -9.196  -0.736   4.524  1.00  0.00     0.031 C 
ATOM     37  C   UNL     1      -8.519  -4.270   1.332  1.00  0.00     0.029 A 
ATOM     38  N   UNL     1      -9.929  -4.466   3.017  1.00  0.00    -0.354 N 
ATOM     39  C   UNL     1      -9.246  -1.605   6.605  1.00  0.00     0.074 A 
ATOM     40  C   UNL     1      -9.250  -0.411   5.814  1.00  0.00     0.031 C 
ATOM     41  C   UNL     1      -9.553  -5.038   0.903  1.00  0.00     0.029 A 
ATOM     42  C   UNL     1     -10.516  -5.181   1.982  1.00  0.00     0.049 A 
ATOM     43  H   UNL     1     -10.288  -4.468   3.934  1.00  0.00     0.167 HD
ATOM     44  C   UNL     1      -9.946  -1.919   7.724  1.00  0.00     0.037 A 
ATOM     45  C   UNL     1     -11.748  -5.750   2.051  1.00  0.00     0.037 A 
ATOM     46  C   UNL     1      -9.619  -3.255   8.165  1.00  0.00     0.049 A 
ATOM     47  C   UNL     1     -12.082  -5.892   3.500  1.00  0.00     0.074 A 
ATOM     48  C   UNL     1      -8.442  -3.874   8.543  1.00  0.00     0.029 A 
ATOM     49  N   UNL     1     -10.480  -4.268   7.817  1.00  0.00    -0.354 N 
ATOM     50  N   UNL     1     -11.444  -6.700   4.304  1.00  0.00    -0.248 NA
ATOM     51  C   UNL     1     -12.757  -4.773   4.146  1.00  0.00     0.031 C 
ATOM     52  C   UNL     1      -8.494  -5.167   7.941  1.00  0.00     0.029 A 
ATOM     53  C   UNL     1      -9.731  -5.301   7.310  1.00  0.00     0.049 A 
ATOM     54  H   UNL     1     -11.460  -4.256   7.914  1.00  0.00     0.167 HD
ATOM     55  C   UNL     1     -11.273  -5.973   5.475  1.00  0.00     0.074 A 
ATOM     56  C   UNL     1     -12.146  -4.809   5.335  1.00  0.00     0.031 C 
ATOM     57  C   UNL     1     -10.219  -6.218   6.308  1.00  0.00     0.037 A 
BRANCH  44  58
ATOM     58  C   UNL     1     -11.219  -1.208   8.108  1.00  0.00     0.064 A 
ATOM     59  C   UNL     1     -11.834  -1.555   9.323  1.00  0.00     0.173 A 
ATOM     60  C   UNL     1     -12.015  -0.443   7.221  1.00  0.00     0.173 A 
ATOM     61  F   UNL     1     -11.176  -2.287  10.235  1.00  0.00    -0.203 F 
ATOM     62  C   UNL     1     -13.171  -1.244   9.584  1.00  0.00     0.198 A 
ATOM     63  C   UNL     1     -13.329  -0.090   7.508  1.00  0.00     0.198 A 
ATOM     64  F   UNL     1     -11.615  -0.097   5.994  1.00  0.00    -0.203 F 
ATOM     65  F   UNL     1     -13.754  -1.714  10.694  1.00  0.00    -0.200 F 
ATOM     66  C   UNL     1     -13.919  -0.522   8.673  1.00  0.00     0.200 A 
ATOM     67  F   UNL     1     -14.037   0.594   6.599  1.00  0.00    -0.200 F 
ATOM     68  F   UNL     1     -15.218  -0.285   8.889  1.00  0.00    -0.200 F 
ENDBRANCH  44  58
BRANCH  45  69
ATOM     69  C   UNL     1     -12.793  -5.820   0.999  1.00  0.00     0.064 A 
ATOM     70  C   UNL     1     -13.916  -6.653   1.148  1.00  0.00     0.173 A 
ATOM     71  C   UNL     1     -12.864  -4.857  -0.026  1.00  0.00     0.173 A 
ATOM     72  F   UNL     1     -13.952  -7.566   2.130  1.00  0.00    -0.203 F 
ATOM     73  C   UNL     1     -15.052  -6.510   0.341  1.00  0.00     0.198 A 
ATOM     74  C   UNL     1     -13.996  -4.716  -0.831  1.00  0.00     0.198 A 
ATOM     75  F   UNL     1     -11.878  -3.966  -0.200  1.00  0.00    -0.203 F 
ATOM     76  F   UNL     1     -16.128  -7.280   0.556  1.00  0.00    -0.200 F 
ATOM     77  C   UNL     1     -15.095  -5.533  -0.639  1.00  0.00     0.200 A 
ATOM     78  F   UNL     1     -14.040  -3.740  -1.749  1.00  0.00    -0.200 F 
ATOM     79  F   UNL     1     -16.205  -5.349  -1.367  1.00  0.00    -0.200 F 
ENDBRANCH  45  69
BRANCH  57  80
ATOM     80  C   UNL     1      -9.384  -7.440   6.040  1.00  0.00     0.064 A 
ATOM     81  C   UNL     1      -8.625  -7.644   4.873  1.00  0.00     0.173 A 
ATOM     82  C   UNL     1      -9.237  -8.375   7.072  1.00  0.00     0.173 A 
ATOM     83  F   UNL     1      -8.629  -6.744   3.881  1.00  0.00    -0.203 F 
ATOM     84  C   UNL     1      -7.795  -8.757   4.734  1.00  0.00     0.198 A 
ATOM     85  C   UNL     1      -8.381  -9.465   6.946  1.00  0.00     0.198 A 
ATOM     86  F   UNL     1      -9.893  -8.203   8.230  1.00  0.00    -0.203 F 
ATOM     87  F   UNL     1      -7.090  -8.934   3.607  1.00  0.00    -0.200 F 
ATOM     88  C   UNL     1      -7.670  -9.663   5.774  1.00  0.00     0.200 A 
ATOM     89  F   UNL     1      -8.225 -10.309   7.975  1.00  0.00    -0.200 F 
ATOM     90  F   UNL     1      -6.843 -10.711   5.658  1.00  0.00    -0.200 F 
ENDBRANCH  57  80
ENDBRANCH  31  32
ENDBRANCH  24  26
ENDBRANCH  23  24
ENDBRANCH   1  23
TORSDOF 12
