REMARK SMILES C[C@H](CCC(=O)OCCOC(=O)c1ccc(-c2c3nc(c(-c4c(F)c(F)c(F)c(F)c4F)c4ccc([nH]4)c(-c4c(F)c(F)c(F)c(F)c4F)c4nc(c(-c5c(F)c(F)c(F)c(F)c5F)c5ccc2[nH]5)C=C4)C=C3)cc1)NC(=O)C[C@H]1CCCCO1
REMARK SMILES IDX 7 1 5 2 6 3 4 4 3 5 2 6 1 7 76 8 77 9 78 11 79 12 80 13
REMARK SMILES IDX 81 14 85 15 82 16 84 17 83 18 8 19 9 20 10 21 11 22 12 23
REMARK SMILES IDX 13 24 14 25 75 26 15 27 74 28 16 29 17 30 18 31 68 32 19 33
REMARK SMILES IDX 73 34 67 35 69 36 20 37 72 38 66 39 65 40 21 42 53 43 33 44
REMARK SMILES IDX 52 45 34 46 37 47 51 48 70 49 35 50 36 51 50 53 71 54 38 55
REMARK SMILES IDX 22 56 23 57 31 58 24 59 25 60 29 61 32 62 26 63 27 64 30 65
REMARK SMILES IDX 28 66 54 67 55 68 63 69 56 70 57 71 61 72 64 73 58 74 59 75
REMARK SMILES IDX 62 76 60 77 39 78 40 79 48 80 41 81 42 82 46 83 49 84 43 85
REMARK SMILES IDX 44 86 47 87 45 88
REMARK H PARENT 76 10 69 41 37 52
REMARK Flexibility Score: inf
ROOT
ATOM      1  O   UNL     1       0.944   5.514   3.819  1.00  0.00    -0.462 OA
ENDROOT
BRANCH   1   2
ATOM      2  C   UNL     1       0.010   5.068   4.694  1.00  0.00     0.305 C 
ATOM      3  O   UNL     1      -0.344   5.657   5.707  1.00  0.00    -0.252 OA
BRANCH   2   4
ATOM      4  C   UNL     1      -0.535   3.709   4.315  1.00  0.00     0.125 C 
BRANCH   4   5
ATOM      5  C   UNL     1      -0.569   3.412   2.820  1.00  0.00     0.036 C 
BRANCH   5   6
ATOM      6  C   UNL     1       0.708   2.876   2.124  1.00  0.00     0.079 C 
ATOM      7  C   UNL     1       1.944   2.661   2.992  1.00  0.00     0.031 C 
BRANCH   6   8
ATOM      8  N   UNL     1       0.373   1.615   1.447  1.00  0.00    -0.354 N 
ATOM      9  C   UNL     1       0.369   1.301   0.118  1.00  0.00     0.222 C 
ATOM     10  H   UNL     1       0.109   0.880   2.047  1.00  0.00     0.163 HD
ATOM     11  O   UNL     1      -0.080   0.208  -0.228  1.00  0.00    -0.275 OA
BRANCH   9  12
ATOM     12  C   UNL     1       0.910   2.282  -0.893  1.00  0.00     0.132 C 
BRANCH  12  13
ATOM     13  C   UNL     1      -0.145   3.154  -1.587  1.00  0.00     0.127 C 
ATOM     14  C   UNL     1      -1.278   3.620  -0.666  1.00  0.00     0.033 C 
ATOM     15  O   UNL     1       0.577   4.286  -2.108  1.00  0.00    -0.378 OA
ATOM     16  C   UNL     1      -2.158   4.689  -1.300  1.00  0.00     0.005 C 
ATOM     17  C   UNL     1      -0.245   5.232  -2.788  1.00  0.00     0.160 C 
ATOM     18  C   UNL     1      -1.288   5.810  -1.847  1.00  0.00     0.029 C 
ENDBRANCH  12  13
ENDBRANCH   9  12
ENDBRANCH   6   8
ENDBRANCH   5   6
ENDBRANCH   4   5
ENDBRANCH   2   4
ENDBRANCH   1   2
BRANCH   1  19
ATOM     19  C   UNL     1       1.569   6.778   4.108  1.00  0.00     0.274 C 
BRANCH  19  20
ATOM     20  C   UNL     1       1.137   7.841   3.098  1.00  0.00     0.275 C 
BRANCH  20  21
ATOM     21  O   UNL     1      -0.248   8.186   3.281  1.00  0.00    -0.458 OA
BRANCH  21  22
ATOM     22  C   UNL     1      -1.122   7.508   2.503  1.00  0.00     0.338 C 
ATOM     23  O   UNL     1      -0.869   6.703   1.622  1.00  0.00    -0.246 OA
BRANCH  22  24
ATOM     24  C   UNL     1      -2.484   7.768   2.986  1.00  0.00     0.060 A 
ATOM     25  C   UNL     1      -3.220   6.694   3.496  1.00  0.00     0.016 A 
ATOM     26  C   UNL     1      -3.034   9.050   2.931  1.00  0.00     0.016 A 
ATOM     27  C   UNL     1      -4.506   6.906   3.986  1.00  0.00     0.010 A 
ATOM     28  C   UNL     1      -4.324   9.260   3.424  1.00  0.00     0.010 A 
ATOM     29  C   UNL     1      -5.062   8.193   3.966  1.00  0.00    -0.014 A 
BRANCH  29  30
ATOM     30  C   UNL     1      -6.401   8.441   4.550  1.00  0.00     0.031 A 
ATOM     31  C   UNL     1      -7.579   8.697   3.659  1.00  0.00     0.074 A 
ATOM     32  C   UNL     1      -6.535   8.476   5.889  1.00  0.00     0.049 A 
ATOM     33  N   UNL     1      -8.792   9.068   3.980  1.00  0.00    -0.248 NA
ATOM     34  C   UNL     1      -7.365   8.516   2.215  1.00  0.00     0.031 C 
ATOM     35  C   UNL     1      -5.462   8.219   6.850  1.00  0.00     0.029 A 
ATOM     36  N   UNL     1      -7.624   8.765   6.673  1.00  0.00    -0.354 N 
ATOM     37  C   UNL     1      -9.482   9.183   2.781  1.00  0.00     0.074 A 
ATOM     38  C   UNL     1      -8.551   8.851   1.723  1.00  0.00     0.031 C 
ATOM     39  C   UNL     1      -5.940   8.380   8.094  1.00  0.00     0.029 A 
ATOM     40  C   UNL     1      -7.336   8.802   8.015  1.00  0.00     0.049 A 
ATOM     41  H   UNL     1      -8.524   8.930   6.309  1.00  0.00     0.167 HD
ATOM     42  C   UNL     1     -10.776   9.534   2.590  1.00  0.00     0.037 A 
ATOM     43  C   UNL     1      -8.098   9.178   9.060  1.00  0.00     0.037 A 
ATOM     44  C   UNL     1     -11.697   9.846   3.653  1.00  0.00     0.049 A 
ATOM     45  C   UNL     1      -9.513   9.627   8.808  1.00  0.00     0.074 A 
ATOM     46  C   UNL     1     -13.042  10.159   3.563  1.00  0.00     0.029 A 
ATOM     47  N   UNL     1     -11.364   9.892   4.998  1.00  0.00    -0.354 N 
ATOM     48  N   UNL     1     -10.169   9.698   7.675  1.00  0.00    -0.248 NA
ATOM     49  C   UNL     1     -10.290  10.058   9.978  1.00  0.00     0.031 C 
ATOM     50  C   UNL     1     -13.511  10.449   4.848  1.00  0.00     0.029 A 
ATOM     51  C   UNL     1     -12.470  10.268   5.745  1.00  0.00     0.049 A 
ATOM     52  H   UNL     1     -10.475   9.688   5.368  1.00  0.00     0.167 HD
ATOM     53  C   UNL     1     -11.435  10.168   7.996  1.00  0.00     0.074 A 
ATOM     54  C   UNL     1     -11.465  10.341   9.433  1.00  0.00     0.031 C 
ATOM     55  C   UNL     1     -12.478  10.439   7.175  1.00  0.00     0.037 A 
BRANCH  42  56
ATOM     56  C   UNL     1     -11.280   9.628   1.181  1.00  0.00     0.064 A 
ATOM     57  C   UNL     1     -11.549   8.485   0.415  1.00  0.00     0.173 A 
ATOM     58  C   UNL     1     -11.577  10.880   0.622  1.00  0.00     0.173 A 
ATOM     59  F   UNL     1     -11.274   7.266   0.902  1.00  0.00    -0.203 F 
ATOM     60  C   UNL     1     -12.090   8.593  -0.864  1.00  0.00     0.198 A 
ATOM     61  C   UNL     1     -12.139  10.983  -0.648  1.00  0.00     0.198 A 
ATOM     62  F   UNL     1     -11.343  12.004   1.316  1.00  0.00    -0.203 F 
ATOM     63  F   UNL     1     -12.318   7.489  -1.589  1.00  0.00    -0.200 F 
ATOM     64  C   UNL     1     -12.393   9.841  -1.390  1.00  0.00     0.200 A 
ATOM     65  F   UNL     1     -12.442  12.189  -1.149  1.00  0.00    -0.200 F 
ATOM     66  F   UNL     1     -12.929   9.941  -2.614  1.00  0.00    -0.200 F 
ENDBRANCH  42  56
BRANCH  43  67
ATOM     67  C   UNL     1      -7.528   9.199  10.432  1.00  0.00     0.064 A 
ATOM     68  C   UNL     1      -7.995   8.327  11.425  1.00  0.00     0.173 A 
ATOM     69  C   UNL     1      -6.527  10.116  10.788  1.00  0.00     0.173 A 
ATOM     70  F   UNL     1      -8.970   7.451  11.142  1.00  0.00    -0.203 F 
ATOM     71  C   UNL     1      -7.500   8.388  12.727  1.00  0.00     0.198 A 
ATOM     72  C   UNL     1      -6.011  10.154  12.081  1.00  0.00     0.198 A 
ATOM     73  F   UNL     1      -6.048  10.976   9.877  1.00  0.00    -0.203 F 
ATOM     74  F   UNL     1      -8.005   7.582  13.671  1.00  0.00    -0.200 F 
ATOM     75  C   UNL     1      -6.505   9.298  13.052  1.00  0.00     0.200 A 
ATOM     76  F   UNL     1      -5.042  11.028  12.388  1.00  0.00    -0.200 F 
ATOM     77  F   UNL     1      -6.032   9.358  14.305  1.00  0.00    -0.200 F 
ENDBRANCH  43  67
BRANCH  55  78
ATOM     78  C   UNL     1     -13.740  10.941   7.813  1.00  0.00     0.064 A 
ATOM     79  C   UNL     1     -13.831  12.243   8.324  1.00  0.00     0.173 A 
ATOM     80  C   UNL     1     -14.879  10.126   7.878  1.00  0.00     0.173 A 
ATOM     81  F   UNL     1     -12.762  13.054   8.301  1.00  0.00    -0.203 F 
ATOM     82  C   UNL     1     -15.013  12.705   8.898  1.00  0.00     0.198 A 
ATOM     83  C   UNL     1     -16.068  10.600   8.426  1.00  0.00     0.198 A 
ATOM     84  F   UNL     1     -14.844   8.874   7.398  1.00  0.00    -0.203 F 
ATOM     85  F   UNL     1     -15.065  13.938   9.420  1.00  0.00    -0.200 F 
ATOM     86  C   UNL     1     -16.132  11.886   8.940  1.00  0.00     0.200 A 
ATOM     87  F   UNL     1     -17.152   9.813   8.455  1.00  0.00    -0.200 F 
ATOM     88  F   UNL     1     -17.271  12.335   9.485  1.00  0.00    -0.200 F 
ENDBRANCH  55  78
ENDBRANCH  29  30
ENDBRANCH  22  24
ENDBRANCH  21  22
ENDBRANCH  20  21
ENDBRANCH  19  20
ENDBRANCH   1  19
TORSDOF 16
