REMARK SMILES CC[C@@H](O)C[NH+]1CC(n2cc(C(=O)OCCOC(=O)c3ccc(-c4c5nc(c(-c6c(F)c(F)c(F)c(F)c6F)c6ccc([nH]6)c(-c6c(F)c(F)c(F)c(F)c6F)c6nc(c(-c7c(F)c(F)c(F)c(F)c7F)c7ccc4[nH]7)C=C6)C=C5)cc3)nn2)C1
REMARK SMILES IDX 15 1 14 2 12 3 13 4 11 5 9 6 10 7 84 8 83 9 8 10 6 11 7 12
REMARK SMILES IDX 85 13 5 15 3 16 2 17 1 18 4 19 16 21 17 22 18 23 19 24 20 25
REMARK SMILES IDX 21 26 82 27 22 28 81 29 23 30 24 31 25 32 75 33 26 34 80 35
REMARK SMILES IDX 74 36 76 37 27 38 79 39 73 40 72 41 28 43 60 44 40 45 59 46
REMARK SMILES IDX 41 47 44 48 58 49 77 50 42 51 43 52 57 54 78 55 45 56 29 57
REMARK SMILES IDX 30 58 38 59 31 60 32 61 36 62 39 63 33 64 34 65 37 66 35 67
REMARK SMILES IDX 61 68 62 69 70 70 63 71 64 72 68 73 71 74 65 75 66 76 69 77
REMARK SMILES IDX 67 78 46 79 47 80 55 81 48 82 49 83 53 84 56 85 50 86 51 87
REMARK SMILES IDX 54 88 52 89
REMARK H PARENT 6 14 4 20 76 42 44 53
REMARK Flexibility Score: inf
ROOT
ATOM      1  C   UNL     1       5.914 -10.483  -4.090  1.00  0.00     0.275 C 
ENDROOT
BRANCH   1   2
ATOM      2  O   UNL     1       5.161  -9.382  -3.561  1.00  0.00    -0.457 OA
BRANCH   2   3
ATOM      3  C   UNL     1       5.845  -8.543  -2.721  1.00  0.00     0.360 C 
ATOM      4  O   UNL     1       6.955  -8.790  -2.255  1.00  0.00    -0.244 OA
BRANCH   3   5
ATOM      5  C   UNL     1       5.138  -7.298  -2.489  1.00  0.00     0.190 A 
ATOM      6  N   UNL     1       3.708  -5.681  -2.421  1.00  0.00    -0.237 N 
ATOM      7  C   UNL     1       3.902  -6.912  -2.970  1.00  0.00     0.147 A 
ATOM      8  N   UNL     1       4.770  -5.292  -1.698  1.00  0.00    -0.066 NA
ATOM      9  N   UNL     1       5.662  -6.271  -1.740  1.00  0.00    -0.123 NA
BRANCH   6  10
ATOM     10  C   UNL     1       2.504  -4.929  -2.550  1.00  0.00     0.218 C 
ATOM     11  N   UNL     1       1.014  -4.019  -1.397  1.00  0.00    -0.329 N 
ATOM     12  C   UNL     1       2.429  -3.653  -1.690  1.00  0.00     0.296 C 
ATOM     13  C   UNL     1       1.398  -5.448  -1.600  1.00  0.00     0.296 C 
ATOM     14  H   UNL     1       0.244  -3.575  -1.897  1.00  0.00     0.348 HD
BRANCH  11  15
ATOM     15  C   UNL     1       0.652  -3.787   0.011  1.00  0.00     0.294 C 
BRANCH  15  16
ATOM     16  C   UNL     1       0.910  -2.361   0.549  1.00  0.00     0.169 C 
BRANCH  16  17
ATOM     17  C   UNL     1       0.310  -1.253  -0.323  1.00  0.00     0.034 C 
ATOM     18  C   UNL     1       0.822   0.124   0.084  1.00  0.00     0.007 C 
ENDBRANCH  16  17
BRANCH  16  19
ATOM     19  O   UNL     1       0.359  -2.287   1.869  1.00  0.00    -0.387 OA
ATOM     20  H   UNL     1      -0.597  -2.442   1.829  1.00  0.00     0.211 HD
ENDBRANCH  16  19
ENDBRANCH  15  16
ENDBRANCH  11  15
ENDBRANCH   6  10
ENDBRANCH   3   5
ENDBRANCH   2   3
ENDBRANCH   1   2
BRANCH   1  21
ATOM     21  C   UNL     1       6.620 -10.082  -5.377  1.00  0.00     0.275 C 
BRANCH  21  22
ATOM     22  O   UNL     1       7.682  -9.168  -5.109  1.00  0.00    -0.458 OA
BRANCH  22  23
ATOM     23  C   UNL     1       7.383  -7.857  -5.255  1.00  0.00     0.338 C 
ATOM     24  O   UNL     1       6.271  -7.359  -5.318  1.00  0.00    -0.246 OA
BRANCH  23  25
ATOM     25  C   UNL     1       8.614  -7.138  -5.599  1.00  0.00     0.060 A 
ATOM     26  C   UNL     1       8.503  -5.768  -5.861  1.00  0.00     0.016 A 
ATOM     27  C   UNL     1       9.744  -7.877  -5.978  1.00  0.00     0.016 A 
ATOM     28  C   UNL     1       9.437  -5.184  -6.689  1.00  0.00     0.010 A 
ATOM     29  C   UNL     1      10.655  -7.303  -6.825  1.00  0.00     0.010 A 
ATOM     30  C   UNL     1      10.441  -5.989  -7.232  1.00  0.00    -0.014 A 
BRANCH  30  31
ATOM     31  C   UNL     1      11.345  -5.410  -8.199  1.00  0.00     0.031 A 
ATOM     32  C   UNL     1      12.367  -4.532  -7.589  1.00  0.00     0.074 A 
ATOM     33  C   UNL     1      11.332  -5.792  -9.489  1.00  0.00     0.049 A 
ATOM     34  N   UNL     1      12.547  -3.270  -7.788  1.00  0.00    -0.248 NA
ATOM     35  C   UNL     1      13.192  -5.097  -6.508  1.00  0.00     0.031 C 
ATOM     36  C   UNL     1      10.564  -6.871 -10.116  1.00  0.00     0.029 A 
ATOM     37  N   UNL     1      12.117  -5.349 -10.505  1.00  0.00    -0.354 N 
ATOM     38  C   UNL     1      13.632  -2.920  -6.991  1.00  0.00     0.074 A 
ATOM     39  C   UNL     1      13.861  -4.022  -6.096  1.00  0.00     0.031 C 
ATOM     40  C   UNL     1      11.094  -7.146 -11.330  1.00  0.00     0.029 A 
ATOM     41  C   UNL     1      12.152  -6.190 -11.607  1.00  0.00     0.049 A 
ATOM     42  H   UNL     1      12.618  -4.503 -10.462  1.00  0.00     0.167 HD
ATOM     43  C   UNL     1      14.422  -1.861  -7.311  1.00  0.00     0.037 A 
ATOM     44  C   UNL     1      13.085  -6.146 -12.592  1.00  0.00     0.037 A 
ATOM     45  C   UNL     1      13.745  -0.951  -8.198  1.00  0.00     0.049 A 
ATOM     46  C   UNL     1      13.713  -4.793 -12.539  1.00  0.00     0.074 A 
ATOM     47  C   UNL     1      12.569  -0.228  -8.115  1.00  0.00     0.029 A 
ATOM     48  N   UNL     1      14.064  -0.979  -9.535  1.00  0.00    -0.354 N 
ATOM     49  N   UNL     1      13.075  -3.689 -12.823  1.00  0.00    -0.248 NA
ATOM     50  C   UNL     1      14.887  -4.633 -11.688  1.00  0.00     0.031 C 
ATOM     51  C   UNL     1      11.991  -0.316  -9.415  1.00  0.00     0.029 A 
ATOM     52  C   UNL     1      12.879  -1.023 -10.226  1.00  0.00     0.049 A 
ATOM     53  H   UNL     1      14.969  -0.970  -9.922  1.00  0.00     0.167 HD
ATOM     54  C   UNL     1      13.501  -2.775 -11.869  1.00  0.00     0.074 A 
ATOM     55  C   UNL     1      14.659  -3.398 -11.231  1.00  0.00     0.031 C 
ATOM     56  C   UNL     1      12.710  -1.735 -11.470  1.00  0.00     0.037 A 
BRANCH  43  57
ATOM     57  C   UNL     1      15.918  -1.862  -7.128  1.00  0.00     0.064 A 
ATOM     58  C   UNL     1      16.634  -0.674  -7.363  1.00  0.00     0.173 A 
ATOM     59  C   UNL     1      16.701  -3.035  -7.029  1.00  0.00     0.173 A 
ATOM     60  F   UNL     1      15.990   0.496  -7.494  1.00  0.00    -0.203 F 
ATOM     61  C   UNL     1      18.015  -0.675  -7.568  1.00  0.00     0.198 A 
ATOM     62  C   UNL     1      18.085  -3.024  -7.176  1.00  0.00     0.198 A 
ATOM     63  F   UNL     1      16.161  -4.253  -6.907  1.00  0.00    -0.203 F 
ATOM     64  F   UNL     1      18.634   0.459  -7.923  1.00  0.00    -0.200 F 
ATOM     65  C   UNL     1      18.739  -1.851  -7.481  1.00  0.00     0.200 A 
ATOM     66  F   UNL     1      18.764  -4.178  -7.106  1.00  0.00    -0.200 F 
ATOM     67  F   UNL     1      20.052  -1.865  -7.742  1.00  0.00    -0.200 F 
ENDBRANCH  43  57
BRANCH  44  68
ATOM     68  C   UNL     1      13.721  -7.309 -13.263  1.00  0.00     0.064 A 
ATOM     69  C   UNL     1      14.477  -7.152 -14.436  1.00  0.00     0.173 A 
ATOM     70  C   UNL     1      13.811  -8.568 -12.632  1.00  0.00     0.173 A 
ATOM     71  F   UNL     1      14.497  -5.971 -15.070  1.00  0.00    -0.203 F 
ATOM     72  C   UNL     1      15.275  -8.187 -14.941  1.00  0.00     0.198 A 
ATOM     73  C   UNL     1      14.597  -9.601 -13.141  1.00  0.00     0.198 A 
ATOM     74  F   UNL     1      13.211  -8.797 -11.455  1.00  0.00    -0.203 F 
ATOM     75  F   UNL     1      16.024  -7.982 -16.033  1.00  0.00    -0.200 F 
ATOM     76  C   UNL     1      15.338  -9.408 -14.290  1.00  0.00     0.200 A 
ATOM     77  F   UNL     1      14.676 -10.764 -12.478  1.00  0.00    -0.200 F 
ATOM     78  F   UNL     1      16.139 -10.382 -14.744  1.00  0.00    -0.200 F 
ENDBRANCH  44  68
BRANCH  56  79
ATOM     79  C   UNL     1      11.440  -1.468 -12.230  1.00  0.00     0.064 A 
ATOM     80  C   UNL     1      10.374  -2.381 -12.316  1.00  0.00     0.173 A 
ATOM     81  C   UNL     1      11.222  -0.178 -12.732  1.00  0.00     0.173 A 
ATOM     82  F   UNL     1      10.461  -3.597 -11.764  1.00  0.00    -0.203 F 
ATOM     83  C   UNL     1       9.163  -2.028 -12.911  1.00  0.00     0.198 A 
ATOM     84  C   UNL     1      10.000   0.184 -13.292  1.00  0.00     0.198 A 
ATOM     85  F   UNL     1      12.181   0.755 -12.624  1.00  0.00    -0.203 F 
ATOM     86  F   UNL     1       8.163  -2.920 -12.981  1.00  0.00    -0.200 F 
ATOM     87  C   UNL     1       8.974  -0.743 -13.389  1.00  0.00     0.200 A 
ATOM     88  F   UNL     1       9.804   1.443 -13.705  1.00  0.00    -0.200 F 
ATOM     89  F   UNL     1       7.794  -0.387 -13.917  1.00  0.00    -0.200 F 
ENDBRANCH  56  79
ENDBRANCH  30  31
ENDBRANCH  23  25
ENDBRANCH  22  23
ENDBRANCH  21  22
ENDBRANCH   1  21
TORSDOF 16
