REMARK SMILES O=C(Cc1cc(=O)[nH]c(=O)[nH]1)Nc1cccc(C(=O)OCCOC(=O)c2ccc(-c3c4nc(c(-c5c(F)c(F)c(F)c(F)c5F)c5ccc([nH]5)c(-c5c(F)c(F)c(F)c(F)c5F)c5nc(c(-c6c(F)c(F)c(F)c(F)c6F)c6ccc3[nH]6)C=C5)C=C4)cc2)c1
REMARK SMILES IDX 21 1 20 2 18 3 19 4 17 5 13 6 14 7 89 8 15 9 16 10 12 11
REMARK SMILES IDX 1 12 2 13 3 15 4 16 5 17 11 18 6 19 9 20 7 22 8 23 10 24
REMARK SMILES IDX 22 26 23 27 24 28 25 29 26 30 27 31 88 32 28 33 87 34 29 35
REMARK SMILES IDX 30 36 31 37 81 38 32 39 86 40 80 41 82 42 33 43 85 44 79 45
REMARK SMILES IDX 78 46 34 48 66 49 46 50 65 51 47 52 50 53 64 54 83 55 48 56
REMARK SMILES IDX 49 57 63 59 84 60 51 61 35 62 36 63 44 64 37 65 38 66 42 67
REMARK SMILES IDX 45 68 39 69 40 70 43 71 41 72 67 73 68 74 76 75 69 76 70 77
REMARK SMILES IDX 74 78 77 79 71 80 72 81 75 82 73 83 52 84 53 85 61 86 54 87
REMARK SMILES IDX 55 88 59 89 62 90 56 91 57 92 60 93 58 94
REMARK H PARENT 12 14 11 21 8 25 82 47 50 58
REMARK Flexibility Score: inf
ROOT
ATOM      1  C   UNL     1      -1.960   4.770   0.791  1.00  0.00     0.275 C 
ENDROOT
BRANCH   1   2
ATOM      2  O   UNL     1      -0.846   4.027   0.255  1.00  0.00    -0.458 OA
BRANCH   2   3
ATOM      3  C   UNL     1      -0.902   3.710  -1.062  1.00  0.00     0.338 C 
ATOM      4  O   UNL     1      -1.798   3.982  -1.844  1.00  0.00    -0.246 OA
BRANCH   3   5
ATOM      5  C   UNL     1       0.386   3.108  -1.483  1.00  0.00     0.062 A 
ATOM      6  C   UNL     1       2.325   1.736  -1.066  1.00  0.00     0.042 A 
ATOM      7  C   UNL     1       2.894   2.188  -2.265  1.00  0.00     0.026 A 
ATOM      8  C   UNL     1       1.087   2.230  -0.653  1.00  0.00     0.041 A 
ATOM      9  C   UNL     1       2.175   3.020  -3.115  1.00  0.00     0.003 A 
ATOM     10  C   UNL     1       0.903   3.440  -2.743  1.00  0.00     0.016 A 
BRANCH   6  11
ATOM     11  N   UNL     1       3.048   0.761  -0.360  1.00  0.00    -0.326 N 
ATOM     12  O   UNL     1       1.364  -0.232   0.906  1.00  0.00    -0.274 OA
ATOM     13  C   UNL     1       2.535  -0.150   0.548  1.00  0.00     0.230 C 
ATOM     14  H   UNL     1       4.017   0.721  -0.528  1.00  0.00     0.169 HD
BRANCH  13  15
ATOM     15  C   UNL     1       3.590  -1.119   1.081  1.00  0.00     0.154 C 
BRANCH  15  16
ATOM     16  C   UNL     1       4.150  -1.988  -0.019  1.00  0.00     0.034 A 
ATOM     17  C   UNL     1       3.679  -3.214  -0.291  1.00  0.00     0.093 A 
ATOM     18  N   UNL     1       5.209  -1.497  -0.749  1.00  0.00    -0.311 N 
ATOM     19  C   UNL     1       4.295  -4.006  -1.377  1.00  0.00     0.253 A 
ATOM     20  C   UNL     1       5.779  -2.147  -1.809  1.00  0.00     0.325 A 
ATOM     21  H   UNL     1       5.580  -0.622  -0.491  1.00  0.00     0.171 HD
ATOM     22  O   UNL     1       3.935  -5.154  -1.604  1.00  0.00    -0.269 OA
ATOM     23  N   UNL     1       5.279  -3.382  -2.088  1.00  0.00    -0.274 N 
ATOM     24  O   UNL     1       6.686  -1.633  -2.454  1.00  0.00    -0.248 OA
ATOM     25  H   UNL     1       5.655  -3.861  -2.862  1.00  0.00     0.175 HD
ENDBRANCH  15  16
ENDBRANCH  13  15
ENDBRANCH   6  11
ENDBRANCH   3   5
ENDBRANCH   2   3
ENDBRANCH   1   2
BRANCH   1  26
ATOM     26  C   UNL     1      -1.585   6.237   0.993  1.00  0.00     0.275 C 
BRANCH  26  27
ATOM     27  O   UNL     1      -1.427   6.876  -0.287  1.00  0.00    -0.458 OA
BRANCH  27  28
ATOM     28  C   UNL     1      -0.196   7.360  -0.565  1.00  0.00     0.338 C 
ATOM     29  O   UNL     1       0.785   7.386   0.155  1.00  0.00    -0.246 OA
BRANCH  28  30
ATOM     30  C   UNL     1      -0.182   7.837  -1.956  1.00  0.00     0.060 A 
ATOM     31  C   UNL     1      -0.212   6.896  -2.980  1.00  0.00     0.016 A 
ATOM     32  C   UNL     1      -0.036   9.188  -2.251  1.00  0.00     0.016 A 
ATOM     33  C   UNL     1      -0.019   7.281  -4.302  1.00  0.00     0.010 A 
ATOM     34  C   UNL     1       0.062   9.588  -3.589  1.00  0.00     0.010 A 
ATOM     35  C   UNL     1       0.099   8.637  -4.628  1.00  0.00    -0.014 A 
BRANCH  35  36
ATOM     36  C   UNL     1       0.285   9.064  -6.043  1.00  0.00     0.031 A 
ATOM     37  C   UNL     1       1.507   9.848  -6.435  1.00  0.00     0.074 A 
ATOM     38  C   UNL     1      -0.635   8.758  -6.979  1.00  0.00     0.049 A 
ATOM     39  N   UNL     1       1.754  10.506  -7.540  1.00  0.00    -0.248 NA
ATOM     40  C   UNL     1       2.592   9.912  -5.444  1.00  0.00     0.031 C 
ATOM     41  C   UNL     1      -1.837   7.952  -6.759  1.00  0.00     0.029 A 
ATOM     42  N   UNL     1      -0.705   9.097  -8.310  1.00  0.00    -0.354 N 
ATOM     43  C   UNL     1       2.989  11.112  -7.352  1.00  0.00     0.074 A 
ATOM     44  C   UNL     1       3.446  10.739  -6.030  1.00  0.00     0.031 C 
ATOM     45  C   UNL     1      -2.511   7.841  -7.913  1.00  0.00     0.029 A 
ATOM     46  C   UNL     1      -1.842   8.642  -8.932  1.00  0.00     0.049 A 
ATOM     47  H   UNL     1      -0.008   9.616  -8.772  1.00  0.00     0.167 HD
ATOM     48  C   UNL     1       3.671  11.914  -8.204  1.00  0.00     0.037 A 
ATOM     49  C   UNL     1      -2.325   8.884 -10.166  1.00  0.00     0.037 A 
ATOM     50  C   UNL     1       3.236  12.235  -9.539  1.00  0.00     0.049 A 
ATOM     51  C   UNL     1      -1.566   9.801 -11.084  1.00  0.00     0.074 A 
ATOM     52  C   UNL     1       3.864  13.026 -10.486  1.00  0.00     0.029 A 
ATOM     53  N   UNL     1       2.069  11.764 -10.123  1.00  0.00    -0.354 N 
ATOM     54  N   UNL     1      -0.432  10.424 -10.876  1.00  0.00    -0.248 NA
ATOM     55  C   UNL     1      -2.165  10.066 -12.399  1.00  0.00     0.031 C 
ATOM     56  C   UNL     1       3.060  13.061 -11.630  1.00  0.00     0.029 A 
ATOM     57  C   UNL     1       1.954  12.256 -11.413  1.00  0.00     0.049 A 
ATOM     58  H   UNL     1       1.419  11.168  -9.685  1.00  0.00     0.167 HD
ATOM     59  C   UNL     1      -0.174  11.143 -12.034  1.00  0.00     0.074 A 
ATOM     60  C   UNL     1      -1.262  10.866 -12.949  1.00  0.00     0.031 C 
ATOM     61  C   UNL     1       0.869  11.961 -12.313  1.00  0.00     0.037 A 
BRANCH  48  62
ATOM     62  C   UNL     1       4.942  12.538  -7.707  1.00  0.00     0.064 A 
ATOM     63  C   UNL     1       6.119  11.796  -7.537  1.00  0.00     0.173 A 
ATOM     64  C   UNL     1       4.988  13.914  -7.432  1.00  0.00     0.173 A 
ATOM     65  F   UNL     1       6.125  10.475  -7.772  1.00  0.00    -0.203 F 
ATOM     66  C   UNL     1       7.289  12.404  -7.087  1.00  0.00     0.198 A 
ATOM     67  C   UNL     1       6.166  14.523  -7.008  1.00  0.00     0.198 A 
ATOM     68  F   UNL     1       3.890  14.670  -7.583  1.00  0.00    -0.203 F 
ATOM     69  F   UNL     1       8.392  11.668  -6.890  1.00  0.00    -0.200 F 
ATOM     70  C   UNL     1       7.314  13.767  -6.830  1.00  0.00     0.200 A 
ATOM     71  F   UNL     1       6.189  15.842  -6.772  1.00  0.00    -0.200 F 
ATOM     72  F   UNL     1       8.442  14.351  -6.404  1.00  0.00    -0.200 F 
ENDBRANCH  48  62
BRANCH  49  73
ATOM     73  C   UNL     1      -3.619   8.284 -10.583  1.00  0.00     0.064 A 
ATOM     74  C   UNL     1      -3.670   7.288 -11.567  1.00  0.00     0.173 A 
ATOM     75  C   UNL     1      -4.830   8.685  -9.996  1.00  0.00     0.173 A 
ATOM     76  F   UNL     1      -2.543   6.893 -12.177  1.00  0.00    -0.203 F 
ATOM     77  C   UNL     1      -4.882   6.720 -11.953  1.00  0.00     0.198 A 
ATOM     78  C   UNL     1      -6.037   8.094 -10.361  1.00  0.00     0.198 A 
ATOM     79  F   UNL     1      -4.836   9.637  -9.052  1.00  0.00    -0.203 F 
ATOM     80  F   UNL     1      -4.907   5.796 -12.923  1.00  0.00    -0.200 F 
ATOM     81  C   UNL     1      -6.063   7.116 -11.343  1.00  0.00     0.200 A 
ATOM     82  F   UNL     1      -7.173   8.471  -9.759  1.00  0.00    -0.200 F 
ATOM     83  F   UNL     1      -7.227   6.560 -11.706  1.00  0.00    -0.200 F 
ENDBRANCH  49  73
BRANCH  61  84
ATOM     84  C   UNL     1       0.905  12.586 -13.675  1.00  0.00     0.064 A 
ATOM     85  C   UNL     1       0.060  13.652 -14.016  1.00  0.00     0.173 A 
ATOM     86  C   UNL     1       1.827  12.141 -14.634  1.00  0.00     0.173 A 
ATOM     87  F   UNL     1      -0.849  14.101 -13.137  1.00  0.00    -0.203 F 
ATOM     88  C   UNL     1       0.125  14.239 -15.277  1.00  0.00     0.198 A 
ATOM     89  C   UNL     1       1.905  12.745 -15.885  1.00  0.00     0.198 A 
ATOM     90  F   UNL     1       2.659  11.127 -14.352  1.00  0.00    -0.203 F 
ATOM     91  F   UNL     1      -0.716  15.231 -15.596  1.00  0.00    -0.200 F 
ATOM     92  C   UNL     1       1.052  13.790 -16.207  1.00  0.00     0.200 A 
ATOM     93  F   UNL     1       2.807  12.317 -16.779  1.00  0.00    -0.200 F 
ATOM     94  F   UNL     1       1.118  14.361 -17.418  1.00  0.00    -0.200 F 
ENDBRANCH  61  84
ENDBRANCH  35  36
ENDBRANCH  28  30
ENDBRANCH  27  28
ENDBRANCH  26  27
ENDBRANCH   1  26
TORSDOF 14
