REMARK SMILES COc1ccc2c(c1)c(CC(=O)OCCOC(=O)c1ccc(-c3c4nc(c(-c5c(F)c(F)c(F)c(F)c5F)c5ccc([nH]5)c(-c5c(F)c(F)c(F)c(F)c5F)c5nc(c(-c6c(F)c(F)c(F)c(F)c6F)c6ccc3[nH]6)C=C5)C=C4)cc1)c(C)n2C(=O)c1ccc(Cl)cc1
REMARK SMILES IDX 14 1 13 2 11 3 12 4 10 5 9 6 3 7 4 8 8 9 5 10 7 11 6 12
REMARK SMILES IDX 84 13 82 14 83 15 2 16 1 17 85 18 86 19 87 20 88 21 93 22
REMARK SMILES IDX 89 23 92 24 90 25 91 26 15 27 16 28 17 29 18 30 19 31 20 32
REMARK SMILES IDX 81 33 21 34 80 35 22 36 23 37 24 38 74 39 25 40 79 41 73 42
REMARK SMILES IDX 75 43 26 44 78 45 72 46 71 47 27 49 59 50 39 51 58 52 40 53
REMARK SMILES IDX 43 54 57 55 76 56 41 57 42 58 56 60 77 61 44 62 28 63 29 64
REMARK SMILES IDX 37 65 30 66 31 67 35 68 38 69 32 70 33 71 36 72 34 73 60 74
REMARK SMILES IDX 61 75 69 76 62 77 63 78 67 79 70 80 64 81 65 82 68 83 66 84
REMARK SMILES IDX 45 85 46 86 54 87 47 88 48 89 52 90 55 91 49 92 50 93 53 94
REMARK SMILES IDX 51 95
REMARK H PARENT 75 48 43 59
REMARK Flexibility Score: inf
ROOT
ATOM      1  C   UNL     1      -1.390   6.782   2.335  1.00  0.00     0.274 C 
ENDROOT
BRANCH   1   2
ATOM      2  O   UNL     1      -0.833   5.813   3.251  1.00  0.00    -0.462 OA
BRANCH   2   3
ATOM      3  C   UNL     1      -1.669   5.391   4.227  1.00  0.00     0.310 C 
ATOM      4  O   UNL     1      -2.832   5.772   4.351  1.00  0.00    -0.252 OA
BRANCH   3   5
ATOM      5  C   UNL     1      -1.061   4.470   5.242  1.00  0.00     0.160 C 
BRANCH   5   6
ATOM      6  C   UNL     1       0.326   3.905   5.092  1.00  0.00    -0.008 A 
ATOM      7  C   UNL     1       1.221   1.651   2.075  1.00  0.00     0.119 A 
ATOM      8  C   UNL     1       2.408   1.179   2.597  1.00  0.00     0.048 A 
ATOM      9  C   UNL     1       0.509   2.635   2.784  1.00  0.00     0.057 A 
ATOM     10  C   UNL     1       2.882   1.667   3.817  1.00  0.00     0.031 A 
ATOM     11  C   UNL     1       0.913   3.094   4.062  1.00  0.00     0.008 A 
ATOM     12  C   UNL     1       2.146   2.635   4.542  1.00  0.00     0.057 A 
ATOM     13  N   UNL     1       2.417   3.315   5.740  1.00  0.00    -0.280 N 
ATOM     14  C   UNL     1       1.227   3.906   6.154  1.00  0.00     0.028 A 
ATOM     15  C   UNL     1       0.976   4.457   7.526  1.00  0.00     0.065 C 
BRANCH   7  16
ATOM     16  O   UNL     1       0.649   1.233   0.905  1.00  0.00    -0.497 OA
ATOM     17  C   UNL     1       1.232   0.111   0.246  1.00  0.00     0.278 C 
ENDBRANCH   7  16
BRANCH  13  18
ATOM     18  C   UNL     1       3.666   3.377   6.412  1.00  0.00     0.262 C 
ATOM     19  O   UNL     1       3.750   3.952   7.495  1.00  0.00    -0.268 OA
BRANCH  18  20
ATOM     20  C   UNL     1       4.912   2.813   5.885  1.00  0.00     0.040 A 
ATOM     21  C   UNL     1       5.494   3.358   4.736  1.00  0.00     0.015 A 
ATOM     22  C   UNL     1       5.444   1.681   6.507  1.00  0.00     0.015 A 
ATOM     23  C   UNL     1       6.590   2.715   4.164  1.00  0.00     0.021 A 
ATOM     24  C   UNL     1       6.542   1.045   5.930  1.00  0.00     0.021 A 
ATOM     25  C   UNL     1       7.100   1.556   4.756  1.00  0.00     0.041 A 
ATOM     26  Cl  UNL     1       8.411   0.730   4.011  1.00  0.00    -0.084 Cl
ENDBRANCH  18  20
ENDBRANCH  13  18
ENDBRANCH   5   6
ENDBRANCH   3   5
ENDBRANCH   2   3
ENDBRANCH   1   2
BRANCH   1  27
ATOM     27  C   UNL     1      -1.765   6.116   1.008  1.00  0.00     0.275 C 
BRANCH  27  28
ATOM     28  O   UNL     1      -2.936   5.310   1.213  1.00  0.00    -0.458 OA
BRANCH  28  29
ATOM     29  C   UNL     1      -2.799   3.971   1.058  1.00  0.00     0.338 C 
ATOM     30  O   UNL     1      -1.937   3.377   0.435  1.00  0.00    -0.246 OA
BRANCH  29  31
ATOM     31  C   UNL     1      -3.666   3.377   2.089  1.00  0.00     0.060 A 
ATOM     32  C   UNL     1      -4.980   3.817   2.253  1.00  0.00     0.016 A 
ATOM     33  C   UNL     1      -3.052   2.585   3.061  1.00  0.00     0.016 A 
ATOM     34  C   UNL     1      -5.616   3.591   3.466  1.00  0.00     0.010 A 
ATOM     35  C   UNL     1      -3.658   2.422   4.291  1.00  0.00     0.010 A 
ATOM     36  C   UNL     1      -4.915   2.973   4.510  1.00  0.00    -0.014 A 
BRANCH  36  37
ATOM     37  C   UNL     1      -5.594   2.674   5.757  1.00  0.00     0.031 A 
ATOM     38  C   UNL     1      -6.314   1.384   5.710  1.00  0.00     0.074 A 
ATOM     39  C   UNL     1      -5.509   3.347   6.918  1.00  0.00     0.049 A 
ATOM     40  N   UNL     1      -7.587   1.213   5.592  1.00  0.00    -0.248 NA
ATOM     41  C   UNL     1      -5.523   0.146   5.643  1.00  0.00     0.031 C 
ATOM     42  C   UNL     1      -4.593   4.415   7.309  1.00  0.00     0.029 A 
ATOM     43  N   UNL     1      -6.239   3.129   8.051  1.00  0.00    -0.354 N 
ATOM     44  C   UNL     1      -7.778  -0.159   5.577  1.00  0.00     0.074 A 
ATOM     45  C   UNL     1      -6.477  -0.762   5.446  1.00  0.00     0.031 C 
ATOM     46  C   UNL     1      -4.706   4.632   8.644  1.00  0.00     0.029 A 
ATOM     47  C   UNL     1      -5.802   3.829   9.165  1.00  0.00     0.049 A 
ATOM     48  H   UNL     1      -7.015   2.524   8.075  1.00  0.00     0.167 HD
ATOM     49  C   UNL     1      -8.979  -0.709   5.892  1.00  0.00     0.037 A 
ATOM     50  C   UNL     1      -6.304   3.710  10.420  1.00  0.00     0.037 A 
ATOM     51  C   UNL     1     -10.025   0.276   5.925  1.00  0.00     0.049 A 
ATOM     52  C   UNL     1      -7.676   3.156  10.297  1.00  0.00     0.074 A 
ATOM     53  C   UNL     1     -10.606   1.108   4.990  1.00  0.00     0.029 A 
ATOM     54  N   UNL     1     -10.348   0.792   7.154  1.00  0.00    -0.354 N 
ATOM     55  N   UNL     1      -8.689   3.798   9.786  1.00  0.00    -0.248 NA
ATOM     56  C   UNL     1      -7.866   1.721  10.454  1.00  0.00     0.031 C 
ATOM     57  C   UNL     1     -10.904   2.314   5.691  1.00  0.00     0.029 A 
ATOM     58  C   UNL     1     -10.521   2.147   7.023  1.00  0.00     0.049 A 
ATOM     59  H   UNL     1     -10.441   0.278   7.989  1.00  0.00     0.167 HD
ATOM     60  C   UNL     1      -9.450   2.818   9.169  1.00  0.00     0.074 A 
ATOM     61  C   UNL     1      -8.983   1.562   9.740  1.00  0.00     0.031 C 
ATOM     62  C   UNL     1     -10.183   3.104   8.055  1.00  0.00     0.037 A 
BRANCH  49  63
ATOM     63  C   UNL     1      -9.127  -2.065   6.510  1.00  0.00     0.064 A 
ATOM     64  C   UNL     1     -10.373  -2.711   6.483  1.00  0.00     0.173 A 
ATOM     65  C   UNL     1      -8.149  -2.637   7.352  1.00  0.00     0.173 A 
ATOM     66  F   UNL     1     -11.383  -2.213   5.753  1.00  0.00    -0.203 F 
ATOM     67  C   UNL     1     -10.628  -3.840   7.264  1.00  0.00     0.198 A 
ATOM     68  C   UNL     1      -8.387  -3.796   8.084  1.00  0.00     0.198 A 
ATOM     69  F   UNL     1      -6.974  -2.033   7.579  1.00  0.00    -0.203 F 
ATOM     70  F   UNL     1     -11.859  -4.368   7.288  1.00  0.00    -0.200 F 
ATOM     71  C   UNL     1      -9.633  -4.385   8.058  1.00  0.00     0.200 A 
ATOM     72  F   UNL     1      -7.419  -4.291   8.869  1.00  0.00    -0.200 F 
ATOM     73  F   UNL     1      -9.888  -5.444   8.837  1.00  0.00    -0.200 F 
ENDBRANCH  49  63
BRANCH  50  74
ATOM     74  C   UNL     1      -5.616   3.781  11.732  1.00  0.00     0.064 A 
ATOM     75  C   UNL     1      -6.360   3.840  12.926  1.00  0.00     0.173 A 
ATOM     76  C   UNL     1      -4.253   3.462  11.862  1.00  0.00     0.173 A 
ATOM     77  F   UNL     1      -7.673   4.113  12.893  1.00  0.00    -0.203 F 
ATOM     78  C   UNL     1      -5.790   3.531  14.164  1.00  0.00     0.198 A 
ATOM     79  C   UNL     1      -3.682   3.162  13.101  1.00  0.00     0.198 A 
ATOM     80  F   UNL     1      -3.471   3.331  10.781  1.00  0.00    -0.203 F 
ATOM     81  F   UNL     1      -6.554   3.509  15.266  1.00  0.00    -0.200 F 
ATOM     82  C   UNL     1      -4.455   3.174  14.248  1.00  0.00     0.200 A 
ATOM     83  F   UNL     1      -2.397   2.788  13.167  1.00  0.00    -0.200 F 
ATOM     84  F   UNL     1      -3.927   2.797  15.421  1.00  0.00    -0.200 F 
ENDBRANCH  50  74
BRANCH  62  85
ATOM     85  C   UNL     1     -10.465   4.552   7.763  1.00  0.00     0.064 A 
ATOM     86  C   UNL     1      -9.480   5.513   7.475  1.00  0.00     0.173 A 
ATOM     87  C   UNL     1     -11.805   4.950   7.659  1.00  0.00     0.173 A 
ATOM     88  F   UNL     1      -8.181   5.191   7.463  1.00  0.00    -0.203 F 
ATOM     89  C   UNL     1      -9.828   6.822   7.140  1.00  0.00     0.198 A 
ATOM     90  C   UNL     1     -12.149   6.245   7.284  1.00  0.00     0.198 A 
ATOM     91  F   UNL     1     -12.789   4.063   7.879  1.00  0.00    -0.203 F 
ATOM     92  F   UNL     1      -8.872   7.728   6.887  1.00  0.00    -0.200 F 
ATOM     93  C   UNL     1     -11.161   7.183   7.035  1.00  0.00     0.200 A 
ATOM     94  F   UNL     1     -13.440   6.577   7.140  1.00  0.00    -0.200 F 
ATOM     95  F   UNL     1     -11.495   8.429   6.671  1.00  0.00    -0.200 F 
ENDBRANCH  62  85
ENDBRANCH  36  37
ENDBRANCH  29  31
ENDBRANCH  28  29
ENDBRANCH  27  28
ENDBRANCH   1  27
TORSDOF 15
