REMARK SMILES O=C(OCCOC(=O)c1sccc1[S@](=O)[O-])c1ccc(-c2c3nc(c(-c4c(F)c(F)c(F)c(F)c4F)c4ccc([nH]4)c(-c4c(F)c(F)c(F)c(F)c4F)c4nc(c(-c5c(F)c(F)c(F)c(F)c5F)c5ccc2[nH]5)C=C4)C=C3)cc1
REMARK SMILES IDX 4 1 3 2 2 3 1 4 17 5 18 6 79 7 19 8 78 9 20 10 21 11 22 12
REMARK SMILES IDX 72 13 23 14 77 15 71 16 73 17 24 18 76 19 70 20 69 21 25 23
REMARK SMILES IDX 57 24 37 25 56 26 38 27 41 28 55 29 74 30 39 31 40 32 54 34
REMARK SMILES IDX 75 35 42 36 26 37 27 38 35 39 28 40 29 41 33 42 36 43 30 44
REMARK SMILES IDX 31 45 34 46 32 47 58 48 59 49 67 50 60 51 61 52 65 53 68 54
REMARK SMILES IDX 62 55 63 56 66 57 64 58 43 59 44 60 52 61 45 62 46 63 50 64
REMARK SMILES IDX 53 65 47 66 48 67 51 68 49 69 5 70 6 71 7 72 8 73 9 74 10 75
REMARK SMILES IDX 13 76 11 77 12 78 14 79 16 80 15 81
REMARK H PARENT 73 22 41 33
REMARK Flexibility Score: inf
ROOT
ATOM      1  C   UNL     1       8.603   0.841   0.500  1.00  0.00     0.275 C 
ENDROOT
BRANCH   1   2
ATOM      2  O   UNL     1       9.366   0.101   1.471  1.00  0.00    -0.458 OA
BRANCH   2   3
ATOM      3  C   UNL     1       9.742   0.449   2.723  1.00  0.00     0.338 C 
ATOM      4  O   UNL     1      10.707  -0.129   3.226  1.00  0.00    -0.246 OA
BRANCH   3   5
ATOM      5  C   UNL     1       8.993   1.405   3.605  1.00  0.00     0.060 A 
ATOM      6  C   UNL     1       8.262   2.517   3.189  1.00  0.00     0.016 A 
ATOM      7  C   UNL     1       9.097   1.178   4.995  1.00  0.00     0.016 A 
ATOM      8  C   UNL     1       7.649   3.366   4.119  1.00  0.00     0.010 A 
ATOM      9  C   UNL     1       8.472   2.012   5.930  1.00  0.00     0.010 A 
ATOM     10  C   UNL     1       7.751   3.123   5.493  1.00  0.00    -0.014 A 
BRANCH  10  11
ATOM     11  C   UNL     1       7.131   4.081   6.438  1.00  0.00     0.031 A 
ATOM     12  C   UNL     1       7.969   5.147   7.067  1.00  0.00     0.074 A 
ATOM     13  C   UNL     1       5.804   4.046   6.649  1.00  0.00     0.049 A 
ATOM     14  N   UNL     1       7.591   6.168   7.791  1.00  0.00    -0.248 NA
ATOM     15  C   UNL     1       9.420   5.061   6.846  1.00  0.00     0.031 C 
ATOM     16  C   UNL     1       4.912   3.040   6.089  1.00  0.00     0.029 A 
ATOM     17  N   UNL     1       4.970   4.864   7.364  1.00  0.00    -0.354 N 
ATOM     18  C   UNL     1       8.751   6.872   8.075  1.00  0.00     0.074 A 
ATOM     19  C   UNL     1       9.852   6.130   7.498  1.00  0.00     0.031 C 
ATOM     20  C   UNL     1       3.649   3.301   6.460  1.00  0.00     0.029 A 
ATOM     21  C   UNL     1       3.648   4.492   7.305  1.00  0.00     0.049 A 
ATOM     22  H   UNL     1       5.288   5.645   7.873  1.00  0.00     0.167 HD
ATOM     23  C   UNL     1       8.877   8.045   8.738  1.00  0.00     0.037 A 
ATOM     24  C   UNL     1       2.563   5.052   7.872  1.00  0.00     0.037 A 
ATOM     25  C   UNL     1       7.783   8.743   9.358  1.00  0.00     0.049 A 
ATOM     26  C   UNL     1       2.745   6.314   8.672  1.00  0.00     0.074 A 
ATOM     27  C   UNL     1       7.808   9.904  10.108  1.00  0.00     0.029 A 
ATOM     28  N   UNL     1       6.460   8.325   9.310  1.00  0.00    -0.354 N 
ATOM     29  N   UNL     1       3.843   6.994   8.899  1.00  0.00    -0.248 NA
ATOM     30  C   UNL     1       1.542   6.892   9.284  1.00  0.00     0.031 C 
ATOM     31  C   UNL     1       6.503  10.171  10.541  1.00  0.00     0.029 A 
ATOM     32  C   UNL     1       5.660   9.199  10.027  1.00  0.00     0.049 A 
ATOM     33  H   UNL     1       6.137   7.526   8.835  1.00  0.00     0.167 HD
ATOM     34  C   UNL     1       3.464   8.088   9.663  1.00  0.00     0.074 A 
ATOM     35  C   UNL     1       2.029   7.993   9.840  1.00  0.00     0.031 C 
ATOM     36  C   UNL     1       4.232   9.078  10.180  1.00  0.00     0.037 A 
BRANCH  23  37
ATOM     37  C   UNL     1      10.257   8.623   8.822  1.00  0.00     0.064 A 
ATOM     38  C   UNL     1      10.870   9.197   7.697  1.00  0.00     0.173 A 
ATOM     39  C   UNL     1      10.982   8.584  10.020  1.00  0.00     0.173 A 
ATOM     40  F   UNL     1      10.223   9.237   6.523  1.00  0.00    -0.203 F 
ATOM     41  C   UNL     1      12.172   9.686   7.763  1.00  0.00     0.198 A 
ATOM     42  C   UNL     1      12.277   9.094  10.088  1.00  0.00     0.198 A 
ATOM     43  F   UNL     1      10.441   8.042  11.121  1.00  0.00    -0.203 F 
ATOM     44  F   UNL     1      12.755  10.183   6.664  1.00  0.00    -0.200 F 
ATOM     45  C   UNL     1      12.873   9.636   8.959  1.00  0.00     0.200 A 
ATOM     46  F   UNL     1      12.954   9.046  11.243  1.00  0.00    -0.200 F 
ATOM     47  F   UNL     1      14.129  10.098   9.019  1.00  0.00    -0.200 F 
ENDBRANCH  23  37
BRANCH  24  48
ATOM     48  C   UNL     1       1.220   4.433   7.707  1.00  0.00     0.064 A 
ATOM     49  C   UNL     1       0.201   5.075   6.990  1.00  0.00     0.173 A 
ATOM     50  C   UNL     1       0.923   3.188   8.281  1.00  0.00     0.173 A 
ATOM     51  F   UNL     1       0.430   6.271   6.428  1.00  0.00    -0.203 F 
ATOM     52  C   UNL     1      -1.069   4.511   6.878  1.00  0.00     0.198 A 
ATOM     53  C   UNL     1      -0.338   2.610   8.145  1.00  0.00     0.198 A 
ATOM     54  F   UNL     1       1.866   2.521   8.963  1.00  0.00    -0.203 F 
ATOM     55  F   UNL     1      -2.037   5.168   6.224  1.00  0.00    -0.200 F 
ATOM     56  C   UNL     1      -1.337   3.277   7.452  1.00  0.00     0.200 A 
ATOM     57  F   UNL     1      -0.582   1.407   8.681  1.00  0.00    -0.200 F 
ATOM     58  F   UNL     1      -2.555   2.732   7.340  1.00  0.00    -0.200 F 
ENDBRANCH  24  48
BRANCH  36  59
ATOM     59  C   UNL     1       3.523  10.142  10.964  1.00  0.00     0.064 A 
ATOM     60  C   UNL     1       3.021   9.893  12.250  1.00  0.00     0.173 A 
ATOM     61  C   UNL     1       3.365  11.430  10.431  1.00  0.00     0.173 A 
ATOM     62  F   UNL     1       3.132   8.671  12.792  1.00  0.00    -0.203 F 
ATOM     63  C   UNL     1       2.363  10.890  12.964  1.00  0.00     0.198 A 
ATOM     64  C   UNL     1       2.730  12.431  11.159  1.00  0.00     0.198 A 
ATOM     65  F   UNL     1       3.830  11.716   9.205  1.00  0.00    -0.203 F 
ATOM     66  F   UNL     1       1.848  10.617  14.171  1.00  0.00    -0.200 F 
ATOM     67  C   UNL     1       2.223  12.158  12.421  1.00  0.00     0.200 A 
ATOM     68  F   UNL     1       2.602  13.658  10.636  1.00  0.00    -0.200 F 
ATOM     69  F   UNL     1       1.590  13.117  13.110  1.00  0.00    -0.200 F 
ENDBRANCH  36  59
ENDBRANCH  10  11
ENDBRANCH   3   5
ENDBRANCH   2   3
ENDBRANCH   1   2
BRANCH   1  70
ATOM     70  C   UNL     1       7.136   0.421   0.441  1.00  0.00     0.275 C 
BRANCH  70  71
ATOM     71  O   UNL     1       6.585   0.241   1.749  1.00  0.00    -0.458 OA
BRANCH  71  72
ATOM     72  C   UNL     1       6.456  -1.056   2.170  1.00  0.00     0.349 C 
ATOM     73  O   UNL     1       6.762  -2.041   1.510  1.00  0.00    -0.245 OA
BRANCH  72  74
ATOM     74  C   UNL     1       6.057  -1.058   3.555  1.00  0.00     0.127 A 
ATOM     75  S   UNL     1       7.081  -1.821   4.699  1.00  0.00    -0.136 S 
ATOM     76  C   UNL     1       4.975  -0.472   4.175  1.00  0.00     0.050 A 
ATOM     77  C   UNL     1       6.180  -1.205   6.016  1.00  0.00     0.067 A 
ATOM     78  C   UNL     1       5.059  -0.522   5.598  1.00  0.00     0.029 A 
BRANCH  76  79
ATOM     79  S   UNL     1       3.625   0.257   3.352  1.00  0.00    -0.020 S 
ATOM     80  O   UNL     1       4.400   1.658   3.215  1.00  0.00    -0.768 OA
ATOM     81  O   UNL     1       3.607  -0.307   1.965  1.00  0.00    -0.269 OA
ENDBRANCH  76  79
ENDBRANCH  72  74
ENDBRANCH  71  72
ENDBRANCH  70  71
ENDBRANCH   1  70
TORSDOF 12
