REMARK SMILES O=C(OCCOC(=O)[C@H](NC(=O)c1cccs1)[C@]12C[C@H]3C[C@H](C[C@H](C3)C1)C2)c1ccc(-c2c3nc(c(-c4c(F)c(F)c(F)c(F)c4F)c4ccc([nH]4)c(-c4c(F)c(F)c(F)c(F)c4F)c4nc(c(-c5c(F)c(F)c(F)c(F)c5F)c5ccc2[nH]5)C=C4)C=C3)cc1
REMARK SMILES IDX 4 1 3 2 2 3 1 4 28 5 29 6 90 7 30 8 89 9 31 10 32 11 33 12
REMARK SMILES IDX 83 13 34 14 88 15 82 16 84 17 35 18 87 19 81 20 80 21 36 23
REMARK SMILES IDX 68 24 48 25 67 26 49 27 52 28 66 29 85 30 50 31 51 32 65 34
REMARK SMILES IDX 86 35 53 36 37 37 38 38 46 39 39 40 40 41 44 42 47 43 41 44
REMARK SMILES IDX 42 45 45 46 43 47 69 48 70 49 78 50 71 51 72 52 76 53 79 54
REMARK SMILES IDX 73 55 74 56 77 57 75 58 54 59 55 60 63 61 56 62 57 63 61 64
REMARK SMILES IDX 64 65 58 66 59 67 62 68 60 69 5 70 6 71 7 72 8 73 9 74 10 75
REMARK SMILES IDX 11 76 12 78 13 79 14 80 17 81 15 82 16 83 18 84 19 85 26 86
REMARK SMILES IDX 27 87 20 88 24 89 22 90 21 91 25 92 23 93
REMARK H PARENT 84 22 52 33 10 77
REMARK Flexibility Score: inf
ROOT
ATOM      1  C   UNL     1       3.592  -4.881   0.314  1.00  0.00     0.275 C 
ENDROOT
BRANCH   1   2
ATOM      2  O   UNL     1       3.701  -4.173  -0.943  1.00  0.00    -0.458 OA
BRANCH   2   3
ATOM      3  C   UNL     1       3.031  -3.047  -1.270  1.00  0.00     0.338 C 
ATOM      4  O   UNL     1       3.426  -2.285  -2.143  1.00  0.00    -0.246 OA
BRANCH   3   5
ATOM      5  C   UNL     1       1.765  -2.753  -0.567  1.00  0.00     0.060 A 
ATOM      6  C   UNL     1       0.728  -3.687  -0.534  1.00  0.00     0.016 A 
ATOM      7  C   UNL     1       1.584  -1.480  -0.021  1.00  0.00     0.016 A 
ATOM      8  C   UNL     1      -0.465  -3.365   0.109  1.00  0.00     0.010 A 
ATOM      9  C   UNL     1       0.389  -1.155   0.622  1.00  0.00     0.010 A 
ATOM     10  C   UNL     1      -0.644  -2.098   0.688  1.00  0.00    -0.014 A 
BRANCH  10  11
ATOM     11  C   UNL     1      -1.966  -1.757   1.253  1.00  0.00     0.031 A 
ATOM     12  C   UNL     1      -3.076  -1.379   0.321  1.00  0.00     0.074 A 
ATOM     13  C   UNL     1      -2.202  -1.850   2.573  1.00  0.00     0.049 A 
ATOM     14  N   UNL     1      -4.365  -1.360   0.538  1.00  0.00    -0.248 NA
ATOM     15  C   UNL     1      -2.681  -0.990  -1.041  1.00  0.00     0.031 C 
ATOM     16  C   UNL     1      -1.208  -2.164   3.597  1.00  0.00     0.029 A 
ATOM     17  N   UNL     1      -3.375  -1.704   3.270  1.00  0.00    -0.354 N 
ATOM     18  C   UNL     1      -4.940  -1.039  -0.681  1.00  0.00     0.074 A 
ATOM     19  C   UNL     1      -3.861  -0.796  -1.614  1.00  0.00     0.031 C 
ATOM     20  C   UNL     1      -1.815  -2.188   4.797  1.00  0.00     0.029 A 
ATOM     21  C   UNL     1      -3.243  -1.927   4.616  1.00  0.00     0.049 A 
ATOM     22  H   UNL     1      -4.229  -1.461   2.845  1.00  0.00     0.167 HD
ATOM     23  C   UNL     1      -6.254  -0.995  -1.000  1.00  0.00     0.037 A 
ATOM     24  C   UNL     1      -4.179  -1.952   5.583  1.00  0.00     0.037 A 
ATOM     25  C   UNL     1      -7.326  -1.179  -0.062  1.00  0.00     0.049 A 
ATOM     26  C   UNL     1      -5.630  -1.789   5.225  1.00  0.00     0.074 A 
ATOM     27  C   UNL     1      -8.689  -1.215  -0.295  1.00  0.00     0.029 A 
ATOM     28  N   UNL     1      -7.147  -1.322   1.304  1.00  0.00    -0.354 N 
ATOM     29  N   UNL     1      -6.180  -1.655   4.044  1.00  0.00    -0.248 NA
ATOM     30  C   UNL     1      -6.592  -1.808   6.338  1.00  0.00     0.031 C 
ATOM     31  C   UNL     1      -9.338  -1.349   0.940  1.00  0.00     0.029 A 
ATOM     32  C   UNL     1      -8.376  -1.408   1.935  1.00  0.00     0.049 A 
ATOM     33  H   UNL     1      -6.274  -1.356   1.759  1.00  0.00     0.167 HD
ATOM     34  C   UNL     1      -7.550  -1.613   4.264  1.00  0.00     0.074 A 
ATOM     35  C   UNL     1      -7.749  -1.715   5.695  1.00  0.00     0.031 C 
ATOM     36  C   UNL     1      -8.553  -1.516   3.358  1.00  0.00     0.037 A 
BRANCH  23  37
ATOM     37  C   UNL     1      -6.588  -0.784  -2.439  1.00  0.00     0.064 A 
ATOM     38  C   UNL     1      -6.578  -1.867  -3.332  1.00  0.00     0.173 A 
ATOM     39  C   UNL     1      -6.919   0.483  -2.933  1.00  0.00     0.173 A 
ATOM     40  F   UNL     1      -6.253  -3.094  -2.899  1.00  0.00    -0.203 F 
ATOM     41  C   UNL     1      -6.881  -1.684  -4.676  1.00  0.00     0.198 A 
ATOM     42  C   UNL     1      -7.226   0.661  -4.279  1.00  0.00     0.198 A 
ATOM     43  F   UNL     1      -6.930   1.545  -2.115  1.00  0.00    -0.203 F 
ATOM     44  F   UNL     1      -6.848  -2.727  -5.517  1.00  0.00    -0.200 F 
ATOM     45  C   UNL     1      -7.205  -0.421  -5.149  1.00  0.00     0.200 A 
ATOM     46  F   UNL     1      -7.534   1.881  -4.739  1.00  0.00    -0.200 F 
ATOM     47  F   UNL     1      -7.490  -0.245  -6.447  1.00  0.00    -0.200 F 
ENDBRANCH  23  37
BRANCH  24  48
ATOM     48  C   UNL     1      -3.776  -2.204   6.984  1.00  0.00     0.064 A 
ATOM     49  C   UNL     1      -3.898  -3.479   7.550  1.00  0.00     0.173 A 
ATOM     50  C   UNL     1      -3.265  -1.171   7.781  1.00  0.00     0.173 A 
ATOM     51  F   UNL     1      -4.398  -4.488   6.824  1.00  0.00    -0.203 F 
ATOM     52  C   UNL     1      -3.527  -3.712   8.872  1.00  0.00     0.198 A 
ATOM     53  C   UNL     1      -2.888  -1.408   9.101  1.00  0.00     0.198 A 
ATOM     54  F   UNL     1      -3.139   0.065   7.279  1.00  0.00    -0.203 F 
ATOM     55  F   UNL     1      -3.667  -4.935   9.399  1.00  0.00    -0.200 F 
ATOM     56  C   UNL     1      -3.021  -2.677   9.646  1.00  0.00     0.200 A 
ATOM     57  F   UNL     1      -2.401  -0.407   9.846  1.00  0.00    -0.200 F 
ATOM     58  F   UNL     1      -2.667  -2.902  10.918  1.00  0.00    -0.200 F 
ENDBRANCH  24  48
BRANCH  36  59
ATOM     59  C   UNL     1      -9.953  -1.541   3.883  1.00  0.00     0.064 A 
ATOM     60  C   UNL     1     -10.560  -0.383   4.387  1.00  0.00     0.173 A 
ATOM     61  C   UNL     1     -10.707  -2.723   3.841  1.00  0.00     0.173 A 
ATOM     62  F   UNL     1      -9.869   0.764   4.459  1.00  0.00    -0.203 F 
ATOM     63  C   UNL     1     -11.877  -0.409   4.837  1.00  0.00     0.198 A 
ATOM     64  C   UNL     1     -12.026  -2.742   4.283  1.00  0.00     0.198 A 
ATOM     65  F   UNL     1     -10.163  -3.854   3.370  1.00  0.00    -0.203 F 
ATOM     66  F   UNL     1     -12.436   0.703   5.334  1.00  0.00    -0.200 F 
ATOM     67  C   UNL     1     -12.610  -1.586   4.781  1.00  0.00     0.200 A 
ATOM     68  F   UNL     1     -12.733  -3.879   4.229  1.00  0.00    -0.200 F 
ATOM     69  F   UNL     1     -13.878  -1.608   5.214  1.00  0.00    -0.200 F 
ENDBRANCH  36  59
ENDBRANCH  10  11
ENDBRANCH   3   5
ENDBRANCH   2   3
ENDBRANCH   1   2
BRANCH   1  70
ATOM     70  C   UNL     1       4.452  -4.226   1.389  1.00  0.00     0.274 C 
BRANCH  70  71
ATOM     71  O   UNL     1       3.734  -3.122   1.996  1.00  0.00    -0.461 OA
BRANCH  71  72
ATOM     72  C   UNL     1       4.479  -2.038   2.308  1.00  0.00     0.329 C 
ATOM     73  O   UNL     1       5.653  -1.857   1.998  1.00  0.00    -0.250 OA
BRANCH  72  74
ATOM     74  C   UNL     1       3.687  -1.049   3.197  1.00  0.00     0.198 C 
BRANCH  74  75
ATOM     75  N   UNL     1       4.150   0.304   2.814  1.00  0.00    -0.337 N 
ATOM     76  C   UNL     1       3.253   1.226   2.319  1.00  0.00     0.262 C 
ATOM     77  H   UNL     1       5.099   0.546   2.913  1.00  0.00     0.164 HD
ATOM     78  O   UNL     1       2.981   1.231   1.126  1.00  0.00    -0.268 OA
BRANCH  76  79
ATOM     79  C   UNL     1       2.719   2.147   3.300  1.00  0.00     0.092 A 
ATOM     80  C   UNL     1       3.365   2.747   4.365  1.00  0.00     0.025 A 
ATOM     81  S   UNL     1       1.080   2.627   3.207  1.00  0.00    -0.139 S 
ATOM     82  C   UNL     1       2.492   3.571   5.133  1.00  0.00     0.012 A 
ATOM     83  C   UNL     1       1.215   3.584   4.619  1.00  0.00     0.065 A 
ENDBRANCH  76  79
ENDBRANCH  74  75
BRANCH  74  84
ATOM     84  C   UNL     1       3.871  -1.357   4.718  1.00  0.00     0.002 C 
ATOM     85  C   UNL     1       2.740  -0.672   5.537  1.00  0.00     0.013 C 
ATOM     86  C   UNL     1       5.242  -0.855   5.248  1.00  0.00     0.013 C 
ATOM     87  C   UNL     1       3.771  -2.882   5.029  1.00  0.00     0.013 C 
ATOM     88  C   UNL     1       2.894  -0.931   7.044  1.00  0.00    -0.010 C 
ATOM     89  C   UNL     1       5.388  -1.127   6.754  1.00  0.00    -0.010 C 
ATOM     90  C   UNL     1       3.923  -3.161   6.535  1.00  0.00    -0.010 C 
ATOM     91  C   UNL     1       2.808  -2.440   7.304  1.00  0.00     0.007 C 
ATOM     92  C   UNL     1       4.261  -0.406   7.509  1.00  0.00     0.007 C 
ATOM     93  C   UNL     1       5.288  -2.638   7.009  1.00  0.00     0.007 C 
ENDBRANCH  74  84
ENDBRANCH  72  74
ENDBRANCH  71  72
ENDBRANCH  70  71
ENDBRANCH   1  70
TORSDOF 14
