REMARK SMILES CCOc1ccccc1[C@@H](C(=O)OCCOC(=O)c1ccc(-c2c3nc(c(-c4c(F)c(F)c(F)c(F)c4F)c4ccc([nH]4)c(-c4c(F)c(F)c(F)c(F)c4F)c4nc(c(-c5c(F)c(F)c(F)c(F)c5F)c5ccc2[nH]5)C=C4)C=C3)cc1)[NH+]1CCC(C(=O)N2CCCC2)CC1
REMARK SMILES IDX 14 1 13 2 11 3 12 4 10 5 9 6 4 7 5 8 6 9 8 10 7 11 3 12 2 13
REMARK SMILES IDX 1 14 82 15 83 16 94 17 84 19 93 20 85 21 86 22 87 23 88 24
REMARK SMILES IDX 89 25 92 26 90 27 91 28 15 29 16 30 17 31 18 32 19 33 20 34
REMARK SMILES IDX 81 35 21 36 80 37 22 38 23 39 24 40 74 41 25 42 79 43 73 44
REMARK SMILES IDX 75 45 26 46 78 47 72 48 71 49 27 51 59 52 39 53 58 54 40 55
REMARK SMILES IDX 43 56 57 57 76 58 41 59 42 60 56 62 77 63 44 64 28 65 29 66
REMARK SMILES IDX 37 67 30 68 31 69 35 70 38 71 32 72 33 73 36 74 34 75 60 76
REMARK SMILES IDX 61 77 69 78 62 79 63 80 67 81 70 82 64 83 65 84 68 85 66 86
REMARK SMILES IDX 45 87 46 88 54 89 47 90 48 91 52 92 55 93 49 94 50 95 53 96
REMARK SMILES IDX 51 97
REMARK H PARENT 82 18 75 50 43 61
REMARK Flexibility Score: inf
ROOT
ATOM      1  C   UNL     1       2.898  -0.108  -4.168  1.00  0.00     0.274 C 
ENDROOT
BRANCH   1   2
ATOM      2  O   UNL     1       3.090   0.541  -2.896  1.00  0.00    -0.457 OA
BRANCH   2   3
ATOM      3  C   UNL     1       2.998  -0.259  -1.797  1.00  0.00     0.370 C 
ATOM      4  O   UNL     1       2.871  -1.481  -1.857  1.00  0.00    -0.245 OA
BRANCH   3   5
ATOM      5  C   UNL     1       2.907   0.523  -0.480  1.00  0.00     0.330 C 
BRANCH   5   6
ATOM      6  C   UNL     1       3.094   2.033  -0.540  1.00  0.00     0.063 A 
ATOM      7  C   UNL     1       1.996   2.880  -0.300  1.00  0.00     0.129 A 
ATOM      8  C   UNL     1       2.166   4.255  -0.148  1.00  0.00     0.047 A 
ATOM      9  C   UNL     1       3.439   4.811  -0.268  1.00  0.00     0.004 A 
ATOM     10  C   UNL     1       4.350   2.624  -0.751  1.00  0.00     0.014 A 
ATOM     11  C   UNL     1       4.523   4.001  -0.601  1.00  0.00     0.001 A 
BRANCH   7  12
ATOM     12  O   UNL     1       0.732   2.362  -0.400  1.00  0.00    -0.493 OA
BRANCH  12  13
ATOM     13  C   UNL     1       0.045   2.240   0.847  1.00  0.00     0.226 C 
ATOM     14  C   UNL     1      -0.737   0.932   0.801  1.00  0.00     0.049 C 
ENDBRANCH  12  13
ENDBRANCH   7  12
ENDBRANCH   5   6
BRANCH   5  15
ATOM     15  N   UNL     1       3.593  -0.173   0.662  1.00  0.00    -0.319 N 
ATOM     16  C   UNL     1       5.053  -0.177   0.626  1.00  0.00     0.264 C 
ATOM     17  C   UNL     1       3.140   0.346   1.956  1.00  0.00     0.264 C 
ATOM     18  H   UNL     1       3.312  -1.147   0.545  1.00  0.00     0.349 HD
ATOM     19  C   UNL     1       5.595  -1.193   1.630  1.00  0.00     0.075 C 
ATOM     20  C   UNL     1       3.534  -0.589   3.084  1.00  0.00     0.075 C 
ATOM     21  C   UNL     1       5.000  -1.040   3.031  1.00  0.00     0.090 C 
BRANCH  21  22
ATOM     22  C   UNL     1       5.153  -2.289   3.897  1.00  0.00     0.226 C 
ATOM     23  O   UNL     1       5.807  -2.218   4.941  1.00  0.00    -0.275 OA
ATOM     24  N   UNL     1       4.466  -3.436   3.562  1.00  0.00    -0.342 N 
ATOM     25  C   UNL     1       3.807  -3.799   2.319  1.00  0.00     0.119 C 
ATOM     26  C   UNL     1       4.298  -4.491   4.544  1.00  0.00     0.119 C 
ATOM     27  C   UNL     1       2.687  -4.719   2.753  1.00  0.00     0.023 C 
ATOM     28  C   UNL     1       3.316  -5.474   3.913  1.00  0.00     0.023 C 
ENDBRANCH  21  22
ENDBRANCH   5  15
ENDBRANCH   3   5
ENDBRANCH   2   3
ENDBRANCH   1   2
BRANCH   1  29
ATOM     29  C   UNL     1       4.233  -0.452  -4.825  1.00  0.00     0.275 C 
BRANCH  29  30
ATOM     30  O   UNL     1       4.911  -1.464  -4.057  1.00  0.00    -0.458 OA
BRANCH  30  31
ATOM     31  C   UNL     1       6.150  -1.165  -3.611  1.00  0.00     0.338 C 
ATOM     32  O   UNL     1       6.799  -0.157  -3.873  1.00  0.00    -0.246 OA
BRANCH  31  33
ATOM     33  C   UNL     1       6.644  -2.205  -2.677  1.00  0.00     0.060 A 
ATOM     34  C   UNL     1       5.762  -2.934  -1.889  1.00  0.00     0.016 A 
ATOM     35  C   UNL     1       8.018  -2.360  -2.466  1.00  0.00     0.016 A 
ATOM     36  C   UNL     1       6.243  -3.678  -0.809  1.00  0.00     0.010 A 
ATOM     37  C   UNL     1       8.495  -3.189  -1.433  1.00  0.00     0.010 A 
ATOM     38  C   UNL     1       7.613  -3.795  -0.522  1.00  0.00    -0.014 A 
BRANCH  38  39
ATOM     39  C   UNL     1       8.084  -4.407   0.778  1.00  0.00     0.031 A 
ATOM     40  C   UNL     1       9.104  -3.689   1.649  1.00  0.00     0.074 A 
ATOM     41  C   UNL     1       7.548  -5.545   1.279  1.00  0.00     0.049 A 
ATOM     42  N   UNL     1       9.760  -4.137   2.695  1.00  0.00    -0.248 NA
ATOM     43  C   UNL     1       9.459  -2.307   1.290  1.00  0.00     0.031 C 
ATOM     44  C   UNL     1       6.528  -6.366   0.631  1.00  0.00     0.029 A 
ATOM     45  N   UNL     1       7.728  -6.168   2.498  1.00  0.00    -0.354 N 
ATOM     46  C   UNL     1      10.694  -3.158   3.016  1.00  0.00     0.074 A 
ATOM     47  C   UNL     1      10.479  -2.059   2.101  1.00  0.00     0.031 C 
ATOM     48  C   UNL     1       6.042  -7.251   1.516  1.00  0.00     0.029 A 
ATOM     49  C   UNL     1       6.806  -7.158   2.757  1.00  0.00     0.049 A 
ATOM     50  H   UNL     1       8.449  -5.926   3.123  1.00  0.00     0.167 HD
ATOM     51  C   UNL     1      11.664  -3.191   3.963  1.00  0.00     0.037 A 
ATOM     52  C   UNL     1       6.595  -7.899   3.866  1.00  0.00     0.037 A 
ATOM     53  C   UNL     1      11.780  -4.206   4.978  1.00  0.00     0.049 A 
ATOM     54  C   UNL     1       7.576  -7.815   5.005  1.00  0.00     0.074 A 
ATOM     55  C   UNL     1      12.773  -4.383   5.927  1.00  0.00     0.029 A 
ATOM     56  N   UNL     1      10.818  -5.170   5.227  1.00  0.00    -0.354 N 
ATOM     57  N   UNL     1       8.592  -7.008   5.168  1.00  0.00    -0.248 NA
ATOM     58  C   UNL     1       7.409  -8.797   6.089  1.00  0.00     0.031 C 
ATOM     59  C   UNL     1      12.415  -5.462   6.746  1.00  0.00     0.029 A 
ATOM     60  C   UNL     1      11.188  -5.937   6.320  1.00  0.00     0.049 A 
ATOM     61  H   UNL     1       9.993  -5.293   4.704  1.00  0.00     0.167 HD
ATOM     62  C   UNL     1       9.212  -7.415   6.342  1.00  0.00     0.074 A 
ATOM     63  C   UNL     1       8.402  -8.474   6.903  1.00  0.00     0.031 C 
ATOM     64  C   UNL     1      10.386  -6.995   6.870  1.00  0.00     0.037 A 
BRANCH  51  65
ATOM     65  C   UNL     1      12.743  -2.151   3.896  1.00  0.00     0.064 A 
ATOM     66  C   UNL     1      12.562  -0.833   4.330  1.00  0.00     0.173 A 
ATOM     67  C   UNL     1      14.016  -2.519   3.426  1.00  0.00     0.173 A 
ATOM     68  F   UNL     1      11.362  -0.424   4.768  1.00  0.00    -0.203 F 
ATOM     69  C   UNL     1      13.612   0.084   4.284  1.00  0.00     0.198 A 
ATOM     70  C   UNL     1      15.069  -1.609   3.407  1.00  0.00     0.198 A 
ATOM     71  F   UNL     1      14.244  -3.772   3.003  1.00  0.00    -0.203 F 
ATOM     72  F   UNL     1      13.410   1.352   4.670  1.00  0.00    -0.200 F 
ATOM     73  C   UNL     1      14.865  -0.307   3.831  1.00  0.00     0.200 A 
ATOM     74  F   UNL     1      16.280  -1.995   2.981  1.00  0.00    -0.200 F 
ATOM     75  F   UNL     1      15.874   0.574   3.800  1.00  0.00    -0.200 F 
ENDBRANCH  51  65
BRANCH  52  76
ATOM     76  C   UNL     1       5.391  -8.771   4.001  1.00  0.00     0.064 A 
ATOM     77  C   UNL     1       4.447  -8.501   5.008  1.00  0.00     0.173 A 
ATOM     78  C   UNL     1       5.144  -9.871   3.171  1.00  0.00     0.173 A 
ATOM     79  F   UNL     1       4.646  -7.477   5.853  1.00  0.00    -0.203 F 
ATOM     80  C   UNL     1       3.301  -9.275   5.163  1.00  0.00     0.198 A 
ATOM     81  C   UNL     1       3.983 -10.632   3.309  1.00  0.00     0.198 A 
ATOM     82  F   UNL     1       6.020 -10.201   2.212  1.00  0.00    -0.203 F 
ATOM     83  F   UNL     1       2.431  -8.992   6.142  1.00  0.00    -0.200 F 
ATOM     84  C   UNL     1       3.063 -10.334   4.304  1.00  0.00     0.200 A 
ATOM     85  F   UNL     1       3.752 -11.652   2.472  1.00  0.00    -0.200 F 
ATOM     86  F   UNL     1       1.952 -11.071   4.438  1.00  0.00    -0.200 F 
ENDBRANCH  52  76
BRANCH  64  87
ATOM     87  C   UNL     1      10.890  -7.730   8.075  1.00  0.00     0.064 A 
ATOM     88  C   UNL     1      11.376  -9.043   7.961  1.00  0.00     0.173 A 
ATOM     89  C   UNL     1      10.900  -7.133   9.343  1.00  0.00     0.173 A 
ATOM     90  F   UNL     1      11.376  -9.661   6.770  1.00  0.00    -0.203 F 
ATOM     91  C   UNL     1      11.818  -9.744   9.078  1.00  0.00     0.198 A 
ATOM     92  C   UNL     1      11.365  -7.830  10.456  1.00  0.00     0.198 A 
ATOM     93  F   UNL     1      10.453  -5.879   9.505  1.00  0.00    -0.203 F 
ATOM     94  F   UNL     1      12.226 -11.014   8.952  1.00  0.00    -0.200 F 
ATOM     95  C   UNL     1      11.815  -9.136  10.324  1.00  0.00     0.200 A 
ATOM     96  F   UNL     1      11.369  -7.242  11.660  1.00  0.00    -0.200 F 
ATOM     97  F   UNL     1      12.234  -9.815  11.401  1.00  0.00    -0.200 F 
ENDBRANCH  64  87
ENDBRANCH  38  39
ENDBRANCH  31  33
ENDBRANCH  30  31
ENDBRANCH  29  30
ENDBRANCH   1  29
TORSDOF 16
