REMARK SMILES C[C@@H](Sc1nc(-c2ccc3c(c2)OCO3)ccc1C#N)C(=O)OCCOC(=O)c1ccc(-c2c3nc(c(-c4c(F)c(F)c(F)c(F)c4F)c4ccc([nH]4)c(-c4c(F)c(F)c(F)c(F)c4F)c4nc(c(-c5c(F)c(F)c(F)c(F)c5F)c5ccc2[nH]5)C=C4)C=C3)cc1
REMARK SMILES IDX 24 1 23 2 21 3 22 4 2 5 1 6 3 7 4 8 5 9 18 10 6 11 17 12
REMARK SMILES IDX 16 13 19 14 20 15 7 16 8 17 12 18 9 19 11 20 10 21 13 22
REMARK SMILES IDX 15 23 14 24 25 25 26 26 27 27 28 28 29 29 30 30 91 31 31 32
REMARK SMILES IDX 90 33 32 34 33 35 34 36 84 37 35 38 89 39 83 40 85 41 36 42
REMARK SMILES IDX 88 43 82 44 81 45 37 47 69 48 49 49 68 50 50 51 53 52 67 53
REMARK SMILES IDX 86 54 51 55 52 56 66 58 87 59 54 60 38 61 39 62 47 63 40 64
REMARK SMILES IDX 41 65 45 66 48 67 42 68 43 69 46 70 44 71 70 72 71 73 79 74
REMARK SMILES IDX 72 75 73 76 77 77 80 78 74 79 75 80 78 81 76 82 55 83 56 84
REMARK SMILES IDX 64 85 57 86 58 87 62 88 65 89 59 90 60 91 63 92 61 93
REMARK H PARENT 85 46 53 57
REMARK Flexibility Score: inf
ROOT
ATOM      1  C   UNL     1      -3.086   0.378   1.139  1.00  0.00     0.274 C 
ENDROOT
BRANCH   1   2
ATOM      2  O   UNL     1      -1.655   0.519   1.053  1.00  0.00    -0.461 OA
BRANCH   2   3
ATOM      3  C   UNL     1      -0.928  -0.380   1.768  1.00  0.00     0.319 C 
ATOM      4  O   UNL     1      -1.419  -1.240   2.494  1.00  0.00    -0.251 OA
BRANCH   3   5
ATOM      5  C   UNL     1       0.578  -0.231   1.580  1.00  0.00     0.160 C 
ATOM      6  C   UNL     1       1.006   0.502   0.316  1.00  0.00     0.032 C 
BRANCH   5   7
ATOM      7  S   UNL     1       1.250   0.483   3.124  1.00  0.00    -0.090 SA
BRANCH   7   8
ATOM      8  C   UNL     1       2.990   0.177   2.917  1.00  0.00     0.115 A 
ATOM      9  N   UNL     1       3.700   1.326   2.831  1.00  0.00    -0.240 NA
ATOM     10  C   UNL     1       3.604  -1.074   2.892  1.00  0.00     0.084 A 
ATOM     11  C   UNL     1       5.046   1.266   2.713  1.00  0.00     0.072 A 
ATOM     12  C   UNL     1       4.998  -1.125   2.769  1.00  0.00     0.024 A 
ATOM     13  C   UNL     1       5.728   0.057   2.680  1.00  0.00     0.030 A 
BRANCH  10  14
ATOM     14  C   UNL     1       2.880  -2.305   2.979  1.00  0.00     0.102 C 
ATOM     15  N   UNL     1       2.317  -3.317   2.992  1.00  0.00    -0.192 NA
ENDBRANCH  10  14
BRANCH  11  16
ATOM     16  C   UNL     1       5.722   2.564   2.653  1.00  0.00     0.004 A 
ATOM     17  C   UNL     1       6.644   2.866   1.620  1.00  0.00     0.014 A 
ATOM     18  C   UNL     1       5.448   3.544   3.626  1.00  0.00     0.061 A 
ATOM     19  C   UNL     1       7.289   4.107   1.561  1.00  0.00     0.051 A 
ATOM     20  C   UNL     1       6.110   4.750   3.553  1.00  0.00     0.166 A 
ATOM     21  C   UNL     1       7.006   5.023   2.548  1.00  0.00     0.165 A 
ATOM     22  O   UNL     1       5.976   5.783   4.426  1.00  0.00    -0.454 OA
ATOM     23  O   UNL     1       7.548   6.265   2.661  1.00  0.00    -0.454 OA
ATOM     24  C   UNL     1       6.920   6.725   3.877  1.00  0.00     0.468 C 
ENDBRANCH  11  16
ENDBRANCH   7   8
ENDBRANCH   5   7
ENDBRANCH   3   5
ENDBRANCH   2   3
ENDBRANCH   1   2
BRANCH   1  25
ATOM     25  C   UNL     1      -3.644  -0.439  -0.031  1.00  0.00     0.275 C 
BRANCH  25  26
ATOM     26  O   UNL     1      -3.221  -1.817   0.014  1.00  0.00    -0.458 OA
BRANCH  26  27
ATOM     27  C   UNL     1      -2.085  -2.086  -0.667  1.00  0.00     0.338 C 
ATOM     28  O   UNL     1      -1.408  -1.307  -1.318  1.00  0.00    -0.246 OA
BRANCH  27  29
ATOM     29  C   UNL     1      -1.665  -3.474  -0.443  1.00  0.00     0.060 A 
ATOM     30  C   UNL     1      -0.522  -3.703   0.325  1.00  0.00     0.016 A 
ATOM     31  C   UNL     1      -2.297  -4.528  -1.097  1.00  0.00     0.016 A 
ATOM     32  C   UNL     1       0.023  -4.977   0.416  1.00  0.00     0.010 A 
ATOM     33  C   UNL     1      -1.772  -5.819  -0.973  1.00  0.00     0.010 A 
ATOM     34  C   UNL     1      -0.598  -6.049  -0.232  1.00  0.00    -0.014 A 
BRANCH  34  35
ATOM     35  C   UNL     1      -0.000  -7.403  -0.149  1.00  0.00     0.031 A 
ATOM     36  C   UNL     1       0.568  -8.050  -1.378  1.00  0.00     0.074 A 
ATOM     37  C   UNL     1       0.035  -8.044   1.034  1.00  0.00     0.049 A 
ATOM     38  N   UNL     1       1.030  -9.264  -1.539  1.00  0.00    -0.248 NA
ATOM     39  C   UNL     1       0.616  -7.223  -2.594  1.00  0.00     0.031 C 
ATOM     40  C   UNL     1      -0.438  -7.494   2.306  1.00  0.00     0.029 A 
ATOM     41  N   UNL     1       0.481  -9.300   1.359  1.00  0.00    -0.354 N 
ATOM     42  C   UNL     1       1.399  -9.355  -2.874  1.00  0.00     0.074 A 
ATOM     43  C   UNL     1       1.082  -8.083  -3.488  1.00  0.00     0.031 C 
ATOM     44  C   UNL     1      -0.257  -8.407   3.272  1.00  0.00     0.029 A 
ATOM     45  C   UNL     1       0.283  -9.625   2.678  1.00  0.00     0.049 A 
ATOM     46  H   UNL     1       0.902  -9.909   0.709  1.00  0.00     0.167 HD
ATOM     47  C   UNL     1       1.955 -10.407  -3.523  1.00  0.00     0.037 A 
ATOM     48  C   UNL     1       0.480 -10.788   3.327  1.00  0.00     0.037 A 
ATOM     49  C   UNL     1       2.273 -11.664  -2.895  1.00  0.00     0.049 A 
ATOM     50  C   UNL     1       1.024 -11.965   2.563  1.00  0.00     0.074 A 
ATOM     51  C   UNL     1       2.854 -12.787  -3.459  1.00  0.00     0.029 A 
ATOM     52  N   UNL     1       2.029 -11.969  -1.563  1.00  0.00    -0.354 N 
ATOM     53  N   UNL     1       1.377 -12.045   1.303  1.00  0.00    -0.248 NA
ATOM     54  C   UNL     1       1.197 -13.216   3.314  1.00  0.00     0.031 C 
ATOM     55  C   UNL     1       2.898 -13.792  -2.487  1.00  0.00     0.029 A 
ATOM     56  C   UNL     1       2.418 -13.272  -1.296  1.00  0.00     0.049 A 
ATOM     57  H   UNL     1       1.637 -11.350  -0.905  1.00  0.00     0.167 HD
ATOM     58  C   UNL     1       1.847 -13.338   1.118  1.00  0.00     0.074 A 
ATOM     59  C   UNL     1       1.746 -14.004   2.400  1.00  0.00     0.031 C 
ATOM     60  C   UNL     1       2.323 -13.919  -0.010  1.00  0.00     0.037 A 
BRANCH  47  61
ATOM     61  C   UNL     1       2.221 -10.259  -4.994  1.00  0.00     0.064 A 
ATOM     62  C   UNL     1       3.209  -9.394  -5.490  1.00  0.00     0.173 A 
ATOM     63  C   UNL     1       1.499 -11.025  -5.923  1.00  0.00     0.173 A 
ATOM     64  F   UNL     1       3.923  -8.631  -4.649  1.00  0.00    -0.203 F 
ATOM     65  C   UNL     1       3.442  -9.280  -6.859  1.00  0.00     0.198 A 
ATOM     66  C   UNL     1       1.759 -10.934  -7.288  1.00  0.00     0.198 A 
ATOM     67  F   UNL     1       0.547 -11.874  -5.507  1.00  0.00    -0.203 F 
ATOM     68  F   UNL     1       4.354  -8.407  -7.311  1.00  0.00    -0.200 F 
ATOM     69  C   UNL     1       2.723 -10.055  -7.756  1.00  0.00     0.200 A 
ATOM     70  F   UNL     1       1.075 -11.699  -8.151  1.00  0.00    -0.200 F 
ATOM     71  F   UNL     1       2.955  -9.951  -9.071  1.00  0.00    -0.200 F 
ENDBRANCH  47  61
BRANCH  48  72
ATOM     72  C   UNL     1       0.137 -10.901   4.769  1.00  0.00     0.064 A 
ATOM     73  C   UNL     1       1.131 -11.114   5.734  1.00  0.00     0.173 A 
ATOM     74  C   UNL     1      -1.192 -10.816   5.212  1.00  0.00     0.173 A 
ATOM     75  F   UNL     1       2.414 -11.227   5.360  1.00  0.00    -0.203 F 
ATOM     76  C   UNL     1       0.807 -11.263   7.081  1.00  0.00     0.198 A 
ATOM     77  C   UNL     1      -1.511 -10.927   6.563  1.00  0.00     0.198 A 
ATOM     78  F   UNL     1      -2.183 -10.613   4.331  1.00  0.00    -0.203 F 
ATOM     79  F   UNL     1       1.771 -11.525   7.974  1.00  0.00    -0.200 F 
ATOM     80  C   UNL     1      -0.512 -11.162   7.495  1.00  0.00     0.200 A 
ATOM     81  F   UNL     1      -2.786 -10.815   6.960  1.00  0.00    -0.200 F 
ATOM     82  F   UNL     1      -0.823 -11.305   8.791  1.00  0.00    -0.200 F 
ENDBRANCH  48  72
BRANCH  60  83
ATOM     83  C   UNL     1       2.826 -15.331   0.100  1.00  0.00     0.064 A 
ATOM     84  C   UNL     1       1.962 -16.414   0.318  1.00  0.00     0.173 A 
ATOM     85  C   UNL     1       4.194 -15.606  -0.057  1.00  0.00     0.173 A 
ATOM     86  F   UNL     1       0.648 -16.207   0.489  1.00  0.00    -0.203 F 
ATOM     87  C   UNL     1       2.453 -17.715   0.407  1.00  0.00     0.198 A 
ATOM     88  C   UNL     1       4.675 -16.911  -0.006  1.00  0.00     0.198 A 
ATOM     89  F   UNL     1       5.064 -14.608  -0.275  1.00  0.00    -0.203 F 
ATOM     90  F   UNL     1       1.616 -18.727   0.673  1.00  0.00    -0.200 F 
ATOM     91  C   UNL     1       3.806 -17.963   0.235  1.00  0.00     0.200 A 
ATOM     92  F   UNL     1       5.981 -17.149  -0.193  1.00  0.00    -0.200 F 
ATOM     93  F   UNL     1       4.274 -19.216   0.309  1.00  0.00    -0.200 F 
ENDBRANCH  60  83
ENDBRANCH  34  35
ENDBRANCH  27  29
ENDBRANCH  26  27
ENDBRANCH  25  26
ENDBRANCH   1  25
TORSDOF 15
