REMARK SMILES Cc1nc(Oc2ccc(F)cc2)c(C(=O)OCCOC(=O)c2ccc(-c3c4nc(c(-c5c(F)c(F)c(F)c(F)c5F)c5ccc([nH]5)c(-c5c(F)c(F)c(F)c(F)c5F)c5nc(c(-c6c(F)c(F)c(F)c(F)c6F)c6ccc3[nH]6)C=C5)C=C4)cc2)c(C)c1Cl
REMARK SMILES IDX 17 1 16 2 14 3 15 4 13 5 1 6 2 7 3 8 87 9 4 10 85 11 88 12
REMARK SMILES IDX 86 13 5 14 6 15 7 16 12 17 8 18 11 19 9 20 10 21 18 22 19 23
REMARK SMILES IDX 20 24 21 25 22 26 23 27 84 28 24 29 83 30 25 31 26 32 27 33
REMARK SMILES IDX 77 34 28 35 82 36 76 37 78 38 29 39 81 40 75 41 74 42 30 44
REMARK SMILES IDX 62 45 42 46 61 47 43 48 46 49 60 50 79 51 44 52 45 53 59 55
REMARK SMILES IDX 80 56 47 57 31 58 32 59 40 60 33 61 34 62 38 63 41 64 35 65
REMARK SMILES IDX 36 66 39 67 37 68 63 69 64 70 72 71 65 72 66 73 70 74 73 75
REMARK SMILES IDX 67 76 68 77 71 78 69 79 48 80 49 81 57 82 50 83 51 84 55 85
REMARK SMILES IDX 58 86 52 87 53 88 56 89 54 90
REMARK H PARENT 78 43 46 54
REMARK Flexibility Score: inf
ROOT
ATOM      1  C   UNL     1      -1.230   6.839   3.157  1.00  0.00     0.275 C 
ENDROOT
BRANCH   1   2
ATOM      2  O   UNL     1      -0.621   5.658   2.608  1.00  0.00    -0.458 OA
BRANCH   2   3
ATOM      3  C   UNL     1       0.600   5.294   3.091  1.00  0.00     0.344 C 
ATOM      4  O   UNL     1       1.315   5.894   3.852  1.00  0.00    -0.246 OA
BRANCH   3   5
ATOM      5  C   UNL     1       0.845   3.968   2.498  1.00  0.00     0.127 A 
ATOM      6  C   UNL     1       0.782   0.148   0.644  1.00  0.00     0.068 C 
ATOM      7  C   UNL     1       0.835   1.524   1.252  1.00  0.00     0.060 A 
ATOM      8  N   UNL     1       0.682   1.582   2.605  1.00  0.00    -0.216 NA
ATOM      9  C   UNL     1       1.079   2.659   0.474  1.00  0.00     0.066 A 
ATOM     10  C   UNL     1       0.695   2.790   3.231  1.00  0.00     0.234 A 
ATOM     11  C   UNL     1       1.103   3.912   1.103  1.00  0.00    -0.011 A 
ATOM     12  Cl  UNL     1       1.331   2.512  -1.233  1.00  0.00    -0.082 Cl
ATOM     13  C   UNL     1       1.356   5.184   0.329  1.00  0.00     0.047 C 
BRANCH  10  14
ATOM     14  O   UNL     1       0.795   2.633   4.594  1.00  0.00    -0.438 OA
BRANCH  14  15
ATOM     15  C   UNL     1       0.174   3.409   5.535  1.00  0.00     0.129 A 
ATOM     16  C   UNL     1       0.721   3.372   6.820  1.00  0.00     0.050 A 
ATOM     17  C   UNL     1      -0.975   4.156   5.337  1.00  0.00     0.050 A 
ATOM     18  C   UNL     1       0.164   4.131   7.857  1.00  0.00     0.043 A 
ATOM     19  C   UNL     1      -1.536   4.928   6.357  1.00  0.00     0.043 A 
ATOM     20  C   UNL     1      -0.953   4.918   7.610  1.00  0.00     0.123 A 
ATOM     21  F   UNL     1      -1.477   5.667   8.587  1.00  0.00    -0.207 F 
ENDBRANCH  14  15
ENDBRANCH  10  14
ENDBRANCH   3   5
ENDBRANCH   2   3
ENDBRANCH   1   2
BRANCH   1  22
ATOM     22  C   UNL     1      -2.743   6.788   2.885  1.00  0.00     0.275 C 
BRANCH  22  23
ATOM     23  O   UNL     1      -3.375   5.703   3.608  1.00  0.00    -0.458 OA
BRANCH  23  24
ATOM     24  C   UNL     1      -3.584   4.549   2.919  1.00  0.00     0.338 C 
ATOM     25  O   UNL     1      -3.388   4.364   1.730  1.00  0.00    -0.246 OA
BRANCH  24  26
ATOM     26  C   UNL     1      -3.859   3.448   3.883  1.00  0.00     0.060 A 
ATOM     27  C   UNL     1      -3.137   2.256   3.724  1.00  0.00     0.016 A 
ATOM     28  C   UNL     1      -4.704   3.605   4.989  1.00  0.00     0.016 A 
ATOM     29  C   UNL     1      -3.229   1.243   4.681  1.00  0.00     0.010 A 
ATOM     30  C   UNL     1      -4.834   2.564   5.924  1.00  0.00     0.010 A 
ATOM     31  C   UNL     1      -4.104   1.372   5.770  1.00  0.00    -0.014 A 
BRANCH  31  32
ATOM     32  C   UNL     1      -4.441   0.149   6.548  1.00  0.00     0.031 A 
ATOM     33  C   UNL     1      -5.420  -0.806   5.921  1.00  0.00     0.074 A 
ATOM     34  C   UNL     1      -3.856  -0.175   7.717  1.00  0.00     0.049 A 
ATOM     35  N   UNL     1      -5.765  -2.013   6.290  1.00  0.00    -0.248 NA
ATOM     36  C   UNL     1      -6.081  -0.340   4.690  1.00  0.00     0.031 C 
ATOM     37  C   UNL     1      -2.857   0.621   8.422  1.00  0.00     0.029 A 
ATOM     38  N   UNL     1      -4.016  -1.292   8.508  1.00  0.00    -0.354 N 
ATOM     39  C   UNL     1      -6.626  -2.470   5.303  1.00  0.00     0.074 A 
ATOM     40  C   UNL     1      -6.801  -1.396   4.351  1.00  0.00     0.031 C 
ATOM     41  C   UNL     1      -2.486  -0.035   9.539  1.00  0.00     0.029 A 
ATOM     42  C   UNL     1      -3.226  -1.296   9.633  1.00  0.00     0.049 A 
ATOM     43  H   UNL     1      -4.639  -2.021   8.287  1.00  0.00     0.167 HD
ATOM     44  C   UNL     1      -7.210  -3.683   5.182  1.00  0.00     0.037 A 
ATOM     45  C   UNL     1      -3.114  -2.215  10.616  1.00  0.00     0.037 A 
ATOM     46  C   UNL     1      -7.114  -4.732   6.155  1.00  0.00     0.049 A 
ATOM     47  C   UNL     1      -3.923  -3.492  10.552  1.00  0.00     0.074 A 
ATOM     48  C   UNL     1      -7.710  -5.980   6.135  1.00  0.00     0.029 A 
ATOM     49  N   UNL     1      -6.402  -4.642   7.340  1.00  0.00    -0.354 N 
ATOM     50  N   UNL     1      -4.688  -3.942   9.587  1.00  0.00    -0.248 NA
ATOM     51  C   UNL     1      -3.856  -4.387  11.720  1.00  0.00     0.031 C 
ATOM     52  C   UNL     1      -7.408  -6.623   7.338  1.00  0.00     0.029 A 
ATOM     53  C   UNL     1      -6.583  -5.795   8.083  1.00  0.00     0.049 A 
ATOM     54  H   UNL     1      -5.850  -3.873   7.612  1.00  0.00     0.167 HD
ATOM     55  C   UNL     1      -5.172  -5.173  10.020  1.00  0.00     0.074 A 
ATOM     56  C   UNL     1      -4.606  -5.410  11.329  1.00  0.00     0.031 C 
ATOM     57  C   UNL     1      -6.015  -6.025   9.387  1.00  0.00     0.037 A 
BRANCH  44  58
ATOM     58  C   UNL     1      -8.029  -3.918   3.953  1.00  0.00     0.064 A 
ATOM     59  C   UNL     1      -7.421  -4.116   2.705  1.00  0.00     0.173 A 
ATOM     60  C   UNL     1      -9.428  -3.950   4.022  1.00  0.00     0.173 A 
ATOM     61  F   UNL     1      -6.085  -4.071   2.590  1.00  0.00    -0.203 F 
ATOM     62  C   UNL     1      -8.188  -4.318   1.562  1.00  0.00     0.198 A 
ATOM     63  C   UNL     1     -10.191  -4.175   2.881  1.00  0.00     0.198 A 
ATOM     64  F   UNL     1     -10.052  -3.759   5.194  1.00  0.00    -0.203 F 
ATOM     65  F   UNL     1      -7.590  -4.461   0.372  1.00  0.00    -0.200 F 
ATOM     66  C   UNL     1      -9.572  -4.353   1.652  1.00  0.00     0.200 A 
ATOM     67  F   UNL     1     -11.528  -4.212   2.969  1.00  0.00    -0.200 F 
ATOM     68  F   UNL     1     -10.310  -4.547   0.551  1.00  0.00    -0.200 F 
ENDBRANCH  44  58
BRANCH  45  69
ATOM     69  C   UNL     1      -2.199  -1.978  11.768  1.00  0.00     0.064 A 
ATOM     70  C   UNL     1      -1.065  -2.779  11.968  1.00  0.00     0.173 A 
ATOM     71  C   UNL     1      -2.469  -0.985  12.721  1.00  0.00     0.173 A 
ATOM     72  F   UNL     1      -0.784  -3.769  11.108  1.00  0.00    -0.203 F 
ATOM     73  C   UNL     1      -0.243  -2.603  13.082  1.00  0.00     0.198 A 
ATOM     74  C   UNL     1      -1.633  -0.794  13.821  1.00  0.00     0.198 A 
ATOM     75  F   UNL     1      -3.552  -0.205  12.591  1.00  0.00    -0.203 F 
ATOM     76  F   UNL     1       0.806  -3.414  13.273  1.00  0.00    -0.200 F 
ATOM     77  C   UNL     1      -0.525  -1.606  14.004  1.00  0.00     0.200 A 
ATOM     78  F   UNL     1      -1.910   0.170  14.711  1.00  0.00    -0.200 F 
ATOM     79  F   UNL     1       0.262  -1.440  15.075  1.00  0.00    -0.200 F 
ENDBRANCH  45  69
BRANCH  57  80
ATOM     80  C   UNL     1      -6.403  -7.299  10.083  1.00  0.00     0.064 A 
ATOM     81  C   UNL     1      -7.311  -7.295  11.151  1.00  0.00     0.173 A 
ATOM     82  C   UNL     1      -5.973  -8.541   9.590  1.00  0.00     0.173 A 
ATOM     83  F   UNL     1      -7.745  -6.134  11.664  1.00  0.00    -0.203 F 
ATOM     84  C   UNL     1      -7.778  -8.488  11.697  1.00  0.00     0.198 A 
ATOM     85  C   UNL     1      -6.463  -9.732  10.121  1.00  0.00     0.198 A 
ATOM     86  F   UNL     1      -5.113  -8.601   8.562  1.00  0.00    -0.203 F 
ATOM     87  F   UNL     1      -8.639  -8.461  12.725  1.00  0.00    -0.200 F 
ATOM     88  C   UNL     1      -7.367  -9.704  11.172  1.00  0.00     0.200 A 
ATOM     89  F   UNL     1      -6.080 -10.905   9.598  1.00  0.00    -0.200 F 
ATOM     90  F   UNL     1      -7.845 -10.850  11.676  1.00  0.00    -0.200 F 
ENDBRANCH  57  80
ENDBRANCH  31  32
ENDBRANCH  24  26
ENDBRANCH  23  24
ENDBRANCH  22  23
ENDBRANCH   1  22
TORSDOF 13
