REMARK SMILES [NH3+]CCOCC(=O)N[C@H](C(=O)OCCOC(=O)c1ccc(-c2c3nc(c(-c4c(F)c(F)c(F)c(F)c4F)c4ccc([nH]4)c(-c4c(F)c(F)c(F)c(F)c4F)c4nc(c(-c5c(F)c(F)c(F)c(F)c5F)c5ccc2[nH]5)C=C4)C=C3)cc1)C1CCCCC1
REMARK SMILES IDX 10 1 11 2 9 3 8 4 6 5 7 6 5 8 4 9 3 10 2 11 1 12 81 16 82 17
REMARK SMILES IDX 86 18 83 19 85 20 84 21 12 22 13 23 14 24 15 25 16 26 17 27
REMARK SMILES IDX 18 28 19 29 80 30 20 31 79 32 21 33 22 34 23 35 73 36 24 37
REMARK SMILES IDX 78 38 72 39 74 40 25 41 77 42 71 43 70 44 26 46 58 47 38 48
REMARK SMILES IDX 57 49 39 50 42 51 56 52 75 53 40 54 41 55 55 57 76 58 43 59
REMARK SMILES IDX 27 60 28 61 36 62 29 63 30 64 34 65 37 66 31 67 32 68 35 69
REMARK SMILES IDX 33 70 59 71 60 72 68 73 61 74 62 75 66 76 69 77 63 78 64 79
REMARK SMILES IDX 67 80 65 81 44 82 45 83 53 84 46 85 47 86 51 87 54 88 48 89
REMARK SMILES IDX 49 90 52 91 50 92
REMARK H PARENT 8 7 1 13 1 14 1 15 74 45 42 56
REMARK Flexibility Score: inf
ROOT
ATOM      1  C   UNL     1       4.169   3.770   0.878  1.00  0.00     0.329 C 
ATOM      2  O   UNL     1       3.968   3.953  -0.322  1.00  0.00    -0.250 OA
ENDROOT
BRANCH   1   3
ATOM      3  C   UNL     1       3.359   4.503   1.974  1.00  0.00     0.195 C 
BRANCH   3   4
ATOM      4  N   UNL     1       3.651   4.407   3.423  1.00  0.00    -0.340 N 
ATOM      5  C   UNL     1       3.546   3.376   4.301  1.00  0.00     0.246 C 
ATOM      6  O   UNL     1       3.043   3.638   5.401  1.00  0.00    -0.272 OA
ATOM      7  H   UNL     1       3.982   5.244   3.822  1.00  0.00     0.164 HD
BRANCH   5   8
ATOM      8  C   UNL     1       4.163   1.994   4.054  1.00  0.00     0.260 C 
BRANCH   8   9
ATOM      9  O   UNL     1       3.427   0.974   3.422  1.00  0.00    -0.366 OA
BRANCH   9  10
ATOM     10  C   UNL     1       2.224   0.598   4.095  1.00  0.00     0.222 C 
BRANCH  10  11
ATOM     11  C   UNL     1       2.376  -0.771   4.776  1.00  0.00     0.287 C 
BRANCH  11  12
ATOM     12  N   UNL     1       3.410  -0.799   5.815  1.00  0.00    -0.356 N 
ATOM     13  H   UNL     1       3.457  -1.732   6.223  1.00  0.00     0.344 HD
ATOM     14  H   UNL     1       3.180  -0.121   6.541  1.00  0.00     0.344 HD
ATOM     15  H   UNL     1       4.312  -0.562   5.402  1.00  0.00     0.344 HD
ENDBRANCH  11  12
ENDBRANCH  10  11
ENDBRANCH   9  10
ENDBRANCH   8   9
ENDBRANCH   5   8
ENDBRANCH   3   4
BRANCH   3  16
ATOM     16  C   UNL     1       3.364   6.015   1.547  1.00  0.00     0.023 C 
ATOM     17  C   UNL     1       2.143   6.797   2.064  1.00  0.00     0.006 C 
ATOM     18  C   UNL     1       4.678   6.716   1.949  1.00  0.00     0.006 C 
ATOM     19  C   UNL     1       2.186   8.255   1.600  1.00  0.00     0.000 C 
ATOM     20  C   UNL     1       4.706   8.171   1.492  1.00  0.00     0.000 C 
ATOM     21  C   UNL     1       3.490   8.939   2.000  1.00  0.00     0.000 C 
ENDBRANCH   3  16
ENDBRANCH   1   3
BRANCH   1  22
ATOM     22  O   UNL     1       5.052   2.867   1.356  1.00  0.00    -0.461 OA
BRANCH  22  23
ATOM     23  C   UNL     1       5.633   1.984   0.375  1.00  0.00     0.274 C 
BRANCH  23  24
ATOM     24  C   UNL     1       4.786   0.720   0.169  1.00  0.00     0.275 C 
BRANCH  24  25
ATOM     25  O   UNL     1       3.671   0.935  -0.719  1.00  0.00    -0.458 OA
BRANCH  25  26
ATOM     26  C   UNL     1       2.528   1.368  -0.145  1.00  0.00     0.338 C 
ATOM     27  O   UNL     1       2.324   1.598   1.038  1.00  0.00    -0.246 OA
BRANCH  26  28
ATOM     28  C   UNL     1       1.514   1.682  -1.154  1.00  0.00     0.060 A 
ATOM     29  C   UNL     1       0.788   2.870  -0.994  1.00  0.00     0.016 A 
ATOM     30  C   UNL     1       1.226   0.797  -2.192  1.00  0.00     0.016 A 
ATOM     31  C   UNL     1      -0.236   3.181  -1.877  1.00  0.00     0.010 A 
ATOM     32  C   UNL     1       0.199   1.110  -3.079  1.00  0.00     0.010 A 
ATOM     33  C   UNL     1      -0.535   2.298  -2.920  1.00  0.00    -0.014 A 
BRANCH  33  34
ATOM     34  C   UNL     1      -1.635   2.602  -3.854  1.00  0.00     0.031 A 
ATOM     35  C   UNL     1      -2.942   1.889  -3.709  1.00  0.00     0.074 A 
ATOM     36  C   UNL     1      -1.427   3.492  -4.838  1.00  0.00     0.049 A 
ATOM     37  N   UNL     1      -3.978   1.893  -4.506  1.00  0.00    -0.248 NA
ATOM     38  C   UNL     1      -3.104   1.055  -2.508  1.00  0.00     0.031 C 
ATOM     39  C   UNL     1      -0.199   4.265  -5.027  1.00  0.00     0.029 A 
ATOM     40  N   UNL     1      -2.233   3.879  -5.875  1.00  0.00    -0.354 N 
ATOM     41  C   UNL     1      -4.909   1.051  -3.914  1.00  0.00     0.074 A 
ATOM     42  C   UNL     1      -4.312   0.542  -2.697  1.00  0.00     0.031 C 
ATOM     43  C   UNL     1      -0.326   5.023  -6.128  1.00  0.00     0.029 A 
ATOM     44  C   UNL     1      -1.622   4.751  -6.741  1.00  0.00     0.049 A 
ATOM     45  H   UNL     1      -3.159   3.564  -5.987  1.00  0.00     0.167 HD
ATOM     46  C   UNL     1      -6.148   0.736  -4.357  1.00  0.00     0.037 A 
ATOM     47  C   UNL     1      -2.054   5.240  -7.917  1.00  0.00     0.037 A 
ATOM     48  C   UNL     1      -6.717   1.250  -5.575  1.00  0.00     0.049 A 
ATOM     49  C   UNL     1      -3.411   4.827  -8.415  1.00  0.00     0.074 A 
ATOM     50  C   UNL     1      -7.957   0.989  -6.131  1.00  0.00     0.029 A 
ATOM     51  N   UNL     1      -6.073   2.136  -6.429  1.00  0.00    -0.354 N 
ATOM     52  N   UNL     1      -4.285   4.023  -7.860  1.00  0.00    -0.248 NA
ATOM     53  C   UNL     1      -3.842   5.387  -9.703  1.00  0.00     0.031 C 
ATOM     54  C   UNL     1      -8.049   1.691  -7.338  1.00  0.00     0.029 A 
ATOM     55  C   UNL     1      -6.886   2.425  -7.512  1.00  0.00     0.049 A 
ATOM     56  H   UNL     1      -5.172   2.505  -6.285  1.00  0.00     0.167 HD
ATOM     57  C   UNL     1      -5.380   4.001  -8.711  1.00  0.00     0.074 A 
ATOM     58  C   UNL     1      -5.061   4.879  -9.819  1.00  0.00     0.031 C 
ATOM     59  C   UNL     1      -6.545   3.319  -8.589  1.00  0.00     0.037 A 
BRANCH  46  60
ATOM     60  C   UNL     1      -6.953  -0.228  -3.537  1.00  0.00     0.064 A 
ATOM     61  C   UNL     1      -7.514   0.143  -2.306  1.00  0.00     0.173 A 
ATOM     62  C   UNL     1      -7.187  -1.531  -3.999  1.00  0.00     0.173 A 
ATOM     63  F   UNL     1      -7.305   1.373  -1.812  1.00  0.00    -0.203 F 
ATOM     64  C   UNL     1      -8.262  -0.763  -1.558  1.00  0.00     0.198 A 
ATOM     65  C   UNL     1      -7.956  -2.427  -3.260  1.00  0.00     0.198 A 
ATOM     66  F   UNL     1      -6.673  -1.937  -5.170  1.00  0.00    -0.203 F 
ATOM     67  F   UNL     1      -8.754  -0.400  -0.365  1.00  0.00    -0.200 F 
ATOM     68  C   UNL     1      -8.488  -2.044  -2.039  1.00  0.00     0.200 A 
ATOM     69  F   UNL     1      -8.179  -3.662  -3.730  1.00  0.00    -0.200 F 
ATOM     70  F   UNL     1      -9.212  -2.913  -1.320  1.00  0.00    -0.200 F 
ENDBRANCH  46  60
BRANCH  47  71
ATOM     71  C   UNL     1      -1.188   6.157  -8.700  1.00  0.00     0.064 A 
ATOM     72  C   UNL     1      -1.520   7.511  -8.845  1.00  0.00     0.173 A 
ATOM     73  C   UNL     1      -0.009   5.704  -9.311  1.00  0.00     0.173 A 
ATOM     74  F   UNL     1      -2.647   7.986  -8.296  1.00  0.00    -0.203 F 
ATOM     75  C   UNL     1      -0.713   8.373  -9.585  1.00  0.00     0.198 A 
ATOM     76  C   UNL     1       0.810   6.573 -10.028  1.00  0.00     0.198 A 
ATOM     77  F   UNL     1       0.354   4.418  -9.200  1.00  0.00    -0.203 F 
ATOM     78  F   UNL     1      -1.073   9.655  -9.741  1.00  0.00    -0.200 F 
ATOM     79  C   UNL     1       0.454   7.906 -10.170  1.00  0.00     0.200 A 
ATOM     80  F   UNL     1       1.944   6.120 -10.580  1.00  0.00    -0.200 F 
ATOM     81  F   UNL     1       1.232   8.737 -10.876  1.00  0.00    -0.200 F 
ENDBRANCH  47  71
BRANCH  59  82
ATOM     82  C   UNL     1      -7.577   3.539  -9.653  1.00  0.00     0.064 A 
ATOM     83  C   UNL     1      -7.451   2.972 -10.928  1.00  0.00     0.173 A 
ATOM     84  C   UNL     1      -8.728   4.291  -9.373  1.00  0.00     0.173 A 
ATOM     85  F   UNL     1      -6.359   2.260 -11.245  1.00  0.00    -0.203 F 
ATOM     86  C   UNL     1      -8.434   3.166 -11.894  1.00  0.00     0.198 A 
ATOM     87  C   UNL     1      -9.720   4.461 -10.333  1.00  0.00     0.198 A 
ATOM     88  F   UNL     1      -8.894   4.848  -8.164  1.00  0.00    -0.203 F 
ATOM     89  F   UNL     1      -8.277   2.648 -13.120  1.00  0.00    -0.200 F 
ATOM     90  C   UNL     1      -9.570   3.903 -11.594  1.00  0.00     0.200 A 
ATOM     91  F   UNL     1     -10.822   5.164 -10.038  1.00  0.00    -0.200 F 
ATOM     92  F   UNL     1     -10.519   4.081 -12.523  1.00  0.00    -0.200 F 
ENDBRANCH  59  82
ENDBRANCH  33  34
ENDBRANCH  26  28
ENDBRANCH  25  26
ENDBRANCH  24  25
ENDBRANCH  23  24
ENDBRANCH  22  23
ENDBRANCH   1  22
TORSDOF 18
