REMARK SMILES O=C(CNc1nc(-c2ccccc2)c(-c2ccccc2)s1)OCCOC(=O)c1ccc(-c2c3nc(c(-c4c(F)c(F)c(F)c(F)c4F)c4ccc([nH]4)c(-c4c(F)c(F)c(F)c(F)c4F)c4nc(c(-c5c(F)c(F)c(F)c(F)c5F)c5ccc2[nH]5)C=C4)C=C3)cc1
REMARK SMILES IDX 23 1 22 2 2 3 1 4 3 5 4 6 5 8 6 9 21 10 7 11 14 12 8 13 9 14
REMARK SMILES IDX 13 15 10 16 12 17 11 18 15 19 16 20 20 21 17 22 19 23 18 24
REMARK SMILES IDX 24 25 25 26 26 27 27 28 28 29 29 30 90 31 30 32 89 33 31 34
REMARK SMILES IDX 32 35 33 36 83 37 34 38 88 39 82 40 84 41 35 42 87 43 81 44
REMARK SMILES IDX 80 45 36 47 68 48 48 49 67 50 49 51 52 52 66 53 85 54 50 55
REMARK SMILES IDX 51 56 65 58 86 59 53 60 37 61 38 62 46 63 39 64 40 65 44 66
REMARK SMILES IDX 47 67 41 68 42 69 45 70 43 71 69 72 70 73 78 74 71 75 72 76
REMARK SMILES IDX 76 77 79 78 73 79 74 80 77 81 75 82 54 83 55 84 63 85 56 86
REMARK SMILES IDX 57 87 61 88 64 89 58 90 59 91 62 92 60 93
REMARK H PARENT 4 7 84 46 52 57
REMARK Flexibility Score: inf
ROOT
ATOM      1  C   UNL     1       4.250  -1.042  -0.205  1.00  0.00     0.274 C 
ENDROOT
BRANCH   1   2
ATOM      2  O   UNL     1       2.915  -0.886   0.324  1.00  0.00    -0.461 OA
BRANCH   2   3
ATOM      3  C   UNL     1       2.413   0.226   0.915  1.00  0.00     0.325 C 
ATOM      4  O   UNL     1       1.282   0.199   1.404  1.00  0.00    -0.250 OA
BRANCH   3   5
ATOM      5  C   UNL     1       3.248   1.499   0.974  1.00  0.00     0.238 C 
BRANCH   5   6
ATOM      6  N   UNL     1       4.325   1.413   1.944  1.00  0.00    -0.351 N 
ATOM      7  H   UNL     1       4.129   1.143   2.870  1.00  0.00     0.163 HD
BRANCH   6   8
ATOM      8  C   UNL     1       5.590   1.700   1.584  1.00  0.00     0.184 A 
ATOM      9  N   UNL     1       5.941   2.311   0.476  1.00  0.00    -0.220 NA
ATOM     10  S   UNL     1       6.889   1.146   2.556  1.00  0.00    -0.096 S 
ATOM     11  C   UNL     1       7.321   2.302   0.339  1.00  0.00     0.091 A 
ATOM     12  C   UNL     1       8.007   1.656   1.356  1.00  0.00     0.064 A 
BRANCH  11  13
ATOM     13  C   UNL     1       7.968   2.964  -0.787  1.00  0.00     0.002 A 
ATOM     14  C   UNL     1       8.866   2.282  -1.619  1.00  0.00     0.010 A 
ATOM     15  C   UNL     1       7.733   4.327  -1.008  1.00  0.00     0.010 A 
ATOM     16  C   UNL     1       9.554   2.965  -2.625  1.00  0.00     0.001 A 
ATOM     17  C   UNL     1       8.426   5.009  -2.011  1.00  0.00     0.001 A 
ATOM     18  C   UNL     1       9.342   4.330  -2.813  1.00  0.00     0.000 A 
ENDBRANCH  11  13
BRANCH  12  19
ATOM     19  C   UNL     1       9.430   1.418   1.572  1.00  0.00    -0.006 A 
ATOM     20  C   UNL     1       9.933   0.109   1.593  1.00  0.00     0.009 A 
ATOM     21  C   UNL     1      10.307   2.492   1.756  1.00  0.00     0.009 A 
ATOM     22  C   UNL     1      11.291  -0.120   1.814  1.00  0.00     0.001 A 
ATOM     23  C   UNL     1      11.665   2.261   1.979  1.00  0.00     0.001 A 
ATOM     24  C   UNL     1      12.155   0.956   2.012  1.00  0.00     0.000 A 
ENDBRANCH  12  19
ENDBRANCH   6   8
ENDBRANCH   5   6
ENDBRANCH   3   5
ENDBRANCH   2   3
ENDBRANCH   1   2
BRANCH   1  25
ATOM     25  C   UNL     1       4.295  -0.905  -1.726  1.00  0.00     0.275 C 
BRANCH  25  26
ATOM     26  O   UNL     1       3.887   0.415  -2.116  1.00  0.00    -0.458 OA
BRANCH  26  27
ATOM     27  C   UNL     1       2.591   0.537  -2.489  1.00  0.00     0.338 C 
ATOM     28  O   UNL     1       1.788  -0.364  -2.656  1.00  0.00    -0.246 OA
BRANCH  27  29
ATOM     29  C   UNL     1       2.221   1.968  -2.473  1.00  0.00     0.060 A 
ATOM     30  C   UNL     1       0.959   2.310  -1.972  1.00  0.00     0.016 A 
ATOM     31  C   UNL     1       3.103   2.966  -2.901  1.00  0.00     0.016 A 
ATOM     32  C   UNL     1       0.565   3.647  -1.925  1.00  0.00     0.010 A 
ATOM     33  C   UNL     1       2.705   4.305  -2.857  1.00  0.00     0.010 A 
ATOM     34  C   UNL     1       1.427   4.650  -2.389  1.00  0.00    -0.014 A 
BRANCH  34  35
ATOM     35  C   UNL     1       0.951   6.050  -2.484  1.00  0.00     0.031 A 
ATOM     36  C   UNL     1       0.421   6.554  -3.795  1.00  0.00     0.074 A 
ATOM     37  C   UNL     1       0.988   6.862  -1.413  1.00  0.00     0.049 A 
ATOM     38  N   UNL     1      -0.047   7.737  -4.102  1.00  0.00    -0.248 NA
ATOM     39  C   UNL     1       0.420   5.597  -4.913  1.00  0.00     0.031 C 
ATOM     40  C   UNL     1       1.471   6.489  -0.085  1.00  0.00     0.029 A 
ATOM     41  N   UNL     1       0.617   8.177  -1.281  1.00  0.00    -0.354 N 
ATOM     42  C   UNL     1      -0.406   7.664  -5.441  1.00  0.00     0.074 A 
ATOM     43  C   UNL     1      -0.070   6.334  -5.900  1.00  0.00     0.031 C 
ATOM     44  C   UNL     1       1.377   7.557   0.727  1.00  0.00     0.029 A 
ATOM     45  C   UNL     1       0.845   8.690  -0.029  1.00  0.00     0.049 A 
ATOM     46  H   UNL     1       0.224   8.703  -2.015  1.00  0.00     0.167 HD
ATOM     47  C   UNL     1      -0.978   8.617  -6.213  1.00  0.00     0.037 A 
ATOM     48  C   UNL     1       0.657   9.937   0.446  1.00  0.00     0.037 A 
ATOM     49  C   UNL     1      -1.307   9.943  -5.764  1.00  0.00     0.049 A 
ATOM     50  C   UNL     1       0.079  10.997  -0.456  1.00  0.00     0.074 A 
ATOM     51  C   UNL     1      -1.917  10.966  -6.468  1.00  0.00     0.029 A 
ATOM     52  N   UNL     1      -1.043  10.433  -4.494  1.00  0.00    -0.354 N 
ATOM     53  N   UNL     1      -0.315  10.902  -1.702  1.00  0.00    -0.248 NA
ATOM     54  C   UNL     1      -0.086  12.340   0.121  1.00  0.00     0.031 C 
ATOM     55  C   UNL     1      -1.981  12.091  -5.639  1.00  0.00     0.029 A 
ATOM     56  C   UNL     1      -1.451  11.754  -4.404  1.00  0.00     0.049 A 
ATOM     57  H   UNL     1      -0.626   9.919  -3.765  1.00  0.00     0.167 HD
ATOM     58  C   UNL     1      -0.802  12.156  -2.047  1.00  0.00     0.074 A 
ATOM     59  C   UNL     1      -0.663  12.996  -0.877  1.00  0.00     0.031 C 
ATOM     60  C   UNL     1      -1.319  12.574  -3.228  1.00  0.00     0.037 A 
BRANCH  47  61
ATOM     61  C   UNL     1      -1.278   8.261  -7.638  1.00  0.00     0.064 A 
ATOM     62  C   UNL     1      -2.345   7.414  -7.969  1.00  0.00     0.173 A 
ATOM     63  C   UNL     1      -0.522   8.811  -8.683  1.00  0.00     0.173 A 
ATOM     64  F   UNL     1      -3.089   6.854  -7.003  1.00  0.00    -0.203 F 
ATOM     65  C   UNL     1      -2.635   7.116  -9.298  1.00  0.00     0.198 A 
ATOM     66  C   UNL     1      -0.829   8.529 -10.011  1.00  0.00     0.198 A 
ATOM     67  F   UNL     1       0.507   9.629  -8.416  1.00  0.00    -0.203 F 
ATOM     68  F   UNL     1      -3.638   6.278  -9.592  1.00  0.00    -0.200 F 
ATOM     69  C   UNL     1      -1.881   7.679 -10.317  1.00  0.00     0.200 A 
ATOM     70  F   UNL     1      -0.106   9.081 -10.995  1.00  0.00    -0.200 F 
ATOM     71  F   UNL     1      -2.167   7.399 -11.596  1.00  0.00    -0.200 F 
ENDBRANCH  47  61
BRANCH  48  72
ATOM     72  C   UNL     1       1.021  10.263   1.848  1.00  0.00     0.064 A 
ATOM     73  C   UNL     1       0.035  10.551   2.802  1.00  0.00     0.173 A 
ATOM     74  C   UNL     1       2.362  10.337   2.251  1.00  0.00     0.173 A 
ATOM     75  F   UNL     1      -1.260  10.522   2.455  1.00  0.00    -0.203 F 
ATOM     76  C   UNL     1       0.378  10.923   4.100  1.00  0.00     0.198 A 
ATOM     77  C   UNL     1       2.703  10.684   3.556  1.00  0.00     0.198 A 
ATOM     78  F   UNL     1       3.343  10.077   1.374  1.00  0.00    -0.203 F 
ATOM     79  F   UNL     1      -0.582  11.245   4.978  1.00  0.00    -0.200 F 
ATOM     80  C   UNL     1       1.711  10.986   4.477  1.00  0.00     0.200 A 
ATOM     81  F   UNL     1       3.992  10.739   3.918  1.00  0.00    -0.200 F 
ATOM     82  F   UNL     1       2.040  11.352   5.723  1.00  0.00    -0.200 F 
ENDBRANCH  48  72
BRANCH  60  83
ATOM     83  C   UNL     1      -1.808  13.991  -3.308  1.00  0.00     0.064 A 
ATOM     84  C   UNL     1      -0.919  15.074  -3.358  1.00  0.00     0.173 A 
ATOM     85  C   UNL     1      -3.183  14.264  -3.383  1.00  0.00     0.173 A 
ATOM     86  F   UNL     1       0.404  14.865  -3.275  1.00  0.00    -0.203 F 
ATOM     87  C   UNL     1      -1.388  16.381  -3.461  1.00  0.00     0.198 A 
ATOM     88  C   UNL     1      -3.647  15.570  -3.513  1.00  0.00     0.198 A 
ATOM     89  F   UNL     1      -4.074  13.263  -3.346  1.00  0.00    -0.203 F 
ATOM     90  F   UNL     1      -0.522  17.403  -3.467  1.00  0.00    -0.200 F 
ATOM     91  C   UNL     1      -2.751  16.627  -3.546  1.00  0.00     0.200 A 
ATOM     92  F   UNL     1      -4.963  15.805  -3.607  1.00  0.00    -0.200 F 
ATOM     93  F   UNL     1      -3.200  17.885  -3.654  1.00  0.00    -0.200 F 
ENDBRANCH  60  83
ENDBRANCH  34  35
ENDBRANCH  27  29
ENDBRANCH  26  27
ENDBRANCH  25  26
ENDBRANCH   1  25
TORSDOF 15
