REMARK SMILES CC[C@H]1CCCC[C@@H]1C1(C(=O)OCCOC(=O)c2ccc(-c3c4nc(c(-c5c(F)c(F)c(F)c(F)c5F)c5ccc([nH]5)c(-c5c(F)c(F)c(F)c(F)c5F)c5nc(c(-c6c(F)c(F)c(F)c(F)c6F)c6ccc3[nH]6)C=C5)C=C4)cc2)CC1
REMARK SMILES IDX 13 1 12 2 10 3 11 4 9 5 81 6 82 7 8 8 3 9 4 10 5 11 7 12
REMARK SMILES IDX 6 13 2 14 1 15 14 16 15 17 16 18 17 19 18 20 19 21 80 22
REMARK SMILES IDX 20 23 79 24 21 25 22 26 23 27 73 28 24 29 78 30 72 31 74 32
REMARK SMILES IDX 25 33 77 34 71 35 70 36 26 38 58 39 38 40 57 41 39 42 42 43
REMARK SMILES IDX 56 44 75 45 40 46 41 47 55 49 76 50 43 51 27 52 28 53 36 54
REMARK SMILES IDX 29 55 30 56 34 57 37 58 31 59 32 60 35 61 33 62 59 63 60 64
REMARK SMILES IDX 68 65 61 66 62 67 66 68 69 69 63 70 64 71 67 72 65 73 44 74
REMARK SMILES IDX 45 75 53 76 46 77 47 78 51 79 54 80 48 81 49 82 52 83 50 84
REMARK H PARENT 74 37 42 48
REMARK Flexibility Score: inf
ROOT
ATOM      1  C   UNL     1       6.285  -1.394  -2.067  1.00  0.00     0.274 C 
ENDROOT
BRANCH   1   2
ATOM      2  O   UNL     1       5.133  -1.581  -1.221  1.00  0.00    -0.462 OA
BRANCH   2   3
ATOM      3  C   UNL     1       4.394  -0.472  -0.940  1.00  0.00     0.312 C 
ATOM      4  O   UNL     1       4.681   0.679  -1.212  1.00  0.00    -0.252 OA
BRANCH   3   5
ATOM      5  C   UNL     1       3.047  -0.839  -0.348  1.00  0.00     0.071 C 
ATOM      6  C   UNL     1       2.659  -0.076   0.922  1.00  0.00     0.020 C 
ATOM      7  C   UNL     1       3.010  -1.525   1.014  1.00  0.00     0.020 C 
BRANCH   5   8
ATOM      8  C   UNL     1       2.031  -1.359  -1.396  1.00  0.00     0.009 C 
ATOM      9  C   UNL     1       0.529  -0.956  -1.225  1.00  0.00    -0.007 C 
ATOM     10  C   UNL     1      -0.416  -2.159  -1.116  1.00  0.00     0.004 C 
ATOM     11  C   UNL     1      -0.104  -3.253  -2.118  1.00  0.00     0.000 C 
ATOM     12  C   UNL     1       2.360  -2.846  -1.713  1.00  0.00     0.005 C 
ATOM     13  C   UNL     1       1.236  -3.862  -1.776  1.00  0.00     0.000 C 
BRANCH   9  14
ATOM     14  C   UNL     1       0.120   0.117  -2.289  1.00  0.00     0.000 C 
ATOM     15  C   UNL     1      -1.274   0.031  -2.898  1.00  0.00     0.004 C 
ENDBRANCH   9  14
ENDBRANCH   5   8
ENDBRANCH   3   5
ENDBRANCH   2   3
ENDBRANCH   1   2
BRANCH   1  16
ATOM     16  C   UNL     1       6.250  -2.443  -3.184  1.00  0.00     0.275 C 
BRANCH  16  17
ATOM     17  O   UNL     1       5.130  -2.164  -4.047  1.00  0.00    -0.458 OA
BRANCH  17  18
ATOM     18  C   UNL     1       4.720  -3.182  -4.849  1.00  0.00     0.338 C 
ATOM     19  O   UNL     1       5.284  -4.253  -4.994  1.00  0.00    -0.246 OA
BRANCH  18  20
ATOM     20  C   UNL     1       3.404  -2.845  -5.471  1.00  0.00     0.060 A 
ATOM     21  C   UNL     1       2.667  -1.757  -5.015  1.00  0.00     0.016 A 
ATOM     22  C   UNL     1       2.827  -3.686  -6.431  1.00  0.00     0.016 A 
ATOM     23  C   UNL     1       1.339  -1.596  -5.403  1.00  0.00     0.010 A 
ATOM     24  C   UNL     1       1.526  -3.435  -6.914  1.00  0.00     0.010 A 
ATOM     25  C   UNL     1       0.743  -2.397  -6.382  1.00  0.00    -0.014 A 
BRANCH  25  26
ATOM     26  C   UNL     1      -0.680  -2.142  -6.787  1.00  0.00     0.031 A 
ATOM     27  C   UNL     1      -1.699  -3.254  -6.788  1.00  0.00     0.074 A 
ATOM     28  C   UNL     1      -1.117  -0.895  -7.079  1.00  0.00     0.049 A 
ATOM     29  N   UNL     1      -2.901  -3.281  -7.313  1.00  0.00    -0.248 NA
ATOM     30  C   UNL     1      -1.320  -4.497  -6.104  1.00  0.00     0.031 C 
ATOM     31  C   UNL     1      -0.316   0.327  -7.013  1.00  0.00     0.029 A 
ATOM     32  N   UNL     1      -2.361  -0.442  -7.462  1.00  0.00    -0.354 N 
ATOM     33  C   UNL     1      -3.384  -4.567  -7.101  1.00  0.00     0.074 A 
ATOM     34  C   UNL     1      -2.358  -5.279  -6.365  1.00  0.00     0.031 C 
ATOM     35  C   UNL     1      -1.099   1.387  -7.250  1.00  0.00     0.029 A 
ATOM     36  C   UNL     1      -2.415   0.918  -7.659  1.00  0.00     0.049 A 
ATOM     37  H   UNL     1      -3.137  -1.036  -7.584  1.00  0.00     0.167 HD
ATOM     38  C   UNL     1      -4.560  -5.108  -7.508  1.00  0.00     0.037 A 
ATOM     39  C   UNL     1      -3.373   1.705  -8.188  1.00  0.00     0.037 A 
ATOM     40  C   UNL     1      -5.605  -4.380  -8.188  1.00  0.00     0.049 A 
ATOM     41  C   UNL     1      -4.634   1.079  -8.711  1.00  0.00     0.074 A 
ATOM     42  C   UNL     1      -6.811  -4.853  -8.678  1.00  0.00     0.029 A 
ATOM     43  N   UNL     1      -5.576  -3.019  -8.458  1.00  0.00    -0.354 N 
ATOM     44  N   UNL     1      -5.021  -0.171  -8.655  1.00  0.00    -0.248 NA
ATOM     45  C   UNL     1      -5.570   1.967  -9.413  1.00  0.00     0.031 C 
ATOM     46  C   UNL     1      -7.484  -3.791  -9.295  1.00  0.00     0.029 A 
ATOM     47  C   UNL     1      -6.730  -2.642  -9.130  1.00  0.00     0.049 A 
ATOM     48  H   UNL     1      -4.843  -2.411  -8.209  1.00  0.00     0.167 HD
ATOM     49  C   UNL     1      -6.244  -0.221  -9.310  1.00  0.00     0.074 A 
ATOM     50  C   UNL     1      -6.549   1.131  -9.730  1.00  0.00     0.031 C 
ATOM     51  C   UNL     1      -7.033  -1.296  -9.551  1.00  0.00     0.037 A 
BRANCH  38  52
ATOM     52  C   UNL     1      -4.731  -6.591  -7.328  1.00  0.00     0.064 A 
ATOM     53  C   UNL     1      -4.914  -7.191  -6.075  1.00  0.00     0.173 A 
ATOM     54  C   UNL     1      -4.698  -7.431  -8.455  1.00  0.00     0.173 A 
ATOM     55  F   UNL     1      -4.941  -6.439  -4.964  1.00  0.00    -0.203 F 
ATOM     56  C   UNL     1      -5.008  -8.576  -5.951  1.00  0.00     0.198 A 
ATOM     57  C   UNL     1      -4.829  -8.811  -8.331  1.00  0.00     0.198 A 
ATOM     58  F   UNL     1      -4.538  -6.911  -9.681  1.00  0.00    -0.203 F 
ATOM     59  F   UNL     1      -5.111  -9.133  -4.736  1.00  0.00    -0.200 F 
ATOM     60  C   UNL     1      -4.968  -9.384  -7.078  1.00  0.00     0.200 A 
ATOM     61  F   UNL     1      -4.806  -9.586  -9.425  1.00  0.00    -0.200 F 
ATOM     62  F   UNL     1      -5.050 -10.716  -6.955  1.00  0.00    -0.200 F 
ENDBRANCH  38  52
BRANCH  39  63
ATOM     63  C   UNL     1      -3.127   3.167  -8.341  1.00  0.00     0.064 A 
ATOM     64  C   UNL     1      -3.894   4.109  -7.643  1.00  0.00     0.173 A 
ATOM     65  C   UNL     1      -2.113   3.651  -9.184  1.00  0.00     0.173 A 
ATOM     66  F   UNL     1      -4.899   3.702  -6.854  1.00  0.00    -0.203 F 
ATOM     67  C   UNL     1      -3.654   5.476  -7.781  1.00  0.00     0.198 A 
ATOM     68  C   UNL     1      -1.847   5.013  -9.287  1.00  0.00     0.198 A 
ATOM     69  F   UNL     1      -1.356   2.794  -9.886  1.00  0.00    -0.203 F 
ATOM     70  F   UNL     1      -4.430   6.357  -7.136  1.00  0.00    -0.200 F 
ATOM     71  C   UNL     1      -2.622   5.925  -8.591  1.00  0.00     0.200 A 
ATOM     72  F   UNL     1      -0.835   5.438 -10.056  1.00  0.00    -0.200 F 
ATOM     73  F   UNL     1      -2.379   7.238  -8.706  1.00  0.00    -0.200 F 
ENDBRANCH  39  63
BRANCH  51  74
ATOM     74  C   UNL     1      -8.325  -1.054 -10.279  1.00  0.00     0.064 A 
ATOM     75  C   UNL     1      -8.355  -0.718 -11.641  1.00  0.00     0.173 A 
ATOM     76  C   UNL     1      -9.553  -1.189  -9.612  1.00  0.00     0.173 A 
ATOM     77  F   UNL     1      -7.211  -0.558 -12.323  1.00  0.00    -0.203 F 
ATOM     78  C   UNL     1      -9.563  -0.501 -12.300  1.00  0.00     0.198 A 
ATOM     79  C   UNL     1     -10.759  -1.002 -10.281  1.00  0.00     0.198 A 
ATOM     80  F   UNL     1      -9.583  -1.511  -8.310  1.00  0.00    -0.203 F 
ATOM     81  F   UNL     1      -9.565  -0.131 -13.588  1.00  0.00    -0.200 F 
ATOM     82  C   UNL     1     -10.764  -0.651 -11.622  1.00  0.00     0.200 A 
ATOM     83  F   UNL     1     -11.918  -1.160  -9.627  1.00  0.00    -0.200 F 
ATOM     84  F   UNL     1     -11.925  -0.448 -12.259  1.00  0.00    -0.200 F 
ENDBRANCH  51  74
ENDBRANCH  25  26
ENDBRANCH  18  20
ENDBRANCH  17  18
ENDBRANCH  16  17
ENDBRANCH   1  16
TORSDOF 13
