REMARK SMILES CCC(CC)[C@@H](C)[NH2+][C@@H](C)[C@@H](C)C(=O)OCCOC(=O)c1ccc(-c2c3nc(c(-c4c(F)c(F)c(F)c(F)c4F)c4ccc([nH]4)c(-c4c(F)c(F)c(F)c(F)c4F)c4nc(c(-c5c(F)c(F)c(F)c(F)c5F)c5ccc2[nH]5)C=C4)C=C3)cc1
REMARK SMILES IDX 15 1 13 2 14 3 11 4 12 5 9 6 10 7 8 8 6 11 7 12 3 13 2 14
REMARK SMILES IDX 1 15 4 16 5 17 16 18 17 19 18 20 19 21 20 22 21 23 22 24
REMARK SMILES IDX 83 25 23 26 82 27 24 28 25 29 26 30 76 31 27 32 81 33 75 34
REMARK SMILES IDX 77 35 28 36 80 37 74 38 73 39 29 41 61 42 41 43 60 44 42 45
REMARK SMILES IDX 45 46 59 47 78 48 43 49 44 50 58 52 79 53 46 54 30 55 31 56
REMARK SMILES IDX 39 57 32 58 33 59 37 60 40 61 34 62 35 63 38 64 36 65 62 66
REMARK SMILES IDX 63 67 71 68 64 69 65 70 69 71 72 72 66 73 67 74 70 75 68 76
REMARK SMILES IDX 47 77 48 78 56 79 49 80 50 81 54 82 57 83 51 84 52 85 55 86
REMARK SMILES IDX 53 87
REMARK H PARENT 8 9 8 10 77 40 45 51
REMARK Flexibility Score: inf
ROOT
ATOM      1  O   UNL     1      -0.954  -3.950   7.501  1.00  0.00    -0.462 OA
ENDROOT
BRANCH   1   2
ATOM      2  C   UNL     1       0.141  -3.182   7.741  1.00  0.00     0.314 C 
ATOM      3  O   UNL     1       0.721  -3.117   8.821  1.00  0.00    -0.252 OA
BRANCH   2   4
ATOM      4  C   UNL     1       0.598  -2.361   6.546  1.00  0.00     0.154 C 
ATOM      5  C   UNL     1       0.095  -0.934   6.786  1.00  0.00     0.026 C 
BRANCH   4   6
ATOM      6  C   UNL     1       0.238  -2.903   5.131  1.00  0.00     0.193 C 
ATOM      7  C   UNL     1       0.684  -4.359   4.953  1.00  0.00     0.076 C 
BRANCH   6   8
ATOM      8  N   UNL     1       0.907  -2.025   4.149  1.00  0.00    -0.341 N 
ATOM      9  H   UNL     1       0.766  -1.065   4.464  1.00  0.00     0.346 HD
ATOM     10  H   UNL     1       1.867  -2.370   4.134  1.00  0.00     0.346 HD
BRANCH   8  11
ATOM     11  C   UNL     1       0.499  -2.076   2.736  1.00  0.00     0.182 C 
ATOM     12  C   UNL     1       1.203  -3.244   2.022  1.00  0.00     0.075 C 
BRANCH  11  13
ATOM     13  C   UNL     1       0.886  -0.702   2.065  1.00  0.00     0.046 C 
BRANCH  13  14
ATOM     14  C   UNL     1       0.444  -0.629   0.578  1.00  0.00     0.006 C 
ATOM     15  C   UNL     1       0.900   0.631  -0.149  1.00  0.00     0.004 C 
ENDBRANCH  13  14
BRANCH  13  16
ATOM     16  C   UNL     1       0.381   0.531   2.864  1.00  0.00     0.006 C 
ATOM     17  C   UNL     1      -1.132   0.648   2.983  1.00  0.00     0.004 C 
ENDBRANCH  13  16
ENDBRANCH  11  13
ENDBRANCH   8  11
ENDBRANCH   6   8
ENDBRANCH   4   6
ENDBRANCH   2   4
ENDBRANCH   1   2
BRANCH   1  18
ATOM     18  C   UNL     1      -1.319  -4.838   8.580  1.00  0.00     0.274 C 
BRANCH  18  19
ATOM     19  C   UNL     1      -0.630  -6.197   8.425  1.00  0.00     0.275 C 
BRANCH  19  20
ATOM     20  O   UNL     1       0.795  -6.020   8.373  1.00  0.00    -0.458 OA
BRANCH  20  21
ATOM     21  C   UNL     1       1.470  -6.909   7.609  1.00  0.00     0.338 C 
ATOM     22  O   UNL     1       0.998  -7.882   7.035  1.00  0.00    -0.246 OA
BRANCH  21  23
ATOM     23  C   UNL     1       2.905  -6.558   7.555  1.00  0.00     0.060 A 
ATOM     24  C   UNL     1       3.341  -5.229   7.508  1.00  0.00     0.016 A 
ATOM     25  C   UNL     1       3.838  -7.594   7.491  1.00  0.00     0.016 A 
ATOM     26  C   UNL     1       4.700  -4.936   7.371  1.00  0.00     0.010 A 
ATOM     27  C   UNL     1       5.201  -7.303   7.414  1.00  0.00     0.010 A 
ATOM     28  C   UNL     1       5.645  -5.971   7.342  1.00  0.00    -0.014 A 
BRANCH  28  29
ATOM     29  C   UNL     1       7.102  -5.694   7.250  1.00  0.00     0.031 A 
ATOM     30  C   UNL     1       7.882  -6.146   6.049  1.00  0.00     0.074 A 
ATOM     31  C   UNL     1       7.737  -5.101   8.279  1.00  0.00     0.049 A 
ATOM     32  N   UNL     1       9.178  -6.202   5.872  1.00  0.00    -0.248 NA
ATOM     33  C   UNL     1       7.097  -6.610   4.895  1.00  0.00     0.031 C 
ATOM     34  C   UNL     1       7.095  -4.594   9.491  1.00  0.00     0.029 A 
ATOM     35  N   UNL     1       9.073  -4.851   8.478  1.00  0.00    -0.354 N 
ATOM     36  C   UNL     1       9.365  -6.737   4.605  1.00  0.00     0.074 A 
ATOM     37  C   UNL     1       8.050  -6.997   4.058  1.00  0.00     0.031 C 
ATOM     38  C   UNL     1       8.036  -4.102  10.313  1.00  0.00     0.029 A 
ATOM     39  C   UNL     1       9.349  -4.317   9.713  1.00  0.00     0.049 A 
ATOM     40  H   UNL     1       9.765  -5.036   7.803  1.00  0.00     0.167 HD
ATOM     41  C   UNL     1      10.530  -6.988   3.961  1.00  0.00     0.037 A 
ATOM     42  C   UNL     1      10.527  -4.071  10.316  1.00  0.00     0.037 A 
ATOM     43  C   UNL     1      11.836  -6.708   4.500  1.00  0.00     0.049 A 
ATOM     44  C   UNL     1      11.806  -4.396   9.597  1.00  0.00     0.074 A 
ATOM     45  C   UNL     1      13.075  -6.910   3.915  1.00  0.00     0.029 A 
ATOM     46  N   UNL     1      12.071  -6.162   5.753  1.00  0.00    -0.354 N 
ATOM     47  N   UNL     1      11.976  -4.920   8.408  1.00  0.00    -0.248 NA
ATOM     48  C   UNL     1      13.059  -4.106  10.309  1.00  0.00     0.031 C 
ATOM     49  C   UNL     1      14.060  -6.516   4.828  1.00  0.00     0.029 A 
ATOM     50  C   UNL     1      13.434  -6.032   5.965  1.00  0.00     0.049 A 
ATOM     51  H   UNL     1      11.372  -5.904   6.397  1.00  0.00     0.167 HD
ATOM     52  C   UNL     1      13.348  -5.007   8.222  1.00  0.00     0.074 A 
ATOM     53  C   UNL     1      13.967  -4.469   9.415  1.00  0.00     0.031 C 
ATOM     54  C   UNL     1      14.033  -5.493   7.158  1.00  0.00     0.037 A 
BRANCH  41  55
ATOM     55  C   UNL     1      10.450  -7.619   2.602  1.00  0.00     0.064 A 
ATOM     56  C   UNL     1      10.040  -6.893   1.475  1.00  0.00     0.173 A 
ATOM     57  C   UNL     1      10.837  -8.956   2.418  1.00  0.00     0.173 A 
ATOM     58  F   UNL     1       9.649  -5.616   1.601  1.00  0.00    -0.203 F 
ATOM     59  C   UNL     1      10.002  -7.487   0.216  1.00  0.00     0.198 A 
ATOM     60  C   UNL     1      10.820  -9.539   1.153  1.00  0.00     0.198 A 
ATOM     61  F   UNL     1      11.242  -9.693   3.463  1.00  0.00    -0.203 F 
ATOM     62  F   UNL     1       9.573  -6.784  -0.842  1.00  0.00    -0.200 F 
ATOM     63  C   UNL     1      10.399  -8.806   0.055  1.00  0.00     0.200 A 
ATOM     64  F   UNL     1      11.214 -10.811   0.998  1.00  0.00    -0.200 F 
ATOM     65  F   UNL     1      10.369  -9.373  -1.159  1.00  0.00    -0.200 F 
ENDBRANCH  41  55
BRANCH  42  66
ATOM     66  C   UNL     1      10.546  -3.513  11.691  1.00  0.00     0.064 A 
ATOM     67  C   UNL     1      10.950  -2.193  11.927  1.00  0.00     0.173 A 
ATOM     68  C   UNL     1      10.146  -4.283  12.794  1.00  0.00     0.173 A 
ATOM     69  F   UNL     1      11.365  -1.428  10.906  1.00  0.00    -0.203 F 
ATOM     70  C   UNL     1      10.960  -1.665  13.216  1.00  0.00     0.198 A 
ATOM     71  C   UNL     1      10.132  -3.746  14.079  1.00  0.00     0.198 A 
ATOM     72  F   UNL     1       9.752  -5.553  12.619  1.00  0.00    -0.203 F 
ATOM     73  F   UNL     1      11.384  -0.410  13.419  1.00  0.00    -0.200 F 
ATOM     74  C   UNL     1      10.544  -2.438  14.289  1.00  0.00     0.200 A 
ATOM     75  F   UNL     1       9.718  -4.493  15.111  1.00  0.00    -0.200 F 
ATOM     76  F   UNL     1      10.546  -1.926  15.527  1.00  0.00    -0.200 F 
ENDBRANCH  42  66
BRANCH  54  77
ATOM     77  C   UNL     1      15.530  -5.436   7.227  1.00  0.00     0.064 A 
ATOM     78  C   UNL     1      16.260  -6.321   8.033  1.00  0.00     0.173 A 
ATOM     79  C   UNL     1      16.241  -4.503   6.458  1.00  0.00     0.173 A 
ATOM     80  F   UNL     1      15.623  -7.219   8.799  1.00  0.00    -0.203 F 
ATOM     81  C   UNL     1      17.650  -6.260   8.082  1.00  0.00     0.198 A 
ATOM     82  C   UNL     1      17.632  -4.460   6.493  1.00  0.00     0.198 A 
ATOM     83  F   UNL     1      15.587  -3.638   5.670  1.00  0.00    -0.203 F 
ATOM     84  F   UNL     1      18.327  -7.087   8.891  1.00  0.00    -0.200 F 
ATOM     85  C   UNL     1      18.335  -5.334   7.309  1.00  0.00     0.200 A 
ATOM     86  F   UNL     1      18.292  -3.570   5.739  1.00  0.00    -0.200 F 
ATOM     87  F   UNL     1      19.673  -5.277   7.357  1.00  0.00    -0.200 F 
ENDBRANCH  54  77
ENDBRANCH  28  29
ENDBRANCH  21  23
ENDBRANCH  20  21
ENDBRANCH  19  20
ENDBRANCH  18  19
ENDBRANCH   1  18
TORSDOF 17
