REMARK SMILES C[C@@H](Cc1cccs1)N(C)c1ncc(Br)cc1C(=O)OCCOC(=O)c1ccc(-c2c3nc(c(-c4c(F)c(F)c(F)c(F)c4F)c4ccc([nH]4)c(-c4c(F)c(F)c(F)c(F)c4F)c4nc(c(-c5c(F)c(F)c(F)c(F)c5F)c5ccc2[nH]5)C=C4)C=C3)cc1
REMARK SMILES IDX 21 1 20 2 18 3 19 4 17 5 11 6 12 7 13 8 16 9 14 10 15 11
REMARK SMILES IDX 9 12 10 13 2 14 1 15 3 16 4 17 5 18 8 19 6 20 7 21 22 22
REMARK SMILES IDX 23 23 24 24 25 25 26 26 27 27 88 28 28 29 87 30 29 31 30 32
REMARK SMILES IDX 31 33 81 34 32 35 86 36 80 37 82 38 33 39 85 40 79 41 78 42
REMARK SMILES IDX 34 44 66 45 46 46 65 47 47 48 50 49 64 50 83 51 48 52 49 53
REMARK SMILES IDX 63 55 84 56 51 57 35 58 36 59 44 60 37 61 38 62 42 63 45 64
REMARK SMILES IDX 39 65 40 66 43 67 41 68 67 69 68 70 76 71 69 72 70 73 74 74
REMARK SMILES IDX 77 75 71 76 72 77 75 78 73 79 52 80 53 81 61 82 54 83 55 84
REMARK SMILES IDX 59 85 62 86 56 87 57 88 60 89 58 90
REMARK H PARENT 82 43 50 54
REMARK Flexibility Score: inf
ROOT
ATOM      1  C   UNL     1       1.244  -2.687  -0.508  1.00  0.00     0.275 C 
ENDROOT
BRANCH   1   2
ATOM      2  O   UNL     1       0.157  -2.020  -1.215  1.00  0.00    -0.458 OA
BRANCH   2   3
ATOM      3  C   UNL     1      -1.116  -2.434  -0.931  1.00  0.00     0.342 C 
ATOM      4  O   UNL     1      -1.388  -3.376  -0.200  1.00  0.00    -0.246 OA
BRANCH   3   5
ATOM      5  C   UNL     1      -2.183  -1.693  -1.669  1.00  0.00     0.103 A 
ATOM      6  C   UNL     1      -2.734  -0.434  -1.327  1.00  0.00     0.143 A 
ATOM      7  N   UNL     1      -3.847   0.026  -1.964  1.00  0.00    -0.237 NA
ATOM      8  C   UNL     1      -4.363  -0.672  -2.992  1.00  0.00     0.129 A 
ATOM      9  C   UNL     1      -2.775  -2.420  -2.716  1.00  0.00     0.037 A 
ATOM     10  C   UNL     1      -3.853  -1.882  -3.408  1.00  0.00     0.037 A 
ATOM     11  Br  UNL     1      -4.600  -2.767  -4.892  1.00  0.00    -0.049 Br
BRANCH   6  12
ATOM     12  N   UNL     1      -2.229   0.478  -0.433  1.00  0.00    -0.356 N 
ATOM     13  C   UNL     1      -3.119   1.502   0.114  1.00  0.00     0.145 C 
BRANCH  12  14
ATOM     14  C   UNL     1      -0.811   0.752  -0.331  1.00  0.00     0.085 C 
ATOM     15  C   UNL     1      -0.300  -0.116   0.825  1.00  0.00     0.031 C 
BRANCH  14  16
ATOM     16  C   UNL     1      -0.045   1.121  -1.652  1.00  0.00     0.071 C 
BRANCH  16  17
ATOM     17  C   UNL     1      -0.149   0.382  -2.973  1.00  0.00     0.007 A 
ATOM     18  C   UNL     1       0.723  -0.544  -3.522  1.00  0.00     0.015 A 
ATOM     19  S   UNL     1      -1.294   0.858  -4.172  1.00  0.00    -0.149 S 
ATOM     20  C   UNL     1       0.292  -1.062  -4.775  1.00  0.00     0.012 A 
ATOM     21  C   UNL     1      -0.817  -0.395  -5.237  1.00  0.00     0.065 A 
ENDBRANCH  16  17
ENDBRANCH  14  16
ENDBRANCH  12  14
ENDBRANCH   6  12
ENDBRANCH   3   5
ENDBRANCH   2   3
ENDBRANCH   1   2
BRANCH   1  22
ATOM     22  C   UNL     1       2.632  -1.997  -0.708  1.00  0.00     0.275 C 
BRANCH  22  23
ATOM     23  O   UNL     1       2.684  -0.651  -0.158  1.00  0.00    -0.458 OA
BRANCH  23  24
ATOM     24  C   UNL     1       3.605   0.238  -0.638  1.00  0.00     0.338 C 
ATOM     25  O   UNL     1       4.459  -0.016  -1.473  1.00  0.00    -0.246 OA
BRANCH  24  26
ATOM     26  C   UNL     1       3.326   1.636  -0.137  1.00  0.00     0.060 A 
ATOM     27  C   UNL     1       2.283   1.867   0.741  1.00  0.00     0.016 A 
ATOM     28  C   UNL     1       3.950   2.764  -0.677  1.00  0.00     0.016 A 
ATOM     29  C   UNL     1       1.655   3.112   0.778  1.00  0.00     0.010 A 
ATOM     30  C   UNL     1       3.455   4.069  -0.408  1.00  0.00     0.010 A 
ATOM     31  C   UNL     1       2.232   4.271   0.261  1.00  0.00    -0.014 A 
BRANCH  31  32
ATOM     32  C   UNL     1       1.541   5.618   0.407  1.00  0.00     0.031 A 
ATOM     33  C   UNL     1       1.611   6.652  -0.705  1.00  0.00     0.074 A 
ATOM     34  C   UNL     1       0.777   5.944   1.484  1.00  0.00     0.049 A 
ATOM     35  N   UNL     1       1.421   7.950  -0.649  1.00  0.00    -0.248 NA
ATOM     36  C   UNL     1       1.947   6.169  -2.053  1.00  0.00     0.031 C 
ATOM     37  C   UNL     1       0.470   5.078   2.625  1.00  0.00     0.029 A 
ATOM     38  N   UNL     1       0.082   7.100   1.792  1.00  0.00    -0.354 N 
ATOM     39  C   UNL     1       1.731   8.444  -1.914  1.00  0.00     0.074 A 
ATOM     40  C   UNL     1       2.076   7.302  -2.732  1.00  0.00     0.031 C 
ATOM     41  C   UNL     1      -0.443   5.657   3.412  1.00  0.00     0.029 A 
ATOM     42  C   UNL     1      -0.590   7.039   2.996  1.00  0.00     0.049 A 
ATOM     43  H   UNL     1       0.067   7.892   1.207  1.00  0.00     0.167 HD
ATOM     44  C   UNL     1       1.751   9.734  -2.336  1.00  0.00     0.037 A 
ATOM     45  C   UNL     1      -1.151   7.989   3.771  1.00  0.00     0.037 A 
ATOM     46  C   UNL     1       1.308  10.851  -1.538  1.00  0.00     0.049 A 
ATOM     47  C   UNL     1      -1.044   9.420   3.333  1.00  0.00     0.074 A 
ATOM     48  C   UNL     1       1.335  12.203  -1.839  1.00  0.00     0.029 A 
ATOM     49  N   UNL     1       0.716  10.737  -0.287  1.00  0.00    -0.354 N 
ATOM     50  N   UNL     1      -0.552   9.908   2.222  1.00  0.00    -0.248 NA
ATOM     51  C   UNL     1      -1.517  10.437   4.281  1.00  0.00     0.031 C 
ATOM     52  C   UNL     1       0.801  12.907  -0.753  1.00  0.00     0.029 A 
ATOM     53  C   UNL     1       0.386  11.992   0.199  1.00  0.00     0.049 A 
ATOM     54  H   UNL     1       0.555   9.888   0.185  1.00  0.00     0.167 HD
ATOM     55  C   UNL     1      -0.664  11.285   2.331  1.00  0.00     0.074 A 
ATOM     56  C   UNL     1      -1.298  11.555   3.604  1.00  0.00     0.031 C 
ATOM     57  C   UNL     1      -0.263  12.242   1.460  1.00  0.00     0.037 A 
BRANCH  44  58
ATOM     58  C   UNL     1       2.358  10.027  -3.682  1.00  0.00     0.064 A 
ATOM     59  C   UNL     1       1.726   9.709  -4.892  1.00  0.00     0.173 A 
ATOM     60  C   UNL     1       3.605  10.674  -3.751  1.00  0.00     0.173 A 
ATOM     61  F   UNL     1       0.540   9.083  -4.890  1.00  0.00    -0.203 F 
ATOM     62  C   UNL     1       2.332   9.998  -6.116  1.00  0.00     0.198 A 
ATOM     63  C   UNL     1       4.193  10.989  -4.974  1.00  0.00     0.198 A 
ATOM     64  F   UNL     1       4.253  11.014  -2.626  1.00  0.00    -0.203 F 
ATOM     65  F   UNL     1       1.732   9.638  -7.260  1.00  0.00    -0.200 F 
ATOM     66  C   UNL     1       3.560  10.641  -6.156  1.00  0.00     0.200 A 
ATOM     67  F   UNL     1       5.372  11.625  -5.007  1.00  0.00    -0.200 F 
ATOM     68  F   UNL     1       4.138  10.918  -7.333  1.00  0.00    -0.200 F 
ENDBRANCH  44  58
BRANCH  45  69
ATOM     69  C   UNL     1      -1.718   7.644   5.112  1.00  0.00     0.064 A 
ATOM     70  C   UNL     1      -3.067   7.873   5.415  1.00  0.00     0.173 A 
ATOM     71  C   UNL     1      -0.915   7.100   6.131  1.00  0.00     0.173 A 
ATOM     72  F   UNL     1      -3.875   8.427   4.498  1.00  0.00    -0.203 F 
ATOM     73  C   UNL     1      -3.585   7.583   6.678  1.00  0.00     0.198 A 
ATOM     74  C   UNL     1      -1.445   6.761   7.374  1.00  0.00     0.198 A 
ATOM     75  F   UNL     1       0.388   6.870   5.912  1.00  0.00    -0.203 F 
ATOM     76  F   UNL     1      -4.863   7.871   6.958  1.00  0.00    -0.200 F 
ATOM     77  C   UNL     1      -2.777   7.015   7.652  1.00  0.00     0.200 A 
ATOM     78  F   UNL     1      -0.662   6.189   8.299  1.00  0.00    -0.200 F 
ATOM     79  F   UNL     1      -3.278   6.723   8.860  1.00  0.00    -0.200 F 
ENDBRANCH  45  69
BRANCH  57  80
ATOM     80  C   UNL     1      -0.561  13.663   1.833  1.00  0.00     0.064 A 
ATOM     81  C   UNL     1       0.131  14.318   2.862  1.00  0.00     0.173 A 
ATOM     82  C   UNL     1      -1.550  14.378   1.142  1.00  0.00     0.173 A 
ATOM     83  F   UNL     1       1.069  13.667   3.567  1.00  0.00    -0.203 F 
ATOM     84  C   UNL     1      -0.180  15.630   3.206  1.00  0.00     0.198 A 
ATOM     85  C   UNL     1      -1.835  15.700   1.468  1.00  0.00     0.198 A 
ATOM     86  F   UNL     1      -2.240  13.794   0.151  1.00  0.00    -0.203 F 
ATOM     87  F   UNL     1       0.451  16.218   4.232  1.00  0.00    -0.200 F 
ATOM     88  C   UNL     1      -1.157  16.322   2.505  1.00  0.00     0.200 A 
ATOM     89  F   UNL     1      -2.772  16.370   0.783  1.00  0.00    -0.200 F 
ATOM     90  F   UNL     1      -1.452  17.586   2.837  1.00  0.00    -0.200 F 
ENDBRANCH  57  80
ENDBRANCH  31  32
ENDBRANCH  24  26
ENDBRANCH  23  24
ENDBRANCH  22  23
ENDBRANCH   1  22
TORSDOF 15
