REMARK SMILES C[C@H]1[C@H](C(=O)OCCOC(=O)c2ccc(-c3c4nc(c(-c5c(F)c(F)c(F)c(F)c5F)c5ccc([nH]5)c(-c5c(F)c(F)c(F)c(F)c5F)c5nc(c(-c6c(F)c(F)c(F)c(F)c6F)c6ccc3[nH]6)C=C5)C=C4)cc2)CCN1C(=O)COc1ccc(F)cc1Br
REMARK SMILES IDX 7 1 6 2 4 3 5 4 3 5 1 6 2 7 77 8 75 9 76 10 78 11 79 12
REMARK SMILES IDX 80 13 81 14 82 15 83 16 88 17 84 18 87 19 89 20 85 21 86 22
REMARK SMILES IDX 8 23 9 24 10 25 11 26 12 27 13 28 74 29 14 30 73 31 15 32
REMARK SMILES IDX 16 33 17 34 67 35 18 36 72 37 66 38 68 39 19 40 71 41 65 42
REMARK SMILES IDX 64 43 20 45 52 46 32 47 51 48 33 49 36 50 50 51 69 52 34 53
REMARK SMILES IDX 35 54 49 56 70 57 37 58 21 59 22 60 30 61 23 62 24 63 28 64
REMARK SMILES IDX 31 65 25 66 26 67 29 68 27 69 53 70 54 71 62 72 55 73 56 74
REMARK SMILES IDX 60 75 63 76 57 77 58 78 61 79 59 80 38 81 39 82 47 83 40 84
REMARK SMILES IDX 41 85 45 86 48 87 42 88 43 89 46 90 44 91
REMARK H PARENT 68 44 36 55
REMARK Flexibility Score: inf
ROOT
ATOM      1  C   UNL     1      -0.339   2.960   3.484  1.00  0.00     0.274 C 
ENDROOT
BRANCH   1   2
ATOM      2  O   UNL     1      -0.347   1.881   2.529  1.00  0.00    -0.462 OA
BRANCH   2   3
ATOM      3  C   UNL     1      -0.692   2.209   1.260  1.00  0.00     0.311 C 
ATOM      4  O   UNL     1      -1.029   3.331   0.896  1.00  0.00    -0.252 OA
BRANCH   3   5
ATOM      5  C   UNL     1      -0.697   1.033   0.315  1.00  0.00     0.123 C 
ATOM      6  C   UNL     1       1.516   0.089  -0.411  1.00  0.00     0.032 C 
ATOM      7  C   UNL     1       0.356  -0.072   0.575  1.00  0.00     0.096 C 
ATOM      8  N   UNL     1      -0.405  -1.325   0.406  1.00  0.00    -0.336 N 
ATOM      9  C   UNL     1      -2.051   0.336   0.379  1.00  0.00     0.039 C 
ATOM     10  C   UNL     1      -1.734  -1.055  -0.108  1.00  0.00     0.121 C 
BRANCH   8  11
ATOM     11  C   UNL     1      -0.123  -2.578   0.918  1.00  0.00     0.260 C 
ATOM     12  O   UNL     1      -1.028  -3.341   1.276  1.00  0.00    -0.271 OA
BRANCH  11  13
ATOM     13  C   UNL     1       1.329  -3.054   1.012  1.00  0.00     0.329 C 
BRANCH  13  14
ATOM     14  O   UNL     1       2.220  -2.610   0.012  1.00  0.00    -0.483 OA
BRANCH  14  15
ATOM     15  C   UNL     1       2.542  -3.385  -1.062  1.00  0.00     0.134 A 
ATOM     16  C   UNL     1       3.925  -3.390  -1.315  1.00  0.00     0.050 A 
ATOM     17  C   UNL     1       1.685  -3.968  -2.006  1.00  0.00     0.062 A 
ATOM     18  C   UNL     1       4.447  -3.954  -2.479  1.00  0.00     0.043 A 
ATOM     19  C   UNL     1       2.214  -4.527  -3.178  1.00  0.00     0.058 A 
ATOM     20  Br  UNL     1      -0.203  -3.999  -1.921  1.00  0.00    -0.047 Br
ATOM     21  C   UNL     1       3.582  -4.508  -3.407  1.00  0.00     0.124 A 
ATOM     22  F   UNL     1       4.065  -5.007  -4.551  1.00  0.00    -0.207 F 
ENDBRANCH  14  15
ENDBRANCH  13  14
ENDBRANCH  11  13
ENDBRANCH   8  11
ENDBRANCH   3   5
ENDBRANCH   2   3
ENDBRANCH   1   2
BRANCH   1  23
ATOM     23  C   UNL     1       1.064   3.546   3.671  1.00  0.00     0.275 C 
BRANCH  23  24
ATOM     24  O   UNL     1       1.515   4.252   2.500  1.00  0.00    -0.458 OA
BRANCH  24  25
ATOM     25  C   UNL     1       2.190   3.497   1.604  1.00  0.00     0.338 C 
ATOM     26  O   UNL     1       2.474   2.315   1.695  1.00  0.00    -0.246 OA
BRANCH  25  27
ATOM     27  C   UNL     1       2.453   4.284   0.392  1.00  0.00     0.060 A 
ATOM     28  C   UNL     1       1.790   3.937  -0.789  1.00  0.00     0.016 A 
ATOM     29  C   UNL     1       3.422   5.286   0.393  1.00  0.00     0.016 A 
ATOM     30  C   UNL     1       2.116   4.560  -1.987  1.00  0.00     0.010 A 
ATOM     31  C   UNL     1       3.729   5.933  -0.806  1.00  0.00     0.010 A 
ATOM     32  C   UNL     1       3.089   5.562  -2.003  1.00  0.00    -0.014 A 
BRANCH  32  33
ATOM     33  C   UNL     1       3.474   6.211  -3.276  1.00  0.00     0.031 A 
ATOM     34  C   UNL     1       4.819   5.928  -3.870  1.00  0.00     0.074 A 
ATOM     35  C   UNL     1       2.627   7.068  -3.873  1.00  0.00     0.049 A 
ATOM     36  N   UNL     1       5.444   6.545  -4.838  1.00  0.00    -0.248 NA
ATOM     37  C   UNL     1       5.564   4.798  -3.292  1.00  0.00     0.031 C 
ATOM     38  C   UNL     1       1.266   7.361  -3.426  1.00  0.00     0.029 A 
ATOM     39  N   UNL     1       2.800   7.867  -4.974  1.00  0.00    -0.354 N 
ATOM     40  C   UNL     1       6.670   5.907  -4.960  1.00  0.00     0.074 A 
ATOM     41  C   UNL     1       6.702   4.852  -3.970  1.00  0.00     0.031 C 
ATOM     42  C   UNL     1       0.732   8.292  -4.233  1.00  0.00     0.029 A 
ATOM     43  C   UNL     1       1.738   8.705  -5.208  1.00  0.00     0.049 A 
ATOM     44  H   UNL     1       3.605   7.843  -5.540  1.00  0.00     0.167 HD
ATOM     45  C   UNL     1       7.677   6.191  -5.819  1.00  0.00     0.037 A 
ATOM     46  C   UNL     1       1.614   9.728  -6.074  1.00  0.00     0.037 A 
ATOM     47  C   UNL     1       7.619   7.231  -6.811  1.00  0.00     0.049 A 
ATOM     48  C   UNL     1       2.773  10.070  -6.970  1.00  0.00     0.074 A 
ATOM     49  C   UNL     1       8.582   7.602  -7.733  1.00  0.00     0.029 A 
ATOM     50  N   UNL     1       6.529   8.066  -7.012  1.00  0.00    -0.354 N 
ATOM     51  N   UNL     1       3.946   9.493  -7.059  1.00  0.00    -0.248 NA
ATOM     52  C   UNL     1       2.597  11.214  -7.876  1.00  0.00     0.031 C 
ATOM     53  C   UNL     1       8.088   8.686  -8.467  1.00  0.00     0.029 A 
ATOM     54  C   UNL     1       6.801   8.961  -8.033  1.00  0.00     0.049 A 
ATOM     55  H   UNL     1       5.686   8.027  -6.504  1.00  0.00     0.167 HD
ATOM     56  C   UNL     1       4.638  10.182  -8.045  1.00  0.00     0.074 A 
ATOM     57  C   UNL     1       3.752  11.221  -8.528  1.00  0.00     0.031 C 
ATOM     58  C   UNL     1       5.893   9.971  -8.511  1.00  0.00     0.037 A 
BRANCH  45  59
ATOM     59  C   UNL     1       8.941   5.395  -5.696  1.00  0.00     0.064 A 
ATOM     60  C   UNL     1       9.021   4.061  -6.120  1.00  0.00     0.173 A 
ATOM     61  C   UNL     1      10.100   5.991  -5.175  1.00  0.00     0.173 A 
ATOM     62  F   UNL     1       7.936   3.442  -6.609  1.00  0.00    -0.203 F 
ATOM     63  C   UNL     1      10.211   3.346  -6.009  1.00  0.00     0.198 A 
ATOM     64  C   UNL     1      11.294   5.281  -5.089  1.00  0.00     0.198 A 
ATOM     65  F   UNL     1      10.076   7.265  -4.757  1.00  0.00    -0.203 F 
ATOM     66  F   UNL     1      10.256   2.060  -6.383  1.00  0.00    -0.200 F 
ATOM     67  C   UNL     1      11.348   3.958  -5.500  1.00  0.00     0.200 A 
ATOM     68  F   UNL     1      12.393   5.877  -4.606  1.00  0.00    -0.200 F 
ATOM     69  F   UNL     1      12.493   3.270  -5.400  1.00  0.00    -0.200 F 
ENDBRANCH  45  59
BRANCH  46  70
ATOM     70  C   UNL     1       0.361  10.524  -6.101  1.00  0.00     0.064 A 
ATOM     71  C   UNL     1      -0.514  10.454  -7.192  1.00  0.00     0.173 A 
ATOM     72  C   UNL     1       0.008  11.362  -5.032  1.00  0.00     0.173 A 
ATOM     73  F   UNL     1      -0.208   9.685  -8.247  1.00  0.00    -0.203 F 
ATOM     74  C   UNL     1      -1.691  11.199  -7.218  1.00  0.00     0.198 A 
ATOM     75  C   UNL     1      -1.181  12.086  -5.047  1.00  0.00     0.198 A 
ATOM     76  F   UNL     1       0.813  11.464  -3.964  1.00  0.00    -0.203 F 
ATOM     77  F   UNL     1      -2.493  11.143  -8.290  1.00  0.00    -0.200 F 
ATOM     78  C   UNL     1      -2.027  12.009  -6.143  1.00  0.00     0.200 A 
ATOM     79  F   UNL     1      -1.508  12.857  -4.001  1.00  0.00    -0.200 F 
ATOM     80  F   UNL     1      -3.163  12.719  -6.166  1.00  0.00    -0.200 F 
ENDBRANCH  46  70
BRANCH  58  81
ATOM     81  C   UNL     1       6.367  10.843  -9.633  1.00  0.00     0.064 A 
ATOM     82  C   UNL     1       6.773  12.166  -9.414  1.00  0.00     0.173 A 
ATOM     83  C   UNL     1       6.482  10.320 -10.930  1.00  0.00     0.173 A 
ATOM     84  F   UNL     1       6.666  12.713  -8.194  1.00  0.00    -0.203 F 
ATOM     85  C   UNL     1       7.273  12.939 -10.459  1.00  0.00     0.198 A 
ATOM     86  C   UNL     1       7.004  11.089 -11.966  1.00  0.00     0.198 A 
ATOM     87  F   UNL     1       6.110   9.057 -11.185  1.00  0.00    -0.203 F 
ATOM     88  F   UNL     1       7.633  14.211 -10.236  1.00  0.00    -0.200 F 
ATOM     89  C   UNL     1       7.397  12.397 -11.730  1.00  0.00     0.200 A 
ATOM     90  F   UNL     1       7.133  10.560 -13.191  1.00  0.00    -0.200 F 
ATOM     91  F   UNL     1       7.893  13.139 -12.730  1.00  0.00    -0.200 F 
ENDBRANCH  58  81
ENDBRANCH  32  33
ENDBRANCH  25  27
ENDBRANCH  24  25
ENDBRANCH  23  24
ENDBRANCH   1  23
TORSDOF 15
