REMARK SMILES CC(C)COc1cccc(C(=O)Nc2ccc(O)c(C(=O)OCCOC(=O)c3ccc(-c4c5nc(c(-c6c(F)c(F)c(F)c(F)c6F)c6ccc([nH]6)c(-c6c(F)c(F)c(F)c(F)c6F)c6nc(c(-c7c(F)c(F)c(F)c(F)c7F)c7ccc4[nH]7)C=C6)C=C5)cc3)c2)c1
REMARK SMILES IDX 22 1 20 2 21 3 19 4 14 5 15 6 91 7 16 8 17 9 13 10 11 11
REMARK SMILES IDX 12 12 10 14 6 15 7 16 92 17 8 18 9 19 5 20 4 21 2 22 1 23
REMARK SMILES IDX 3 24 18 25 23 27 24 28 25 29 26 30 27 31 28 32 29 33 90 34
REMARK SMILES IDX 30 35 89 36 31 37 32 38 33 39 83 40 34 41 88 42 82 43 84 44
REMARK SMILES IDX 35 45 87 46 81 47 80 48 36 50 68 51 48 52 67 53 49 54 52 55
REMARK SMILES IDX 66 56 85 57 50 58 51 59 65 61 86 62 53 63 37 64 38 65 46 66
REMARK SMILES IDX 39 67 40 68 44 69 47 70 41 71 42 72 45 73 43 74 69 75 70 76
REMARK SMILES IDX 78 77 71 78 72 79 76 80 79 81 73 82 74 83 77 84 75 85 54 86
REMARK SMILES IDX 55 87 63 88 56 89 57 90 61 91 64 92 58 93 59 94 62 95 60 96
REMARK H PARENT 13 13 18 26 84 49 52 60
REMARK Flexibility Score: inf
ROOT
ATOM      1  O   UNL     1       0.714  -3.564   1.680  1.00  0.00    -0.458 OA
ENDROOT
BRANCH   1   2
ATOM      2  C   UNL     1       0.853  -2.250   1.960  1.00  0.00     0.342 C 
ATOM      3  O   UNL     1       0.162  -1.577   2.715  1.00  0.00    -0.246 OA
BRANCH   2   4
ATOM      4  C   UNL     1       2.006  -1.656   1.241  1.00  0.00     0.103 A 
ATOM      5  C   UNL     1       3.048  -1.290  -0.887  1.00  0.00     0.042 A 
ATOM      6  C   UNL     1       3.801  -0.234  -0.362  1.00  0.00     0.030 A 
ATOM      7  C   UNL     1       2.308  -2.115  -0.042  1.00  0.00     0.045 A 
ATOM      8  C   UNL     1       3.580   0.177   0.948  1.00  0.00     0.049 A 
ATOM      9  C   UNL     1       2.599  -0.464   1.694  1.00  0.00     0.130 A 
BRANCH   5  10
ATOM     10  N   UNL     1       2.929  -1.363  -2.280  1.00  0.00    -0.322 N 
ATOM     11  C   UNL     1       1.843  -1.631  -3.103  1.00  0.00     0.255 C 
ATOM     12  O   UNL     1       2.082  -1.782  -4.305  1.00  0.00    -0.269 OA
ATOM     13  H   UNL     1       3.768  -1.192  -2.765  1.00  0.00     0.170 HD
BRANCH  11  14
ATOM     14  C   UNL     1       0.397  -1.623  -2.676  1.00  0.00     0.043 A 
ATOM     15  C   UNL     1      -1.420  -1.103  -1.114  1.00  0.00     0.120 A 
ATOM     16  C   UNL     1      -2.360  -1.603  -1.999  1.00  0.00     0.046 A 
ATOM     17  C   UNL     1      -0.070  -1.097  -1.473  1.00  0.00     0.060 A 
ATOM     18  C   UNL     1      -1.938  -2.060  -3.250  1.00  0.00     0.005 A 
ATOM     19  C   UNL     1      -0.573  -2.079  -3.579  1.00  0.00     0.014 A 
BRANCH  15  20
ATOM     20  O   UNL     1      -1.791  -0.784   0.162  1.00  0.00    -0.493 OA
BRANCH  20  21
ATOM     21  C   UNL     1      -1.862   0.624   0.464  1.00  0.00     0.232 C 
BRANCH  21  22
ATOM     22  C   UNL     1      -0.486   1.256   0.747  1.00  0.00     0.020 C 
ATOM     23  C   UNL     1       0.068   2.015  -0.462  1.00  0.00     0.011 C 
ATOM     24  C   UNL     1      -0.496   2.196   1.952  1.00  0.00     0.011 C 
ENDBRANCH  21  22
ENDBRANCH  20  21
ENDBRANCH  15  20
ENDBRANCH  11  14
ENDBRANCH   5  10
BRANCH   9  25
ATOM     25  O   UNL     1       2.163   0.229   2.792  1.00  0.00    -0.507 OA
ATOM     26  H   UNL     1       2.596   1.019   3.050  1.00  0.00     0.293 HD
ENDBRANCH   9  25
ENDBRANCH   2   4
ENDBRANCH   1   2
BRANCH   1  27
ATOM     27  C   UNL     1      -0.407  -4.231   2.292  1.00  0.00     0.275 C 
BRANCH  27  28
ATOM     28  C   UNL     1       0.041  -5.058   3.498  1.00  0.00     0.275 C 
BRANCH  28  29
ATOM     29  O   UNL     1       0.413  -4.192   4.590  1.00  0.00    -0.458 OA
BRANCH  29  30
ATOM     30  C   UNL     1       1.735  -4.131   4.878  1.00  0.00     0.338 C 
ATOM     31  O   UNL     1       2.638  -4.777   4.376  1.00  0.00    -0.246 OA
BRANCH  30  32
ATOM     32  C   UNL     1       1.981  -2.991   5.777  1.00  0.00     0.060 A 
ATOM     33  C   UNL     1       2.153  -1.758   5.163  1.00  0.00     0.016 A 
ATOM     34  C   UNL     1       2.220  -3.113   7.140  1.00  0.00     0.016 A 
ATOM     35  C   UNL     1       2.551  -0.632   5.866  1.00  0.00     0.010 A 
ATOM     36  C   UNL     1       2.631  -1.979   7.866  1.00  0.00     0.010 A 
ATOM     37  C   UNL     1       2.824  -0.735   7.226  1.00  0.00    -0.014 A 
BRANCH  37  38
ATOM     38  C   UNL     1       3.534   0.397   7.876  1.00  0.00     0.031 A 
ATOM     39  C   UNL     1       4.995   0.235   8.191  1.00  0.00     0.074 A 
ATOM     40  C   UNL     1       2.953   1.599   8.047  1.00  0.00     0.049 A 
ATOM     41  N   UNL     1       5.796   1.017   8.868  1.00  0.00    -0.248 NA
ATOM     42  C   UNL     1       5.644  -0.973   7.656  1.00  0.00     0.031 C 
ATOM     43  C   UNL     1       1.599   1.958   7.624  1.00  0.00     0.029 A 
ATOM     44  N   UNL     1       3.442   2.753   8.612  1.00  0.00    -0.354 N 
ATOM     45  C   UNL     1       7.025   0.370   8.886  1.00  0.00     0.074 A 
ATOM     46  C   UNL     1       6.867  -0.866   8.151  1.00  0.00     0.031 C 
ATOM     47  C   UNL     1       1.366   3.242   7.947  1.00  0.00     0.029 A 
ATOM     48  C   UNL     1       2.524   3.773   8.664  1.00  0.00     0.049 A 
ATOM     49  H   UNL     1       4.364   2.840   8.947  1.00  0.00     0.167 HD
ATOM     50  C   UNL     1       8.179   0.771   9.470  1.00  0.00     0.037 A 
ATOM     51  C   UNL     1       2.593   4.977   9.264  1.00  0.00     0.037 A 
ATOM     52  C   UNL     1       8.342   2.022  10.161  1.00  0.00     0.049 A 
ATOM     53  C   UNL     1       3.852   5.358  10.003  1.00  0.00     0.074 A 
ATOM     54  C   UNL     1       9.456   2.503  10.826  1.00  0.00     0.029 A 
ATOM     55  N   UNL     1       7.362   2.999  10.262  1.00  0.00    -0.354 N 
ATOM     56  N   UNL     1       4.981   4.701  10.117  1.00  0.00    -0.248 NA
ATOM     57  C   UNL     1       3.841   6.649  10.708  1.00  0.00     0.031 C 
ATOM     58  C   UNL     1       9.133   3.750  11.372  1.00  0.00     0.029 A 
ATOM     59  C   UNL     1       7.842   4.076  10.990  1.00  0.00     0.049 A 
ATOM     60  H   UNL     1       6.459   2.936   9.875  1.00  0.00     0.167 HD
ATOM     61  C   UNL     1       5.824   5.511  10.868  1.00  0.00     0.074 A 
ATOM     62  C   UNL     1       5.080   6.714  11.175  1.00  0.00     0.031 C 
ATOM     63  C   UNL     1       7.100   5.280  11.265  1.00  0.00     0.037 A 
BRANCH  50  64
ATOM     64  C   UNL     1       9.330  -0.192   9.447  1.00  0.00     0.064 A 
ATOM     65  C   UNL     1      10.040  -0.487   8.274  1.00  0.00     0.173 A 
ATOM     66  C   UNL     1       9.725  -0.832  10.632  1.00  0.00     0.173 A 
ATOM     67  F   UNL     1       9.688   0.081   7.110  1.00  0.00    -0.203 F 
ATOM     68  C   UNL     1      11.082  -1.412   8.283  1.00  0.00     0.198 A 
ATOM     69  C   UNL     1      10.788  -1.729  10.644  1.00  0.00     0.198 A 
ATOM     70  F   UNL     1       9.079  -0.586  11.782  1.00  0.00    -0.203 F 
ATOM     71  F   UNL     1      11.707  -1.724   7.140  1.00  0.00    -0.200 F 
ATOM     72  C   UNL     1      11.459  -2.026   9.468  1.00  0.00     0.200 A 
ATOM     73  F   UNL     1      11.158  -2.312  11.793  1.00  0.00    -0.200 F 
ATOM     74  F   UNL     1      12.463  -2.914   9.475  1.00  0.00    -0.200 F 
ENDBRANCH  50  64
BRANCH  51  75
ATOM     75  C   UNL     1       1.419   5.894   9.254  1.00  0.00     0.064 A 
ATOM     76  C   UNL     1       1.476   7.146   8.627  1.00  0.00     0.173 A 
ATOM     77  C   UNL     1       0.232   5.556   9.922  1.00  0.00     0.173 A 
ATOM     78  F   UNL     1       2.599   7.533   8.003  1.00  0.00    -0.203 F 
ATOM     79  C   UNL     1       0.403   8.034   8.691  1.00  0.00     0.198 A 
ATOM     80  C   UNL     1      -0.853   6.429   9.954  1.00  0.00     0.198 A 
ATOM     81  F   UNL     1       0.124   4.375  10.549  1.00  0.00    -0.203 F 
ATOM     82  F   UNL     1       0.509   9.251   8.138  1.00  0.00    -0.200 F 
ATOM     83  C   UNL     1      -0.763   7.673   9.349  1.00  0.00     0.200 A 
ATOM     84  F   UNL     1      -1.981   6.071  10.583  1.00  0.00    -0.200 F 
ATOM     85  F   UNL     1      -1.792   8.528   9.413  1.00  0.00    -0.200 F 
ENDBRANCH  51  75
BRANCH  63  86
ATOM     86  C   UNL     1       7.805   6.381  12.008  1.00  0.00     0.064 A 
ATOM     87  C   UNL     1       7.455   6.743  13.316  1.00  0.00     0.173 A 
ATOM     88  C   UNL     1       8.873   7.063  11.403  1.00  0.00     0.173 A 
ATOM     89  F   UNL     1       6.434   6.131  13.936  1.00  0.00    -0.203 F 
ATOM     90  C   UNL     1       8.123   7.770  13.979  1.00  0.00     0.198 A 
ATOM     91  C   UNL     1       9.563   8.064  12.081  1.00  0.00     0.198 A 
ATOM     92  F   UNL     1       9.257   6.751  10.156  1.00  0.00    -0.203 F 
ATOM     93  F   UNL     1       7.732   8.139  15.206  1.00  0.00    -0.200 F 
ATOM     94  C   UNL     1       9.180   8.424  13.364  1.00  0.00     0.200 A 
ATOM     95  F   UNL     1      10.595   8.682  11.491  1.00  0.00    -0.200 F 
ATOM     96  F   UNL     1       9.826   9.408  14.005  1.00  0.00    -0.200 F 
ENDBRANCH  63  86
ENDBRANCH  37  38
ENDBRANCH  30  32
ENDBRANCH  29  30
ENDBRANCH  28  29
ENDBRANCH  27  28
ENDBRANCH   1  27
TORSDOF 17
