REMARK SMILES CC(C)[NH2+][C@@]1(C(=O)OCCOC(=O)c2ccc(-c3c4nc(c(-c5c(F)c(F)c(F)c(F)c5F)c5ccc([nH]5)c(-c5c(F)c(F)c(F)c(F)c5F)c5nc(c(-c6c(F)c(F)c(F)c(F)c6F)c6ccc3[nH]6)C=C5)C=C4)cc2)CC[C@H](Sc2ccccn2)C1
REMARK SMILES IDX 9 1 8 2 6 3 7 4 5 5 77 6 87 7 78 8 79 9 4 10 2 13 1 14 3 15
REMARK SMILES IDX 80 16 81 17 82 18 86 19 83 20 85 21 84 22 10 23 11 24 12 25
REMARK SMILES IDX 13 26 14 27 15 28 76 29 16 30 75 31 17 32 18 33 19 34 69 35
REMARK SMILES IDX 20 36 74 37 68 38 70 39 21 40 73 41 67 42 66 43 22 45 54 46
REMARK SMILES IDX 34 47 53 48 35 49 38 50 52 51 71 52 36 53 37 54 51 56 72 57
REMARK SMILES IDX 39 58 23 59 24 60 32 61 25 62 26 63 30 64 33 65 27 66 28 67
REMARK SMILES IDX 31 68 29 69 55 70 56 71 64 72 57 73 58 74 62 75 65 76 59 77
REMARK SMILES IDX 60 78 63 79 61 80 40 81 41 82 49 83 42 84 43 85 47 86 50 87
REMARK SMILES IDX 44 88 45 89 48 90 46 91
REMARK H PARENT 4 11 4 12 70 44 38 55
REMARK Flexibility Score: inf
ROOT
ATOM      1  C   UNL     1       0.148  -0.228   5.911  1.00  0.00     0.274 C 
ENDROOT
BRANCH   1   2
ATOM      2  O   UNL     1      -0.679   0.369   4.900  1.00  0.00    -0.457 OA
BRANCH   2   3
ATOM      3  C   UNL     1      -0.071   1.188   4.006  1.00  0.00     0.368 C 
ATOM      4  O   UNL     1       1.101   1.536   4.103  1.00  0.00    -0.245 OA
BRANCH   3   5
ATOM      5  C   UNL     1      -1.046   1.669   2.879  1.00  0.00     0.195 C 
ATOM      6  C   UNL     1      -1.335   3.167   3.025  1.00  0.00     0.082 C 
ATOM      7  C   UNL     1      -2.486   1.096   3.039  1.00  0.00     0.096 C 
ATOM      8  C   UNL     1      -2.307   3.241   4.193  1.00  0.00     0.022 C 
ATOM      9  C   UNL     1      -3.234   2.037   4.021  1.00  0.00     0.060 C 
BRANCH   5  10
ATOM     10  N   UNL     1      -0.540   1.329   1.515  1.00  0.00    -0.330 N 
ATOM     11  H   UNL     1      -0.753   0.344   1.356  1.00  0.00     0.347 HD
ATOM     12  H   UNL     1      -1.008   2.003   0.909  1.00  0.00     0.347 HD
BRANCH  10  13
ATOM     13  C   UNL     1       0.890   1.516   1.210  1.00  0.00     0.176 C 
ATOM     14  C   UNL     1       1.119   1.170  -0.269  1.00  0.00     0.075 C 
ATOM     15  C   UNL     1       1.450   2.923   1.420  1.00  0.00     0.075 C 
ENDBRANCH  10  13
ENDBRANCH   5  10
BRANCH   9  16
ATOM     16  S   UNL     1      -3.730   1.156   5.558  1.00  0.00    -0.103 SA
BRANCH  16  17
ATOM     17  C   UNL     1      -3.949   2.419   6.792  1.00  0.00     0.096 A 
ATOM     18  C   UNL     1      -4.401   3.704   6.522  1.00  0.00     0.035 A 
ATOM     19  N   UNL     1      -3.651   2.021   8.052  1.00  0.00    -0.250 NA
ATOM     20  C   UNL     1      -4.494   4.627   7.565  1.00  0.00     0.004 A 
ATOM     21  C   UNL     1      -3.787   2.919   9.052  1.00  0.00     0.112 A 
ATOM     22  C   UNL     1      -4.185   4.228   8.858  1.00  0.00     0.020 A 
ENDBRANCH  16  17
ENDBRANCH   9  16
ENDBRANCH   3   5
ENDBRANCH   2   3
ENDBRANCH   1   2
BRANCH   1  23
ATOM     23  C   UNL     1       0.130  -1.746   5.749  1.00  0.00     0.275 C 
BRANCH  23  24
ATOM     24  O   UNL     1       0.515  -2.130   4.414  1.00  0.00    -0.458 OA
BRANCH  24  25
ATOM     25  C   UNL     1      -0.515  -2.388   3.566  1.00  0.00     0.338 C 
ATOM     26  O   UNL     1      -1.704  -2.380   3.823  1.00  0.00    -0.246 OA
BRANCH  25  27
ATOM     27  C   UNL     1       0.007  -2.613   2.203  1.00  0.00     0.060 A 
ATOM     28  C   UNL     1      -0.651  -2.003   1.131  1.00  0.00     0.016 A 
ATOM     29  C   UNL     1       1.106  -3.443   1.969  1.00  0.00     0.016 A 
ATOM     30  C   UNL     1      -0.179  -2.180  -0.171  1.00  0.00     0.010 A 
ATOM     31  C   UNL     1       1.568  -3.633   0.662  1.00  0.00     0.010 A 
ATOM     32  C   UNL     1       0.943  -2.985  -0.414  1.00  0.00    -0.014 A 
BRANCH  32  33
ATOM     33  C   UNL     1       1.425  -3.192  -1.803  1.00  0.00     0.031 A 
ATOM     34  C   UNL     1       0.701  -4.157  -2.692  1.00  0.00     0.074 A 
ATOM     35  C   UNL     1       2.495  -2.521  -2.268  1.00  0.00     0.049 A 
ATOM     36  N   UNL     1       0.980  -4.527  -3.917  1.00  0.00    -0.248 NA
ATOM     37  C   UNL     1      -0.497  -4.794  -2.126  1.00  0.00     0.031 C 
ATOM     38  C   UNL     1       3.251  -1.520  -1.520  1.00  0.00     0.029 A 
ATOM     39  N   UNL     1       3.134  -2.581  -3.485  1.00  0.00    -0.354 N 
ATOM     40  C   UNL     1      -0.004  -5.439  -4.266  1.00  0.00     0.074 A 
ATOM     41  C   UNL     1      -0.887  -5.569  -3.126  1.00  0.00     0.031 C 
ATOM     42  C   UNL     1       4.245  -1.052  -2.294  1.00  0.00     0.029 A 
ATOM     43  C   UNL     1       4.235  -1.762  -3.572  1.00  0.00     0.049 A 
ATOM     44  H   UNL     1       2.831  -3.156  -4.224  1.00  0.00     0.167 HD
ATOM     45  C   UNL     1      -0.148  -6.122  -5.426  1.00  0.00     0.037 A 
ATOM     46  C   UNL     1       5.147  -1.629  -4.556  1.00  0.00     0.037 A 
ATOM     47  C   UNL     1       0.762  -6.035  -6.537  1.00  0.00     0.049 A 
ATOM     48  C   UNL     1       5.022  -2.484  -5.795  1.00  0.00     0.074 A 
ATOM     49  C   UNL     1       0.715  -6.710  -7.744  1.00  0.00     0.029 A 
ATOM     50  N   UNL     1       1.899  -5.240  -6.567  1.00  0.00    -0.354 N 
ATOM     51  N   UNL     1       4.081  -3.334  -6.126  1.00  0.00    -0.248 NA
ATOM     52  C   UNL     1       6.102  -2.377  -6.789  1.00  0.00     0.031 C 
ATOM     53  C   UNL     1       1.858  -6.375  -8.476  1.00  0.00     0.029 A 
ATOM     54  C   UNL     1       2.582  -5.437  -7.757  1.00  0.00     0.049 A 
ATOM     55  H   UNL     1       2.179  -4.627  -5.849  1.00  0.00     0.167 HD
ATOM     56  C   UNL     1       4.442  -3.845  -7.367  1.00  0.00     0.074 A 
ATOM     57  C   UNL     1       5.678  -3.195  -7.743  1.00  0.00     0.031 C 
ATOM     58  C   UNL     1       3.809  -4.775  -8.123  1.00  0.00     0.037 A 
BRANCH  45  59
ATOM     59  C   UNL     1      -1.299  -7.078  -5.516  1.00  0.00     0.064 A 
ATOM     60  C   UNL     1      -2.625  -6.632  -5.614  1.00  0.00     0.173 A 
ATOM     61  C   UNL     1      -1.069  -8.463  -5.508  1.00  0.00     0.173 A 
ATOM     62  F   UNL     1      -2.898  -5.318  -5.607  1.00  0.00    -0.203 F 
ATOM     63  C   UNL     1      -3.681  -7.538  -5.667  1.00  0.00     0.198 A 
ATOM     64  C   UNL     1      -2.125  -9.364  -5.593  1.00  0.00     0.198 A 
ATOM     65  F   UNL     1       0.181  -8.941  -5.417  1.00  0.00    -0.203 F 
ATOM     66  F   UNL     1      -4.944  -7.090  -5.704  1.00  0.00    -0.200 F 
ATOM     67  C   UNL     1      -3.430  -8.902  -5.663  1.00  0.00     0.200 A 
ATOM     68  F   UNL     1      -1.880 -10.682  -5.599  1.00  0.00    -0.200 F 
ATOM     69  F   UNL     1      -4.448  -9.772  -5.715  1.00  0.00    -0.200 F 
ENDBRANCH  45  59
BRANCH  46  70
ATOM     70  C   UNL     1       6.295  -0.690  -4.406  1.00  0.00     0.064 A 
ATOM     71  C   UNL     1       6.453   0.407  -5.266  1.00  0.00     0.173 A 
ATOM     72  C   UNL     1       7.287  -0.898  -3.435  1.00  0.00     0.173 A 
ATOM     73  F   UNL     1       5.552   0.634  -6.234  1.00  0.00    -0.203 F 
ATOM     74  C   UNL     1       7.567   1.242  -5.177  1.00  0.00     0.198 A 
ATOM     75  C   UNL     1       8.382  -0.043  -3.324  1.00  0.00     0.198 A 
ATOM     76  F   UNL     1       7.196  -1.938  -2.594  1.00  0.00    -0.203 F 
ATOM     77  F   UNL     1       7.723   2.243  -6.053  1.00  0.00    -0.200 F 
ATOM     78  C   UNL     1       8.527   1.020  -4.202  1.00  0.00     0.200 A 
ATOM     79  F   UNL     1       9.302  -0.257  -2.373  1.00  0.00    -0.200 F 
ATOM     80  F   UNL     1       9.599   1.820  -4.118  1.00  0.00    -0.200 F 
ENDBRANCH  46  70
BRANCH  58  81
ATOM     81  C   UNL     1       4.418  -5.130  -9.451  1.00  0.00     0.064 A 
ATOM     82  C   UNL     1       5.600  -5.879  -9.546  1.00  0.00     0.173 A 
ATOM     83  C   UNL     1       3.769  -4.776 -10.645  1.00  0.00     0.173 A 
ATOM     84  F   UNL     1       6.268  -6.231  -8.437  1.00  0.00    -0.203 F 
ATOM     85  C   UNL     1       6.117  -6.247 -10.786  1.00  0.00     0.198 A 
ATOM     86  C   UNL     1       4.271  -5.174 -11.881  1.00  0.00     0.198 A 
ATOM     87  F   UNL     1       2.631  -4.065 -10.611  1.00  0.00    -0.203 F 
ATOM     88  F   UNL     1       7.268  -6.931 -10.854  1.00  0.00    -0.200 F 
ATOM     89  C   UNL     1       5.447  -5.905 -11.951  1.00  0.00     0.200 A 
ATOM     90  F   UNL     1       3.612  -4.857 -13.004  1.00  0.00    -0.200 F 
ATOM     91  F   UNL     1       5.936  -6.277 -13.142  1.00  0.00    -0.200 F 
ENDBRANCH  58  81
ENDBRANCH  32  33
ENDBRANCH  25  27
ENDBRANCH  24  25
ENDBRANCH  23  24
ENDBRANCH   1  23
TORSDOF 15
