REMARK SMILES O=C(OCCOC(=O)c1ccc(N2CNC(c3ccccc3)=[NH+]C2=S)cc1)c1ccc(-c2c3nc(c(-c4c(F)c(F)c(F)c(F)c4F)c4ccc([nH]4)c(-c4c(F)c(F)c(F)c(F)c4F)c4nc(c(-c5c(F)c(F)c(F)c(F)c5F)c5ccc2[nH]5)C=C4)C=C3)cc1
REMARK SMILES IDX 4 1 3 2 2 3 1 4 28 5 29 6 90 7 30 8 89 9 31 10 32 11 33 12
REMARK SMILES IDX 83 13 34 14 88 15 82 16 84 17 35 18 87 19 81 20 80 21 36 23
REMARK SMILES IDX 68 24 48 25 67 26 49 27 52 28 66 29 85 30 50 31 51 32 65 34
REMARK SMILES IDX 86 35 53 36 37 37 38 38 46 39 39 40 40 41 44 42 47 43 41 44
REMARK SMILES IDX 42 45 45 46 43 47 69 48 70 49 78 50 71 51 72 52 76 53 79 54
REMARK SMILES IDX 73 55 74 56 77 57 75 58 54 59 55 60 63 61 56 62 57 63 61 64
REMARK SMILES IDX 64 65 58 66 59 67 62 68 60 69 5 70 6 71 7 72 8 73 9 74 10 75
REMARK SMILES IDX 27 76 11 77 26 78 12 79 13 80 14 81 24 82 15 83 23 84 25 85
REMARK SMILES IDX 16 86 17 89 18 90 22 91 19 92 21 93 20 94
REMARK H PARENT 84 22 52 33 15 87 23 88
REMARK Flexibility Score: inf
ROOT
ATOM      1  C   UNL     1       4.120   0.172  -1.664  1.00  0.00     0.275 C 
ENDROOT
BRANCH   1   2
ATOM      2  O   UNL     1       3.039  -0.544  -1.046  1.00  0.00    -0.458 OA
BRANCH   2   3
ATOM      3  C   UNL     1       2.860  -0.903   0.246  1.00  0.00     0.338 C 
ATOM      4  O   UNL     1       1.942  -1.676   0.519  1.00  0.00    -0.246 OA
BRANCH   3   5
ATOM      5  C   UNL     1       3.633  -0.320   1.388  1.00  0.00     0.060 A 
ATOM      6  C   UNL     1       4.936   0.185   1.340  1.00  0.00     0.016 A 
ATOM      7  C   UNL     1       2.973  -0.296   2.627  1.00  0.00     0.016 A 
ATOM      8  C   UNL     1       5.533   0.768   2.461  1.00  0.00     0.010 A 
ATOM      9  C   UNL     1       3.571   0.276   3.751  1.00  0.00     0.010 A 
ATOM     10  C   UNL     1       4.853   0.820   3.675  1.00  0.00    -0.014 A 
BRANCH  10  11
ATOM     11  C   UNL     1       5.550   1.302   4.886  1.00  0.00     0.031 A 
ATOM     12  C   UNL     1       6.061   0.288   5.863  1.00  0.00     0.074 A 
ATOM     13  C   UNL     1       5.779   2.615   5.070  1.00  0.00     0.049 A 
ATOM     14  N   UNL     1       6.810   0.463   6.920  1.00  0.00    -0.248 NA
ATOM     15  C   UNL     1       5.712  -1.116   5.593  1.00  0.00     0.031 C 
ATOM     16  C   UNL     1       5.377   3.674   4.149  1.00  0.00     0.029 A 
ATOM     17  N   UNL     1       6.414   3.284   6.085  1.00  0.00    -0.354 N 
ATOM     18  C   UNL     1       7.046  -0.810   7.418  1.00  0.00     0.074 A 
ATOM     19  C   UNL     1       6.311  -1.741   6.593  1.00  0.00     0.031 C 
ATOM     20  C   UNL     1       5.752   4.864   4.647  1.00  0.00     0.029 A 
ATOM     21  C   UNL     1       6.426   4.648   5.923  1.00  0.00     0.049 A 
ATOM     22  H   UNL     1       6.823   2.830   6.856  1.00  0.00     0.167 HD
ATOM     23  C   UNL     1       7.836  -1.171   8.456  1.00  0.00     0.037 A 
ATOM     24  C   UNL     1       6.938   5.609   6.716  1.00  0.00     0.037 A 
ATOM     25  C   UNL     1       8.526  -0.231   9.294  1.00  0.00     0.049 A 
ATOM     26  C   UNL     1       7.704   5.188   7.944  1.00  0.00     0.074 A 
ATOM     27  C   UNL     1       9.341  -0.475  10.382  1.00  0.00     0.029 A 
ATOM     28  N   UNL     1       8.454   1.149   9.145  1.00  0.00    -0.354 N 
ATOM     29  N   UNL     1       7.983   3.979   8.369  1.00  0.00    -0.248 NA
ATOM     30  C   UNL     1       8.252   6.261   8.784  1.00  0.00     0.031 C 
ATOM     31  C   UNL     1       9.718   0.759  10.925  1.00  0.00     0.029 A 
ATOM     32  C   UNL     1       9.186   1.772  10.141  1.00  0.00     0.049 A 
ATOM     33  H   UNL     1       7.955   1.615   8.435  1.00  0.00     0.167 HD
ATOM     34  C   UNL     1       8.777   4.142   9.495  1.00  0.00     0.074 A 
ATOM     35  C   UNL     1       8.937   5.570   9.684  1.00  0.00     0.031 C 
ATOM     36  C   UNL     1       9.334   3.198  10.295  1.00  0.00     0.037 A 
BRANCH  23  37
ATOM     37  C   UNL     1       7.949  -2.639   8.735  1.00  0.00     0.064 A 
ATOM     38  C   UNL     1       8.623  -3.504   7.857  1.00  0.00     0.173 A 
ATOM     39  C   UNL     1       7.334  -3.199   9.864  1.00  0.00     0.173 A 
ATOM     40  F   UNL     1       9.209  -3.021   6.750  1.00  0.00    -0.203 F 
ATOM     41  C   UNL     1       8.639  -4.879   8.076  1.00  0.00     0.198 A 
ATOM     42  C   UNL     1       7.377  -4.572  10.095  1.00  0.00     0.198 A 
ATOM     43  F   UNL     1       6.676  -2.418  10.733  1.00  0.00    -0.203 F 
ATOM     44  F   UNL     1       9.230  -5.691   7.188  1.00  0.00    -0.200 F 
ATOM     45  C   UNL     1       8.018  -5.411   9.196  1.00  0.00     0.200 A 
ATOM     46  F   UNL     1       6.782  -5.085  11.181  1.00  0.00    -0.200 F 
ATOM     47  F   UNL     1       8.024  -6.736   9.400  1.00  0.00    -0.200 F 
ENDBRANCH  23  37
BRANCH  24  48
ATOM     48  C   UNL     1       6.780   7.045   6.360  1.00  0.00     0.064 A 
ATOM     49  C   UNL     1       7.882   7.831   5.997  1.00  0.00     0.173 A 
ATOM     50  C   UNL     1       5.522   7.667   6.392  1.00  0.00     0.173 A 
ATOM     51  F   UNL     1       9.108   7.289   5.960  1.00  0.00    -0.203 F 
ATOM     52  C   UNL     1       7.738   9.188   5.707  1.00  0.00     0.198 A 
ATOM     53  C   UNL     1       5.376   9.017   6.079  1.00  0.00     0.198 A 
ATOM     54  F   UNL     1       4.428   6.961   6.715  1.00  0.00    -0.203 F 
ATOM     55  F   UNL     1       8.816   9.924   5.404  1.00  0.00    -0.200 F 
ATOM     56  C   UNL     1       6.485   9.780   5.746  1.00  0.00     0.200 A 
ATOM     57  F   UNL     1       4.159   9.579   6.099  1.00  0.00    -0.200 F 
ATOM     58  F   UNL     1       6.346  11.082   5.466  1.00  0.00    -0.200 F 
ENDBRANCH  24  48
BRANCH  36  59
ATOM     59  C   UNL     1      10.205   3.682  11.416  1.00  0.00     0.064 A 
ATOM     60  C   UNL     1       9.670   4.320  12.545  1.00  0.00     0.173 A 
ATOM     61  C   UNL     1      11.591   3.465  11.376  1.00  0.00     0.173 A 
ATOM     62  F   UNL     1       8.354   4.567  12.621  1.00  0.00    -0.203 F 
ATOM     63  C   UNL     1      10.496   4.747  13.581  1.00  0.00     0.198 A 
ATOM     64  C   UNL     1      12.408   3.862  12.429  1.00  0.00     0.198 A 
ATOM     65  F   UNL     1      12.150   2.854  10.321  1.00  0.00    -0.203 F 
ATOM     66  F   UNL     1       9.971   5.403  14.625  1.00  0.00    -0.200 F 
ATOM     67  C   UNL     1      11.861   4.510  13.526  1.00  0.00     0.200 A 
ATOM     68  F   UNL     1      13.725   3.619  12.382  1.00  0.00    -0.200 F 
ATOM     69  F   UNL     1      12.653   4.915  14.529  1.00  0.00    -0.200 F 
ENDBRANCH  36  59
ENDBRANCH  10  11
ENDBRANCH   3   5
ENDBRANCH   2   3
ENDBRANCH   1   2
BRANCH   1  70
ATOM     70  C   UNL     1       3.987   1.699  -1.628  1.00  0.00     0.275 C 
BRANCH  70  71
ATOM     71  O   UNL     1       3.541   2.226  -0.366  1.00  0.00    -0.458 OA
BRANCH  71  72
ATOM     72  C   UNL     1       2.197   2.409  -0.266  1.00  0.00     0.338 C 
ATOM     73  O   UNL     1       1.368   2.201  -1.136  1.00  0.00    -0.246 OA
BRANCH  72  74
ATOM     74  C   UNL     1       1.834   2.812   1.110  1.00  0.00     0.060 A 
ATOM     75  C   UNL     1       0.808   2.121   1.760  1.00  0.00     0.019 A 
ATOM     76  C   UNL     1       2.462   3.877   1.754  1.00  0.00     0.019 A 
ATOM     77  C   UNL     1       0.448   2.459   3.073  1.00  0.00     0.044 A 
ATOM     78  C   UNL     1       2.069   4.236   3.054  1.00  0.00     0.044 A 
ATOM     79  C   UNL     1       1.081   3.511   3.746  1.00  0.00     0.103 A 
BRANCH  79  80
ATOM     80  N   UNL     1       0.685   3.894   5.072  1.00  0.00    -0.219 N 
ATOM     81  C   UNL     1       0.591   5.313   5.338  1.00  0.00     0.405 C 
ATOM     82  C   UNL     1       0.524   3.016   6.163  1.00  0.00     0.297 C 
ATOM     83  N   UNL     1      -0.402   5.552   6.340  1.00  0.00    -0.274 N 
ATOM     84  N   UNL     1       0.038   3.512   7.349  1.00  0.00    -0.236 N 
ATOM     85  S   UNL     1       0.917   1.369   6.165  1.00  0.00    -0.005 S 
ATOM     86  C   UNL     1      -0.468   4.697   7.394  1.00  0.00     0.229 C 
ATOM     87  H   UNL     1      -1.020   6.315   6.267  1.00  0.00     0.260 HD
ATOM     88  H   UNL     1       0.076   2.962   8.165  1.00  0.00     0.268 HD
BRANCH  86  89
ATOM     89  C   UNL     1      -1.133   5.112   8.655  1.00  0.00     0.047 A 
ATOM     90  C   UNL     1      -0.534   4.817   9.884  1.00  0.00     0.015 A 
ATOM     91  C   UNL     1      -2.386   5.730   8.610  1.00  0.00     0.015 A 
ATOM     92  C   UNL     1      -1.186   5.151  11.071  1.00  0.00     0.001 A 
ATOM     93  C   UNL     1      -3.041   6.048   9.801  1.00  0.00     0.001 A 
ATOM     94  C   UNL     1      -2.440   5.762  11.028  1.00  0.00     0.000 A 
ENDBRANCH  86  89
ENDBRANCH  79  80
ENDBRANCH  72  74
ENDBRANCH  71  72
ENDBRANCH  70  71
ENDBRANCH   1  70
TORSDOF 13
