REMARK SMILES C[C@](Nc1ccc(S(N)(=O)=O)cc1)(C(=O)OCCOC(=O)c1ccc(-c2c3nc(c(-c4c(F)c(F)c(F)c(F)c4F)c4ccc([nH]4)c(-c4c(F)c(F)c(F)c(F)c4F)c4nc(c(-c5c(F)c(F)c(F)c(F)c5F)c5ccc2[nH]5)C=C4)C=C3)cc1)C(F)(F)F
REMARK SMILES IDX 17 1 16 2 14 3 15 4 2 5 1 6 85 7 86 8 87 9 88 10 3 11 4 13
REMARK SMILES IDX 5 14 13 15 6 16 12 17 7 18 8 19 10 20 11 21 9 22 18 25 19 26
REMARK SMILES IDX 20 27 21 28 22 29 23 30 84 31 24 32 83 33 25 34 26 35 27 36
REMARK SMILES IDX 77 37 28 38 82 39 76 40 78 41 29 42 81 43 75 44 74 45 30 47
REMARK SMILES IDX 62 48 42 49 61 50 43 51 46 52 60 53 79 54 44 55 45 56 59 58
REMARK SMILES IDX 80 59 47 60 31 61 32 62 40 63 33 64 34 65 38 66 41 67 35 68
REMARK SMILES IDX 36 69 39 70 37 71 63 72 64 73 72 74 65 75 66 76 70 77 73 78
REMARK SMILES IDX 67 79 68 80 71 81 69 82 48 83 49 84 57 85 50 86 51 87 55 88
REMARK SMILES IDX 58 89 52 90 53 91 56 92 54 93
REMARK H PARENT 3 12 9 23 9 24 78 46 46 57
REMARK Flexibility Score: inf
ROOT
ATOM      1  C   UNL     1      -2.997   1.146   0.620  1.00  0.00     0.274 C 
ENDROOT
BRANCH   1   2
ATOM      2  O   UNL     1      -1.569   1.032   0.445  1.00  0.00    -0.460 OA
BRANCH   2   3
ATOM      3  C   UNL     1      -0.777   1.115   1.559  1.00  0.00     0.341 C 
ATOM      4  O   UNL     1      -1.227   1.213   2.694  1.00  0.00    -0.249 OA
BRANCH   3   5
ATOM      5  C   UNL     1       0.724   1.201   1.196  1.00  0.00     0.229 C 
ATOM      6  C   UNL     1       1.067   2.678   1.437  1.00  0.00     0.057 C 
BRANCH   5   7
ATOM      7  C   UNL     1       1.534   0.330   2.172  1.00  0.00     0.422 C 
ATOM      8  F   UNL     1       1.381  -0.991   1.913  1.00  0.00    -0.168 F 
ATOM      9  F   UNL     1       2.865   0.581   2.064  1.00  0.00    -0.168 F 
ATOM     10  F   UNL     1       1.215   0.527   3.470  1.00  0.00    -0.168 F 
ENDBRANCH   5   7
BRANCH   5  11
ATOM     11  N   UNL     1       0.910   0.709  -0.209  1.00  0.00    -0.363 N 
ATOM     12  H   UNL     1       0.547  -0.186  -0.398  1.00  0.00     0.162 HD
BRANCH  11  13
ATOM     13  C   UNL     1       1.517   1.338  -1.266  1.00  0.00     0.035 A 
ATOM     14  C   UNL     1       0.916   1.235  -2.528  1.00  0.00     0.027 A 
ATOM     15  C   UNL     1       2.642   2.152  -1.134  1.00  0.00     0.027 A 
ATOM     16  C   UNL     1       1.361   2.001  -3.605  1.00  0.00     0.024 A 
ATOM     17  C   UNL     1       3.089   2.940  -2.194  1.00  0.00     0.024 A 
ATOM     18  C   UNL     1       2.432   2.875  -3.420  1.00  0.00     0.082 A 
BRANCH  18  19
ATOM     19  S   UNL     1       2.892   3.972  -4.721  1.00  0.00     0.238 S 
ATOM     20  O   UNL     1       1.714   4.318  -5.480  1.00  0.00    -0.207 OA
ATOM     21  O   UNL     1       3.800   4.970  -4.204  1.00  0.00    -0.207 OA
BRANCH  19  22
ATOM     22  N   UNL     1       3.813   2.977  -5.705  1.00  0.00    -0.225 NA
ATOM     23  H   UNL     1       3.221   2.247  -6.101  1.00  0.00     0.137 HD
ATOM     24  H   UNL     1       4.557   2.549  -5.154  1.00  0.00     0.137 HD
ENDBRANCH  19  22
ENDBRANCH  18  19
ENDBRANCH  11  13
ENDBRANCH   5  11
ENDBRANCH   3   5
ENDBRANCH   2   3
ENDBRANCH   1   2
BRANCH   1  25
ATOM     25  C   UNL     1      -3.701  -0.186   0.350  1.00  0.00     0.275 C 
BRANCH  25  26
ATOM     26  O   UNL     1      -3.406  -1.146   1.383  1.00  0.00    -0.458 OA
BRANCH  26  27
ATOM     27  C   UNL     1      -2.346  -1.941   1.118  1.00  0.00     0.338 C 
ATOM     28  O   UNL     1      -1.663  -1.948   0.106  1.00  0.00    -0.246 OA
BRANCH  27  29
ATOM     29  C   UNL     1      -1.942  -2.672   2.326  1.00  0.00     0.060 A 
ATOM     30  C   UNL     1      -0.911  -2.101   3.054  1.00  0.00     0.016 A 
ATOM     31  C   UNL     1      -2.363  -3.964   2.622  1.00  0.00     0.016 A 
ATOM     32  C   UNL     1      -0.181  -2.848   3.960  1.00  0.00     0.010 A 
ATOM     33  C   UNL     1      -1.709  -4.680   3.642  1.00  0.00     0.010 A 
ATOM     34  C   UNL     1      -0.574  -4.148   4.287  1.00  0.00    -0.014 A 
BRANCH  34  35
ATOM     35  C   UNL     1       0.266  -4.918   5.252  1.00  0.00     0.031 A 
ATOM     36  C   UNL     1       0.893  -6.227   4.849  1.00  0.00     0.074 A 
ATOM     37  C   UNL     1       0.560  -4.389   6.459  1.00  0.00     0.049 A 
ATOM     38  N   UNL     1       1.584  -7.073   5.574  1.00  0.00    -0.248 NA
ATOM     39  C   UNL     1       0.715  -6.650   3.452  1.00  0.00     0.031 C 
ATOM     40  C   UNL     1       0.073  -3.101   6.962  1.00  0.00     0.029 A 
ATOM     41  N   UNL     1       1.369  -4.848   7.472  1.00  0.00    -0.354 N 
ATOM     42  C   UNL     1       1.878  -8.142   4.738  1.00  0.00     0.074 A 
ATOM     43  C   UNL     1       1.277  -7.850   3.454  1.00  0.00     0.031 C 
ATOM     44  C   UNL     1       0.640  -2.844   8.148  1.00  0.00     0.029 A 
ATOM     45  C   UNL     1       1.443  -3.993   8.546  1.00  0.00     0.049 A 
ATOM     46  H   UNL     1       1.849  -5.706   7.432  1.00  0.00     0.167 HD
ATOM     47  C   UNL     1       2.590  -9.262   5.014  1.00  0.00     0.037 A 
ATOM     48  C   UNL     1       2.050  -4.130   9.740  1.00  0.00     0.037 A 
ATOM     49  C   UNL     1       3.231  -9.527   6.278  1.00  0.00     0.049 A 
ATOM     50  C   UNL     1       2.804  -5.396  10.031  1.00  0.00     0.074 A 
ATOM     51  C   UNL     1       3.959 -10.641   6.662  1.00  0.00     0.029 A 
ATOM     52  N   UNL     1       3.241  -8.656   7.358  1.00  0.00    -0.354 N 
ATOM     53  N   UNL     1       3.007  -6.434   9.257  1.00  0.00    -0.248 NA
ATOM     54  C   UNL     1       3.400  -5.515  11.367  1.00  0.00     0.031 C 
ATOM     55  C   UNL     1       4.375 -10.461   7.986  1.00  0.00     0.029 A 
ATOM     56  C   UNL     1       3.954  -9.212   8.410  1.00  0.00     0.049 A 
ATOM     57  H   UNL     1       2.805  -7.773   7.375  1.00  0.00     0.167 HD
ATOM     58  C   UNL     1       3.756  -7.327  10.009  1.00  0.00     0.074 A 
ATOM     59  C   UNL     1       4.006  -6.690  11.286  1.00  0.00     0.031 C 
ATOM     60  C   UNL     1       4.187  -8.569   9.678  1.00  0.00     0.037 A 
BRANCH  47  61
ATOM     61  C   UNL     1       2.688 -10.308   3.939  1.00  0.00     0.064 A 
ATOM     62  C   UNL     1       3.463 -10.120   2.785  1.00  0.00     0.173 A 
ATOM     63  C   UNL     1       2.024 -11.536   4.087  1.00  0.00     0.173 A 
ATOM     64  F   UNL     1       4.106  -8.960   2.586  1.00  0.00    -0.203 F 
ATOM     65  C   UNL     1       3.548 -11.110   1.809  1.00  0.00     0.198 A 
ATOM     66  C   UNL     1       2.137 -12.536   3.125  1.00  0.00     0.198 A 
ATOM     67  F   UNL     1       1.273 -11.773   5.174  1.00  0.00    -0.203 F 
ATOM     68  F   UNL     1       4.255 -10.889   0.692  1.00  0.00    -0.200 F 
ATOM     69  C   UNL     1       2.893 -12.320   1.983  1.00  0.00     0.200 A 
ATOM     70  F   UNL     1       1.514 -13.710   3.303  1.00  0.00    -0.200 F 
ATOM     71  F   UNL     1       2.984 -13.275   1.047  1.00  0.00    -0.200 F 
ENDBRANCH  47  61
BRANCH  48  72
ATOM     72  C   UNL     1       1.912  -3.065  10.771  1.00  0.00     0.064 A 
ATOM     73  C   UNL     1       3.019  -2.330  11.217  1.00  0.00     0.173 A 
ATOM     74  C   UNL     1       0.663  -2.770  11.343  1.00  0.00     0.173 A 
ATOM     75  F   UNL     1       4.239  -2.592  10.725  1.00  0.00    -0.203 F 
ATOM     76  C   UNL     1       2.886  -1.356  12.205  1.00  0.00     0.198 A 
ATOM     77  C   UNL     1       0.525  -1.769  12.300  1.00  0.00     0.198 A 
ATOM     78  F   UNL     1      -0.430  -3.444  10.956  1.00  0.00    -0.203 F 
ATOM     79  F   UNL     1       3.970  -0.708  12.653  1.00  0.00    -0.200 F 
ATOM     80  C   UNL     1       1.639  -1.070  12.739  1.00  0.00     0.200 A 
ATOM     81  F   UNL     1      -0.685  -1.485  12.799  1.00  0.00    -0.200 F 
ATOM     82  F   UNL     1       1.511  -0.128  13.684  1.00  0.00    -0.200 F 
ENDBRANCH  48  72
BRANCH  60  83
ATOM     83  C   UNL     1       4.991  -9.303  10.712  1.00  0.00     0.064 A 
ATOM     84  C   UNL     1       4.405  -9.784  11.893  1.00  0.00     0.173 A 
ATOM     85  C   UNL     1       6.364  -9.519  10.524  1.00  0.00     0.173 A 
ATOM     86  F   UNL     1       3.099  -9.588  12.128  1.00  0.00    -0.203 F 
ATOM     87  C   UNL     1       5.174 -10.414  12.868  1.00  0.00     0.198 A 
ATOM     88  C   UNL     1       7.123 -10.179  11.486  1.00  0.00     0.198 A 
ATOM     89  F   UNL     1       6.972  -9.085   9.410  1.00  0.00    -0.203 F 
ATOM     90  F   UNL     1       4.607 -10.803  14.018  1.00  0.00    -0.200 F 
ATOM     91  C   UNL     1       6.531 -10.615  12.662  1.00  0.00     0.200 A 
ATOM     92  F   UNL     1       8.432 -10.384  11.281  1.00  0.00    -0.200 F 
ATOM     93  F   UNL     1       7.271 -11.216  13.604  1.00  0.00    -0.200 F 
ENDBRANCH  60  83
ENDBRANCH  34  35
ENDBRANCH  27  29
ENDBRANCH  26  27
ENDBRANCH  25  26
ENDBRANCH   1  25
TORSDOF 16
