REMARK SMILES C[C@H]1CS(=O)(=O)N(c2cccc(C(=O)Nc3ccc(O)c(C(=O)OCCOC(=O)c4ccc(-c5c6nc(c(-c7c(F)c(F)c(F)c(F)c7F)c7ccc([nH]7)c(-c7c(F)c(F)c(F)c(F)c7F)c7nc(c(-c8c(F)c(F)c(F)c(F)c8F)c8ccc5[nH]8)C=C7)C=C6)cc4)c3)c2)C1=O
REMARK SMILES IDX 25 1 24 2 22 3 23 4 21 5 16 6 17 7 93 8 18 9 19 10 15 11
REMARK SMILES IDX 13 12 14 13 12 15 8 16 9 17 94 18 10 19 11 20 7 21 1 22 2 23
REMARK SMILES IDX 3 24 95 25 4 26 96 27 5 28 6 29 20 30 26 32 27 33 28 34
REMARK SMILES IDX 29 35 30 36 31 37 92 38 32 39 91 40 33 41 34 42 35 43 85 44
REMARK SMILES IDX 36 45 90 46 84 47 86 48 37 49 89 50 83 51 82 52 38 54 70 55
REMARK SMILES IDX 50 56 69 57 51 58 54 59 68 60 87 61 52 62 53 63 67 65 88 66
REMARK SMILES IDX 55 67 39 68 40 69 48 70 41 71 42 72 46 73 49 74 43 75 44 76
REMARK SMILES IDX 47 77 45 78 71 79 72 80 80 81 73 82 74 83 78 84 81 85 75 86
REMARK SMILES IDX 76 87 79 88 77 89 56 90 57 91 65 92 58 93 59 94 63 95 66 96
REMARK SMILES IDX 60 97 61 98 64 99 62 100
REMARK H PARENT 15 14 20 31 86 53 54 64
REMARK Flexibility Score: inf
ROOT
ATOM      1  C   UNL     1       1.632  -2.817  -2.921  1.00  0.00     0.275 C 
ENDROOT
BRANCH   1   2
ATOM      2  O   UNL     1       1.460  -2.031  -4.122  1.00  0.00    -0.458 OA
BRANCH   2   3
ATOM      3  C   UNL     1       1.548  -0.694  -3.944  1.00  0.00     0.342 C 
ATOM      4  O   UNL     1       1.857  -0.132  -2.904  1.00  0.00    -0.246 OA
BRANCH   3   5
ATOM      5  C   UNL     1       1.226   0.110  -5.142  1.00  0.00     0.103 A 
ATOM      6  C   UNL     1       0.057   0.420  -7.224  1.00  0.00     0.042 A 
ATOM      7  C   UNL     1       0.518   1.736  -7.316  1.00  0.00     0.030 A 
ATOM      8  C   UNL     1       0.504  -0.429  -6.206  1.00  0.00     0.045 A 
ATOM      9  C   UNL     1       1.233   2.278  -6.255  1.00  0.00     0.049 A 
ATOM     10  C   UNL     1       1.518   1.486  -5.147  1.00  0.00     0.130 A 
BRANCH   6  11
ATOM     11  N   UNL     1      -0.991   0.060  -8.077  1.00  0.00    -0.322 N 
ATOM     12  C   UNL     1      -2.173  -0.592  -7.773  1.00  0.00     0.255 C 
ATOM     13  O   UNL     1      -2.905  -0.945  -8.699  1.00  0.00    -0.269 OA
ATOM     14  H   UNL     1      -0.872   0.303  -9.024  1.00  0.00     0.170 HD
BRANCH  12  15
ATOM     15  C   UNL     1      -2.642  -0.814  -6.365  1.00  0.00     0.042 A 
ATOM     16  C   UNL     1      -2.699  -0.294  -3.976  1.00  0.00     0.061 A 
ATOM     17  C   UNL     1      -3.530  -1.397  -3.770  1.00  0.00     0.027 A 
ATOM     18  C   UNL     1      -2.326   0.032  -5.287  1.00  0.00     0.041 A 
ATOM     19  C   UNL     1      -3.940  -2.188  -4.846  1.00  0.00     0.003 A 
ATOM     20  C   UNL     1      -3.480  -1.910  -6.134  1.00  0.00     0.014 A 
BRANCH  16  21
ATOM     21  N   UNL     1      -2.181   0.436  -2.860  1.00  0.00    -0.207 N 
ATOM     22  C   UNL     1       0.370   0.579  -0.344  1.00  0.00     0.019 C 
ATOM     23  C   UNL     1      -1.092   0.781  -0.723  1.00  0.00     0.094 C 
ATOM     24  C   UNL     1      -1.338   2.201  -1.240  1.00  0.00     0.173 C 
ATOM     25  C   UNL     1      -1.535  -0.212  -1.789  1.00  0.00     0.244 C 
ATOM     26  S   UNL     1      -2.325   2.091  -2.714  1.00  0.00     0.242 S 
ATOM     27  O   UNL     1      -1.367  -1.421  -1.695  1.00  0.00    -0.273 OA
ATOM     28  O   UNL     1      -3.691   2.414  -2.384  1.00  0.00    -0.206 OA
ATOM     29  O   UNL     1      -1.611   2.743  -3.791  1.00  0.00    -0.206 OA
ENDBRANCH  16  21
ENDBRANCH  12  15
ENDBRANCH   6  11
BRANCH  10  30
ATOM     30  O   UNL     1       2.032   2.156  -4.068  1.00  0.00    -0.507 OA
ATOM     31  H   UNL     1       2.207   3.074  -4.127  1.00  0.00     0.293 HD
ENDBRANCH  10  30
ENDBRANCH   3   5
ENDBRANCH   2   3
ENDBRANCH   1   2
BRANCH   1  32
ATOM     32  C   UNL     1       3.093  -3.208  -2.653  1.00  0.00     0.275 C 
BRANCH  32  33
ATOM     33  O   UNL     1       3.884  -2.078  -2.229  1.00  0.00    -0.458 OA
BRANCH  33  34
ATOM     34  C   UNL     1       4.631  -1.498  -3.199  1.00  0.00     0.338 C 
ATOM     35  O   UNL     1       4.781  -1.895  -4.344  1.00  0.00    -0.246 OA
BRANCH  34  36
ATOM     36  C   UNL     1       5.073  -0.159  -2.759  1.00  0.00     0.060 A 
ATOM     37  C   UNL     1       4.752   0.911  -3.598  1.00  0.00     0.016 A 
ATOM     38  C   UNL     1       5.787   0.071  -1.581  1.00  0.00     0.016 A 
ATOM     39  C   UNL     1       5.074   2.217  -3.243  1.00  0.00     0.010 A 
ATOM     40  C   UNL     1       6.183   1.381  -1.260  1.00  0.00     0.010 A 
ATOM     41  C   UNL     1       5.827   2.459  -2.091  1.00  0.00    -0.014 A 
BRANCH  41  42
ATOM     42  C   UNL     1       6.424   3.805  -1.916  1.00  0.00     0.031 A 
ATOM     43  C   UNL     1       7.699   4.107  -2.655  1.00  0.00     0.074 A 
ATOM     44  C   UNL     1       5.820   4.769  -1.197  1.00  0.00     0.049 A 
ATOM     45  N   UNL     1       8.435   5.188  -2.644  1.00  0.00    -0.248 NA
ATOM     46  C   UNL     1       8.198   3.046  -3.546  1.00  0.00     0.031 C 
ATOM     47  C   UNL     1       4.525   4.647  -0.534  1.00  0.00     0.029 A 
ATOM     48  N   UNL     1       6.225   6.051  -0.913  1.00  0.00    -0.354 N 
ATOM     49  C   UNL     1       9.477   4.938  -3.527  1.00  0.00     0.074 A 
ATOM     50  C   UNL     1       9.286   3.605  -4.052  1.00  0.00     0.031 C 
ATOM     51  C   UNL     1       4.250   5.803   0.098  1.00  0.00     0.029 A 
ATOM     52  C   UNL     1       5.367   6.731  -0.084  1.00  0.00     0.049 A 
ATOM     53  H   UNL     1       7.053   6.446  -1.271  1.00  0.00     0.167 HD
ATOM     54  C   UNL     1      10.509   5.745  -3.865  1.00  0.00     0.037 A 
ATOM     55  C   UNL     1       5.492   7.947   0.485  1.00  0.00     0.037 A 
ATOM     56  C   UNL     1      10.722   7.057  -3.320  1.00  0.00     0.049 A 
ATOM     57  C   UNL     1       6.726   8.772   0.202  1.00  0.00     0.074 A 
ATOM     58  C   UNL     1      11.769   7.930  -3.555  1.00  0.00     0.029 A 
ATOM     59  N   UNL     1       9.873   7.679  -2.417  1.00  0.00    -0.354 N 
ATOM     60  N   UNL     1       7.728   8.520  -0.607  1.00  0.00    -0.248 NA
ATOM     61  C   UNL     1       6.852  10.049   0.922  1.00  0.00     0.031 C 
ATOM     62  C   UNL     1      11.578   9.062  -2.756  1.00  0.00     0.029 A 
ATOM     63  C   UNL     1      10.384   8.918  -2.068  1.00  0.00     0.049 A 
ATOM     64  H   UNL     1       9.032   7.297  -2.076  1.00  0.00     0.167 HD
ATOM     65  C   UNL     1       8.579   9.616  -0.519  1.00  0.00     0.074 A 
ATOM     66  C   UNL     1       7.973  10.541   0.414  1.00  0.00     0.031 C 
ATOM     67  C   UNL     1       9.757   9.836  -1.153  1.00  0.00     0.037 A 
BRANCH  54  68
ATOM     68  C   UNL     1      11.516   5.197  -4.829  1.00  0.00     0.064 A 
ATOM     69  C   UNL     1      11.229   5.050  -6.194  1.00  0.00     0.173 A 
ATOM     70  C   UNL     1      12.788   4.814  -4.378  1.00  0.00     0.173 A 
ATOM     71  F   UNL     1      10.017   5.378  -6.667  1.00  0.00    -0.203 F 
ATOM     72  C   UNL     1      12.173   4.520  -7.069  1.00  0.00     0.198 A 
ATOM     73  C   UNL     1      13.738   4.310  -5.260  1.00  0.00     0.198 A 
ATOM     74  F   UNL     1      13.108   4.930  -3.080  1.00  0.00    -0.203 F 
ATOM     75  F   UNL     1      11.862   4.343  -8.360  1.00  0.00    -0.200 F 
ATOM     76  C   UNL     1      13.428   4.157  -6.603  1.00  0.00     0.200 A 
ATOM     77  F   UNL     1      14.952   3.966  -4.809  1.00  0.00    -0.200 F 
ATOM     78  F   UNL     1      14.337   3.649  -7.447  1.00  0.00    -0.200 F 
ENDBRANCH  54  68
BRANCH  55  79
ATOM     79  C   UNL     1       4.455   8.457   1.425  1.00  0.00     0.064 A 
ATOM     80  C   UNL     1       3.701   9.602   1.128  1.00  0.00     0.173 A 
ATOM     81  C   UNL     1       4.248   7.850   2.673  1.00  0.00     0.173 A 
ATOM     82  F   UNL     1       3.885  10.241  -0.036  1.00  0.00    -0.203 F 
ATOM     83  C   UNL     1       2.803  10.134   2.053  1.00  0.00     0.198 A 
ATOM     84  C   UNL     1       3.327   8.365   3.584  1.00  0.00     0.198 A 
ATOM     85  F   UNL     1       4.949   6.759   3.015  1.00  0.00    -0.203 F 
ATOM     86  F   UNL     1       2.144  11.266   1.769  1.00  0.00    -0.200 F 
ATOM     87  C   UNL     1       2.614   9.513   3.278  1.00  0.00     0.200 A 
ATOM     88  F   UNL     1       3.144   7.756   4.763  1.00  0.00    -0.200 F 
ATOM     89  F   UNL     1       1.758  10.030   4.170  1.00  0.00    -0.200 F 
ENDBRANCH  55  79
BRANCH  67  90
ATOM     90  C   UNL     1      10.448  11.146  -0.905  1.00  0.00     0.064 A 
ATOM     91  C   UNL     1      11.082  11.429   0.313  1.00  0.00     0.173 A 
ATOM     92  C   UNL     1      10.528  12.107  -1.926  1.00  0.00     0.173 A 
ATOM     93  F   UNL     1      11.024  10.549   1.324  1.00  0.00    -0.203 F 
ATOM     94  C   UNL     1      11.752  12.634   0.508  1.00  0.00     0.198 A 
ATOM     95  C   UNL     1      11.225  13.297  -1.738  1.00  0.00     0.198 A 
ATOM     96  F   UNL     1       9.948  11.881  -3.114  1.00  0.00    -0.203 F 
ATOM     97  F   UNL     1      12.314  12.901   1.695  1.00  0.00    -0.200 F 
ATOM     98  C   UNL     1      11.830  13.563  -0.519  1.00  0.00     0.200 A 
ATOM     99  F   UNL     1      11.313  14.185  -2.738  1.00  0.00    -0.200 F 
ATOM    100  F   UNL     1      12.486  14.717  -0.333  1.00  0.00    -0.200 F 
ENDBRANCH  67  90
ENDBRANCH  41  42
ENDBRANCH  34  36
ENDBRANCH  33  34
ENDBRANCH  32  33
ENDBRANCH   1  32
TORSDOF 15
