REMARK SMILES COc1cccc(C(=O)Nc2ccc(NC(=O)[C@@H]3[C@@H](C(=O)OCCOC(=O)c4ccc(-c5c6nc(c(-c7c(F)c(F)c(F)c(F)c7F)c7ccc([nH]7)c(-c7c(F)c(F)c(F)c(F)c7F)c7nc(c(-c8c(F)c(F)c(F)c(F)c8F)c8ccc5[nH]8)C=C7)C=C6)cc4)[C@@H]4C=C[C@H]3C4)cc2)c1
REMARK SMILES IDX 22 1 20 2 21 3 19 4 18 5 94 6 91 7 93 8 95 9 92 10 16 11
REMARK SMILES IDX 15 12 17 14 14 15 11 16 12 17 97 18 13 19 96 20 10 21 8 22
REMARK SMILES IDX 9 23 7 25 3 26 4 27 98 28 5 29 6 30 2 31 1 32 23 33 24 34
REMARK SMILES IDX 25 35 26 36 27 37 28 38 29 39 90 40 30 41 89 42 31 43 32 44
REMARK SMILES IDX 33 45 83 46 34 47 88 48 82 49 84 50 35 51 87 52 81 53 80 54
REMARK SMILES IDX 36 56 68 57 48 58 67 59 49 60 52 61 66 62 85 63 50 64 51 65
REMARK SMILES IDX 65 67 86 68 53 69 37 70 38 71 46 72 39 73 40 74 44 75 47 76
REMARK SMILES IDX 41 77 42 78 45 79 43 80 69 81 70 82 78 83 71 84 72 85 76 86
REMARK SMILES IDX 79 87 73 88 74 89 77 90 75 91 54 92 55 93 63 94 56 95 57 96
REMARK SMILES IDX 61 97 64 98 58 99 59 100 62 101 60 102
REMARK H PARENT 15 13 10 24 84 55 52 66
REMARK Flexibility Score: inf
ROOT
ATOM      1  O   UNL     1       5.987  -3.540  -5.222  1.00  0.00    -0.462 OA
ENDROOT
BRANCH   1   2
ATOM      2  C   UNL     1       5.669  -2.214  -5.175  1.00  0.00     0.310 C 
ATOM      3  O   UNL     1       5.474  -1.513  -6.157  1.00  0.00    -0.252 OA
BRANCH   2   4
ATOM      4  C   UNL     1       5.559  -1.746  -3.729  1.00  0.00     0.119 C 
ATOM      5  C   UNL     1       5.515  -0.188  -3.595  1.00  0.00     0.100 C 
ATOM      6  C   UNL     1       6.787   0.133  -2.760  1.00  0.00     0.025 C 
ATOM      7  C   UNL     1       6.902  -2.093  -3.021  1.00  0.00     0.027 C 
ATOM      8  C   UNL     1       6.759  -0.491  -1.390  1.00  0.00    -0.027 C 
ATOM      9  C   UNL     1       7.763  -0.873  -3.390  1.00  0.00     0.017 C 
ATOM     10  C   UNL     1       6.799  -1.822  -1.546  1.00  0.00    -0.027 C 
BRANCH   5  11
ATOM     11  C   UNL     1       4.220   0.581  -3.272  1.00  0.00     0.228 C 
ATOM     12  N   UNL     1       3.681   0.777  -2.039  1.00  0.00    -0.326 N 
ATOM     13  H   UNL     1       3.112   1.577  -1.971  1.00  0.00     0.169 HD
ATOM     14  O   UNL     1       3.659   1.195  -4.192  1.00  0.00    -0.274 OA
BRANCH  12  15
ATOM     15  C   UNL     1       3.786   0.052  -0.857  1.00  0.00     0.041 A 
ATOM     16  C   UNL     1       4.193  -1.338   1.511  1.00  0.00     0.041 A 
ATOM     17  C   UNL     1       4.012  -2.038   0.319  1.00  0.00     0.028 A 
ATOM     18  C   UNL     1       4.122   0.054   1.540  1.00  0.00     0.028 A 
ATOM     19  C   UNL     1       3.761  -1.338  -0.855  1.00  0.00     0.028 A 
ATOM     20  C   UNL     1       3.882   0.750   0.353  1.00  0.00     0.028 A 
BRANCH  16  21
ATOM     21  N   UNL     1       4.394  -2.053   2.688  1.00  0.00    -0.322 N 
ATOM     22  C   UNL     1       3.515  -2.952   3.262  1.00  0.00     0.255 C 
ATOM     23  O   UNL     1       3.972  -3.882   3.926  1.00  0.00    -0.269 OA
ATOM     24  H   UNL     1       5.246  -1.904   3.158  1.00  0.00     0.170 HD
BRANCH  22  25
ATOM     25  C   UNL     1       2.036  -2.703   3.251  1.00  0.00     0.043 A 
ATOM     26  C   UNL     1      -0.006  -1.691   2.377  1.00  0.00     0.119 A 
ATOM     27  C   UNL     1      -0.675  -2.058   3.541  1.00  0.00     0.046 A 
ATOM     28  C   UNL     1       1.330  -2.058   2.224  1.00  0.00     0.060 A 
ATOM     29  C   UNL     1      -0.017  -2.774   4.541  1.00  0.00     0.005 A 
ATOM     30  C   UNL     1       1.335  -3.087   4.400  1.00  0.00     0.014 A 
BRANCH  26  31
ATOM     31  O   UNL     1      -0.743  -0.969   1.479  1.00  0.00    -0.497 OA
ATOM     32  C   UNL     1      -0.088  -0.478   0.312  1.00  0.00     0.278 C 
ENDBRANCH  26  31
ENDBRANCH  22  25
ENDBRANCH  16  21
ENDBRANCH  12  15
ENDBRANCH   5  11
ENDBRANCH   2   4
ENDBRANCH   1   2
BRANCH   1  33
ATOM     33  C   UNL     1       6.190  -4.116  -6.526  1.00  0.00     0.274 C 
BRANCH  33  34
ATOM     34  C   UNL     1       4.969  -4.907  -6.999  1.00  0.00     0.275 C 
BRANCH  34  35
ATOM     35  O   UNL     1       3.858  -4.044  -7.292  1.00  0.00    -0.458 OA
BRANCH  35  36
ATOM     36  C   UNL     1       3.059  -3.755  -6.236  1.00  0.00     0.338 C 
ATOM     37  O   UNL     1       3.129  -4.208  -5.108  1.00  0.00    -0.246 OA
BRANCH  36  38
ATOM     38  C   UNL     1       2.179  -2.631  -6.596  1.00  0.00     0.060 A 
ATOM     39  C   UNL     1       2.194  -1.512  -5.761  1.00  0.00     0.016 A 
ATOM     40  C   UNL     1       1.357  -2.666  -7.723  1.00  0.00     0.016 A 
ATOM     41  C   UNL     1       1.412  -0.404  -6.061  1.00  0.00     0.010 A 
ATOM     42  C   UNL     1       0.561  -1.556  -8.019  1.00  0.00     0.010 A 
ATOM     43  C   UNL     1       0.592  -0.417  -7.193  1.00  0.00    -0.014 A 
BRANCH  43  44
ATOM     44  C   UNL     1      -0.260   0.753  -7.493  1.00  0.00     0.031 A 
ATOM     45  C   UNL     1      -1.730   0.683  -7.218  1.00  0.00     0.074 A 
ATOM     46  C   UNL     1       0.291   1.874  -7.993  1.00  0.00     0.049 A 
ATOM     47  N   UNL     1      -2.673   1.535  -7.526  1.00  0.00    -0.248 NA
ATOM     48  C   UNL     1      -2.200  -0.507  -6.494  1.00  0.00     0.031 C 
ATOM     49  C   UNL     1       1.721   2.081  -8.219  1.00  0.00     0.029 A 
ATOM     50  N   UNL     1      -0.290   3.044  -8.413  1.00  0.00    -0.354 N 
ATOM     51  C   UNL     1      -3.850   0.979  -7.047  1.00  0.00     0.074 A 
ATOM     52  C   UNL     1      -3.507  -0.291  -6.444  1.00  0.00     0.031 C 
ATOM     53  C   UNL     1       1.905   3.297  -8.758  1.00  0.00     0.029 A 
ATOM     54  C   UNL     1       0.604   3.927  -8.966  1.00  0.00     0.049 A 
ATOM     55  H   UNL     1      -1.252   3.232  -8.326  1.00  0.00     0.167 HD
ATOM     56  C   UNL     1      -5.102   1.490  -7.110  1.00  0.00     0.037 A 
ATOM     57  C   UNL     1       0.388   5.090  -9.611  1.00  0.00     0.037 A 
ATOM     58  C   UNL     1      -5.425   2.756  -7.716  1.00  0.00     0.049 A 
ATOM     59  C   UNL     1      -1.027   5.581  -9.771  1.00  0.00     0.074 A 
ATOM     60  C   UNL     1      -6.660   3.368  -7.832  1.00  0.00     0.029 A 
ATOM     61  N   UNL     1      -4.501   3.600  -8.317  1.00  0.00    -0.354 N 
ATOM     62  N   UNL     1      -2.142   5.053  -9.326  1.00  0.00    -0.248 NA
ATOM     63  C   UNL     1      -1.216   6.823 -10.533  1.00  0.00     0.031 C 
ATOM     64  C   UNL     1      -6.493   4.552  -8.556  1.00  0.00     0.029 A 
ATOM     65  C   UNL     1      -5.145   4.710  -8.840  1.00  0.00     0.049 A 
ATOM     66  H   UNL     1      -3.531   3.435  -8.365  1.00  0.00     0.167 HD
ATOM     67  C   UNL     1      -3.160   5.902  -9.738  1.00  0.00     0.074 A 
ATOM     68  C   UNL     1      -2.529   6.993 -10.450  1.00  0.00     0.031 C 
ATOM     69  C   UNL     1      -4.497   5.786  -9.547  1.00  0.00     0.037 A 
BRANCH  56  70
ATOM     70  C   UNL     1      -6.219   0.659  -6.551  1.00  0.00     0.064 A 
ATOM     71  C   UNL     1      -6.373   0.455  -5.172  1.00  0.00     0.173 A 
ATOM     72  C   UNL     1      -7.167   0.081  -7.409  1.00  0.00     0.173 A 
ATOM     73  F   UNL     1      -5.487   0.974  -4.309  1.00  0.00    -0.203 F 
ATOM     74  C   UNL     1      -7.419  -0.320  -4.675  1.00  0.00     0.198 A 
ATOM     75  C   UNL     1      -8.227  -0.668  -6.908  1.00  0.00     0.198 A 
ATOM     76  F   UNL     1      -7.068   0.247  -8.737  1.00  0.00    -0.203 F 
ATOM     77  F   UNL     1      -7.519  -0.542  -3.357  1.00  0.00    -0.200 F 
ATOM     78  C   UNL     1      -8.348  -0.874  -5.542  1.00  0.00     0.200 A 
ATOM     79  F   UNL     1      -9.132  -1.192  -7.747  1.00  0.00    -0.200 F 
ATOM     80  F   UNL     1      -9.357  -1.615  -5.062  1.00  0.00    -0.200 F 
ENDBRANCH  56  70
BRANCH  57  81
ATOM     81  C   UNL     1       1.531   5.835 -10.202  1.00  0.00     0.064 A 
ATOM     82  C   UNL     1       1.901   7.098  -9.724  1.00  0.00     0.173 A 
ATOM     83  C   UNL     1       2.267   5.303 -11.274  1.00  0.00     0.173 A 
ATOM     84  F   UNL     1       1.212   7.664  -8.722  1.00  0.00    -0.203 F 
ATOM     85  C   UNL     1       2.951   7.809 -10.304  1.00  0.00     0.198 A 
ATOM     86  C   UNL     1       3.337   6.000 -11.830  1.00  0.00     0.198 A 
ATOM     87  F   UNL     1       1.950   4.101 -11.777  1.00  0.00    -0.203 F 
ATOM     88  F   UNL     1       3.250   9.038  -9.861  1.00  0.00    -0.200 F 
ATOM     89  C   UNL     1       3.673   7.256 -11.351  1.00  0.00     0.200 A 
ATOM     90  F   UNL     1       4.037   5.456 -12.835  1.00  0.00    -0.200 F 
ATOM     91  F   UNL     1       4.683   7.939 -11.907  1.00  0.00    -0.200 F 
ENDBRANCH  57  81
BRANCH  69  92
ATOM     92  C   UNL     1      -5.370   6.874 -10.102  1.00  0.00     0.064 A 
ATOM     93  C   UNL     1      -5.598   7.000 -11.480  1.00  0.00     0.173 A 
ATOM     94  C   UNL     1      -6.037   7.759  -9.241  1.00  0.00     0.173 A 
ATOM     95  F   UNL     1      -4.970   6.189 -12.345  1.00  0.00    -0.203 F 
ATOM     96  C   UNL     1      -6.452   7.981 -11.977  1.00  0.00     0.198 A 
ATOM     97  C   UNL     1      -6.915   8.718  -9.740  1.00  0.00     0.198 A 
ATOM     98  F   UNL     1      -5.858   7.678  -7.914  1.00  0.00    -0.203 F 
ATOM     99  F   UNL     1      -6.626   8.107 -13.300  1.00  0.00    -0.200 F 
ATOM    100  C   UNL     1      -7.117   8.831 -11.107  1.00  0.00     0.200 A 
ATOM    101  F   UNL     1      -7.569   9.528  -8.896  1.00  0.00    -0.200 F 
ATOM    102  F   UNL     1      -7.953   9.763 -11.586  1.00  0.00    -0.200 F 
ENDBRANCH  69  92
ENDBRANCH  43  44
ENDBRANCH  36  38
ENDBRANCH  35  36
ENDBRANCH  34  35
ENDBRANCH  33  34
ENDBRANCH   1  33
TORSDOF 16
