REMARK SMILES O=C(OCCOC(=O)c1ccc(-c2c3nc(c(-c4c(F)c(F)c(F)c(F)c4F)c4ccc([nH]4)c(-c4c(F)c(F)c(F)c(F)c4F)c4nc(c(-c5c(F)c(F)c(F)c(F)c5F)c5ccc2[nH]5)C=C4)C=C3)cc1)c1ccc(/[NH+]=C2\S[C@@H](Cc3ccc(F)cc3)C(=O)N2Cc2ccccc2)cc1
REMARK SMILES IDX 4 1 3 2 2 3 1 4 72 5 73 6 99 7 74 8 98 9 75 10 76 11 77 12
REMARK SMILES IDX 78 14 90 15 79 16 88 17 89 18 91 19 92 20 93 21 97 22 94 23
REMARK SMILES IDX 96 24 95 25 80 26 81 27 82 28 87 29 83 30 86 31 84 32 85 33
REMARK SMILES IDX 5 34 6 35 7 36 8 37 9 38 10 39 71 40 11 41 70 42 12 43 13 44
REMARK SMILES IDX 14 45 64 46 15 47 69 48 63 49 65 50 16 51 68 52 62 53 61 54
REMARK SMILES IDX 17 56 49 57 29 58 48 59 30 60 33 61 47 62 66 63 31 64 32 65
REMARK SMILES IDX 46 67 67 68 34 69 18 70 19 71 27 72 20 73 21 74 25 75 28 76
REMARK SMILES IDX 22 77 23 78 26 79 24 80 50 81 51 82 59 83 52 84 53 85 57 86
REMARK SMILES IDX 60 87 54 88 55 89 58 90 56 91 35 92 36 93 44 94 37 95 38 96
REMARK SMILES IDX 42 97 45 98 39 99 40 100 43 101 41 102
REMARK H PARENT 76 13 65 55 33 66
REMARK Flexibility Score: inf
ROOT
ATOM      1  C   UNL     1       4.220  -0.930  -1.382  1.00  0.00     0.275 C 
ENDROOT
BRANCH   1   2
ATOM      2  O   UNL     1       3.019  -1.124  -0.614  1.00  0.00    -0.458 OA
BRANCH   2   3
ATOM      3  C   UNL     1       2.735  -0.763   0.659  1.00  0.00     0.338 C 
ATOM      4  O   UNL     1       1.814  -1.336   1.241  1.00  0.00    -0.246 OA
BRANCH   3   5
ATOM      5  C   UNL     1       3.378   0.394   1.364  1.00  0.00     0.060 A 
ATOM      6  C   UNL     1       4.621   0.953   1.067  1.00  0.00     0.020 A 
ATOM      7  C   UNL     1       2.643   0.971   2.420  1.00  0.00     0.020 A 
ATOM      8  C   UNL     1       5.073   2.092   1.729  1.00  0.00     0.052 A 
ATOM      9  C   UNL     1       3.123   2.083   3.120  1.00  0.00     0.052 A 
ATOM     10  C   UNL     1       4.333   2.661   2.759  1.00  0.00     0.125 A 
BRANCH  10  11
ATOM     11  N   UNL     1       4.891   3.762   3.413  1.00  0.00    -0.235 N 
ATOM     12  C   UNL     1       5.628   3.539   4.449  1.00  0.00     0.320 C 
ATOM     13  H   UNL     1       4.727   4.679   3.095  1.00  0.00     0.313 HD
ATOM     14  S   UNL     1       5.721   2.035   5.326  1.00  0.00    -0.022 SA
ATOM     15  N   UNL     1       6.489   4.465   4.966  1.00  0.00    -0.186 N 
ATOM     16  C   UNL     1       6.699   2.772   6.650  1.00  0.00     0.178 C 
ATOM     17  C   UNL     1       7.239   4.065   6.055  1.00  0.00     0.324 C 
ATOM     18  O   UNL     1       8.183   4.694   6.521  1.00  0.00    -0.245 OA
BRANCH  15  19
ATOM     19  C   UNL     1       6.712   5.759   4.330  1.00  0.00     0.283 C 
BRANCH  19  20
ATOM     20  C   UNL     1       7.612   5.695   3.108  1.00  0.00    -0.006 A 
ATOM     21  C   UNL     1       8.995   5.894   3.220  1.00  0.00     0.008 A 
ATOM     22  C   UNL     1       7.074   5.449   1.835  1.00  0.00     0.008 A 
ATOM     23  C   UNL     1       9.813   5.854   2.086  1.00  0.00     0.000 A 
ATOM     24  C   UNL     1       7.893   5.387   0.706  1.00  0.00     0.000 A 
ATOM     25  C   UNL     1       9.263   5.595   0.831  1.00  0.00     0.000 A 
ENDBRANCH  19  20
ENDBRANCH  15  19
BRANCH  16  26
ATOM     26  C   UNL     1       7.748   1.758   7.089  1.00  0.00     0.063 C 
BRANCH  26  27
ATOM     27  C   UNL     1       8.386   2.080   8.417  1.00  0.00    -0.046 A 
ATOM     28  C   UNL     1       9.778   2.219   8.503  1.00  0.00     0.007 A 
ATOM     29  C   UNL     1       7.608   2.211   9.579  1.00  0.00     0.007 A 
ATOM     30  C   UNL     1      10.380   2.512   9.725  1.00  0.00     0.039 A 
ATOM     31  C   UNL     1       8.212   2.515  10.798  1.00  0.00     0.039 A 
ATOM     32  C   UNL     1       9.592   2.664  10.858  1.00  0.00     0.123 A 
ATOM     33  F   UNL     1      10.171   2.955  12.030  1.00  0.00    -0.207 F 
ENDBRANCH  26  27
ENDBRANCH  16  26
ENDBRANCH  10  11
ENDBRANCH   3   5
ENDBRANCH   2   3
ENDBRANCH   1   2
BRANCH   1  34
ATOM     34  C   UNL     1       4.157   0.285  -2.315  1.00  0.00     0.275 C 
BRANCH  34  35
ATOM     35  O   UNL     1       3.753   1.494  -1.643  1.00  0.00    -0.458 OA
BRANCH  35  36
ATOM     36  C   UNL     1       2.427   1.777  -1.718  1.00  0.00     0.338 C 
ATOM     37  O   UNL     1       1.597   1.156  -2.365  1.00  0.00    -0.246 OA
BRANCH  36  38
ATOM     38  C   UNL     1       2.055   2.897  -0.815  1.00  0.00     0.060 A 
ATOM     39  C   UNL     1       0.773   2.870  -0.252  1.00  0.00     0.016 A 
ATOM     40  C   UNL     1       2.909   3.969  -0.528  1.00  0.00     0.016 A 
ATOM     41  C   UNL     1       0.332   3.918   0.561  1.00  0.00     0.010 A 
ATOM     42  C   UNL     1       2.468   5.016   0.300  1.00  0.00     0.010 A 
ATOM     43  C   UNL     1       1.165   5.013   0.830  1.00  0.00    -0.014 A 
BRANCH  43  44
ATOM     44  C   UNL     1       0.626   6.169   1.603  1.00  0.00     0.031 A 
ATOM     45  C   UNL     1       0.188   7.414   0.886  1.00  0.00     0.074 A 
ATOM     46  C   UNL     1       0.463   6.098   2.938  1.00  0.00     0.049 A 
ATOM     47  N   UNL     1      -0.421   8.471   1.365  1.00  0.00    -0.248 NA
ATOM     48  C   UNL     1       0.459   7.476  -0.557  1.00  0.00     0.031 C 
ATOM     49  C   UNL     1       0.829   4.955   3.761  1.00  0.00     0.029 A 
ATOM     50  N   UNL     1      -0.054   7.000   3.837  1.00  0.00    -0.354 N 
ATOM     51  C   UNL     1      -0.642   9.304   0.279  1.00  0.00     0.074 A 
ATOM     52  C   UNL     1      -0.041   8.663  -0.873  1.00  0.00     0.031 C 
ATOM     53  C   UNL     1       0.553   5.222   5.047  1.00  0.00     0.029 A 
ATOM     54  C   UNL     1      -0.029   6.558   5.138  1.00  0.00     0.049 A 
ATOM     55  H   UNL     1      -0.408   7.880   3.574  1.00  0.00     0.167 HD
ATOM     56  C   UNL     1      -1.315  10.479   0.236  1.00  0.00     0.037 A 
ATOM     57  C   UNL     1      -0.440   7.152   6.275  1.00  0.00     0.037 A 
ATOM     58  C   UNL     1      -1.901  11.136   1.375  1.00  0.00     0.049 A 
ATOM     59  C   UNL     1      -1.123   8.493   6.209  1.00  0.00     0.074 A 
ATOM     60  C   UNL     1      -2.617  12.322   1.412  1.00  0.00     0.029 A 
ATOM     61  N   UNL     1      -1.832  10.674   2.679  1.00  0.00    -0.354 N 
ATOM     62  N   UNL     1      -1.400   9.229   5.162  1.00  0.00    -0.248 NA
ATOM     63  C   UNL     1      -1.577   9.070   7.483  1.00  0.00     0.031 C 
ATOM     64  C   UNL     1      -2.942  12.599   2.744  1.00  0.00     0.029 A 
ATOM     65  C   UNL     1      -2.469  11.564   3.532  1.00  0.00     0.049 A 
ATOM     66  H   UNL     1      -1.394   9.838   2.960  1.00  0.00     0.167 HD
ATOM     67  C   UNL     1      -2.088  10.334   5.644  1.00  0.00     0.074 A 
ATOM     68  C   UNL     1      -2.203  10.165   7.076  1.00  0.00     0.031 C 
ATOM     69  C   UNL     1      -2.583  11.393   4.957  1.00  0.00     0.037 A 
BRANCH  56  70
ATOM     70  C   UNL     1      -1.469  11.129  -1.105  1.00  0.00     0.064 A 
ATOM     71  C   UNL     1      -2.355  10.612  -2.062  1.00  0.00     0.173 A 
ATOM     72  C   UNL     1      -0.772  12.305  -1.417  1.00  0.00     0.173 A 
ATOM     73  F   UNL     1      -3.035   9.483  -1.813  1.00  0.00    -0.203 F 
ATOM     74  C   UNL     1      -2.525  11.241  -3.292  1.00  0.00     0.198 A 
ATOM     75  C   UNL     1      -0.963  12.944  -2.639  1.00  0.00     0.198 A 
ATOM     76  F   UNL     1       0.082  12.839  -0.532  1.00  0.00    -0.203 F 
ATOM     77  F   UNL     1      -3.351  10.712  -4.205  1.00  0.00    -0.200 F 
ATOM     78  C   UNL     1      -1.835  12.410  -3.576  1.00  0.00     0.200 A 
ATOM     79  F   UNL     1      -0.303  14.079  -2.909  1.00  0.00    -0.200 F 
ATOM     80  F   UNL     1      -2.007  13.020  -4.756  1.00  0.00    -0.200 F 
ENDBRANCH  56  70
BRANCH  57  81
ATOM     81  C   UNL     1      -0.243   6.479   7.585  1.00  0.00     0.064 A 
ATOM     82  C   UNL     1      -1.331   5.993   8.325  1.00  0.00     0.173 A 
ATOM     83  C   UNL     1       1.036   6.354   8.146  1.00  0.00     0.173 A 
ATOM     84  F   UNL     1      -2.575   6.111   7.839  1.00  0.00    -0.203 F 
ATOM     85  C   UNL     1      -1.150   5.441   9.591  1.00  0.00     0.198 A 
ATOM     86  C   UNL     1       1.218   5.777   9.401  1.00  0.00     0.198 A 
ATOM     87  F   UNL     1       2.110   6.800   7.478  1.00  0.00    -0.203 F 
ATOM     88  F   UNL     1      -2.212   5.039  10.302  1.00  0.00    -0.200 F 
ATOM     89  C   UNL     1       0.124   5.332  10.127  1.00  0.00     0.200 A 
ATOM     90  F   UNL     1       2.453   5.662   9.910  1.00  0.00    -0.200 F 
ATOM     91  F   UNL     1       0.297   4.809  11.349  1.00  0.00    -0.200 F 
ENDBRANCH  57  81
BRANCH  69  92
ATOM     92  C   UNL     1      -3.317  12.441   5.744  1.00  0.00     0.064 A 
ATOM     93  C   UNL     1      -2.646  13.307   6.620  1.00  0.00     0.173 A 
ATOM     94  C   UNL     1      -4.706  12.591   5.610  1.00  0.00     0.173 A 
ATOM     95  F   UNL     1      -1.321  13.195   6.796  1.00  0.00    -0.203 F 
ATOM     96  C   UNL     1      -3.342  14.262   7.357  1.00  0.00     0.198 A 
ATOM     97  C   UNL     1      -5.395  13.567   6.327  1.00  0.00     0.198 A 
ATOM     98  F   UNL     1      -5.396  11.793   4.782  1.00  0.00    -0.203 F 
ATOM     99  F   UNL     1      -2.687  15.041   8.229  1.00  0.00    -0.200 F 
ATOM    100  C   UNL     1      -4.714  14.395   7.206  1.00  0.00     0.200 A 
ATOM    101  F   UNL     1      -6.719  13.701   6.171  1.00  0.00    -0.200 F 
ATOM    102  F   UNL     1      -5.382  15.314   7.917  1.00  0.00    -0.200 F 
ENDBRANCH  69  92
ENDBRANCH  43  44
ENDBRANCH  36  38
ENDBRANCH  35  36
ENDBRANCH  34  35
ENDBRANCH   1  34
TORSDOF 16
