REMARK SMILES C[C@@H]1[NH2+]CC[C@@H]1C(=O)N1CCC[N@H+](CC(=O)OCCOC(=O)c2ccc(-c3c4nc(c(-c5c(F)c(F)c(F)c(F)c5F)c5ccc([nH]5)c(-c5c(F)c(F)c(F)c(F)c5F)c5nc(c(-c6c(F)c(F)c(F)c(F)c6F)c6ccc3[nH]6)C=C5)C=C4)cc2)CC1
REMARK SMILES IDX 15 1 16 2 14 3 13 4 12 6 11 7 10 8 9 9 7 10 8 11 6 12 1 13
REMARK SMILES IDX 2 14 3 15 4 16 5 19 87 20 86 22 17 24 18 25 19 26 20 27
REMARK SMILES IDX 21 28 22 29 23 30 24 31 85 32 25 33 84 34 26 35 27 36 28 37
REMARK SMILES IDX 78 38 29 39 83 40 77 41 79 42 30 43 82 44 76 45 75 46 31 48
REMARK SMILES IDX 63 49 43 50 62 51 44 52 47 53 61 54 80 55 45 56 46 57 60 59
REMARK SMILES IDX 81 60 48 61 32 62 33 63 41 64 34 65 35 66 39 67 42 68 36 69
REMARK SMILES IDX 37 70 40 71 38 72 64 73 65 74 73 75 66 76 67 77 71 78 74 79
REMARK SMILES IDX 68 80 69 81 72 82 70 83 49 84 50 85 58 86 51 87 52 88 56 89
REMARK SMILES IDX 59 90 53 91 54 92 57 93 55 94
REMARK H PARENT 13 5 3 17 3 18 79 47 47 58
REMARK Flexibility Score: 80.00
ROOT
ATOM      1  C   UNL     1       4.848   1.828  -1.859  1.00  0.00     0.361 C 
ATOM      2  O   UNL     1       5.863   1.185  -1.612  1.00  0.00    -0.245 OA
ENDROOT
BRANCH   1   3
ATOM      3  C   UNL     1       4.718   2.713  -3.092  1.00  0.00     0.386 C 
BRANCH   3   4
ATOM      4  N   UNL     1       3.366   2.898  -3.610  1.00  0.00    -0.324 N 
ATOM      5  H   UNL     1       3.820   3.430  -4.353  1.00  0.00     0.348 HD
BRANCH   4   6
ATOM      6  C   UNL     1       2.738   1.844  -4.367  1.00  0.00     0.264 C 
BRANCH   6   7
ATOM      7  C   UNL     1       1.244   1.678  -4.064  1.00  0.00     0.083 C 
BRANCH   7   8
ATOM      8  C   UNL     1       0.951   1.454  -2.578  1.00  0.00     0.125 C 
BRANCH   8   9
ATOM      9  N   UNL     1       0.845   2.586  -1.659  1.00  0.00    -0.336 N 
BRANCH   9  10
ATOM     10  C   UNL     1       0.473   2.405  -0.303  1.00  0.00     0.232 C 
ATOM     11  O   UNL     1       0.990   3.122   0.571  1.00  0.00    -0.274 OA
BRANCH  10  12
ATOM     12  C   UNL     1      -0.681   1.490   0.195  1.00  0.00     0.142 C 
ATOM     13  C   UNL     1       0.784  -0.045   1.903  1.00  0.00     0.076 C 
ATOM     14  C   UNL     1      -0.529   0.575   1.452  1.00  0.00     0.192 C 
ATOM     15  N   UNL     1      -1.493  -0.529   1.233  1.00  0.00    -0.343 N 
ATOM     16  C   UNL     1      -1.665  -0.655  -0.211  1.00  0.00     0.261 C 
ATOM     17  H   UNL     1      -2.385  -0.309   1.676  1.00  0.00     0.346 HD
ATOM     18  H   UNL     1      -1.151  -1.400   1.640  1.00  0.00     0.346 HD
ATOM     19  C   UNL     1      -1.708   0.785  -0.676  1.00  0.00     0.081 C 
ENDBRANCH  10  12
ENDBRANCH   9  10
BRANCH   9  20
ATOM     20  C   UNL     1       1.646   3.812  -1.919  1.00  0.00     0.180 CG0
ATOM     21  G   UNL     1       2.538   3.999  -3.171  1.00  0.00     0.000 G0
ENDBRANCH   9  20
ENDBRANCH   8   9
ENDBRANCH   7   8
ENDBRANCH   6   7
ENDBRANCH   4   6
BRANCH   4  22
ATOM     22  C   UNL     1       2.538   3.999  -3.171  1.00  0.00     0.284 CG0
ATOM     23  G   UNL     1       1.646   3.812  -1.919  1.00  0.00     0.000 G0
ENDBRANCH   4  22
ENDBRANCH   3   4
ENDBRANCH   1   3
BRANCH   1  24
ATOM     24  O   UNL     1       3.764   1.888  -1.052  1.00  0.00    -0.458 OA
BRANCH  24  25
ATOM     25  C   UNL     1       3.811   1.135   0.167  1.00  0.00     0.274 C 
BRANCH  25  26
ATOM     26  C   UNL     1       3.267  -0.272  -0.030  1.00  0.00     0.275 C 
BRANCH  26  27
ATOM     27  O   UNL     1       4.093  -1.025  -0.913  1.00  0.00    -0.458 OA
BRANCH  27  28
ATOM     28  C   UNL     1       3.531  -1.331  -2.086  1.00  0.00     0.338 C 
ATOM     29  O   UNL     1       2.407  -1.091  -2.525  1.00  0.00    -0.246 OA
BRANCH  28  30
ATOM     30  C   UNL     1       4.401  -2.206  -2.810  1.00  0.00     0.060 A 
ATOM     31  C   UNL     1       5.401  -1.680  -3.625  1.00  0.00     0.016 A 
ATOM     32  C   UNL     1       4.051  -3.557  -2.775  1.00  0.00     0.016 A 
ATOM     33  C   UNL     1       6.049  -2.550  -4.472  1.00  0.00     0.010 A 
ATOM     34  C   UNL     1       4.729  -4.430  -3.587  1.00  0.00     0.010 A 
ATOM     35  C   UNL     1       5.714  -3.916  -4.438  1.00  0.00    -0.014 A 
BRANCH  35  36
ATOM     36  C   UNL     1       6.509  -4.845  -5.229  1.00  0.00     0.031 A 
ATOM     37  C   UNL     1       5.949  -5.412  -6.482  1.00  0.00     0.074 A 
ATOM     38  C   UNL     1       7.736  -5.097  -4.749  1.00  0.00     0.049 A 
ATOM     39  N   UNL     1       6.524  -6.200  -7.344  1.00  0.00    -0.248 NA
ATOM     40  C   UNL     1       4.556  -5.063  -6.809  1.00  0.00     0.031 C 
ATOM     41  C   UNL     1       8.266  -4.550  -3.493  1.00  0.00     0.029 A 
ATOM     42  N   UNL     1       8.764  -5.825  -5.258  1.00  0.00    -0.354 N 
ATOM     43  C   UNL     1       5.565  -6.454  -8.311  1.00  0.00     0.074 A 
ATOM     44  C   UNL     1       4.361  -5.753  -7.924  1.00  0.00     0.031 C 
ATOM     45  C   UNL     1       9.551  -4.901  -3.370  1.00  0.00     0.029 A 
ATOM     46  C   UNL     1       9.905  -5.742  -4.502  1.00  0.00     0.049 A 
ATOM     47  H   UNL     1       8.696  -6.357  -6.084  1.00  0.00     0.167 HD
ATOM     48  C   UNL     1       5.711  -7.219  -9.416  1.00  0.00     0.037 A 
ATOM     49  C   UNL     1      11.105  -6.296  -4.726  1.00  0.00     0.037 A 
ATOM     50  C   UNL     1       6.945  -7.898  -9.722  1.00  0.00     0.049 A 
ATOM     51  C   UNL     1      11.242  -7.104  -5.981  1.00  0.00     0.074 A 
ATOM     52  C   UNL     1       7.246  -8.725 -10.785  1.00  0.00     0.029 A 
ATOM     53  N   UNL     1       8.094  -7.816  -8.937  1.00  0.00    -0.354 N 
ATOM     54  N   UNL     1      10.338  -7.346  -6.904  1.00  0.00    -0.248 NA
ATOM     55  C   UNL     1      12.546  -7.715  -6.229  1.00  0.00     0.031 C 
ATOM     56  C   UNL     1       8.564  -9.172 -10.622  1.00  0.00     0.029 A 
ATOM     57  C   UNL     1       9.104  -8.586  -9.485  1.00  0.00     0.049 A 
ATOM     58  H   UNL     1       8.175  -7.286  -8.111  1.00  0.00     0.167 HD
ATOM     59  C   UNL     1      10.956  -8.147  -7.844  1.00  0.00     0.074 A 
ATOM     60  C   UNL     1      12.331  -8.308  -7.395  1.00  0.00     0.031 C 
ATOM     61  C   UNL     1      10.445  -8.717  -8.965  1.00  0.00     0.037 A 
BRANCH  48  62
ATOM     62  C   UNL     1       4.516  -7.387 -10.308  1.00  0.00     0.064 A 
ATOM     63  C   UNL     1       4.009  -6.329 -11.079  1.00  0.00     0.173 A 
ATOM     64  C   UNL     1       3.851  -8.621 -10.380  1.00  0.00     0.173 A 
ATOM     65  F   UNL     1       4.587  -5.119 -11.029  1.00  0.00    -0.203 F 
ATOM     66  C   UNL     1       2.871  -6.493 -11.869  1.00  0.00     0.198 A 
ATOM     67  C   UNL     1       2.729  -8.789 -11.190  1.00  0.00     0.198 A 
ATOM     68  F   UNL     1       4.282  -9.664  -9.656  1.00  0.00    -0.203 F 
ATOM     69  F   UNL     1       2.376  -5.453 -12.555  1.00  0.00    -0.200 F 
ATOM     70  C   UNL     1       2.236  -7.724 -11.927  1.00  0.00     0.200 A 
ATOM     71  F   UNL     1       2.117  -9.980 -11.245  1.00  0.00    -0.200 F 
ATOM     72  F   UNL     1       1.140  -7.880 -12.684  1.00  0.00    -0.200 F 
ENDBRANCH  48  62
BRANCH  49  73
ATOM     73  C   UNL     1      12.211  -6.070  -3.764  1.00  0.00     0.064 A 
ATOM     74  C   UNL     1      13.332  -5.307  -4.112  1.00  0.00     0.173 A 
ATOM     75  C   UNL     1      12.132  -6.543  -2.444  1.00  0.00     0.173 A 
ATOM     76  F   UNL     1      13.456  -4.828  -5.359  1.00  0.00    -0.203 F 
ATOM     77  C   UNL     1      14.336  -5.036  -3.183  1.00  0.00     0.198 A 
ATOM     78  C   UNL     1      13.118  -6.245  -1.507  1.00  0.00     0.198 A 
ATOM     79  F   UNL     1      11.068  -7.260  -2.050  1.00  0.00    -0.203 F 
ATOM     80  F   UNL     1      15.411  -4.326  -3.550  1.00  0.00    -0.200 F 
ATOM     81  C   UNL     1      14.223  -5.497  -1.880  1.00  0.00     0.200 A 
ATOM     82  F   UNL     1      12.988  -6.667  -0.242  1.00  0.00    -0.200 F 
ATOM     83  F   UNL     1      15.179  -5.219  -0.982  1.00  0.00    -0.200 F 
ENDBRANCH  49  73
BRANCH  61  84
ATOM     84  C   UNL     1      11.401  -9.562  -9.746  1.00  0.00     0.064 A 
ATOM     85  C   UNL     1      11.816 -10.816  -9.273  1.00  0.00     0.173 A 
ATOM     86  C   UNL     1      11.909  -9.108 -10.969  1.00  0.00     0.173 A 
ATOM     87  F   UNL     1      11.367 -11.276  -8.095  1.00  0.00    -0.203 F 
ATOM     88  C   UNL     1      12.745 -11.568  -9.981  1.00  0.00     0.198 A 
ATOM     89  C   UNL     1      12.813  -9.878 -11.691  1.00  0.00     0.198 A 
ATOM     90  F   UNL     1      11.533  -7.917 -11.459  1.00  0.00    -0.203 F 
ATOM     91  F   UNL     1      13.183 -12.730  -9.480  1.00  0.00    -0.200 F 
ATOM     92  C   UNL     1      13.239 -11.101 -11.191  1.00  0.00     0.200 A 
ATOM     93  F   UNL     1      13.283  -9.432 -12.863  1.00  0.00    -0.200 F 
ATOM     94  F   UNL     1      14.139 -11.824 -11.869  1.00  0.00    -0.200 F 
ENDBRANCH  61  84
ENDBRANCH  35  36
ENDBRANCH  28  30
ENDBRANCH  27  28
ENDBRANCH  26  27
ENDBRANCH  25  26
ENDBRANCH  24  25
ENDBRANCH   1  24
TORSDOF 14
