REMARK SMILES C[C@H](C(=O)OCCOC(=O)c1ccc(-c2c3nc(c(-c4c(F)c(F)c(F)c(F)c4F)c4ccc([nH]4)c(-c4c(F)c(F)c(F)c(F)c4F)c4nc(c(-c5c(F)c(F)c(F)c(F)c5F)c5ccc2[nH]5)C=C4)C=C3)cc1)c1ccc2c(c1)OCCO2
REMARK SMILES IDX 7 1 6 2 5 3 3 4 4 5 2 6 1 7 74 8 75 9 79 10 76 11 78 12
REMARK SMILES IDX 77 13 80 14 83 15 81 16 82 17 8 18 9 19 10 20 11 21 12 22
REMARK SMILES IDX 73 23 13 24 72 25 14 26 15 27 16 28 66 29 17 30 71 31 65 32
REMARK SMILES IDX 67 33 18 34 70 35 64 36 63 37 19 39 51 40 31 41 50 42 32 43
REMARK SMILES IDX 35 44 49 45 68 46 33 47 34 48 48 50 69 51 36 52 20 53 21 54
REMARK SMILES IDX 29 55 22 56 23 57 27 58 30 59 24 60 25 61 28 62 26 63 52 64
REMARK SMILES IDX 53 65 61 66 54 67 55 68 59 69 62 70 56 71 57 72 60 73 58 74
REMARK SMILES IDX 37 75 38 76 46 77 39 78 40 79 44 80 47 81 41 82 42 83 45 84
REMARK SMILES IDX 43 85
REMARK H PARENT 67 38 35 49
REMARK Flexibility Score: inf
ROOT
ATOM      1  C   UNL     1       0.757  -0.891  -2.239  1.00  0.00     0.275 C 
ENDROOT
BRANCH   1   2
ATOM      2  C   UNL     1       1.629  -1.553  -1.174  1.00  0.00     0.274 C 
BRANCH   2   3
ATOM      3  O   UNL     1       1.117  -1.270   0.144  1.00  0.00    -0.462 OA
BRANCH   3   4
ATOM      4  C   UNL     1       1.708  -0.263   0.853  1.00  0.00     0.313 C 
ATOM      5  O   UNL     1       2.690   0.364   0.476  1.00  0.00    -0.252 OA
BRANCH   4   6
ATOM      6  C   UNL     1       1.019  -0.045   2.212  1.00  0.00     0.126 C 
ATOM      7  C   UNL     1       1.392   1.308   2.821  1.00  0.00     0.025 C 
BRANCH   6   8
ATOM      8  C   UNL     1      -0.486  -0.274   2.121  1.00  0.00    -0.030 A 
ATOM      9  C   UNL     1      -1.366   0.677   1.577  1.00  0.00     0.009 A 
ATOM     10  C   UNL     1      -0.969  -1.564   2.397  1.00  0.00     0.055 A 
ATOM     11  C   UNL     1      -2.662   0.312   1.205  1.00  0.00     0.051 A 
ATOM     12  C   UNL     1      -2.240  -1.940   1.981  1.00  0.00     0.161 A 
ATOM     13  C   UNL     1      -3.067  -1.010   1.349  1.00  0.00     0.161 A 
ATOM     14  O   UNL     1      -2.551  -3.266   2.124  1.00  0.00    -0.486 OA
ATOM     15  O   UNL     1      -4.257  -1.373   0.770  1.00  0.00    -0.486 OA
ATOM     16  C   UNL     1      -3.789  -3.627   1.500  1.00  0.00     0.271 C 
ATOM     17  C   UNL     1      -4.133  -2.729   0.321  1.00  0.00     0.271 C 
ENDBRANCH   6   8
ENDBRANCH   4   6
ENDBRANCH   3   4
ENDBRANCH   2   3
ENDBRANCH   1   2
BRANCH   1  18
ATOM     18  O   UNL     1       0.816   0.531  -2.055  1.00  0.00    -0.458 OA
BRANCH  18  19
ATOM     19  C   UNL     1      -0.313   1.213  -2.338  1.00  0.00     0.338 C 
ATOM     20  O   UNL     1      -1.339   0.779  -2.842  1.00  0.00    -0.246 OA
BRANCH  19  21
ATOM     21  C   UNL     1      -0.129   2.622  -1.941  1.00  0.00     0.060 A 
ATOM     22  C   UNL     1       0.465   2.937  -0.717  1.00  0.00     0.016 A 
ATOM     23  C   UNL     1      -0.614   3.639  -2.762  1.00  0.00     0.016 A 
ATOM     24  C   UNL     1       0.514   4.256  -0.276  1.00  0.00     0.010 A 
ATOM     25  C   UNL     1      -0.485   4.971  -2.358  1.00  0.00     0.010 A 
ATOM     26  C   UNL     1       0.053   5.292  -1.098  1.00  0.00    -0.014 A 
BRANCH  26  27
ATOM     27  C   UNL     1       0.090   6.704  -0.634  1.00  0.00     0.031 A 
ATOM     28  C   UNL     1      -1.191   7.482  -0.505  1.00  0.00     0.074 A 
ATOM     29  C   UNL     1       1.263   7.296  -0.336  1.00  0.00     0.049 A 
ATOM     30  N   UNL     1      -1.369   8.765  -0.318  1.00  0.00    -0.248 NA
ATOM     31  C   UNL     1      -2.441   6.713  -0.614  1.00  0.00     0.031 C 
ATOM     32  C   UNL     1       2.574   6.648  -0.370  1.00  0.00     0.029 A 
ATOM     33  N   UNL     1       1.540   8.584   0.053  1.00  0.00    -0.354 N 
ATOM     34  C   UNL     1      -2.743   8.965  -0.344  1.00  0.00     0.074 A 
ATOM     35  C   UNL     1      -3.355   7.672  -0.564  1.00  0.00     0.031 C 
ATOM     36  C   UNL     1       3.512   7.532   0.002  1.00  0.00     0.029 A 
ATOM     37  C   UNL     1       2.881   8.829   0.223  1.00  0.00     0.049 A 
ATOM     38  H   UNL     1       0.845   9.266   0.195  1.00  0.00     0.167 HD
ATOM     39  C   UNL     1      -3.429  10.123  -0.200  1.00  0.00     0.037 A 
ATOM     40  C   UNL     1       3.534   9.977   0.483  1.00  0.00     0.037 A 
ATOM     41  C   UNL     1      -2.819  11.399   0.072  1.00  0.00     0.049 A 
ATOM     42  C   UNL     1       2.752  11.254   0.617  1.00  0.00     0.074 A 
ATOM     43  C   UNL     1      -3.429  12.629   0.248  1.00  0.00     0.029 A 
ATOM     44  N   UNL     1      -1.456  11.604   0.226  1.00  0.00    -0.354 N 
ATOM     45  N   UNL     1       1.458  11.443   0.535  1.00  0.00    -0.248 NA
ATOM     46  C   UNL     1       3.525  12.480   0.862  1.00  0.00     0.031 C 
ATOM     47  C   UNL     1      -2.433  13.583   0.480  1.00  0.00     0.029 A 
ATOM     48  C   UNL     1      -1.206  12.941   0.486  1.00  0.00     0.049 A 
ATOM     49  H   UNL     1      -0.768  10.902   0.159  1.00  0.00     0.167 HD
ATOM     50  C   UNL     1       1.259  12.803   0.727  1.00  0.00     0.074 A 
ATOM     51  C   UNL     1       2.564  13.389   0.951  1.00  0.00     0.031 C 
ATOM     52  C   UNL     1       0.100  13.504   0.712  1.00  0.00     0.037 A 
BRANCH  39  53
ATOM     53  C   UNL     1      -4.919  10.073  -0.363  1.00  0.00     0.064 A 
ATOM     54  C   UNL     1      -5.754   9.519   0.617  1.00  0.00     0.173 A 
ATOM     55  C   UNL     1      -5.521  10.626  -1.504  1.00  0.00     0.173 A 
ATOM     56  F   UNL     1      -5.226   8.965   1.719  1.00  0.00    -0.203 F 
ATOM     57  C   UNL     1      -7.137   9.502   0.451  1.00  0.00     0.198 A 
ATOM     58  C   UNL     1      -6.905  10.629  -1.655  1.00  0.00     0.198 A 
ATOM     59  F   UNL     1      -4.766  11.172  -2.470  1.00  0.00    -0.203 F 
ATOM     60  F   UNL     1      -7.915   8.932   1.382  1.00  0.00    -0.200 F 
ATOM     61  C   UNL     1      -7.711  10.063  -0.680  1.00  0.00     0.200 A 
ATOM     62  F   UNL     1      -7.458  11.181  -2.744  1.00  0.00    -0.200 F 
ATOM     63  F   UNL     1      -9.043  10.052  -0.834  1.00  0.00    -0.200 F 
ENDBRANCH  39  53
BRANCH  40  64
ATOM     64  C   UNL     1       5.016   9.975   0.594  1.00  0.00     0.064 A 
ATOM     65  C   UNL     1       5.646  10.196   1.826  1.00  0.00     0.173 A 
ATOM     66  C   UNL     1       5.830   9.747  -0.526  1.00  0.00     0.173 A 
ATOM     67  F   UNL     1       4.910  10.445   2.919  1.00  0.00    -0.203 F 
ATOM     68  C   UNL     1       7.035  10.198   1.931  1.00  0.00     0.198 A 
ATOM     69  C   UNL     1       7.218   9.721  -0.413  1.00  0.00     0.198 A 
ATOM     70  F   UNL     1       5.274   9.533  -1.727  1.00  0.00    -0.203 F 
ATOM     71  F   UNL     1       7.614  10.451   3.113  1.00  0.00    -0.200 F 
ATOM     72  C   UNL     1       7.820   9.953   0.814  1.00  0.00     0.200 A 
ATOM     73  F   UNL     1       7.971   9.472  -1.493  1.00  0.00    -0.200 F 
ATOM     74  F   UNL     1       9.155   9.947   0.918  1.00  0.00    -0.200 F 
ENDBRANCH  40  64
BRANCH  52  75
ATOM     75  C   UNL     1       0.191  14.977   0.971  1.00  0.00     0.064 A 
ATOM     76  C   UNL     1       0.674  15.864  -0.002  1.00  0.00     0.173 A 
ATOM     77  C   UNL     1      -0.241  15.511   2.195  1.00  0.00     0.173 A 
ATOM     78  F   UNL     1       1.114  15.398  -1.180  1.00  0.00    -0.203 F 
ATOM     79  C   UNL     1       0.742  17.231   0.250  1.00  0.00     0.198 A 
ATOM     80  C   UNL     1      -0.194  16.881   2.433  1.00  0.00     0.198 A 
ATOM     81  F   UNL     1      -0.716  14.703   3.155  1.00  0.00    -0.203 F 
ATOM     82  F   UNL     1       1.246  18.057  -0.678  1.00  0.00    -0.200 F 
ATOM     83  C   UNL     1       0.303  17.739   1.464  1.00  0.00     0.200 A 
ATOM     84  F   UNL     1      -0.626  17.371   3.603  1.00  0.00    -0.200 F 
ATOM     85  F   UNL     1       0.366  19.056   1.702  1.00  0.00    -0.200 F 
ENDBRANCH  52  75
ENDBRANCH  26  27
ENDBRANCH  19  21
ENDBRANCH  18  19
ENDBRANCH   1  18
TORSDOF 12
