REMARK SMILES O=C(OCCOC(=O)c1ccc(N2C(=O)[C@@H]3N=NC(c4ccccc4)=C3[C@H]2c2cccc(Br)c2)cc1)c1ccc(-c2c3nc(c(-c4c(F)c(F)c(F)c(F)c4F)c4ccc([nH]4)c(-c4c(F)c(F)c(F)c(F)c4F)c4nc(c(-c5c(F)c(F)c(F)c(F)c5F)c5ccc2[nH]5)C=C4)C=C3)cc1
REMARK SMILES IDX 4 1 3 2 2 3 1 4 37 5 38 6 99 7 39 8 98 9 40 10 41 11 42 12
REMARK SMILES IDX 92 13 43 14 97 15 91 16 93 17 44 18 96 19 90 20 89 21 45 23
REMARK SMILES IDX 77 24 57 25 76 26 58 27 61 28 75 29 94 30 59 31 60 32 74 34
REMARK SMILES IDX 95 35 62 36 46 37 47 38 55 39 48 40 49 41 53 42 56 43 50 44
REMARK SMILES IDX 51 45 54 46 52 47 78 48 79 49 87 50 80 51 81 52 85 53 88 54
REMARK SMILES IDX 82 55 83 56 86 57 84 58 63 59 64 60 72 61 65 62 66 63 70 64
REMARK SMILES IDX 73 65 67 66 68 67 71 68 69 69 5 70 6 71 7 72 8 73 9 74 10 75
REMARK SMILES IDX 36 76 11 77 35 78 12 79 13 80 14 81 27 82 16 83 15 84 26 85
REMARK SMILES IDX 17 86 19 87 18 88 28 89 29 90 34 91 30 92 32 93 31 94 33 95
REMARK SMILES IDX 20 96 21 97 25 98 22 99 24 100 23 101
REMARK H PARENT 93 22 61 33
REMARK Flexibility Score: inf
ROOT
ATOM      1  C   UNL     1       4.621  -0.171   0.895  1.00  0.00     0.275 C 
ENDROOT
BRANCH   1   2
ATOM      2  O   UNL     1       3.462   0.632   1.200  1.00  0.00    -0.458 OA
BRANCH   2   3
ATOM      3  C   UNL     1       2.361   0.507   0.427  1.00  0.00     0.338 C 
ATOM      4  O   UNL     1       1.488  -0.331   0.585  1.00  0.00    -0.246 OA
BRANCH   3   5
ATOM      5  C   UNL     1       2.234   1.640  -0.516  1.00  0.00     0.060 A 
ATOM      6  C   UNL     1       3.355   2.327  -0.991  1.00  0.00     0.016 A 
ATOM      7  C   UNL     1       0.952   2.007  -0.945  1.00  0.00     0.016 A 
ATOM      8  C   UNL     1       3.190   3.411  -1.838  1.00  0.00     0.010 A 
ATOM      9  C   UNL     1       0.789   3.087  -1.808  1.00  0.00     0.010 A 
ATOM     10  C   UNL     1       1.906   3.811  -2.226  1.00  0.00    -0.014 A 
BRANCH  10  11
ATOM     11  C   UNL     1       1.812   4.949  -3.139  1.00  0.00     0.031 A 
ATOM     12  C   UNL     1       2.538   4.806  -4.434  1.00  0.00     0.074 A 
ATOM     13  C   UNL     1       1.054   6.043  -2.934  1.00  0.00     0.049 A 
ATOM     14  N   UNL     1       3.541   5.491  -4.882  1.00  0.00    -0.248 NA
ATOM     15  C   UNL     1       2.120   3.712  -5.312  1.00  0.00     0.031 C 
ATOM     16  C   UNL     1       0.043   6.284  -1.908  1.00  0.00     0.029 A 
ATOM     17  N   UNL     1       0.997   7.170  -3.700  1.00  0.00    -0.354 N 
ATOM     18  C   UNL     1       3.801   5.004  -6.164  1.00  0.00     0.074 A 
ATOM     19  C   UNL     1       2.970   3.847  -6.331  1.00  0.00     0.031 C 
ATOM     20  C   UNL     1      -0.666   7.390  -2.235  1.00  0.00     0.029 A 
ATOM     21  C   UNL     1      -0.064   8.008  -3.406  1.00  0.00     0.049 A 
ATOM     22  H   UNL     1       1.656   7.370  -4.404  1.00  0.00     0.167 HD
ATOM     23  C   UNL     1       4.562   5.686  -7.066  1.00  0.00     0.037 A 
ATOM     24  C   UNL     1      -0.442   9.105  -4.106  1.00  0.00     0.037 A 
ATOM     25  C   UNL     1       5.378   6.677  -6.422  1.00  0.00     0.049 A 
ATOM     26  C   UNL     1       0.714   9.545  -4.926  1.00  0.00     0.074 A 
ATOM     27  C   UNL     1       6.354   6.640  -5.444  1.00  0.00     0.029 A 
ATOM     28  N   UNL     1       5.000   7.994  -6.506  1.00  0.00    -0.354 N 
ATOM     29  N   UNL     1       1.793  10.087  -4.438  1.00  0.00    -0.248 NA
ATOM     30  C   UNL     1       0.839   9.008  -6.273  1.00  0.00     0.031 C 
ATOM     31  C   UNL     1       6.107   7.795  -4.644  1.00  0.00     0.029 A 
ATOM     32  C   UNL     1       5.044   8.484  -5.227  1.00  0.00     0.049 A 
ATOM     33  H   UNL     1       4.749   8.486  -7.320  1.00  0.00     0.167 HD
ATOM     34  C   UNL     1       2.822   9.574  -5.212  1.00  0.00     0.074 A 
ATOM     35  C   UNL     1       2.169   9.004  -6.386  1.00  0.00     0.031 C 
ATOM     36  C   UNL     1       4.078   9.415  -4.702  1.00  0.00     0.037 A 
BRANCH  23  37
ATOM     37  C   UNL     1       4.340   5.681  -8.561  1.00  0.00     0.064 A 
ATOM     38  C   UNL     1       5.276   6.326  -9.399  1.00  0.00     0.173 A 
ATOM     39  C   UNL     1       3.110   5.352  -9.169  1.00  0.00     0.173 A 
ATOM     40  F   UNL     1       6.477   6.694  -8.928  1.00  0.00    -0.203 F 
ATOM     41  C   UNL     1       4.963   6.699 -10.709  1.00  0.00     0.198 A 
ATOM     42  C   UNL     1       2.822   5.676 -10.495  1.00  0.00     0.198 A 
ATOM     43  F   UNL     1       2.097   4.814  -8.480  1.00  0.00    -0.203 F 
ATOM     44  F   UNL     1       5.832   7.432 -11.418  1.00  0.00    -0.200 F 
ATOM     45  C   UNL     1       3.732   6.382 -11.253  1.00  0.00     0.200 A 
ATOM     46  F   UNL     1       1.619   5.372 -11.002  1.00  0.00    -0.200 F 
ATOM     47  F   UNL     1       3.404   6.798 -12.482  1.00  0.00    -0.200 F 
ENDBRANCH  23  37
BRANCH  24  48
ATOM     48  C   UNL     1      -1.797   9.662  -4.302  1.00  0.00     0.064 A 
ATOM     49  C   UNL     1      -1.981  10.980  -4.749  1.00  0.00     0.173 A 
ATOM     50  C   UNL     1      -2.928   8.825  -4.327  1.00  0.00     0.173 A 
ATOM     51  F   UNL     1      -0.945  11.830  -4.793  1.00  0.00    -0.203 F 
ATOM     52  C   UNL     1      -3.218  11.425  -5.225  1.00  0.00     0.198 A 
ATOM     53  C   UNL     1      -4.163   9.272  -4.796  1.00  0.00     0.198 A 
ATOM     54  F   UNL     1      -2.833   7.531  -3.990  1.00  0.00    -0.203 F 
ATOM     55  F   UNL     1      -3.340  12.670  -5.706  1.00  0.00    -0.200 F 
ATOM     56  C   UNL     1      -4.304  10.567  -5.259  1.00  0.00     0.200 A 
ATOM     57  F   UNL     1      -5.199   8.423  -4.855  1.00  0.00    -0.200 F 
ATOM     58  F   UNL     1      -5.473  10.973  -5.775  1.00  0.00    -0.200 F 
ENDBRANCH  24  48
BRANCH  36  59
ATOM     59  C   UNL     1       4.394  10.049  -3.378  1.00  0.00     0.064 A 
ATOM     60  C   UNL     1       3.709   9.767  -2.183  1.00  0.00     0.173 A 
ATOM     61  C   UNL     1       5.525  10.873  -3.293  1.00  0.00     0.173 A 
ATOM     62  F   UNL     1       2.690   8.899  -2.155  1.00  0.00    -0.203 F 
ATOM     63  C   UNL     1       4.106  10.335  -0.973  1.00  0.00     0.198 A 
ATOM     64  C   UNL     1       5.944  11.403  -2.077  1.00  0.00     0.198 A 
ATOM     65  F   UNL     1       6.256  11.130  -4.390  1.00  0.00    -0.203 F 
ATOM     66  F   UNL     1       3.422  10.070   0.150  1.00  0.00    -0.200 F 
ATOM     67  C   UNL     1       5.226  11.147  -0.921  1.00  0.00     0.200 A 
ATOM     68  F   UNL     1       7.061  12.142  -2.022  1.00  0.00    -0.200 F 
ATOM     69  F   UNL     1       5.631  11.660   0.249  1.00  0.00    -0.200 F 
ENDBRANCH  36  59
ENDBRANCH  10  11
ENDBRANCH   3   5
ENDBRANCH   2   3
ENDBRANCH   1   2
BRANCH   1  70
ATOM     70  C   UNL     1       4.388  -1.506   0.188  1.00  0.00     0.275 C 
BRANCH  70  71
ATOM     71  O   UNL     1       3.891  -1.296  -1.149  1.00  0.00    -0.458 OA
BRANCH  71  72
ATOM     72  C   UNL     1       2.907  -2.150  -1.529  1.00  0.00     0.338 C 
ATOM     73  O   UNL     1       2.433  -3.075  -0.896  1.00  0.00    -0.246 OA
BRANCH  72  74
ATOM     74  C   UNL     1       2.491  -1.832  -2.903  1.00  0.00     0.060 A 
ATOM     75  C   UNL     1       1.345  -1.070  -3.132  1.00  0.00     0.018 A 
ATOM     76  C   UNL     1       3.204  -2.375  -3.973  1.00  0.00     0.018 A 
ATOM     77  C   UNL     1       0.921  -0.840  -4.447  1.00  0.00     0.027 A 
ATOM     78  C   UNL     1       2.761  -2.163  -5.284  1.00  0.00     0.027 A 
ATOM     79  C   UNL     1       1.610  -1.409  -5.530  1.00  0.00     0.045 A 
BRANCH  79  80
ATOM     80  N   UNL     1       1.184  -1.155  -6.859  1.00  0.00    -0.299 N 
ATOM     81  C   UNL     1       1.036   0.188  -7.289  1.00  0.00     0.259 C 
ATOM     82  C   UNL     1       0.229  -2.039  -7.557  1.00  0.00     0.152 C 
ATOM     83  C   UNL     1      -0.012   0.226  -8.365  1.00  0.00     0.248 C 
ATOM     84  O   UNL     1       1.642   1.154  -6.849  1.00  0.00    -0.271 OA
ATOM     85  C   UNL     1      -0.752  -0.978  -7.916  1.00  0.00     0.021 C 
ATOM     86  N   UNL     1      -1.008   1.293  -8.227  1.00  0.00    -0.170 NA
ATOM     87  C   UNL     1      -2.005  -0.575  -7.699  1.00  0.00     0.097 C 
ATOM     88  N   UNL     1      -2.134   0.774  -7.980  1.00  0.00    -0.154 NA
BRANCH  82  89
ATOM     89  C   UNL     1       0.862  -2.667  -8.819  1.00  0.00    -0.020 A 
ATOM     90  C   UNL     1       0.257  -2.552 -10.091  1.00  0.00     0.006 A 
ATOM     91  C   UNL     1       2.098  -3.332  -8.763  1.00  0.00     0.022 A 
ATOM     92  C   UNL     1       0.907  -2.971 -11.257  1.00  0.00     0.002 A 
ATOM     93  C   UNL     1       2.741  -3.762  -9.931  1.00  0.00     0.018 A 
ATOM     94  C   UNL     1       2.161  -3.564 -11.180  1.00  0.00     0.016 A 
ATOM     95  Br  UNL     1       4.434  -4.600  -9.819  1.00  0.00    -0.051 Br
ENDBRANCH  82  89
BRANCH  87  96
ATOM     96  C   UNL     1      -3.111  -1.196  -6.969  1.00  0.00     0.002 A 
ATOM     97  C   UNL     1      -4.163  -1.811  -7.656  1.00  0.00     0.010 A 
ATOM     98  C   UNL     1      -3.266  -0.896  -5.606  1.00  0.00     0.010 A 
ATOM     99  C   UNL     1      -5.376  -2.061  -7.003  1.00  0.00     0.001 A 
ATOM    100  C   UNL     1      -4.478  -1.143  -4.959  1.00  0.00     0.001 A 
ATOM    101  C   UNL     1      -5.539  -1.706  -5.663  1.00  0.00     0.000 A 
ENDBRANCH  87  96
ENDBRANCH  79  80
ENDBRANCH  72  74
ENDBRANCH  71  72
ENDBRANCH  70  71
ENDBRANCH   1  70
TORSDOF 14
