REMARK SMILES Cc1cccc(C[C@H](C(=O)OCCOC(=O)c2ccc(-c3c4nc(c(-c5c(F)c(F)c(F)c(F)c5F)c5ccc([nH]5)c(-c5c(F)c(F)c(F)c(F)c5F)c5nc(c(-c6c(F)c(F)c(F)c(F)c6F)c6ccc3[nH]6)C=C5)C=C4)cc2)[C@@H]2CCCC[C@@H]2O)c1
REMARK SMILES IDX 12 1 11 2 9 3 10 4 8 5 7 6 6 7 1 8 2 9 3 10 87 11 4 12 5 13
REMARK SMILES IDX 80 14 81 15 85 16 82 17 84 18 83 19 86 20 13 22 14 23 15 24
REMARK SMILES IDX 16 25 17 26 18 27 79 28 19 29 78 30 20 31 21 32 22 33 72 34
REMARK SMILES IDX 23 35 77 36 71 37 73 38 24 39 76 40 70 41 69 42 25 44 57 45
REMARK SMILES IDX 37 46 56 47 38 48 41 49 55 50 74 51 39 52 40 53 54 55 75 56
REMARK SMILES IDX 42 57 26 58 27 59 35 60 28 61 29 62 33 63 36 64 30 65 31 66
REMARK SMILES IDX 34 67 32 68 58 69 59 70 67 71 60 72 61 73 65 74 68 75 62 76
REMARK SMILES IDX 63 77 66 78 64 79 43 80 44 81 52 82 45 83 46 84 50 85 53 86
REMARK SMILES IDX 47 87 48 88 51 89 49 90
REMARK H PARENT 86 21 73 43 41 54
REMARK Flexibility Score: inf
ROOT
ATOM      1  C   UNL     1      -0.778   2.561   0.896  1.00  0.00     0.274 C 
ENDROOT
BRANCH   1   2
ATOM      2  O   UNL     1      -2.041   2.894   0.287  1.00  0.00    -0.462 OA
BRANCH   2   3
ATOM      3  C   UNL     1      -2.447   4.179   0.157  1.00  0.00     0.309 C 
ATOM      4  O   UNL     1      -1.877   5.128   0.672  1.00  0.00    -0.252 OA
BRANCH   3   5
ATOM      5  C   UNL     1      -3.584   4.301  -0.885  1.00  0.00     0.109 C 
BRANCH   5   6
ATOM      6  C   UNL     1      -4.584   5.404  -0.360  1.00  0.00     0.051 C 
BRANCH   6   7
ATOM      7  C   UNL     1      -5.793   5.962  -1.095  1.00  0.00    -0.047 A 
ATOM      8  C   UNL     1      -8.642   8.506  -0.570  1.00  0.00     0.044 C 
ATOM      9  C   UNL     1      -7.684   7.538  -1.203  1.00  0.00    -0.051 A 
ATOM     10  C   UNL     1      -7.863   7.232  -2.553  1.00  0.00     0.003 A 
ATOM     11  C   UNL     1      -6.629   6.927  -0.490  1.00  0.00     0.007 A 
ATOM     12  C   UNL     1      -7.098   6.238  -3.135  1.00  0.00     0.001 A 
ATOM     13  C   UNL     1      -6.130   5.577  -2.379  1.00  0.00     0.004 A 
ENDBRANCH   6   7
ENDBRANCH   5   6
BRANCH   5  14
ATOM     14  C   UNL     1      -2.728   4.414  -2.192  1.00  0.00     0.032 C 
ATOM     15  C   UNL     1      -1.972   5.733  -2.358  1.00  0.00     0.007 C 
ATOM     16  C   UNL     1      -3.256   3.904  -3.542  1.00  0.00     0.118 C 
ATOM     17  C   UNL     1      -2.838   6.801  -2.974  1.00  0.00     0.001 C 
ATOM     18  C   UNL     1      -3.783   4.942  -4.540  1.00  0.00     0.032 C 
ATOM     19  C   UNL     1      -3.318   6.393  -4.358  1.00  0.00     0.003 C 
BRANCH  16  20
ATOM     20  O   UNL     1      -4.109   2.770  -3.410  1.00  0.00    -0.393 OA
ATOM     21  H   UNL     1      -4.935   3.035  -2.976  1.00  0.00     0.210 HD
ENDBRANCH  16  20
ENDBRANCH   5  14
ENDBRANCH   3   5
ENDBRANCH   2   3
ENDBRANCH   1   2
BRANCH   1  22
ATOM     22  C   UNL     1      -0.125   3.325   2.086  1.00  0.00     0.275 C 
BRANCH  22  23
ATOM     23  O   UNL     1      -0.769   4.238   3.029  1.00  0.00    -0.458 OA
BRANCH  23  24
ATOM     24  C   UNL     1      -2.050   4.452   3.392  1.00  0.00     0.338 C 
ATOM     25  O   UNL     1      -2.442   5.485   3.923  1.00  0.00    -0.246 OA
BRANCH  24  26
ATOM     26  C   UNL     1      -2.987   3.376   3.099  1.00  0.00     0.060 A 
ATOM     27  C   UNL     1      -4.269   3.669   2.606  1.00  0.00     0.016 A 
ATOM     28  C   UNL     1      -2.501   2.081   3.162  1.00  0.00     0.016 A 
ATOM     29  C   UNL     1      -5.041   2.648   2.075  1.00  0.00     0.010 A 
ATOM     30  C   UNL     1      -3.139   1.128   2.425  1.00  0.00     0.010 A 
ATOM     31  C   UNL     1      -4.444   1.390   1.983  1.00  0.00    -0.014 A 
BRANCH  31  32
ATOM     32  C   UNL     1      -5.213   0.165   2.002  1.00  0.00     0.031 A 
ATOM     33  C   UNL     1      -5.564  -0.499   0.748  1.00  0.00     0.074 A 
ATOM     34  C   UNL     1      -5.308  -0.270   3.285  1.00  0.00     0.049 A 
ATOM     35  N   UNL     1      -6.705  -1.043   0.520  1.00  0.00    -0.248 NA
ATOM     36  C   UNL     1      -4.667  -0.568  -0.413  1.00  0.00     0.031 C 
ATOM     37  C   UNL     1      -5.693  -1.516   3.901  1.00  0.00     0.029 A 
ATOM     38  N   UNL     1      -5.053   0.561   4.405  1.00  0.00    -0.354 N 
ATOM     39  C   UNL     1      -6.487  -1.917  -0.523  1.00  0.00     0.074 A 
ATOM     40  C   UNL     1      -5.327  -1.416  -1.218  1.00  0.00     0.031 C 
ATOM     41  C   UNL     1      -6.028  -1.261   5.187  1.00  0.00     0.029 A 
ATOM     42  C   UNL     1      -5.922   0.180   5.413  1.00  0.00     0.049 A 
ATOM     43  H   UNL     1      -4.381   1.279   4.456  1.00  0.00     0.167 HD
ATOM     44  C   UNL     1      -7.067  -3.152  -0.471  1.00  0.00     0.037 A 
ATOM     45  C   UNL     1      -6.917   1.068   5.695  1.00  0.00     0.037 A 
ATOM     46  C   UNL     1      -7.722  -3.319   0.827  1.00  0.00     0.049 A 
ATOM     47  C   UNL     1      -8.222   0.514   5.186  1.00  0.00     0.074 A 
ATOM     48  C   UNL     1      -7.299  -3.948   1.987  1.00  0.00     0.029 A 
ATOM     49  N   UNL     1      -8.741  -2.452   1.205  1.00  0.00    -0.354 N 
ATOM     50  N   UNL     1      -8.335  -0.266   4.143  1.00  0.00    -0.248 NA
ATOM     51  C   UNL     1      -9.478   0.716   5.888  1.00  0.00     0.031 C 
ATOM     52  C   UNL     1      -8.077  -3.457   3.066  1.00  0.00     0.029 A 
ATOM     53  C   UNL     1      -8.934  -2.490   2.573  1.00  0.00     0.049 A 
ATOM     54  H   UNL     1      -9.255  -1.888   0.583  1.00  0.00     0.167 HD
ATOM     55  C   UNL     1      -9.610  -0.766   4.093  1.00  0.00     0.074 A 
ATOM     56  C   UNL     1     -10.287  -0.106   5.198  1.00  0.00     0.031 C 
ATOM     57  C   UNL     1     -10.000  -1.717   3.189  1.00  0.00     0.037 A 
BRANCH  44  58
ATOM     58  C   UNL     1      -6.749  -4.309  -1.392  1.00  0.00     0.064 A 
ATOM     59  C   UNL     1      -6.802  -5.647  -0.938  1.00  0.00     0.173 A 
ATOM     60  C   UNL     1      -6.449  -4.157  -2.759  1.00  0.00     0.173 A 
ATOM     61  F   UNL     1      -7.119  -5.953   0.325  1.00  0.00    -0.203 F 
ATOM     62  C   UNL     1      -6.535  -6.738  -1.767  1.00  0.00     0.198 A 
ATOM     63  C   UNL     1      -6.163  -5.254  -3.586  1.00  0.00     0.198 A 
ATOM     64  F   UNL     1      -6.461  -2.947  -3.336  1.00  0.00    -0.203 F 
ATOM     65  F   UNL     1      -6.603  -7.981  -1.268  1.00  0.00    -0.200 F 
ATOM     66  C   UNL     1      -6.207  -6.543  -3.090  1.00  0.00     0.200 A 
ATOM     67  F   UNL     1      -5.855  -5.055  -4.876  1.00  0.00    -0.200 F 
ATOM     68  F   UNL     1      -5.952  -7.592  -3.883  1.00  0.00    -0.200 F 
ENDBRANCH  44  58
BRANCH  45  69
ATOM     69  C   UNL     1      -6.510   2.523   5.712  1.00  0.00     0.064 A 
ATOM     70  C   UNL     1      -5.328   2.903   6.399  1.00  0.00     0.173 A 
ATOM     71  C   UNL     1      -7.122   3.530   4.953  1.00  0.00     0.173 A 
ATOM     72  F   UNL     1      -4.672   2.005   7.153  1.00  0.00    -0.203 F 
ATOM     73  C   UNL     1      -4.763   4.177   6.284  1.00  0.00     0.198 A 
ATOM     74  C   UNL     1      -6.565   4.818   4.856  1.00  0.00     0.198 A 
ATOM     75  F   UNL     1      -8.233   3.270   4.250  1.00  0.00    -0.203 F 
ATOM     76  F   UNL     1      -3.594   4.444   6.886  1.00  0.00    -0.200 F 
ATOM     77  C   UNL     1      -5.384   5.137   5.511  1.00  0.00     0.200 A 
ATOM     78  F   UNL     1      -7.138   5.735   4.061  1.00  0.00    -0.200 F 
ATOM     79  F   UNL     1      -4.836   6.352   5.365  1.00  0.00    -0.200 F 
ENDBRANCH  45  69
BRANCH  57  80
ATOM     80  C   UNL     1     -11.419  -2.125   2.860  1.00  0.00     0.064 A 
ATOM     81  C   UNL     1     -12.549  -1.354   3.160  1.00  0.00     0.173 A 
ATOM     82  C   UNL     1     -11.675  -3.280   2.069  1.00  0.00     0.173 A 
ATOM     83  F   UNL     1     -12.452  -0.162   3.759  1.00  0.00    -0.203 F 
ATOM     84  C   UNL     1     -13.835  -1.749   2.787  1.00  0.00     0.198 A 
ATOM     85  C   UNL     1     -12.945  -3.615   1.613  1.00  0.00     0.198 A 
ATOM     86  F   UNL     1     -10.702  -4.115   1.678  1.00  0.00    -0.203 F 
ATOM     87  F   UNL     1     -14.886  -1.013   3.172  1.00  0.00    -0.200 F 
ATOM     88  C   UNL     1     -14.031  -2.865   1.998  1.00  0.00     0.200 A 
ATOM     89  F   UNL     1     -13.098  -4.657   0.784  1.00  0.00    -0.200 F 
ATOM     90  F   UNL     1     -15.260  -3.203   1.591  1.00  0.00    -0.200 F 
ENDBRANCH  57  80
ENDBRANCH  31  32
ENDBRANCH  24  26
ENDBRANCH  23  24
ENDBRANCH  22  23
ENDBRANCH   1  22
TORSDOF 15
