REMARK SMILES Cc1cc(CNC(=O)C[C@H](C)CC(=O)OCCOC(=O)c2ccc(-c3c4nc(c(-c5c(F)c(F)c(F)c(F)c5F)c5ccc([nH]5)c(-c5c(F)c(F)c(F)c(F)c5F)c5nc(c(-c6c(F)c(F)c(F)c(F)c6F)c6ccc3[nH]6)C=C5)C=C4)cc2)cc(C)c1F
REMARK SMILES IDX 15 1 13 2 14 3 12 4 10 5 11 6 9 7 7 8 6 9 8 11 5 12 4 13
REMARK SMILES IDX 1 14 2 15 3 16 87 17 85 18 88 19 84 20 86 21 16 22 17 23
REMARK SMILES IDX 18 24 19 25 20 26 21 27 22 28 83 29 23 30 82 31 24 32 25 33
REMARK SMILES IDX 26 34 76 35 27 36 81 37 75 38 77 39 28 40 80 41 74 42 73 43
REMARK SMILES IDX 29 45 61 46 41 47 60 48 42 49 45 50 59 51 78 52 43 53 44 54
REMARK SMILES IDX 58 56 79 57 46 58 30 59 31 60 39 61 32 62 33 63 37 64 40 65
REMARK SMILES IDX 34 66 35 67 38 68 36 69 62 70 63 71 71 72 64 73 65 74 69 75
REMARK SMILES IDX 72 76 66 77 67 78 70 79 68 80 47 81 48 82 56 83 49 84 50 85
REMARK SMILES IDX 54 86 57 87 51 88 52 89 55 90 53 91
REMARK H PARENT 6 10 77 44 45 55
REMARK Flexibility Score: inf
ROOT
ATOM      1  O   UNL     1       4.346  -7.134  -1.592  1.00  0.00    -0.462 OA
ENDROOT
BRANCH   1   2
ATOM      2  C   UNL     1       5.023  -6.570  -0.561  1.00  0.00     0.306 C 
ATOM      3  O   UNL     1       6.246  -6.610  -0.431  1.00  0.00    -0.252 OA
BRANCH   2   4
ATOM      4  C   UNL     1       4.145  -5.914   0.498  1.00  0.00     0.126 C 
BRANCH   4   5
ATOM      5  C   UNL     1       2.821  -5.190   0.137  1.00  0.00     0.006 C 
ATOM      6  C   UNL     1       1.719  -6.206  -0.156  1.00  0.00     0.009 C 
BRANCH   5   7
ATOM      7  C   UNL     1       2.394  -4.210   1.260  1.00  0.00     0.104 C 
BRANCH   7   8
ATOM      8  C   UNL     1       2.227  -2.756   0.824  1.00  0.00     0.220 C 
ATOM      9  N   UNL     1       3.300  -2.030   0.416  1.00  0.00    -0.352 N 
ATOM     10  H   UNL     1       3.117  -1.092   0.182  1.00  0.00     0.163 HD
ATOM     11  O   UNL     1       1.137  -2.185   0.887  1.00  0.00    -0.275 OA
BRANCH   9  12
ATOM     12  C   UNL     1       4.663  -2.451   0.281  1.00  0.00     0.151 C 
BRANCH  12  13
ATOM     13  C   UNL     1       5.022  -2.884  -1.130  1.00  0.00    -0.028 A 
ATOM     14  C   UNL     1       3.461  -3.043  -5.360  1.00  0.00     0.047 C 
ATOM     15  C   UNL     1       4.444  -3.022  -4.234  1.00  0.00    -0.015 A 
ATOM     16  C   UNL     1       3.890  -2.613  -2.544  1.00  0.00     0.012 A 
ATOM     17  C   UNL     1       6.215  -3.416  -4.547  1.00  0.00     0.129 A 
ATOM     18  C   UNL     1       7.377  -3.542  -3.140  1.00  0.00    -0.015 A 
ATOM     19  F   UNL     1       6.678  -3.444  -5.804  1.00  0.00    -0.206 F 
ATOM     20  C   UNL     1       6.743  -3.443  -1.440  1.00  0.00     0.012 A 
ATOM     21  C   UNL     1       8.843  -3.276  -3.336  1.00  0.00     0.047 C 
ENDBRANCH  12  13
ENDBRANCH   9  12
ENDBRANCH   7   8
ENDBRANCH   5   7
ENDBRANCH   4   5
ENDBRANCH   2   4
ENDBRANCH   1   2
BRANCH   1  22
ATOM     22  C   UNL     1       5.153  -7.491  -2.737  1.00  0.00     0.274 C 
BRANCH  22  23
ATOM     23  C   UNL     1       5.185  -6.386  -3.796  1.00  0.00     0.275 C 
BRANCH  23  24
ATOM     24  O   UNL     1       6.037  -5.266  -3.429  1.00  0.00    -0.458 OA
BRANCH  24  25
ATOM     25  C   UNL     1       5.361  -4.097  -2.790  1.00  0.00     0.338 C 
ATOM     26  O   UNL     1       4.384  -4.672  -2.258  1.00  0.00    -0.246 OA
BRANCH  25  27
ATOM     27  C   UNL     1       5.912  -2.031  -2.937  1.00  0.00     0.060 A 
ATOM     28  C   UNL     1       6.480  -1.118  -1.879  1.00  0.00     0.016 A 
ATOM     29  C   UNL     1       5.836  -1.090  -4.152  1.00  0.00     0.016 A 
ATOM     30  C   UNL     1       6.810   0.212  -1.953  1.00  0.00     0.010 A 
ATOM     31  C   UNL     1       6.249   0.222  -4.289  1.00  0.00     0.010 A 
ATOM     32  C   UNL     1       6.741   0.825  -3.175  1.00  0.00    -0.014 A 
BRANCH  32  33
ATOM     33  C   UNL     1       7.234   2.165  -3.217  1.00  0.00     0.031 A 
ATOM     34  C   UNL     1       6.214   3.205  -3.014  1.00  0.00     0.074 A 
ATOM     35  C   UNL     1       8.571   2.231  -3.173  1.00  0.00     0.049 A 
ATOM     36  N   UNL     1       6.397   4.467  -2.819  1.00  0.00    -0.248 NA
ATOM     37  C   UNL     1       4.797   2.777  -3.000  1.00  0.00     0.031 C 
ATOM     38  C   UNL     1       9.472   1.067  -3.279  1.00  0.00     0.029 A 
ATOM     39  N   UNL     1       9.396   3.264  -2.908  1.00  0.00    -0.354 N 
ATOM     40  C   UNL     1       5.129   4.994  -2.682  1.00  0.00     0.074 A 
ATOM     41  C   UNL     1       4.171   3.927  -2.816  1.00  0.00     0.031 C 
ATOM     42  C   UNL     1      10.716   1.447  -2.970  1.00  0.00     0.029 A 
ATOM     43  C   UNL     1      10.706   2.884  -2.764  1.00  0.00     0.049 A 
ATOM     44  H   UNL     1       9.090   4.196  -2.826  1.00  0.00     0.167 HD
ATOM     45  C   UNL     1       4.854   6.294  -2.472  1.00  0.00     0.037 A 
ATOM     46  C   UNL     1      11.763   3.671  -2.520  1.00  0.00     0.037 A 
ATOM     47  C   UNL     1       5.924   7.248  -2.377  1.00  0.00     0.049 A 
ATOM     48  C   UNL     1      11.418   5.125  -2.376  1.00  0.00     0.074 A 
ATOM     49  C   UNL     1       5.866   8.618  -2.287  1.00  0.00     0.029 A 
ATOM     50  N   UNL     1       7.279   6.893  -2.373  1.00  0.00    -0.354 N 
ATOM     51  N   UNL     1      10.222   5.679  -2.331  1.00  0.00    -0.248 NA
ATOM     52  C   UNL     1      12.527   6.068  -2.306  1.00  0.00     0.031 C 
ATOM     53  C   UNL     1       7.183   9.091  -2.286  1.00  0.00     0.029 A 
ATOM     54  C   UNL     1       8.072   8.017  -2.302  1.00  0.00     0.049 A 
ATOM     55  H   UNL     1       7.618   5.969  -2.414  1.00  0.00     0.167 HD
ATOM     56  C   UNL     1      10.422   7.041  -2.254  1.00  0.00     0.074 A 
ATOM     57  C   UNL     1      11.870   7.218  -2.204  1.00  0.00     0.031 C 
ATOM     58  C   UNL     1       9.521   8.058  -2.252  1.00  0.00     0.037 A 
BRANCH  45  59
ATOM     59  C   UNL     1       3.415   6.694  -2.454  1.00  0.00     0.064 A 
ATOM     60  C   UNL     1       2.542   6.306  -1.426  1.00  0.00     0.173 A 
ATOM     61  C   UNL     1       2.878   7.423  -3.525  1.00  0.00     0.173 A 
ATOM     62  F   UNL     1       2.987   5.548  -0.411  1.00  0.00    -0.203 F 
ATOM     63  C   UNL     1       1.188   6.633  -1.470  1.00  0.00     0.198 A 
ATOM     64  C   UNL     1       1.531   7.774  -3.553  1.00  0.00     0.198 A 
ATOM     65  F   UNL     1       3.655   7.774  -4.560  1.00  0.00    -0.203 F 
ATOM     66  F   UNL     1       0.363   6.204  -0.505  1.00  0.00    -0.200 F 
ATOM     67  C   UNL     1       0.686   7.378  -2.527  1.00  0.00     0.200 A 
ATOM     68  F   UNL     1       1.047   8.481  -4.583  1.00  0.00    -0.200 F 
ATOM     69  F   UNL     1      -0.614   7.699  -2.567  1.00  0.00    -0.200 F 
ENDBRANCH  45  59
BRANCH  46  70
ATOM     70  C   UNL     1      13.133   3.099  -2.484  1.00  0.00     0.064 A 
ATOM     71  C   UNL     1      13.930   3.169  -1.336  1.00  0.00     0.173 A 
ATOM     72  C   UNL     1      13.652   2.386  -3.583  1.00  0.00     0.173 A 
ATOM     73  F   UNL     1      13.492   3.832  -0.256  1.00  0.00    -0.203 F 
ATOM     74  C   UNL     1      15.182   2.552  -1.286  1.00  0.00     0.198 A 
ATOM     75  C   UNL     1      14.883   1.738  -3.520  1.00  0.00     0.198 A 
ATOM     76  F   UNL     1      12.935   2.274  -4.712  1.00  0.00    -0.203 F 
ATOM     77  F   UNL     1      15.932   2.651  -0.180  1.00  0.00    -0.200 F 
ATOM     78  C   UNL     1      15.652   1.827  -2.373  1.00  0.00     0.200 A 
ATOM     79  F   UNL     1      15.311   1.013  -4.562  1.00  0.00    -0.200 F 
ATOM     80  F   UNL     1      16.841   1.213  -2.313  1.00  0.00    -0.200 F 
ENDBRANCH  46  70
BRANCH  58  81
ATOM     81  C   UNL     1      10.111   9.425  -2.170  1.00  0.00     0.064 A 
ATOM     82  C   UNL     1      10.757  10.004  -3.270  1.00  0.00     0.173 A 
ATOM     83  C   UNL     1       9.942  10.184  -1.006  1.00  0.00     0.173 A 
ATOM     84  F   UNL     1      10.947   9.296  -4.394  1.00  0.00    -0.203 F 
ATOM     85  C   UNL     1      11.236  11.303  -3.196  1.00  0.00     0.198 A 
ATOM     86  C   UNL     1      10.380  11.498  -0.954  1.00  0.00     0.198 A 
ATOM     87  F   UNL     1       9.313   9.662   0.059  1.00  0.00    -0.203 F 
ATOM     88  F   UNL     1      11.897  11.828  -4.235  1.00  0.00    -0.200 F 
ATOM     89  C   UNL     1      11.034  12.053  -2.045  1.00  0.00     0.200 A 
ATOM     90  F   UNL     1      10.158  12.230   0.145  1.00  0.00    -0.200 F 
ATOM     91  F   UNL     1      11.473  13.316  -1.986  1.00  0.00    -0.200 F 
ENDBRANCH  58  81
ENDBRANCH  32  33
ENDBRANCH  25  27
ENDBRANCH  24  25
ENDBRANCH  23  24
ENDBRANCH  22  23
ENDBRANCH   1  22
TORSDOF 16
