REMARK SMILES CC1(C)[C@@H](C(=O)NCCc2ccccc2)CC[C@@]1(C)C(=O)OCCOC(=O)c1ccc(-c2c3nc(c(-c4c(F)c(F)c(F)c(F)c4F)c4ccc([nH]4)c(-c4c(F)c(F)c(F)c(F)c4F)c4nc(c(-c5c(F)c(F)c(F)c(F)c5F)c5ccc2[nH]5)C=C4)C=C3)cc1
REMARK SMILES IDX 23 1 22 2 20 3 21 4 18 5 1 6 2 7 3 8 4 9 16 10 17 11 19 12
REMARK SMILES IDX 5 13 6 14 7 15 8 17 9 18 10 19 11 20 15 21 12 22 14 23 13 24
REMARK SMILES IDX 24 25 25 26 26 27 27 28 28 29 29 30 90 31 30 32 89 33 31 34
REMARK SMILES IDX 32 35 33 36 83 37 34 38 88 39 82 40 84 41 35 42 87 43 81 44
REMARK SMILES IDX 80 45 36 47 68 48 48 49 67 50 49 51 52 52 66 53 85 54 50 55
REMARK SMILES IDX 51 56 65 58 86 59 53 60 37 61 38 62 46 63 39 64 40 65 44 66
REMARK SMILES IDX 47 67 41 68 42 69 45 70 43 71 69 72 70 73 78 74 71 75 72 76
REMARK SMILES IDX 76 77 79 78 73 79 74 80 77 81 75 82 54 83 55 84 63 85 56 86
REMARK SMILES IDX 57 87 61 88 64 89 58 90 59 91 62 92 60 93
REMARK H PARENT 7 16 84 46 52 57
REMARK Flexibility Score: inf
ROOT
ATOM      1  C   UNL     1       3.047   1.197   2.466  1.00  0.00     0.274 C 
ENDROOT
BRANCH   1   2
ATOM      2  O   UNL     1       2.589   1.199   1.101  1.00  0.00    -0.462 OA
BRANCH   2   3
ATOM      3  C   UNL     1       1.719   2.191   0.766  1.00  0.00     0.312 C 
ATOM      4  O   UNL     1       1.405   3.118   1.504  1.00  0.00    -0.252 OA
BRANCH   3   5
ATOM      5  C   UNL     1       1.225   2.050  -0.693  1.00  0.00     0.071 C 
ATOM      6  C   UNL     1       0.613  -0.475  -0.323  1.00  0.00     0.013 C 
ATOM      7  C   UNL     1       0.198   0.886  -0.908  1.00  0.00    -0.008 C 
ATOM      8  C   UNL     1      -0.021   0.608  -2.429  1.00  0.00     0.013 C 
ATOM      9  C   UNL     1      -1.130   1.478  -0.339  1.00  0.00     0.085 C 
ATOM     10  C   UNL     1      -1.084   2.951  -0.787  1.00  0.00     0.015 C 
ATOM     11  C   UNL     1       0.384   3.305  -1.052  1.00  0.00     0.020 C 
ATOM     12  C   UNL     1       2.463   1.981  -1.605  1.00  0.00     0.024 C 
BRANCH   9  13
ATOM     13  C   UNL     1      -1.365   1.383   1.174  1.00  0.00     0.223 C 
ATOM     14  O   UNL     1      -0.550   0.910   1.962  1.00  0.00    -0.275 OA
ATOM     15  N   UNL     1      -2.548   1.812   1.691  1.00  0.00    -0.356 N 
ATOM     16  H   UNL     1      -2.619   1.731   2.670  1.00  0.00     0.163 HD
BRANCH  15  17
ATOM     17  C   UNL     1      -3.726   2.371   1.047  1.00  0.00     0.120 C 
BRANCH  17  18
ATOM     18  C   UNL     1      -5.010   1.647   1.473  1.00  0.00     0.056 C 
BRANCH  18  19
ATOM     19  C   UNL     1      -5.215   1.575   2.970  1.00  0.00    -0.046 A 
ATOM     20  C   UNL     1      -5.226   2.733   3.762  1.00  0.00     0.004 A 
ATOM     21  C   UNL     1      -5.391   0.330   3.592  1.00  0.00     0.004 A 
ATOM     22  C   UNL     1      -5.380   2.642   5.147  1.00  0.00     0.000 A 
ATOM     23  C   UNL     1      -5.552   0.243   4.975  1.00  0.00     0.000 A 
ATOM     24  C   UNL     1      -5.542   1.398   5.753  1.00  0.00     0.000 A 
ENDBRANCH  18  19
ENDBRANCH  17  18
ENDBRANCH  15  17
ENDBRANCH   9  13
ENDBRANCH   3   5
ENDBRANCH   2   3
ENDBRANCH   1   2
BRANCH   1  25
ATOM     25  C   UNL     1       4.479   1.717   2.554  1.00  0.00     0.275 C 
BRANCH  25  26
ATOM     26  O   UNL     1       4.531   3.089   2.124  1.00  0.00    -0.458 OA
BRANCH  26  27
ATOM     27  C   UNL     1       5.153   3.305   0.944  1.00  0.00     0.338 C 
ATOM     28  O   UNL     1       5.744   2.504   0.244  1.00  0.00    -0.246 OA
BRANCH  27  29
ATOM     29  C   UNL     1       4.993   4.716   0.568  1.00  0.00     0.060 A 
ATOM     30  C   UNL     1       3.770   5.149   0.056  1.00  0.00     0.016 A 
ATOM     31  C   UNL     1       6.092   5.571   0.594  1.00  0.00     0.016 A 
ATOM     32  C   UNL     1       3.652   6.418  -0.496  1.00  0.00     0.010 A 
ATOM     33  C   UNL     1       5.954   6.872   0.105  1.00  0.00     0.010 A 
ATOM     34  C   UNL     1       4.742   7.295  -0.471  1.00  0.00    -0.014 A 
BRANCH  34  35
ATOM     35  C   UNL     1       4.631   8.640  -1.085  1.00  0.00     0.031 A 
ATOM     36  C   UNL     1       5.467   8.982  -2.283  1.00  0.00     0.074 A 
ATOM     37  C   UNL     1       3.785   9.550  -0.567  1.00  0.00     0.049 A 
ATOM     38  N   UNL     1       5.670  10.145  -2.848  1.00  0.00    -0.248 NA
ATOM     39  C   UNL     1       6.180   7.867  -2.928  1.00  0.00     0.031 C 
ATOM     40  C   UNL     1       2.880   9.319   0.559  1.00  0.00     0.029 A 
ATOM     41  N   UNL     1       3.555  10.856  -0.918  1.00  0.00    -0.354 N 
ATOM     42  C   UNL     1       6.571   9.912  -3.878  1.00  0.00     0.074 A 
ATOM     43  C   UNL     1       6.872   8.496  -3.868  1.00  0.00     0.031 C 
ATOM     44  C   UNL     1       2.190  10.444   0.805  1.00  0.00     0.029 A 
ATOM     45  C   UNL     1       2.656  11.491  -0.098  1.00  0.00     0.049 A 
ATOM     46  H   UNL     1       3.993  11.295  -1.682  1.00  0.00     0.167 HD
ATOM     47  C   UNL     1       7.104  10.806  -4.744  1.00  0.00     0.037 A 
ATOM     48  C   UNL     1       2.286  12.784  -0.047  1.00  0.00     0.037 A 
ATOM     49  C   UNL     1       6.762  12.203  -4.775  1.00  0.00     0.049 A 
ATOM     50  C   UNL     1       2.906  13.760  -1.006  1.00  0.00     0.074 A 
ATOM     51  C   UNL     1       7.233  13.190  -5.623  1.00  0.00     0.029 A 
ATOM     52  N   UNL     1       5.849  12.808  -3.924  1.00  0.00    -0.354 N 
ATOM     53  N   UNL     1       3.796  13.543  -1.945  1.00  0.00    -0.248 NA
ATOM     54  C   UNL     1       2.485  15.162  -0.889  1.00  0.00     0.031 C 
ATOM     55  C   UNL     1       6.625  14.399  -5.267  1.00  0.00     0.029 A 
ATOM     56  C   UNL     1       5.750  14.158  -4.220  1.00  0.00     0.049 A 
ATOM     57  H   UNL     1       5.346  12.347  -3.214  1.00  0.00     0.167 HD
ATOM     58  C   UNL     1       4.035  14.776  -2.534  1.00  0.00     0.074 A 
ATOM     59  C   UNL     1       3.183  15.734  -1.861  1.00  0.00     0.031 C 
ATOM     60  C   UNL     1       4.890  15.089  -3.538  1.00  0.00     0.037 A 
BRANCH  47  61
ATOM     61  C   UNL     1       8.140  10.309  -5.705  1.00  0.00     0.064 A 
ATOM     62  C   UNL     1       7.803   9.543  -6.829  1.00  0.00     0.173 A 
ATOM     63  C   UNL     1       9.491  10.640  -5.515  1.00  0.00     0.173 A 
ATOM     64  F   UNL     1       6.528   9.187  -7.045  1.00  0.00    -0.203 F 
ATOM     65  C   UNL     1       8.783   9.113  -7.721  1.00  0.00     0.198 A 
ATOM     66  C   UNL     1      10.465  10.227  -6.419  1.00  0.00     0.198 A 
ATOM     67  F   UNL     1       9.864  11.373  -4.455  1.00  0.00    -0.203 F 
ATOM     68  F   UNL     1       8.444   8.353  -8.771  1.00  0.00    -0.200 F 
ATOM     69  C   UNL     1      10.111   9.460  -7.519  1.00  0.00     0.200 A 
ATOM     70  F   UNL     1      11.746  10.572  -6.227  1.00  0.00    -0.200 F 
ATOM     71  F   UNL     1      11.051   9.052  -8.382  1.00  0.00    -0.200 F 
ENDBRANCH  47  61
BRANCH  48  72
ATOM     72  C   UNL     1       1.313  13.232   0.981  1.00  0.00     0.064 A 
ATOM     73  C   UNL     1       0.017  13.627   0.625  1.00  0.00     0.173 A 
ATOM     74  C   UNL     1       1.657  13.264   2.341  1.00  0.00     0.173 A 
ATOM     75  F   UNL     1      -0.349  13.637  -0.665  1.00  0.00    -0.203 F 
ATOM     76  C   UNL     1      -0.896  14.046   1.591  1.00  0.00     0.198 A 
ATOM     77  C   UNL     1       0.735  13.657   3.307  1.00  0.00     0.198 A 
ATOM     78  F   UNL     1       2.886  12.896   2.731  1.00  0.00    -0.203 F 
ATOM     79  F   UNL     1      -2.118  14.453   1.221  1.00  0.00    -0.200 F 
ATOM     80  C   UNL     1      -0.539  14.053   2.931  1.00  0.00     0.200 A 
ATOM     81  F   UNL     1       1.081  13.650   4.602  1.00  0.00    -0.200 F 
ATOM     82  F   UNL     1      -1.421  14.448   3.859  1.00  0.00    -0.200 F 
ENDBRANCH  48  72
BRANCH  60  83
ATOM     83  C   UNL     1       4.924  16.519  -3.980  1.00  0.00     0.064 A 
ATOM     84  C   UNL     1       5.573  17.503  -3.220  1.00  0.00     0.173 A 
ATOM     85  C   UNL     1       4.333  16.902  -5.193  1.00  0.00     0.173 A 
ATOM     86  F   UNL     1       6.137  17.185  -2.046  1.00  0.00    -0.203 F 
ATOM     87  C   UNL     1       5.612  18.826  -3.652  1.00  0.00     0.198 A 
ATOM     88  C   UNL     1       4.393  18.221  -5.631  1.00  0.00     0.198 A 
ATOM     89  F   UNL     1       3.704  15.994  -5.954  1.00  0.00    -0.203 F 
ATOM     90  F   UNL     1       6.204  19.758  -2.893  1.00  0.00    -0.200 F 
ATOM     91  C   UNL     1       5.027  19.182  -4.858  1.00  0.00     0.200 A 
ATOM     92  F   UNL     1       3.834  18.563  -6.800  1.00  0.00    -0.200 F 
ATOM     93  F   UNL     1       5.069  20.456  -5.273  1.00  0.00    -0.200 F 
ENDBRANCH  60  83
ENDBRANCH  34  35
ENDBRANCH  27  29
ENDBRANCH  26  27
ENDBRANCH  25  26
ENDBRANCH   1  25
TORSDOF 15
