REMARK SMILES O=C(OCCOC(=O)[C@H]1CC2(CC[NH+](C(=O)c3cc4ccccc4[nH]3)CC2)CN1C(=O)C1CC1)c1ccc(-c2c3nc(c(-c4c(F)c(F)c(F)c(F)c4F)c4ccc([nH]4)c(-c4c(F)c(F)c(F)c(F)c4F)c4nc(c(-c5c(F)c(F)c(F)c(F)c5F)c5ccc2[nH]5)C=C4)C=C3)cc1
REMARK SMILES IDX 4 1 3 2 2 3 1 4 35 5 36 6 97 7 37 8 96 9 38 10 39 11 40 12
REMARK SMILES IDX 90 13 41 14 95 15 89 16 91 17 42 18 94 19 88 20 87 21 43 23
REMARK SMILES IDX 75 24 55 25 74 26 56 27 59 28 73 29 92 30 57 31 58 32 72 34
REMARK SMILES IDX 93 35 60 36 44 37 45 38 53 39 46 40 47 41 51 42 54 43 48 44
REMARK SMILES IDX 49 45 52 46 50 47 76 48 77 49 85 50 78 51 79 52 83 53 86 54
REMARK SMILES IDX 80 55 81 56 84 57 82 58 61 59 62 60 70 61 63 62 64 63 68 64
REMARK SMILES IDX 71 65 65 66 66 67 69 68 67 69 5 70 6 71 7 72 8 73 9 74 10 75
REMARK SMILES IDX 29 76 11 77 28 78 12 79 27 80 13 81 26 82 14 83 30 85 31 86
REMARK SMILES IDX 32 87 33 88 34 89 15 90 16 91 17 92 18 93 25 94 19 95 24 96
REMARK SMILES IDX 20 98 23 99 21 100 22 101
REMARK H PARENT 91 22 59 33 14 84 25 97
REMARK Flexibility Score: inf
ROOT
ATOM      1  C   UNL     1       1.884  -1.135  -6.522  1.00  0.00     0.275 C 
ENDROOT
BRANCH   1   2
ATOM      2  O   UNL     1       2.171   0.269  -6.599  1.00  0.00    -0.458 OA
BRANCH   2   3
ATOM      3  C   UNL     1       1.548   1.282  -5.947  1.00  0.00     0.338 C 
ATOM      4  O   UNL     1       1.550   2.414  -6.420  1.00  0.00    -0.246 OA
BRANCH   3   5
ATOM      5  C   UNL     1       1.041   1.138  -4.558  1.00  0.00     0.060 A 
ATOM      6  C   UNL     1       1.060  -0.407  -3.578  1.00  0.00     0.016 A 
ATOM      7  C   UNL     1       0.594   2.696  -3.716  1.00  0.00     0.016 A 
ATOM      8  C   UNL     1       0.691  -0.396  -1.796  1.00  0.00     0.010 A 
ATOM      9  C   UNL     1       0.068   2.666  -1.946  1.00  0.00     0.010 A 
ATOM     10  C   UNL     1       0.172   1.115  -1.000  1.00  0.00    -0.014 A 
BRANCH  10  11
ATOM     11  C   UNL     1      -0.167   1.032   0.436  1.00  0.00     0.031 A 
ATOM     12  C   UNL     1      -1.564   1.343   0.829  1.00  0.00     0.074 A 
ATOM     13  C   UNL     1       0.748   0.629   1.341  1.00  0.00     0.049 A 
ATOM     14  N   UNL     1      -2.080   1.567   2.003  1.00  0.00    -0.248 NA
ATOM     15  C   UNL     1      -2.525   1.410  -0.272  1.00  0.00     0.031 C 
ATOM     16  C   UNL     1       2.102   0.159   1.038  1.00  0.00     0.029 A 
ATOM     17  N   UNL     1       0.694   0.570   2.710  1.00  0.00    -0.354 N 
ATOM     18  C   UNL     1      -3.416   1.860   1.761  1.00  0.00     0.074 A 
ATOM     19  C   UNL     1      -3.619   1.821   0.336  1.00  0.00     0.031 C 
ATOM     20  C   UNL     1       2.765  -0.087   2.177  1.00  0.00     0.029 A 
ATOM     21  C   UNL     1       1.900   0.251   3.295  1.00  0.00     0.049 A 
ATOM     22  H   UNL     1      -0.128   0.738   3.226  1.00  0.00     0.167 HD
ATOM     23  C   UNL     1      -4.385   2.124   2.665  1.00  0.00     0.037 A 
ATOM     24  C   UNL     1       2.272   0.287   4.588  1.00  0.00     0.037 A 
ATOM     25  C   UNL     1      -4.122   2.120   4.075  1.00  0.00     0.049 A 
ATOM     26  C   UNL     1       1.222   0.687   5.586  1.00  0.00     0.074 A 
ATOM     27  C   UNL     1      -4.976   2.399   5.120  1.00  0.00     0.029 A 
ATOM     28  N   UNL     1      -2.881   1.816   4.628  1.00  0.00    -0.354 N 
ATOM     29  N   UNL     1      -0.023   1.042   5.363  1.00  0.00    -0.248 NA
ATOM     30  C   UNL     1       1.607   0.694   7.000  1.00  0.00     0.031 C 
ATOM     31  C   UNL     1      -4.229   2.340   6.301  1.00  0.00     0.029 A 
ATOM     32  C   UNL     1      -2.936   1.927   6.002  1.00  0.00     0.049 A 
ATOM     33  H   UNL     1      -2.081   1.560   4.114  1.00  0.00     0.167 HD
ATOM     34  C   UNL     1      -0.586   1.278   6.605  1.00  0.00     0.074 A 
ATOM     35  C   UNL     1       0.463   1.035   7.580  1.00  0.00     0.031 C 
ATOM     36  C   UNL     1      -1.853   1.648   6.918  1.00  0.00     0.037 A 
BRANCH  23  37
ATOM     37  C   UNL     1      -5.724   2.535   2.119  1.00  0.00     0.064 A 
ATOM     38  C   UNL     1      -6.515   1.682   1.329  1.00  0.00     0.173 A 
ATOM     39  C   UNL     1      -6.161   3.859   2.280  1.00  0.00     0.173 A 
ATOM     40  F   UNL     1      -6.136   0.412   1.116  1.00  0.00    -0.203 F 
ATOM     41  C   UNL     1      -7.635   2.162   0.652  1.00  0.00     0.198 A 
ATOM     42  C   UNL     1      -7.311   4.321   1.644  1.00  0.00     0.198 A 
ATOM     43  F   UNL     1      -5.450   4.721   3.021  1.00  0.00    -0.203 F 
ATOM     44  F   UNL     1      -8.296   1.363  -0.198  1.00  0.00    -0.200 F 
ATOM     45  C   UNL     1      -8.032   3.481   0.811  1.00  0.00     0.200 A 
ATOM     46  F   UNL     1      -7.698   5.593   1.810  1.00  0.00    -0.200 F 
ATOM     47  F   UNL     1      -9.094   3.948   0.141  1.00  0.00    -0.200 F 
ENDBRANCH  23  37
BRANCH  24  48
ATOM     48  C   UNL     1       3.679  -0.021   4.973  1.00  0.00     0.064 A 
ATOM     49  C   UNL     1       4.010  -1.173   5.699  1.00  0.00     0.173 A 
ATOM     50  C   UNL     1       4.739   0.808   4.565  1.00  0.00     0.173 A 
ATOM     51  F   UNL     1       3.042  -2.000   6.120  1.00  0.00    -0.203 F 
ATOM     52  C   UNL     1       5.338  -1.482   6.004  1.00  0.00     0.198 A 
ATOM     53  C   UNL     1       6.067   0.485   4.847  1.00  0.00     0.198 A 
ATOM     54  F   UNL     1       4.487   1.916   3.853  1.00  0.00    -0.203 F 
ATOM     55  F   UNL     1       5.622  -2.583   6.713  1.00  0.00    -0.200 F 
ATOM     56  C   UNL     1       6.366  -0.658   5.570  1.00  0.00     0.200 A 
ATOM     57  F   UNL     1       7.056   1.271   4.399  1.00  0.00    -0.200 F 
ATOM     58  F   UNL     1       7.641  -0.970   5.841  1.00  0.00    -0.200 F 
ENDBRANCH  24  48
BRANCH  36  59
ATOM     59  C   UNL     1      -2.198   1.734   8.371  1.00  0.00     0.064 A 
ATOM     60  C   UNL     1      -1.758   2.792   9.175  1.00  0.00     0.173 A 
ATOM     61  C   UNL     1      -3.098   0.806   8.919  1.00  0.00     0.173 A 
ATOM     62  F   UNL     1      -0.888   3.692   8.693  1.00  0.00    -0.203 F 
ATOM     63  C   UNL     1      -2.208   2.918  10.484  1.00  0.00     0.198 A 
ATOM     64  C   UNL     1      -3.577   0.960  10.212  1.00  0.00     0.198 A 
ATOM     65  F   UNL     1      -3.550  -0.217   8.177  1.00  0.00    -0.203 F 
ATOM     66  F   UNL     1      -1.758   3.921  11.250  1.00  0.00    -0.200 F 
ATOM     67  C   UNL     1      -3.131   2.014  10.994  1.00  0.00     0.200 A 
ATOM     68  F   UNL     1      -4.489   0.103  10.692  1.00  0.00    -0.200 F 
ATOM     69  F   UNL     1      -3.594   2.163  12.242  1.00  0.00    -0.200 F 
ENDBRANCH  36  59
ENDBRANCH  10  11
ENDBRANCH   3   5
ENDBRANCH   2   3
ENDBRANCH   1   2
BRANCH   1  70
ATOM     70  C   UNL     1       2.869  -1.993  -5.684  1.00  0.00     0.274 C 
BRANCH  70  71
ATOM     71  O   UNL     1       3.181  -1.523  -4.349  1.00  0.00    -0.461 OA
BRANCH  71  72
ATOM     72  C   UNL     1       3.664  -0.255  -4.249  1.00  0.00     0.328 C 
ATOM     73  O   UNL     1       4.396   0.223  -5.107  1.00  0.00    -0.250 OA
BRANCH  72  74
ATOM     74  C   UNL     1       3.105   0.515  -2.937  1.00  0.00     0.195 C 
ATOM     75  C   UNL     1       4.083   1.746  -2.983  1.00  0.00     0.046 C 
ATOM     76  N   UNL     1       1.574   1.306  -2.583  1.00  0.00    -0.328 N 
ATOM     77  C   UNL     1       3.759   2.772  -1.928  1.00  0.00     0.001 C 
ATOM     78  C   UNL     1       2.293   2.535  -1.611  1.00  0.00     0.128 C 
ATOM     79  C   UNL     1       3.913   4.228  -2.470  1.00  0.00     0.071 C 
ATOM     80  C   UNL     1       4.609   2.640  -0.638  1.00  0.00     0.071 C 
ATOM     81  C   UNL     1       5.367   4.645  -2.635  1.00  0.00     0.271 C 
ATOM     82  C   UNL     1       6.035   3.168  -0.790  1.00  0.00     0.271 C 
ATOM     83  N   UNL     1       6.036   4.517  -1.344  1.00  0.00    -0.266 N 
ATOM     84  H   UNL     1       5.469   5.130  -0.822  1.00  0.00     0.357 HD
BRANCH  76  85
ATOM     85  C   UNL     1      -0.334   0.938  -3.030  1.00  0.00     0.226 C 
ATOM     86  O   UNL     1      -1.287   1.751  -3.239  1.00  0.00    -0.275 OA
BRANCH  85  87
ATOM     87  C   UNL     1      -1.352  -0.441  -3.324  1.00  0.00     0.079 C 
ATOM     88  C   UNL     1      -1.357  -1.377  -4.512  1.00  0.00     0.014 C 
ATOM     89  C   UNL     1      -1.397  -1.917  -3.098  1.00  0.00     0.014 C 
ENDBRANCH  85  87
ENDBRANCH  76  85
BRANCH  83  90
ATOM     90  C   UNL     1       6.690   5.539  -0.654  1.00  0.00     0.360 C 
ATOM     91  O   UNL     1       7.205   5.351   0.445  1.00  0.00    -0.224 OA
BRANCH  90  92
ATOM     92  C   UNL     1       6.790   6.820  -1.311  1.00  0.00     0.145 A 
ATOM     93  C   UNL     1       7.931   7.418  -1.813  1.00  0.00     0.046 A 
ATOM     94  N   UNL     1       5.758   7.711  -1.503  1.00  0.00    -0.347 N 
ATOM     95  C   UNL     1       7.560   8.642  -2.424  1.00  0.00     0.000 A 
ATOM     96  C   UNL     1       6.189   8.801  -2.228  1.00  0.00     0.046 A 
ATOM     97  H   UNL     1       4.840   7.587  -1.170  1.00  0.00     0.167 HD
ATOM     98  C   UNL     1       8.268   9.629  -3.135  1.00  0.00     0.010 A 
ATOM     99  C   UNL     1       5.484   9.907  -2.718  1.00  0.00     0.026 A 
ATOM    100  C   UNL     1       7.578  10.736  -3.638  1.00  0.00     0.001 A 
ATOM    101  C   UNL     1       6.206  10.870  -3.432  1.00  0.00     0.002 A 
ENDBRANCH  90  92
ENDBRANCH  83  90
ENDBRANCH  72  74
ENDBRANCH  71  72
ENDBRANCH  70  71
ENDBRANCH   1  70
TORSDOF 15
