REMARK SMILES COC[C@@H](C)CNc1cc(C)c(N)c(C(=O)OCCOC(=O)c2ccc(-c3c4nc(c(-c5c(F)c(F)c(F)c(F)c5F)c5ccc([nH]5)c(-c5c(F)c(F)c(F)c(F)c5F)c5nc(c(-c6c(F)c(F)c(F)c(F)c6F)c6ccc3[nH]6)C=C5)C=C4)cc2)c1
REMARK SMILES IDX 17 1 15 2 16 3 14 4 8 5 9 6 86 7 10 8 11 9 12 10 7 11 6 13
REMARK SMILES IDX 4 14 5 15 3 16 2 17 1 18 13 19 18 22 19 23 20 24 21 25 22 26
REMARK SMILES IDX 23 27 24 28 85 29 25 30 84 31 26 32 27 33 28 34 78 35 29 36
REMARK SMILES IDX 83 37 77 38 79 39 30 40 82 41 76 42 75 43 31 45 63 46 43 47
REMARK SMILES IDX 62 48 44 49 47 50 61 51 80 52 45 53 46 54 60 56 81 57 48 58
REMARK SMILES IDX 32 59 33 60 41 61 34 62 35 63 39 64 42 65 36 66 37 67 40 68
REMARK SMILES IDX 38 69 64 70 65 71 73 72 66 73 67 74 71 75 74 76 68 77 69 78
REMARK SMILES IDX 72 79 70 80 49 81 50 82 58 83 51 84 52 85 56 86 59 87 53 88
REMARK SMILES IDX 54 89 57 90 55 91
REMARK H PARENT 7 12 13 20 13 21 79 44 47 55
REMARK Flexibility Score: inf
ROOT
ATOM      1  O   UNL     1      -3.353  -4.856   5.421  1.00  0.00    -0.458 OA
ENDROOT
BRANCH   1   2
ATOM      2  C   UNL     1      -2.535  -5.900   5.730  1.00  0.00     0.340 C 
ATOM      3  O   UNL     1      -2.690  -6.694   6.641  1.00  0.00    -0.246 OA
BRANCH   2   4
ATOM      4  C   UNL     1      -1.441  -6.001   4.724  1.00  0.00     0.085 A 
ATOM      5  C   UNL     1       0.093  -4.860   3.208  1.00  0.00     0.035 A 
ATOM      6  C   UNL     1       0.467  -6.109   2.712  1.00  0.00     0.031 A 
ATOM      7  C   UNL     1      -0.899  -4.824   4.189  1.00  0.00     0.043 A 
ATOM      8  C   UNL     1      -0.054  -7.307   3.236  1.00  0.00    -0.025 A 
ATOM      9  C   UNL     1       0.337  -8.609   2.588  1.00  0.00     0.047 C 
ATOM     10  C   UNL     1      -0.943  -7.259   4.325  1.00  0.00     0.049 A 
BRANCH   5  11
ATOM     11  N   UNL     1       0.578  -3.663   2.728  1.00  0.00    -0.385 N 
ATOM     12  H   UNL     1       0.431  -2.863   3.283  1.00  0.00     0.160 HD
BRANCH  11  13
ATOM     13  C   UNL     1       1.288  -3.479   1.475  1.00  0.00     0.118 C 
BRANCH  13  14
ATOM     14  C   UNL     1       0.724  -2.249   0.739  1.00  0.00     0.031 C 
ATOM     15  C   UNL     1       1.111  -2.324  -0.740  1.00  0.00     0.012 C 
BRANCH  14  16
ATOM     16  C   UNL     1       1.211  -0.952   1.404  1.00  0.00     0.164 C 
BRANCH  16  17
ATOM     17  O   UNL     1       0.506   0.204   0.955  1.00  0.00    -0.384 OA
ATOM     18  C   UNL     1       1.113   0.882  -0.134  1.00  0.00     0.194 C 
ENDBRANCH  16  17
ENDBRANCH  14  16
ENDBRANCH  13  14
ENDBRANCH  11  13
ENDBRANCH   5  11
BRANCH  10  19
ATOM     19  N   UNL     1      -1.417  -8.446   4.886  1.00  0.00    -0.398 N 
ATOM     20  H   UNL     1      -1.052  -9.311   4.590  1.00  0.00     0.156 HD
ATOM     21  H   UNL     1      -2.115  -8.418   5.580  1.00  0.00     0.156 HD
ENDBRANCH  10  19
ENDBRANCH   2   4
ENDBRANCH   1   2
BRANCH   1  22
ATOM     22  C   UNL     1      -4.532  -4.688   6.237  1.00  0.00     0.275 C 
BRANCH  22  23
ATOM     23  C   UNL     1      -5.776  -5.163   5.484  1.00  0.00     0.275 C 
BRANCH  23  24
ATOM     24  O   UNL     1      -5.664  -6.577   5.262  1.00  0.00    -0.458 OA
BRANCH  24  25
ATOM     25  C   UNL     1      -6.268  -7.070   4.155  1.00  0.00     0.338 C 
ATOM     26  O   UNL     1      -7.019  -6.470   3.402  1.00  0.00    -0.246 OA
BRANCH  25  27
ATOM     27  C   UNL     1      -5.865  -8.485   3.971  1.00  0.00     0.060 A 
ATOM     28  C   UNL     1      -4.612  -8.914   4.401  1.00  0.00     0.016 A 
ATOM     29  C   UNL     1      -6.697  -9.386   3.305  1.00  0.00     0.016 A 
ATOM     30  C   UNL     1      -4.168 -10.208   4.128  1.00  0.00     0.010 A 
ATOM     31  C   UNL     1      -6.283 -10.715   3.112  1.00  0.00     0.010 A 
ATOM     32  C   UNL     1      -5.000 -11.143   3.505  1.00  0.00    -0.014 A 
BRANCH  32  33
ATOM     33  C   UNL     1      -4.507 -12.528   3.222  1.00  0.00     0.031 A 
ATOM     34  C   UNL     1      -4.566 -13.082   1.822  1.00  0.00     0.074 A 
ATOM     35  C   UNL     1      -3.962 -13.296   4.191  1.00  0.00     0.049 A 
ATOM     36  N   UNL     1      -4.424 -14.319   1.409  1.00  0.00    -0.248 NA
ATOM     37  C   UNL     1      -4.831 -12.120   0.742  1.00  0.00     0.031 C 
ATOM     38  C   UNL     1      -3.759 -12.896   5.584  1.00  0.00     0.029 A 
ATOM     39  N   UNL     1      -3.461 -14.579   4.146  1.00  0.00    -0.354 N 
ATOM     40  C   UNL     1      -4.672 -14.294   0.042  1.00  0.00     0.074 A 
ATOM     41  C   UNL     1      -4.948 -12.918  -0.311  1.00  0.00     0.031 C 
ATOM     42  C   UNL     1      -3.120 -13.877   6.239  1.00  0.00     0.029 A 
ATOM     43  C   UNL     1      -2.978 -15.027   5.353  1.00  0.00     0.049 A 
ATOM     44  H   UNL     1      -3.449 -15.123   3.326  1.00  0.00     0.167 HD
ATOM     45  C   UNL     1      -4.680 -15.329  -0.833  1.00  0.00     0.037 A 
ATOM     46  C   UNL     1      -2.527 -16.240   5.730  1.00  0.00     0.037 A 
ATOM     47  C   UNL     1      -4.316 -16.683  -0.501  1.00  0.00     0.049 A 
ATOM     48  C   UNL     1      -2.557 -17.378   4.749  1.00  0.00     0.074 A 
ATOM     49  C   UNL     1      -4.291 -17.797  -1.322  1.00  0.00     0.029 A 
ATOM     50  N   UNL     1      -3.883 -17.100   0.748  1.00  0.00    -0.354 N 
ATOM     51  N   UNL     1      -2.918 -17.373   3.489  1.00  0.00    -0.248 NA
ATOM     52  C   UNL     1      -2.159 -18.700   5.254  1.00  0.00     0.031 C 
ATOM     53  C   UNL     1      -3.866 -18.894  -0.564  1.00  0.00     0.029 A 
ATOM     54  C   UNL     1      -3.591 -18.455   0.720  1.00  0.00     0.049 A 
ATOM     55  H   UNL     1      -3.795 -16.519   1.538  1.00  0.00     0.167 HD
ATOM     56  C   UNL     1      -2.802 -18.686   3.056  1.00  0.00     0.074 A 
ATOM     57  C   UNL     1      -2.301 -19.456   4.175  1.00  0.00     0.031 C 
ATOM     58  C   UNL     1      -3.101 -19.210   1.842  1.00  0.00     0.037 A 
BRANCH  45  59
ATOM     59  C   UNL     1      -5.141 -15.053  -2.234  1.00  0.00     0.064 A 
ATOM     60  C   UNL     1      -4.346 -14.367  -3.162  1.00  0.00     0.173 A 
ATOM     61  C   UNL     1      -6.388 -15.535  -2.665  1.00  0.00     0.173 A 
ATOM     62  F   UNL     1      -3.153 -13.875  -2.797  1.00  0.00    -0.203 F 
ATOM     63  C   UNL     1      -4.792 -14.156  -4.466  1.00  0.00     0.198 A 
ATOM     64  C   UNL     1      -6.817 -15.346  -3.976  1.00  0.00     0.198 A 
ATOM     65  F   UNL     1      -7.183 -16.205  -1.818  1.00  0.00    -0.203 F 
ATOM     66  F   UNL     1      -4.032 -13.465  -5.327  1.00  0.00    -0.200 F 
ATOM     67  C   UNL     1      -6.021 -14.652  -4.873  1.00  0.00     0.200 A 
ATOM     68  F   UNL     1      -7.999 -15.840  -4.370  1.00  0.00    -0.200 F 
ATOM     69  F   UNL     1      -6.441 -14.459  -6.131  1.00  0.00    -0.200 F 
ENDBRANCH  45  59
BRANCH  46  70
ATOM     70  C   UNL     1      -2.079 -16.461   7.132  1.00  0.00     0.064 A 
ATOM     71  C   UNL     1      -0.737 -16.736   7.428  1.00  0.00     0.173 A 
ATOM     72  C   UNL     1      -2.982 -16.399   8.204  1.00  0.00     0.173 A 
ATOM     73  F   UNL     1       0.160 -16.844   6.436  1.00  0.00    -0.203 F 
ATOM     74  C   UNL     1      -0.316 -16.938   8.742  1.00  0.00     0.198 A 
ATOM     75  C   UNL     1      -2.555 -16.565   9.519  1.00  0.00     0.198 A 
ATOM     76  F   UNL     1      -4.280 -16.152   7.975  1.00  0.00    -0.203 F 
ATOM     77  F   UNL     1       0.965 -17.238   8.995  1.00  0.00    -0.200 F 
ATOM     78  C   UNL     1      -1.223 -16.840   9.787  1.00  0.00     0.200 A 
ATOM     79  F   UNL     1      -3.433 -16.455  10.525  1.00  0.00    -0.200 F 
ATOM     80  F   UNL     1      -0.815 -17.017  11.051  1.00  0.00    -0.200 F 
ENDBRANCH  46  70
BRANCH  58  81
ATOM     81  C   UNL     1      -2.884 -20.683   1.663  1.00  0.00     0.064 A 
ATOM     82  C   UNL     1      -3.755 -21.623   2.231  1.00  0.00     0.173 A 
ATOM     83  C   UNL     1      -1.806 -21.158   0.901  1.00  0.00     0.173 A 
ATOM     84  F   UNL     1      -4.790 -21.216   2.983  1.00  0.00    -0.203 F 
ATOM     85  C   UNL     1      -3.542 -22.989   2.063  1.00  0.00     0.198 A 
ATOM     86  C   UNL     1      -1.609 -22.524   0.716  1.00  0.00     0.198 A 
ATOM     87  F   UNL     1      -0.947 -20.298   0.334  1.00  0.00    -0.203 F 
ATOM     88  F   UNL     1      -4.361 -23.871   2.652  1.00  0.00    -0.200 F 
ATOM     89  C   UNL     1      -2.472 -23.437   1.302  1.00  0.00     0.200 A 
ATOM     90  F   UNL     1      -0.580 -22.956  -0.025  1.00  0.00    -0.200 F 
ATOM     91  F   UNL     1      -2.267 -24.752   1.142  1.00  0.00    -0.200 F 
ENDBRANCH  58  81
ENDBRANCH  32  33
ENDBRANCH  25  27
ENDBRANCH  24  25
ENDBRANCH  23  24
ENDBRANCH  22  23
ENDBRANCH   1  22
TORSDOF 17
