REMARK SMILES O=C(OCCOC(=O)[C@H]1CC[C@@H]2CCCC[C@H]2[NH2+]1)c1ccc(-c2c3nc(c(-c4c(F)c(F)c(F)c(F)c4F)c4ccc([nH]4)c(-c4c(F)c(F)c(F)c(F)c4F)c4nc(c(-c5c(F)c(F)c(F)c(F)c5F)c5ccc2[nH]5)C=C4)C=C3)cc1
REMARK SMILES IDX 4 1 3 2 2 3 1 4 19 5 20 6 81 7 21 8 80 9 22 10 23 11 24 12
REMARK SMILES IDX 74 13 25 14 79 15 73 16 75 17 26 18 78 19 72 20 71 21 27 23
REMARK SMILES IDX 59 24 39 25 58 26 40 27 43 28 57 29 76 30 41 31 42 32 56 34
REMARK SMILES IDX 77 35 44 36 28 37 29 38 37 39 30 40 31 41 35 42 38 43 32 44
REMARK SMILES IDX 33 45 36 46 34 47 60 48 61 49 69 50 62 51 63 52 67 53 70 54
REMARK SMILES IDX 64 55 65 56 68 57 66 58 45 59 46 60 54 61 47 62 48 63 52 64
REMARK SMILES IDX 55 65 49 66 50 67 53 68 51 69 5 70 6 71 7 72 8 73 9 74 10 75
REMARK SMILES IDX 18 76 11 77 17 78 12 81 16 82 13 83 15 84 14 85
REMARK H PARENT 75 22 43 33 18 79 18 80
REMARK Flexibility Score: inf
ROOT
ATOM      1  C   UNL     1      -0.579  -2.327   3.437  1.00  0.00     0.275 C 
ENDROOT
BRANCH   1   2
ATOM      2  O   UNL     1      -0.976  -1.387   4.453  1.00  0.00    -0.458 OA
BRANCH   2   3
ATOM      3  C   UNL     1      -0.180  -0.487   5.075  1.00  0.00     0.338 C 
ATOM      4  O   UNL     1      -0.644   0.600   5.418  1.00  0.00    -0.246 OA
BRANCH   3   5
ATOM      5  C   UNL     1       1.245  -0.801   5.394  1.00  0.00     0.060 A 
ATOM      6  C   UNL     1       1.787  -2.088   5.460  1.00  0.00     0.016 A 
ATOM      7  C   UNL     1       2.080   0.283   5.687  1.00  0.00     0.016 A 
ATOM      8  C   UNL     1       3.145  -2.283   5.740  1.00  0.00     0.010 A 
ATOM      9  C   UNL     1       3.430   0.086   5.983  1.00  0.00     0.010 A 
ATOM     10  C   UNL     1       3.983  -1.198   6.013  1.00  0.00    -0.014 A 
BRANCH  10  11
ATOM     11  C   UNL     1       5.365  -1.442   6.509  1.00  0.00     0.031 A 
ATOM     12  C   UNL     1       5.683  -1.119   7.945  1.00  0.00     0.074 A 
ATOM     13  C   UNL     1       6.295  -2.022   5.725  1.00  0.00     0.049 A 
ATOM     14  N   UNL     1       6.767  -1.370   8.636  1.00  0.00    -0.248 NA
ATOM     15  C   UNL     1       4.649  -0.398   8.706  1.00  0.00     0.031 C 
ATOM     16  C   UNL     1       6.132  -2.339   4.306  1.00  0.00     0.029 A 
ATOM     17  N   UNL     1       7.557  -2.483   6.022  1.00  0.00    -0.354 N 
ATOM     18  C   UNL     1       6.533  -0.845   9.900  1.00  0.00     0.074 A 
ATOM     19  C   UNL     1       5.258  -0.171   9.855  1.00  0.00     0.031 C 
ATOM     20  C   UNL     1       7.225  -2.993   3.871  1.00  0.00     0.029 A 
ATOM     21  C   UNL     1       8.170  -3.135   4.977  1.00  0.00     0.049 A 
ATOM     22  H   UNL     1       7.981  -2.359   6.902  1.00  0.00     0.167 HD
ATOM     23  C   UNL     1       7.277  -0.966  11.024  1.00  0.00     0.037 A 
ATOM     24  C   UNL     1       9.347  -3.794   4.934  1.00  0.00     0.037 A 
ATOM     25  C   UNL     1       8.529  -1.663  11.084  1.00  0.00     0.049 A 
ATOM     26  C   UNL     1      10.165  -3.909   6.199  1.00  0.00     0.074 A 
ATOM     27  C   UNL     1       9.370  -1.844  12.165  1.00  0.00     0.029 A 
ATOM     28  N   UNL     1       9.112  -2.307  10.003  1.00  0.00    -0.354 N 
ATOM     29  N   UNL     1       9.898  -3.467   7.405  1.00  0.00    -0.248 NA
ATOM     30  C   UNL     1      11.443  -4.633   6.101  1.00  0.00     0.031 C 
ATOM     31  C   UNL     1      10.476  -2.582  11.733  1.00  0.00     0.029 A 
ATOM     32  C   UNL     1      10.304  -2.890  10.392  1.00  0.00     0.049 A 
ATOM     33  H   UNL     1       8.734  -2.344   9.095  1.00  0.00     0.167 HD
ATOM     34  C   UNL     1      10.951  -3.884   8.210  1.00  0.00     0.074 A 
ATOM     35  C   UNL     1      11.852  -4.635   7.362  1.00  0.00     0.031 C 
ATOM     36  C   UNL     1      11.163  -3.661   9.530  1.00  0.00     0.037 A 
BRANCH  23  37
ATOM     37  C   UNL     1       6.718  -0.344  12.270  1.00  0.00     0.064 A 
ATOM     38  C   UNL     1       5.572  -0.867  12.892  1.00  0.00     0.173 A 
ATOM     39  C   UNL     1       7.293   0.811  12.817  1.00  0.00     0.173 A 
ATOM     40  F   UNL     1       4.971  -1.958  12.391  1.00  0.00    -0.203 F 
ATOM     41  C   UNL     1       4.991  -0.225  13.982  1.00  0.00     0.198 A 
ATOM     42  C   UNL     1       6.728   1.431  13.929  1.00  0.00     0.198 A 
ATOM     43  F   UNL     1       8.389   1.350  12.263  1.00  0.00    -0.203 F 
ATOM     44  F   UNL     1       3.851  -0.697  14.505  1.00  0.00    -0.200 F 
ATOM     45  C   UNL     1       5.571   0.922  14.500  1.00  0.00     0.200 A 
ATOM     46  F   UNL     1       7.292   2.537  14.436  1.00  0.00    -0.200 F 
ATOM     47  F   UNL     1       5.003   1.548  15.541  1.00  0.00    -0.200 F 
ENDBRANCH  23  37
BRANCH  24  48
ATOM     48  C   UNL     1       9.819  -4.440   3.675  1.00  0.00     0.064 A 
ATOM     49  C   UNL     1       9.947  -5.834   3.576  1.00  0.00     0.173 A 
ATOM     50  C   UNL     1      10.220  -3.675   2.570  1.00  0.00     0.173 A 
ATOM     51  F   UNL     1       9.599  -6.614   4.611  1.00  0.00    -0.203 F 
ATOM     52  C   UNL     1      10.493  -6.434   2.441  1.00  0.00     0.198 A 
ATOM     53  C   UNL     1      10.739  -4.278   1.423  1.00  0.00     0.198 A 
ATOM     54  F   UNL     1      10.121  -2.339   2.606  1.00  0.00    -0.203 F 
ATOM     55  F   UNL     1      10.668  -7.762   2.405  1.00  0.00    -0.200 F 
ATOM     56  C   UNL     1      10.888  -5.655   1.365  1.00  0.00     0.200 A 
ATOM     57  F   UNL     1      11.111  -3.521   0.381  1.00  0.00    -0.200 F 
ATOM     58  F   UNL     1      11.427  -6.229   0.281  1.00  0.00    -0.200 F 
ENDBRANCH  24  48
BRANCH  36  59
ATOM     59  C   UNL     1      12.387  -4.267  10.149  1.00  0.00     0.064 A 
ATOM     60  C   UNL     1      13.669  -3.764   9.885  1.00  0.00     0.173 A 
ATOM     61  C   UNL     1      12.268  -5.319  11.070  1.00  0.00     0.173 A 
ATOM     62  F   UNL     1      13.835  -2.767   9.002  1.00  0.00    -0.203 F 
ATOM     63  C   UNL     1      14.790  -4.305  10.508  1.00  0.00     0.198 A 
ATOM     64  C   UNL     1      13.388  -5.836  11.714  1.00  0.00     0.198 A 
ATOM     65  F   UNL     1      11.062  -5.828  11.363  1.00  0.00    -0.203 F 
ATOM     66  F   UNL     1      16.010  -3.835  10.212  1.00  0.00    -0.200 F 
ATOM     67  C   UNL     1      14.648  -5.333  11.428  1.00  0.00     0.200 A 
ATOM     68  F   UNL     1      13.247  -6.819  12.614  1.00  0.00    -0.200 F 
ATOM     69  F   UNL     1      15.727  -5.842  12.038  1.00  0.00    -0.200 F 
ENDBRANCH  36  59
ENDBRANCH  10  11
ENDBRANCH   3   5
ENDBRANCH   2   3
ENDBRANCH   1   2
BRANCH   1  70
ATOM     70  C   UNL     1       0.203  -1.777   2.239  1.00  0.00     0.274 C 
BRANCH  70  71
ATOM     71  O   UNL     1       1.036  -0.660   2.562  1.00  0.00    -0.458 OA
BRANCH  71  72
ATOM     72  C   UNL     1       1.880  -0.263   1.569  1.00  0.00     0.364 C 
ATOM     73  O   UNL     1       2.113  -0.926   0.563  1.00  0.00    -0.245 OA
BRANCH  72  74
ATOM     74  C   UNL     1       2.485   1.129   1.820  1.00  0.00     0.293 C 
ATOM     75  C   UNL     1       1.391   2.123   2.231  1.00  0.00     0.078 C 
ATOM     76  N   UNL     1       3.597   1.089   2.802  1.00  0.00    -0.332 N 
ATOM     77  C   UNL     1       1.970   3.511   2.474  1.00  0.00     0.016 C 
ATOM     78  C   UNL     1       4.189   2.430   2.982  1.00  0.00     0.186 C 
ATOM     79  H   UNL     1       4.316   0.448   2.466  1.00  0.00     0.347 HD
ATOM     80  H   UNL     1       3.228   0.771   3.698  1.00  0.00     0.347 HD
ATOM     81  C   UNL     1       3.123   3.428   3.479  1.00  0.00     0.048 C 
ATOM     82  C   UNL     1       5.390   2.379   3.942  1.00  0.00     0.065 C 
ATOM     83  C   UNL     1       3.727   4.813   3.732  1.00  0.00     0.010 C 
ATOM     84  C   UNL     1       5.957   3.765   4.247  1.00  0.00     0.006 C 
ATOM     85  C   UNL     1       4.879   4.732   4.727  1.00  0.00     0.001 C 
ENDBRANCH  72  74
ENDBRANCH  71  72
ENDBRANCH  70  71
ENDBRANCH   1  70
TORSDOF 11
