REMARK SMILES C[C@H]1CC[C@@H](C(=O)OCCOC(=O)c2ccc(-c3c4nc(c(-c5c(F)c(F)c(F)c(F)c5F)c5ccc([nH]5)c(-c5c(F)c(F)c(F)c(F)c5F)c5nc(c(-c6c(F)c(F)c(F)c(F)c6F)c6ccc3[nH]6)C=C5)C=C4)cc2)[C@H]([N@@H+](C)CCS(C)(=O)=O)C1
REMARK SMILES IDX 9 1 8 2 6 3 7 4 5 5 1 6 2 7 3 8 86 9 4 10 77 11 78 12 79 13
REMARK SMILES IDX 80 15 81 16 82 17 83 18 84 19 85 20 10 21 11 22 12 23 13 24
REMARK SMILES IDX 14 25 15 26 76 27 16 28 75 29 17 30 18 31 19 32 69 33 20 34
REMARK SMILES IDX 74 35 68 36 70 37 21 38 73 39 67 40 66 41 22 43 54 44 34 45
REMARK SMILES IDX 53 46 35 47 38 48 52 49 71 50 36 51 37 52 51 54 72 55 39 56
REMARK SMILES IDX 23 57 24 58 32 59 25 60 26 61 30 62 33 63 27 64 28 65 31 66
REMARK SMILES IDX 29 67 55 68 56 69 64 70 57 71 58 72 62 73 65 74 59 75 60 76
REMARK SMILES IDX 63 77 61 78 40 79 41 80 49 81 42 82 43 83 47 84 50 85 44 86
REMARK SMILES IDX 45 87 48 88 46 89
REMARK H PARENT 78 14 70 42 38 53
REMARK Flexibility Score: inf
ROOT
ATOM      1  C   UNL     1      -2.945   0.368  -3.297  1.00  0.00     0.274 C 
ENDROOT
BRANCH   1   2
ATOM      2  O   UNL     1      -2.615   0.686  -1.918  1.00  0.00    -0.462 OA
BRANCH   2   3
ATOM      3  C   UNL     1      -2.727  -0.354  -1.053  1.00  0.00     0.315 C 
ATOM      4  O   UNL     1      -3.334  -1.387  -1.325  1.00  0.00    -0.252 OA
BRANCH   3   5
ATOM      5  C   UNL     1      -2.035  -0.141   0.346  1.00  0.00     0.157 C 
ATOM      6  C   UNL     1       3.159  -0.161   1.626  1.00  0.00     0.008 C 
ATOM      7  C   UNL     1       1.626  -0.140   1.869  1.00  0.00    -0.008 C 
ATOM      8  C   UNL     1       0.679   1.534   1.560  1.00  0.00     0.005 C 
ATOM      9  C   UNL     1       0.771  -1.776   1.228  1.00  0.00     0.069 C 
ATOM     10  C   UNL     1      -1.226   1.496   0.994  1.00  0.00     0.022 C 
ATOM     11  C   UNL     1      -1.125  -1.803   0.793  1.00  0.00     0.198 C 
BRANCH  11  12
ATOM     12  N   UNL     1      -1.922  -2.159   1.966  1.00  0.00    -0.333 N 
ATOM     13  C   UNL     1      -1.452  -3.276   2.772  1.00  0.00     0.333 C 
ATOM     14  H   UNL     1      -2.853  -2.510   1.740  1.00  0.00     0.348 HD
BRANCH  12  15
ATOM     15  C   UNL     1      -1.823  -0.913   2.643  1.00  0.00     0.278 C 
BRANCH  15  16
ATOM     16  C   UNL     1      -0.532  -0.183   2.059  1.00  0.00     0.197 C 
BRANCH  16  17
ATOM     17  S   UNL     1       0.260   0.050  -0.236  1.00  0.00     0.152 S 
ATOM     18  C   UNL     1       0.050   1.667  -1.123  1.00  0.00     0.158 C 
ATOM     19  O   UNL     1       1.711   0.058  -0.390  1.00  0.00    -0.229 OA
ATOM     20  O   UNL     1      -0.282  -0.887  -1.221  1.00  0.00    -0.229 OA
ENDBRANCH  16  17
ENDBRANCH  15  16
ENDBRANCH  12  15
ENDBRANCH  11  12
ENDBRANCH   3   5
ENDBRANCH   2   3
ENDBRANCH   1   2
BRANCH   1  21
ATOM     21  C   UNL     1      -2.207   1.297  -4.286  1.00  0.00     0.275 C 
BRANCH  21  22
ATOM     22  O   UNL     1      -0.786   1.018  -4.285  1.00  0.00    -0.458 OA
BRANCH  22  23
ATOM     23  C   UNL     1       0.075   2.053  -4.515  1.00  0.00     0.338 C 
ATOM     24  O   UNL     1      -0.249   3.197  -4.787  1.00  0.00    -0.246 OA
BRANCH  23  25
ATOM     25  C   UNL     1       1.487   1.651  -4.181  1.00  0.00     0.060 A 
ATOM     26  C   UNL     1       1.745   0.373  -3.710  1.00  0.00     0.016 A 
ATOM     27  C   UNL     1       2.502   2.612  -4.038  1.00  0.00     0.016 A 
ATOM     28  C   UNL     1       2.887   0.146  -2.925  1.00  0.00     0.010 A 
ATOM     29  C   UNL     1       3.714   2.313  -3.349  1.00  0.00     0.010 A 
ATOM     30  C   UNL     1       3.912   1.083  -2.693  1.00  0.00    -0.014 A 
BRANCH  30  31
ATOM     31  C   UNL     1       5.079   0.794  -1.731  1.00  0.00     0.031 A 
ATOM     32  C   UNL     1       5.712   1.881  -0.852  1.00  0.00     0.074 A 
ATOM     33  C   UNL     1       5.560  -0.454  -1.482  1.00  0.00     0.049 A 
ATOM     34  N   UNL     1       6.883   1.894  -0.243  1.00  0.00    -0.248 NA
ATOM     35  C   UNL     1       4.919   3.091  -0.592  1.00  0.00     0.031 C 
ATOM     36  C   UNL     1       5.041  -1.713  -2.012  1.00  0.00     0.029 A 
ATOM     37  N   UNL     1       6.595  -0.880  -0.658  1.00  0.00    -0.354 N 
ATOM     38  C   UNL     1       7.001   3.136   0.379  1.00  0.00     0.074 A 
ATOM     39  C   UNL     1       5.762   3.839   0.112  1.00  0.00     0.031 C 
ATOM     40  C   UNL     1       5.630  -2.745  -1.399  1.00  0.00     0.029 A 
ATOM     41  C   UNL     1       6.768  -2.247  -0.647  1.00  0.00     0.049 A 
ATOM     42  H   UNL     1       7.152  -0.263  -0.132  1.00  0.00     0.167 HD
ATOM     43  C   UNL     1       8.043   3.652   1.089  1.00  0.00     0.037 A 
ATOM     44  C   UNL     1       7.768  -3.046  -0.220  1.00  0.00     0.037 A 
ATOM     45  C   UNL     1       9.241   2.931   1.463  1.00  0.00     0.049 A 
ATOM     46  C   UNL     1       9.005  -2.443   0.378  1.00  0.00     0.074 A 
ATOM     47  C   UNL     1      10.372   3.406   2.113  1.00  0.00     0.029 A 
ATOM     48  N   UNL     1       9.451   1.577   1.263  1.00  0.00    -0.354 N 
ATOM     49  N   UNL     1       9.230  -1.208   0.740  1.00  0.00    -0.248 NA
ATOM     50  C   UNL     1      10.150  -3.345   0.579  1.00  0.00     0.031 C 
ATOM     51  C   UNL     1      11.290   2.358   2.243  1.00  0.00     0.029 A 
ATOM     52  C   UNL     1      10.703   1.211   1.743  1.00  0.00     0.049 A 
ATOM     53  H   UNL     1       8.807   0.964   0.841  1.00  0.00     0.167 HD
ATOM     54  C   UNL     1      10.530  -1.187   1.228  1.00  0.00     0.074 A 
ATOM     55  C   UNL     1      11.036  -2.538   1.144  1.00  0.00     0.031 C 
ATOM     56  C   UNL     1      11.233  -0.127   1.691  1.00  0.00     0.037 A 
BRANCH  43  57
ATOM     57  C   UNL     1       8.008   5.120   1.436  1.00  0.00     0.064 A 
ATOM     58  C   UNL     1       7.194   5.655   2.442  1.00  0.00     0.173 A 
ATOM     59  C   UNL     1       8.892   5.999   0.780  1.00  0.00     0.173 A 
ATOM     60  F   UNL     1       6.334   4.868   3.106  1.00  0.00    -0.203 F 
ATOM     61  C   UNL     1       7.241   7.015   2.756  1.00  0.00     0.198 A 
ATOM     62  C   UNL     1       8.962   7.347   1.120  1.00  0.00     0.198 A 
ATOM     63  F   UNL     1       9.717   5.539  -0.173  1.00  0.00    -0.203 F 
ATOM     64  F   UNL     1       6.421   7.514   3.691  1.00  0.00    -0.200 F 
ATOM     65  C   UNL     1       8.129   7.857   2.101  1.00  0.00     0.200 A 
ATOM     66  F   UNL     1       9.842   8.148   0.504  1.00  0.00    -0.200 F 
ATOM     67  F   UNL     1       8.178   9.160   2.413  1.00  0.00    -0.200 F 
ENDBRANCH  43  57
BRANCH  44  68
ATOM     68  C   UNL     1       7.722  -4.515  -0.494  1.00  0.00     0.064 A 
ATOM     69  C   UNL     1       7.770  -5.454   0.545  1.00  0.00     0.173 A 
ATOM     70  C   UNL     1       7.682  -5.010  -1.811  1.00  0.00     0.173 A 
ATOM     71  F   UNL     1       7.862  -5.041   1.818  1.00  0.00    -0.203 F 
ATOM     72  C   UNL     1       7.788  -6.823   0.278  1.00  0.00     0.198 A 
ATOM     73  C   UNL     1       7.640  -6.376  -2.072  1.00  0.00     0.198 A 
ATOM     74  F   UNL     1       7.666  -4.163  -2.851  1.00  0.00    -0.203 F 
ATOM     75  F   UNL     1       7.909  -7.697   1.286  1.00  0.00    -0.200 F 
ATOM     76  C   UNL     1       7.707  -7.282  -1.028  1.00  0.00     0.200 A 
ATOM     77  F   UNL     1       7.542  -6.809  -3.337  1.00  0.00    -0.200 F 
ATOM     78  F   UNL     1       7.715  -8.597  -1.282  1.00  0.00    -0.200 F 
ENDBRANCH  44  68
BRANCH  56  79
ATOM     79  C   UNL     1      12.621  -0.382   2.207  1.00  0.00     0.064 A 
ATOM     80  C   UNL     1      13.675  -0.746   1.354  1.00  0.00     0.173 A 
ATOM     81  C   UNL     1      12.908  -0.248   3.575  1.00  0.00     0.173 A 
ATOM     82  F   UNL     1      13.456  -0.910   0.041  1.00  0.00    -0.203 F 
ATOM     83  C   UNL     1      14.952  -0.994   1.855  1.00  0.00     0.198 A 
ATOM     84  C   UNL     1      14.193  -0.463   4.067  1.00  0.00     0.198 A 
ATOM     85  F   UNL     1      11.940   0.097   4.438  1.00  0.00    -0.203 F 
ATOM     86  F   UNL     1      15.928  -1.397   1.028  1.00  0.00    -0.200 F 
ATOM     87  C   UNL     1      15.212  -0.844   3.208  1.00  0.00     0.200 A 
ATOM     88  F   UNL     1      14.444  -0.305   5.374  1.00  0.00    -0.200 F 
ATOM     89  F   UNL     1      16.442  -1.077   3.687  1.00  0.00    -0.200 F 
ENDBRANCH  56  79
ENDBRANCH  30  31
ENDBRANCH  23  25
ENDBRANCH  22  23
ENDBRANCH  21  22
ENDBRANCH   1  21
TORSDOF 15
