REMARK SMILES O=C(OCCOC(=O)[C@@H]1C=C[C@H](Nc2ncccn2)C1)c1ccc(-c2c3nc(c(-c4c(F)c(F)c(F)c(F)c4F)c4ccc([nH]4)c(-c4c(F)c(F)c(F)c(F)c4F)c4nc(c(-c5c(F)c(F)c(F)c(F)c5F)c5ccc2[nH]5)C=C4)C=C3)cc1
REMARK SMILES IDX 4 1 3 2 2 3 1 4 21 5 22 6 83 7 23 8 82 9 24 10 25 11 26 12
REMARK SMILES IDX 76 13 27 14 81 15 75 16 77 17 28 18 80 19 74 20 73 21 29 23
REMARK SMILES IDX 61 24 41 25 60 26 42 27 45 28 59 29 78 30 43 31 44 32 58 34
REMARK SMILES IDX 79 35 46 36 30 37 31 38 39 39 32 40 33 41 37 42 40 43 34 44
REMARK SMILES IDX 35 45 38 46 36 47 62 48 63 49 71 50 64 51 65 52 69 53 72 54
REMARK SMILES IDX 66 55 67 56 70 57 68 58 47 59 48 60 56 61 49 62 50 63 54 64
REMARK SMILES IDX 57 65 51 66 52 67 55 68 53 69 5 70 6 71 7 72 8 73 9 74 10 75
REMARK SMILES IDX 20 76 11 77 12 78 13 79 14 81 15 82 19 83 16 84 18 85 17 86
REMARK H PARENT 77 22 45 33 13 80
REMARK Flexibility Score: inf
ROOT
ATOM      1  C   UNL     1       2.077  -1.012  -6.236  1.00  0.00     0.275 C 
ENDROOT
BRANCH   1   2
ATOM      2  O   UNL     1       2.638   0.006  -7.065  1.00  0.00    -0.458 OA
BRANCH   2   3
ATOM      3  C   UNL     1       2.611   1.317  -6.792  1.00  0.00     0.338 C 
ATOM      4  O   UNL     1       3.518   2.028  -7.269  1.00  0.00    -0.246 OA
BRANCH   3   5
ATOM      5  C   UNL     1       1.594   1.954  -5.884  1.00  0.00     0.060 A 
ATOM      6  C   UNL     1       0.268   1.641  -5.588  1.00  0.00     0.016 A 
ATOM      7  C   UNL     1       2.063   3.064  -5.230  1.00  0.00     0.016 A 
ATOM      8  C   UNL     1      -0.493   2.404  -4.608  1.00  0.00     0.010 A 
ATOM      9  C   UNL     1       1.299   3.786  -4.297  1.00  0.00     0.010 A 
ATOM     10  C   UNL     1       0.036   3.498  -3.886  1.00  0.00    -0.014 A 
BRANCH  10  11
ATOM     11  C   UNL     1      -0.513   4.349  -2.741  1.00  0.00     0.031 A 
ATOM     12  C   UNL     1      -0.067   5.770  -2.252  1.00  0.00     0.074 A 
ATOM     13  C   UNL     1      -1.308   3.833  -1.796  1.00  0.00     0.049 A 
ATOM     14  N   UNL     1      -0.783   6.878  -2.281  1.00  0.00    -0.248 NA
ATOM     15  C   UNL     1       1.169   5.999  -1.456  1.00  0.00     0.031 C 
ATOM     16  C   UNL     1      -1.645   2.435  -1.593  1.00  0.00     0.029 A 
ATOM     17  N   UNL     1      -1.908   4.498  -0.759  1.00  0.00    -0.354 N 
ATOM     18  C   UNL     1       0.064   7.906  -1.856  1.00  0.00     0.074 A 
ATOM     19  C   UNL     1       1.250   7.320  -1.327  1.00  0.00     0.031 C 
ATOM     20  C   UNL     1      -2.357   2.336  -0.459  1.00  0.00     0.029 A 
ATOM     21  C   UNL     1      -2.551   3.674   0.105  1.00  0.00     0.049 A 
ATOM     22  H   UNL     1      -1.875   5.476  -0.651  1.00  0.00     0.167 HD
ATOM     23  C   UNL     1      -0.189   9.228  -1.782  1.00  0.00     0.037 A 
ATOM     24  C   UNL     1      -3.224   3.990   1.222  1.00  0.00     0.037 A 
ATOM     25  C   UNL     1      -1.401   9.675  -1.194  1.00  0.00     0.049 A 
ATOM     26  C   UNL     1      -3.515   5.425   1.578  1.00  0.00     0.074 A 
ATOM     27  C   UNL     1      -1.942  10.935  -1.061  1.00  0.00     0.029 A 
ATOM     28  N   UNL     1      -2.154   8.812  -0.425  1.00  0.00    -0.354 N 
ATOM     29  N   UNL     1      -3.144   6.535   0.985  1.00  0.00    -0.248 NA
ATOM     30  C   UNL     1      -4.390   5.635   2.738  1.00  0.00     0.031 C 
ATOM     31  C   UNL     1      -2.958  10.842  -0.092  1.00  0.00     0.029 A 
ATOM     32  C   UNL     1      -3.047   9.522   0.332  1.00  0.00     0.049 A 
ATOM     33  H   UNL     1      -2.063   7.832  -0.422  1.00  0.00     0.167 HD
ATOM     34  C   UNL     1      -3.810   7.569   1.648  1.00  0.00     0.074 A 
ATOM     35  C   UNL     1      -4.563   6.951   2.718  1.00  0.00     0.031 C 
ATOM     36  C   UNL     1      -3.826   8.900   1.368  1.00  0.00     0.037 A 
BRANCH  23  37
ATOM     37  C   UNL     1       0.790  10.196  -2.361  1.00  0.00     0.064 A 
ATOM     38  C   UNL     1       0.666  10.491  -3.732  1.00  0.00     0.173 A 
ATOM     39  C   UNL     1       1.731  10.929  -1.633  1.00  0.00     0.173 A 
ATOM     40  F   UNL     1      -0.298   9.905  -4.460  1.00  0.00    -0.203 F 
ATOM     41  C   UNL     1       1.490  11.413  -4.367  1.00  0.00     0.198 A 
ATOM     42  C   UNL     1       2.530  11.892  -2.264  1.00  0.00     0.198 A 
ATOM     43  F   UNL     1       1.857  10.748  -0.310  1.00  0.00    -0.203 F 
ATOM     44  F   UNL     1       1.356  11.634  -5.682  1.00  0.00    -0.200 F 
ATOM     45  C   UNL     1       2.421  12.120  -3.630  1.00  0.00     0.200 A 
ATOM     46  F   UNL     1       3.393  12.624  -1.543  1.00  0.00    -0.200 F 
ATOM     47  F   UNL     1       3.187  13.043  -4.229  1.00  0.00    -0.200 F 
ENDBRANCH  23  37
BRANCH  24  48
ATOM     48  C   UNL     1      -3.724   2.861   2.023  1.00  0.00     0.064 A 
ATOM     49  C   UNL     1      -5.043   2.421   1.889  1.00  0.00     0.173 A 
ATOM     50  C   UNL     1      -2.845   2.123   2.828  1.00  0.00     0.173 A 
ATOM     51  F   UNL     1      -5.894   3.092   1.099  1.00  0.00    -0.203 F 
ATOM     52  C   UNL     1      -5.477   1.280   2.552  1.00  0.00     0.198 A 
ATOM     53  C   UNL     1      -3.278   0.975   3.480  1.00  0.00     0.198 A 
ATOM     54  F   UNL     1      -1.560   2.494   2.937  1.00  0.00    -0.203 F 
ATOM     55  F   UNL     1      -6.744   0.872   2.412  1.00  0.00    -0.200 F 
ATOM     56  C   UNL     1      -4.594   0.557   3.344  1.00  0.00     0.200 A 
ATOM     57  F   UNL     1      -2.417   0.263   4.219  1.00  0.00    -0.200 F 
ATOM     58  F   UNL     1      -5.011  -0.552   3.968  1.00  0.00    -0.200 F 
ENDBRANCH  24  48
BRANCH  36  59
ATOM     59  C   UNL     1      -4.712   9.802   2.162  1.00  0.00     0.064 A 
ATOM     60  C   UNL     1      -4.419  10.156   3.483  1.00  0.00     0.173 A 
ATOM     61  C   UNL     1      -5.801  10.426   1.532  1.00  0.00     0.173 A 
ATOM     62  F   UNL     1      -3.387   9.587   4.123  1.00  0.00    -0.203 F 
ATOM     63  C   UNL     1      -5.194  11.099   4.153  1.00  0.00     0.198 A 
ATOM     64  C   UNL     1      -6.552  11.389   2.193  1.00  0.00     0.198 A 
ATOM     65  F   UNL     1      -6.104  10.131   0.259  1.00  0.00    -0.203 F 
ATOM     66  F   UNL     1      -4.913  11.411   5.426  1.00  0.00    -0.200 F 
ATOM     67  C   UNL     1      -6.250  11.723   3.503  1.00  0.00     0.200 A 
ATOM     68  F   UNL     1      -7.555  12.007   1.554  1.00  0.00    -0.200 F 
ATOM     69  F   UNL     1      -6.977  12.650   4.141  1.00  0.00    -0.200 F 
ENDBRANCH  36  59
ENDBRANCH  10  11
ENDBRANCH   3   5
ENDBRANCH   2   3
ENDBRANCH   1   2
BRANCH   1  70
ATOM     70  C   UNL     1       2.696  -1.153  -4.839  1.00  0.00     0.274 C 
BRANCH  70  71
ATOM     71  O   UNL     1       2.837   0.075  -4.088  1.00  0.00    -0.462 OA
BRANCH  71  72
ATOM     72  C   UNL     1       4.106   0.459  -3.764  1.00  0.00     0.312 C 
ATOM     73  O   UNL     1       5.122  -0.143  -4.156  1.00  0.00    -0.252 OA
BRANCH  72  74
ATOM     74  C   UNL     1       4.218   1.622  -2.775  1.00  0.00     0.124 C 
ATOM     75  C   UNL     1       2.962   2.042  -2.110  1.00  0.00    -0.014 C 
ATOM     76  C   UNL     1       4.813   2.967  -3.311  1.00  0.00     0.048 C 
ATOM     77  C   UNL     1       2.929   3.369  -1.963  1.00  0.00    -0.006 C 
ATOM     78  C   UNL     1       4.107   4.110  -2.560  1.00  0.00     0.106 C 
BRANCH  78  79
ATOM     79  N   UNL     1       3.912   5.463  -3.177  1.00  0.00    -0.348 N 
ATOM     80  H   UNL     1       4.366   6.145  -2.631  1.00  0.00     0.164 HD
BRANCH  79  81
ATOM     81  C   UNL     1       3.301   6.067  -4.268  1.00  0.00     0.223 A 
ATOM     82  N   UNL     1       3.318   5.613  -5.523  1.00  0.00    -0.222 NA
ATOM     83  N   UNL     1       2.433   7.035  -3.928  1.00  0.00    -0.222 NA
ATOM     84  C   UNL     1       2.276   5.959  -6.356  1.00  0.00     0.117 A 
ATOM     85  C   UNL     1       1.382   7.285  -4.761  1.00  0.00     0.117 A 
ATOM     86  C   UNL     1       1.214   6.734  -5.989  1.00  0.00     0.040 A 
ENDBRANCH  79  81
ENDBRANCH  78  79
ENDBRANCH  72  74
ENDBRANCH  71  72
ENDBRANCH  70  71
ENDBRANCH   1  70
TORSDOF 13
