REMARK SMILES Cc1ccc(S(=O)(=O)Nc2cc3c(cc2C(=O)OCCOC(=O)c2ccc(-c4c5nc(c(-c6c(F)c(F)c(F)c(F)c6F)c6ccc([nH]6)c(-c6c(F)c(F)c(F)c(F)c6F)c6nc(c(-c7c(F)c(F)c(F)c(F)c7F)c7ccc4[nH]7)C=C6)C=C5)cc2)OCCO3)s1
REMARK SMILES IDX 19 1 18 2 16 3 17 4 15 5 10 6 11 7 12 8 14 9 13 10 90 11
REMARK SMILES IDX 87 12 89 13 88 14 9 15 6 17 7 18 8 19 5 20 1 21 2 22 3 23
REMARK SMILES IDX 91 24 4 25 20 26 21 27 22 28 23 29 24 30 25 31 86 32 26 33
REMARK SMILES IDX 85 34 27 35 28 36 29 37 79 38 30 39 84 40 78 41 80 42 31 43
REMARK SMILES IDX 83 44 77 45 76 46 32 48 64 49 44 50 63 51 45 52 48 53 62 54
REMARK SMILES IDX 81 55 46 56 47 57 61 59 82 60 49 61 33 62 34 63 42 64 35 65
REMARK SMILES IDX 36 66 40 67 43 68 37 69 38 70 41 71 39 72 65 73 66 74 74 75
REMARK SMILES IDX 67 76 68 77 72 78 75 79 69 80 70 81 73 82 71 83 50 84 51 85
REMARK SMILES IDX 59 86 52 87 53 88 57 89 60 90 54 91 55 92 58 93 56 94
REMARK H PARENT 9 16 80 47 48 58
REMARK Flexibility Score: inf
ROOT
ATOM      1  C   UNL     1      -1.004  -0.978   3.522  1.00  0.00     0.275 C 
ENDROOT
BRANCH   1   2
ATOM      2  O   UNL     1      -1.326  -1.658   2.286  1.00  0.00    -0.458 OA
BRANCH   2   3
ATOM      3  C   UNL     1      -2.648  -1.756   2.013  1.00  0.00     0.340 C 
ATOM      4  O   UNL     1      -3.567  -1.284   2.666  1.00  0.00    -0.246 OA
BRANCH   3   5
ATOM      5  C   UNL     1      -2.914  -2.669   0.888  1.00  0.00     0.088 A 
ATOM      6  C   UNL     1      -3.575  -2.240  -0.277  1.00  0.00     0.067 A 
ATOM      7  C   UNL     1      -4.190  -3.178  -1.107  1.00  0.00     0.078 A 
ATOM      8  C   UNL     1      -4.016  -4.533  -0.866  1.00  0.00     0.163 A 
ATOM      9  C   UNL     1      -2.719  -4.037   1.118  1.00  0.00     0.068 A 
ATOM     10  C   UNL     1      -3.219  -4.959   0.202  1.00  0.00     0.162 A 
ATOM     11  O   UNL     1      -4.615  -5.385  -1.755  1.00  0.00    -0.486 OA
ATOM     12  O   UNL     1      -2.902  -6.277   0.403  1.00  0.00    -0.486 OA
ATOM     13  C   UNL     1      -4.511  -6.750  -1.339  1.00  0.00     0.271 C 
ATOM     14  C   UNL     1      -3.118  -7.031  -0.801  1.00  0.00     0.271 C 
BRANCH   6  15
ATOM     15  N   UNL     1      -3.524  -0.879  -0.727  1.00  0.00    -0.278 N 
ATOM     16  H   UNL     1      -4.033  -0.162  -0.285  1.00  0.00     0.180 HD
BRANCH  15  17
ATOM     17  S   UNL     1      -2.513  -0.577  -2.095  1.00  0.00     0.271 S 
ATOM     18  O   UNL     1      -2.553   0.860  -2.310  1.00  0.00    -0.200 OA
ATOM     19  O   UNL     1      -2.903  -1.479  -3.148  1.00  0.00    -0.200 OA
BRANCH  17  20
ATOM     20  C   UNL     1      -0.850  -1.038  -1.681  1.00  0.00     0.140 A 
ATOM     21  C   UNL     1       2.731  -0.169  -0.432  1.00  0.00     0.056 C 
ATOM     22  C   UNL     1       1.480  -0.789  -0.946  1.00  0.00     0.003 A 
ATOM     23  C   UNL     1       1.031  -2.083  -0.791  1.00  0.00     0.016 A 
ATOM     24  S   UNL     1       0.366   0.151  -1.844  1.00  0.00    -0.127 S 
ATOM     25  C   UNL     1      -0.301  -2.239  -1.267  1.00  0.00     0.034 A 
ENDBRANCH  17  20
ENDBRANCH  15  17
ENDBRANCH   6  15
ENDBRANCH   3   5
ENDBRANCH   2   3
ENDBRANCH   1   2
BRANCH   1  26
ATOM     26  C   UNL     1      -0.591   0.476   3.304  1.00  0.00     0.275 C 
BRANCH  26  27
ATOM     27  O   UNL     1      -1.703   1.243   2.802  1.00  0.00    -0.458 OA
BRANCH  27  28
ATOM     28  C   UNL     1      -1.595   1.560   1.495  1.00  0.00     0.338 C 
ATOM     29  O   UNL     1      -0.636   1.329   0.776  1.00  0.00    -0.246 OA
BRANCH  28  30
ATOM     30  C   UNL     1      -2.799   2.209   0.958  1.00  0.00     0.060 A 
ATOM     31  C   UNL     1      -4.013   1.534   0.988  1.00  0.00     0.016 A 
ATOM     32  C   UNL     1      -2.655   3.360   0.179  1.00  0.00     0.016 A 
ATOM     33  C   UNL     1      -5.031   1.925   0.124  1.00  0.00     0.010 A 
ATOM     34  C   UNL     1      -3.729   3.825  -0.589  1.00  0.00     0.010 A 
ATOM     35  C   UNL     1      -4.920   3.089  -0.658  1.00  0.00    -0.014 A 
BRANCH  35  36
ATOM     36  C   UNL     1      -6.074   3.534  -1.489  1.00  0.00     0.031 A 
ATOM     37  C   UNL     1      -5.953   3.765  -2.974  1.00  0.00     0.074 A 
ATOM     38  C   UNL     1      -7.271   3.703  -0.891  1.00  0.00     0.049 A 
ATOM     39  N   UNL     1      -6.832   4.285  -3.799  1.00  0.00    -0.248 NA
ATOM     40  C   UNL     1      -4.699   3.359  -3.623  1.00  0.00     0.031 C 
ATOM     41  C   UNL     1      -7.541   3.474   0.530  1.00  0.00     0.029 A 
ATOM     42  N   UNL     1      -8.488   4.089  -1.397  1.00  0.00    -0.354 N 
ATOM     43  C   UNL     1      -6.226   4.299  -5.051  1.00  0.00     0.074 A 
ATOM     44  C   UNL     1      -4.907   3.727  -4.883  1.00  0.00     0.031 C 
ATOM     45  C   UNL     1      -8.843   3.655   0.769  1.00  0.00     0.029 A 
ATOM     46  C   UNL     1      -9.472   4.160  -0.443  1.00  0.00     0.049 A 
ATOM     47  H   UNL     1      -8.639   4.294  -2.348  1.00  0.00     0.167 HD
ATOM     48  C   UNL     1      -6.726   4.758  -6.224  1.00  0.00     0.037 A 
ATOM     49  C   UNL     1     -10.722   4.653  -0.496  1.00  0.00     0.037 A 
ATOM     50  C   UNL     1      -8.052   5.307  -6.388  1.00  0.00     0.049 A 
ATOM     51  C   UNL     1     -11.213   5.248  -1.776  1.00  0.00     0.074 A 
ATOM     52  C   UNL     1      -8.655   5.780  -7.541  1.00  0.00     0.029 A 
ATOM     53  N   UNL     1      -8.979   5.456  -5.367  1.00  0.00    -0.354 N 
ATOM     54  N   UNL     1     -10.607   5.322  -2.934  1.00  0.00    -0.248 NA
ATOM     55  C   UNL     1     -12.546   5.860  -1.748  1.00  0.00     0.031 C 
ATOM     56  C   UNL     1      -9.925   6.264  -7.208  1.00  0.00     0.029 A 
ATOM     57  C   UNL     1     -10.135   6.045  -5.857  1.00  0.00     0.049 A 
ATOM     58  H   UNL     1      -8.837   5.184  -4.431  1.00  0.00     0.167 HD
ATOM     59  C   UNL     1     -11.477   5.998  -3.773  1.00  0.00     0.074 A 
ATOM     60  C   UNL     1     -12.667   6.286  -2.998  1.00  0.00     0.031 C 
ATOM     61  C   UNL     1     -11.299   6.356  -5.068  1.00  0.00     0.037 A 
BRANCH  48  62
ATOM     62  C   UNL     1      -5.838   4.737  -7.436  1.00  0.00     0.064 A 
ATOM     63  C   UNL     1      -5.567   3.556  -8.140  1.00  0.00     0.173 A 
ATOM     64  C   UNL     1      -5.340   5.941  -7.961  1.00  0.00     0.173 A 
ATOM     65  F   UNL     1      -6.020   2.379  -7.684  1.00  0.00    -0.203 F 
ATOM     66  C   UNL     1      -4.828   3.580  -9.322  1.00  0.00     0.198 A 
ATOM     67  C   UNL     1      -4.621   5.965  -9.153  1.00  0.00     0.198 A 
ATOM     68  F   UNL     1      -5.581   7.103  -7.333  1.00  0.00    -0.203 F 
ATOM     69  F   UNL     1      -4.572   2.438  -9.976  1.00  0.00    -0.200 F 
ATOM     70  C   UNL     1      -4.365   4.784  -9.833  1.00  0.00     0.200 A 
ATOM     71  F   UNL     1      -4.193   7.132  -9.654  1.00  0.00    -0.200 F 
ATOM     72  F   UNL     1      -3.678   4.808 -10.984  1.00  0.00    -0.200 F 
ENDBRANCH  48  62
BRANCH  49  73
ATOM     73  C   UNL     1     -11.533   4.686   0.747  1.00  0.00     0.064 A 
ATOM     74  C   UNL     1     -12.652   3.861   0.906  1.00  0.00     0.173 A 
ATOM     75  C   UNL     1     -11.152   5.492   1.833  1.00  0.00     0.173 A 
ATOM     76  F   UNL     1     -13.069   3.093  -0.112  1.00  0.00    -0.203 F 
ATOM     77  C   UNL     1     -13.350   3.828   2.111  1.00  0.00     0.198 A 
ATOM     78  C   UNL     1     -11.827   5.431   3.047  1.00  0.00     0.198 A 
ATOM     79  F   UNL     1     -10.085   6.299   1.728  1.00  0.00    -0.203 F 
ATOM     80  F   UNL     1     -14.429   3.044   2.236  1.00  0.00    -0.200 F 
ATOM     81  C   UNL     1     -12.927   4.600   3.185  1.00  0.00     0.200 A 
ATOM     82  F   UNL     1     -11.397   6.158   4.087  1.00  0.00    -0.200 F 
ATOM     83  F   UNL     1     -13.579   4.540   4.354  1.00  0.00    -0.200 F 
ENDBRANCH  49  73
BRANCH  61  84
ATOM     84  C   UNL     1     -12.426   7.098  -5.718  1.00  0.00     0.064 A 
ATOM     85  C   UNL     1     -12.692   8.439  -5.404  1.00  0.00     0.173 A 
ATOM     86  C   UNL     1     -13.256   6.461  -6.652  1.00  0.00     0.173 A 
ATOM     87  F   UNL     1     -11.939   9.082  -4.499  1.00  0.00    -0.203 F 
ATOM     88  C   UNL     1     -13.769   9.107  -5.979  1.00  0.00     0.198 A 
ATOM     89  C   UNL     1     -14.316   7.140  -7.245  1.00  0.00     0.198 A 
ATOM     90  F   UNL     1     -13.041   5.180  -6.984  1.00  0.00    -0.203 F 
ATOM     91  F   UNL     1     -14.040  10.370  -5.622  1.00  0.00    -0.200 F 
ATOM     92  C   UNL     1     -14.577   8.458  -6.901  1.00  0.00     0.200 A 
ATOM     93  F   UNL     1     -15.093   6.515  -8.139  1.00  0.00    -0.200 F 
ATOM     94  F   UNL     1     -15.619   9.100  -7.448  1.00  0.00    -0.200 F 
ENDBRANCH  61  84
ENDBRANCH  35  36
ENDBRANCH  28  30
ENDBRANCH  27  28
ENDBRANCH  26  27
ENDBRANCH   1  26
TORSDOF 14
