REMARK SMILES CC(C)n1ccc(C#CC(=O)OCCOC(=O)c2ccc(-c3c4nc(c(-c5c(F)c(F)c(F)c(F)c5F)c5ccc([nH]5)c(-c5c(F)c(F)c(F)c(F)c5F)c5nc(c(-c6c(F)c(F)c(F)c(F)c6F)c6ccc3[nH]6)C=C5)C=C4)cc2)n1
REMARK SMILES IDX 13 1 12 2 10 3 11 4 9 5 8 6 7 7 4 8 5 9 81 10 6 11 2 12 1 13
REMARK SMILES IDX 3 14 14 15 15 16 16 17 17 18 18 19 19 20 80 21 20 22 79 23
REMARK SMILES IDX 21 24 22 25 23 26 73 27 24 28 78 29 72 30 74 31 25 32 77 33
REMARK SMILES IDX 71 34 70 35 26 37 58 38 38 39 57 40 39 41 42 42 56 43 75 44
REMARK SMILES IDX 40 45 41 46 55 48 76 49 43 50 27 51 28 52 36 53 29 54 30 55
REMARK SMILES IDX 34 56 37 57 31 58 32 59 35 60 33 61 59 62 60 63 68 64 61 65
REMARK SMILES IDX 62 66 66 67 69 68 63 69 64 70 67 71 65 72 44 73 45 74 53 75
REMARK SMILES IDX 46 76 47 77 51 78 54 79 48 80 49 81 52 82 50 83
REMARK H PARENT 74 36 42 47
REMARK Flexibility Score: inf
ROOT
ATOM      1  C   UNL     1      -8.439   3.356   2.106  1.00  0.00     0.275 C 
ENDROOT
BRANCH   1   2
ATOM      2  O   UNL     1      -7.316   2.460   2.097  1.00  0.00    -0.452 OA
BRANCH   2   3
ATOM      3  C   UNL     1      -6.497   2.561   1.014  1.00  0.00     0.384 C 
ATOM      4  O   UNL     1      -6.715   3.207  -0.000  1.00  0.00    -0.236 OA
BRANCH   3   5
ATOM      5  C   UNL     1      -5.265   1.835   1.178  1.00  0.00     0.024 C 
ATOM      6  C   UNL     1      -4.238   1.231   1.301  1.00  0.00    -0.033 C 
BRANCH   6   7
ATOM      7  C   UNL     1      -3.080   0.410   1.419  1.00  0.00     0.135 A 
ATOM      8  N   UNL     1      -1.044  -0.134   1.497  1.00  0.00    -0.269 N 
ATOM      9  C   UNL     1      -1.731  -1.318   1.567  1.00  0.00     0.110 A 
ATOM     10  N   UNL     1      -1.855   0.943   1.387  1.00  0.00    -0.164 NA
ATOM     11  C   UNL     1      -3.063  -0.990   1.530  1.00  0.00     0.059 A 
BRANCH   8  12
ATOM     12  C   UNL     1       0.411  -0.006   1.476  1.00  0.00     0.101 C 
ATOM     13  C   UNL     1       0.934   0.093   0.045  1.00  0.00     0.033 C 
ATOM     14  C   UNL     1       0.932   1.141   2.341  1.00  0.00     0.033 C 
ENDBRANCH   8  12
ENDBRANCH   6   7
ENDBRANCH   3   5
ENDBRANCH   2   3
ENDBRANCH   1   2
BRANCH   1  15
ATOM     15  C   UNL     1      -8.089   4.667   2.794  1.00  0.00     0.275 C 
BRANCH  15  16
ATOM     16  O   UNL     1      -7.142   5.425   2.040  1.00  0.00    -0.458 OA
BRANCH  16  17
ATOM     17  C   UNL     1      -5.855   5.261   2.425  1.00  0.00     0.338 C 
ATOM     18  O   UNL     1      -5.378   4.309   3.020  1.00  0.00    -0.246 OA
BRANCH  17  19
ATOM     19  C   UNL     1      -5.147   6.535   2.276  1.00  0.00     0.060 A 
ATOM     20  C   UNL     1      -3.764   6.542   2.475  1.00  0.00     0.016 A 
ATOM     21  C   UNL     1      -5.894   7.721   2.237  1.00  0.00     0.016 A 
ATOM     22  C   UNL     1      -3.149   7.740   2.781  1.00  0.00     0.010 A 
ATOM     23  C   UNL     1      -5.286   8.907   2.567  1.00  0.00     0.010 A 
ATOM     24  C   UNL     1      -3.933   8.896   2.896  1.00  0.00    -0.014 A 
BRANCH  24  25
ATOM     25  C   UNL     1      -3.279  10.164   3.156  1.00  0.00     0.031 A 
ATOM     26  C   UNL     1      -2.503  10.618   1.977  1.00  0.00     0.074 A 
ATOM     27  C   UNL     1      -3.498  10.888   4.272  1.00  0.00     0.049 A 
ATOM     28  N   UNL     1      -1.222  10.738   1.884  1.00  0.00    -0.248 NA
ATOM     29  C   UNL     1      -3.210  10.758   0.689  1.00  0.00     0.031 C 
ATOM     30  C   UNL     1      -4.453  10.613   5.349  1.00  0.00     0.029 A 
ATOM     31  N   UNL     1      -2.968  12.089   4.643  1.00  0.00    -0.354 N 
ATOM     32  C   UNL     1      -0.986  11.193   0.592  1.00  0.00     0.074 A 
ATOM     33  C   UNL     1      -2.196  10.971  -0.149  1.00  0.00     0.031 C 
ATOM     34  C   UNL     1      -4.595  11.716   6.120  1.00  0.00     0.029 A 
ATOM     35  C   UNL     1      -3.652  12.727   5.677  1.00  0.00     0.049 A 
ATOM     36  H   UNL     1      -2.169  12.473   4.216  1.00  0.00     0.167 HD
ATOM     37  C   UNL     1       0.065  12.021   0.350  1.00  0.00     0.037 A 
ATOM     38  C   UNL     1      -3.479  14.014   6.084  1.00  0.00     0.037 A 
ATOM     39  C   UNL     1       1.052  11.900   1.397  1.00  0.00     0.049 A 
ATOM     40  C   UNL     1      -2.155  14.456   5.582  1.00  0.00     0.074 A 
ATOM     41  C   UNL     1       1.836  10.877   1.894  1.00  0.00     0.029 A 
ATOM     42  N   UNL     1       1.041  12.871   2.364  1.00  0.00    -0.354 N 
ATOM     43  N   UNL     1      -1.022  13.985   6.018  1.00  0.00    -0.248 NA
ATOM     44  C   UNL     1      -2.111  15.087   4.274  1.00  0.00     0.031 C 
ATOM     45  C   UNL     1       1.898  11.102   3.303  1.00  0.00     0.029 A 
ATOM     46  C   UNL     1       1.220  12.287   3.588  1.00  0.00     0.049 A 
ATOM     47  H   UNL     1       0.923  13.835   2.203  1.00  0.00     0.167 HD
ATOM     48  C   UNL     1      -0.249  13.835   4.877  1.00  0.00     0.074 A 
ATOM     49  C   UNL     1      -0.934  14.620   3.852  1.00  0.00     0.031 C 
ATOM     50  C   UNL     1       0.695  12.850   4.811  1.00  0.00     0.037 A 
BRANCH  37  51
ATOM     51  C   UNL     1      -0.045  13.261  -0.517  1.00  0.00     0.064 A 
ATOM     52  C   UNL     1       1.109  14.046  -0.713  1.00  0.00     0.173 A 
ATOM     53  C   UNL     1      -1.262  13.881  -0.883  1.00  0.00     0.173 A 
ATOM     54  F   UNL     1       2.320  13.573  -0.381  1.00  0.00    -0.203 F 
ATOM     55  C   UNL     1       1.037  15.372  -1.149  1.00  0.00     0.198 A 
ATOM     56  C   UNL     1      -1.324  15.186  -1.367  1.00  0.00     0.198 A 
ATOM     57  F   UNL     1      -2.455  13.312  -0.687  1.00  0.00    -0.203 F 
ATOM     58  F   UNL     1       2.148  16.120  -1.183  1.00  0.00    -0.200 F 
ATOM     59  C   UNL     1      -0.180  15.944  -1.468  1.00  0.00     0.200 A 
ATOM     60  F   UNL     1      -2.519  15.726  -1.647  1.00  0.00    -0.200 F 
ATOM     61  F   UNL     1      -0.259  17.233  -1.820  1.00  0.00    -0.200 F 
ENDBRANCH  37  51
BRANCH  38  62
ATOM     62  C   UNL     1      -4.489  14.996   6.560  1.00  0.00     0.064 A 
ATOM     63  C   UNL     1      -4.095  16.209   7.158  1.00  0.00     0.173 A 
ATOM     64  C   UNL     1      -5.835  14.911   6.160  1.00  0.00     0.173 A 
ATOM     65  F   UNL     1      -2.819  16.398   7.525  1.00  0.00    -0.203 F 
ATOM     66  C   UNL     1      -4.986  17.278   7.315  1.00  0.00     0.198 A 
ATOM     67  C   UNL     1      -6.724  15.978   6.321  1.00  0.00     0.198 A 
ATOM     68  F   UNL     1      -6.291  13.831   5.511  1.00  0.00    -0.203 F 
ATOM     69  F   UNL     1      -4.554  18.441   7.825  1.00  0.00    -0.200 F 
ATOM     70  C   UNL     1      -6.296  17.166   6.884  1.00  0.00     0.200 A 
ATOM     71  F   UNL     1      -7.979  15.870   5.862  1.00  0.00    -0.200 F 
ATOM     72  F   UNL     1      -7.132  18.210   6.971  1.00  0.00    -0.200 F 
ENDBRANCH  38  62
BRANCH  50  73
ATOM     73  C   UNL     1       1.087  12.179   6.100  1.00  0.00     0.064 A 
ATOM     74  C   UNL     1       0.214  11.439   6.920  1.00  0.00     0.173 A 
ATOM     75  C   UNL     1       2.438  12.213   6.468  1.00  0.00     0.173 A 
ATOM     76  F   UNL     1      -1.073  11.274   6.589  1.00  0.00    -0.203 F 
ATOM     77  C   UNL     1       0.670  10.814   8.081  1.00  0.00     0.198 A 
ATOM     78  C   UNL     1       2.898  11.554   7.603  1.00  0.00     0.198 A 
ATOM     79  F   UNL     1       3.327  12.861   5.699  1.00  0.00    -0.203 F 
ATOM     80  F   UNL     1      -0.185  10.137   8.862  1.00  0.00    -0.200 F 
ATOM     81  C   UNL     1       2.013  10.868   8.418  1.00  0.00     0.200 A 
ATOM     82  F   UNL     1       4.205  11.569   7.897  1.00  0.00    -0.200 F 
ATOM     83  F   UNL     1       2.458  10.241   9.516  1.00  0.00    -0.200 F 
ENDBRANCH  50  73
ENDBRANCH  24  25
ENDBRANCH  17  19
ENDBRANCH  16  17
ENDBRANCH  15  16
ENDBRANCH   1  15
TORSDOF 13
