REMARK SMILES O=C(OCCOC(=O)[C@H]1CS[C@]2(c3ccccc3)CCC(=O)N12)c1ccc(-c2c3nc(c(-c4c(F)c(F)c(F)c(F)c4F)c4ccc([nH]4)c(-c4c(F)c(F)c(F)c(F)c4F)c4nc(c(-c5c(F)c(F)c(F)c(F)c5F)c5ccc2[nH]5)C=C4)C=C3)cc1
REMARK SMILES IDX 4 1 3 2 2 3 1 4 24 5 25 6 86 7 26 8 85 9 27 10 28 11 29 12
REMARK SMILES IDX 79 13 30 14 84 15 78 16 80 17 31 18 83 19 77 20 76 21 32 23
REMARK SMILES IDX 64 24 44 25 63 26 45 27 48 28 62 29 81 30 46 31 47 32 61 34
REMARK SMILES IDX 82 35 49 36 33 37 34 38 42 39 35 40 36 41 40 42 43 43 37 44
REMARK SMILES IDX 38 45 41 46 39 47 65 48 66 49 74 50 67 51 68 52 72 53 75 54
REMARK SMILES IDX 69 55 70 56 73 57 71 58 50 59 51 60 59 61 52 62 53 63 57 64
REMARK SMILES IDX 60 65 54 66 55 67 58 68 56 69 5 70 6 71 7 72 8 73 9 74 10 75
REMARK SMILES IDX 23 76 11 77 12 78 21 79 19 80 20 81 22 82 13 83 14 84 18 85
REMARK SMILES IDX 15 86 17 87 16 88
REMARK H PARENT 80 22 48 33
REMARK Flexibility Score: inf
ROOT
ATOM      1  C   UNL     1       6.234   0.205   3.650  1.00  0.00     0.275 C 
ENDROOT
BRANCH   1   2
ATOM      2  O   UNL     1       5.068  -0.266   2.947  1.00  0.00    -0.458 OA
BRANCH   2   3
ATOM      3  C   UNL     1       4.504  -1.437   3.369  1.00  0.00     0.338 C 
ATOM      4  O   UNL     1       4.771  -2.532   2.901  1.00  0.00    -0.246 OA
BRANCH   3   5
ATOM      5  C   UNL     1       3.277  -1.183   4.180  1.00  0.00     0.060 A 
ATOM      6  C   UNL     1       3.349  -0.628   5.461  1.00  0.00     0.016 A 
ATOM      7  C   UNL     1       2.018  -1.395   3.607  1.00  0.00     0.016 A 
ATOM      8  C   UNL     1       2.191  -0.136   6.097  1.00  0.00     0.010 A 
ATOM      9  C   UNL     1       0.866  -0.882   4.234  1.00  0.00     0.010 A 
ATOM     10  C   UNL     1       0.941  -0.206   5.470  1.00  0.00    -0.014 A 
BRANCH  10  11
ATOM     11  C   UNL     1      -0.325   0.208   6.163  1.00  0.00     0.031 A 
ATOM     12  C   UNL     1      -1.103  -0.857   6.827  1.00  0.00     0.074 A 
ATOM     13  C   UNL     1      -0.811   1.464   6.262  1.00  0.00     0.049 A 
ATOM     14  N   UNL     1      -2.208  -0.740   7.506  1.00  0.00    -0.248 NA
ATOM     15  C   UNL     1      -0.535  -2.209   6.776  1.00  0.00     0.031 C 
ATOM     16  C   UNL     1      -0.058   2.616   5.870  1.00  0.00     0.029 A 
ATOM     17  N   UNL     1      -2.001   2.017   6.683  1.00  0.00    -0.354 N 
ATOM     18  C   UNL     1      -2.415  -1.984   8.049  1.00  0.00     0.074 A 
ATOM     19  C   UNL     1      -1.416  -2.877   7.498  1.00  0.00     0.031 C 
ATOM     20  C   UNL     1      -0.810   3.727   5.901  1.00  0.00     0.029 A 
ATOM     21  C   UNL     1      -2.122   3.365   6.385  1.00  0.00     0.049 A 
ATOM     22  H   UNL     1      -2.699   1.504   7.151  1.00  0.00     0.167 HD
ATOM     23  C   UNL     1      -3.303  -2.316   9.008  1.00  0.00     0.037 A 
ATOM     24  C   UNL     1      -3.150   4.230   6.499  1.00  0.00     0.037 A 
ATOM     25  C   UNL     1      -4.311  -1.430   9.513  1.00  0.00     0.049 A 
ATOM     26  C   UNL     1      -4.303   3.766   7.327  1.00  0.00     0.074 A 
ATOM     27  C   UNL     1      -5.291  -1.691  10.449  1.00  0.00     0.029 A 
ATOM     28  N   UNL     1      -4.488  -0.113   9.100  1.00  0.00    -0.354 N 
ATOM     29  N   UNL     1      -4.465   2.591   7.883  1.00  0.00    -0.248 NA
ATOM     30  C   UNL     1      -5.349   4.742   7.648  1.00  0.00     0.031 C 
ATOM     31  C   UNL     1      -6.098  -0.552  10.559  1.00  0.00     0.029 A 
ATOM     32  C   UNL     1      -5.594   0.439   9.729  1.00  0.00     0.049 A 
ATOM     33  H   UNL     1      -3.913   0.359   8.455  1.00  0.00     0.167 HD
ATOM     34  C   UNL     1      -5.572   2.707   8.696  1.00  0.00     0.074 A 
ATOM     35  C   UNL     1      -6.071   4.061   8.529  1.00  0.00     0.031 C 
ATOM     36  C   UNL     1      -6.090   1.782   9.539  1.00  0.00     0.037 A 
BRANCH  23  37
ATOM     37  C   UNL     1      -3.166  -3.712   9.509  1.00  0.00     0.064 A 
ATOM     38  C   UNL     1      -2.055  -4.092  10.284  1.00  0.00     0.173 A 
ATOM     39  C   UNL     1      -4.034  -4.708   9.052  1.00  0.00     0.173 A 
ATOM     40  F   UNL     1      -1.164  -3.172  10.685  1.00  0.00    -0.203 F 
ATOM     41  C   UNL     1      -1.792  -5.433  10.535  1.00  0.00     0.198 A 
ATOM     42  C   UNL     1      -3.781  -6.046   9.330  1.00  0.00     0.198 A 
ATOM     43  F   UNL     1      -5.081  -4.388   8.277  1.00  0.00    -0.203 F 
ATOM     44  F   UNL     1      -0.671  -5.785  11.180  1.00  0.00    -0.200 F 
ATOM     45  C   UNL     1      -2.653  -6.409  10.055  1.00  0.00     0.200 A 
ATOM     46  F   UNL     1      -4.600  -6.992   8.850  1.00  0.00    -0.200 F 
ATOM     47  F   UNL     1      -2.377  -7.704  10.260  1.00  0.00    -0.200 F 
ENDBRANCH  23  37
BRANCH  24  48
ATOM     48  C   UNL     1      -3.100   5.609   5.923  1.00  0.00     0.064 A 
ATOM     49  C   UNL     1      -2.958   6.750   6.726  1.00  0.00     0.173 A 
ATOM     50  C   UNL     1      -3.232   5.817   4.539  1.00  0.00     0.173 A 
ATOM     51  F   UNL     1      -2.843   6.619   8.055  1.00  0.00    -0.203 F 
ATOM     52  C   UNL     1      -2.973   8.036   6.178  1.00  0.00     0.198 A 
ATOM     53  C   UNL     1      -3.234   7.103   3.989  1.00  0.00     0.198 A 
ATOM     54  F   UNL     1      -3.371   4.769   3.714  1.00  0.00    -0.203 F 
ATOM     55  F   UNL     1      -2.870   9.106   6.979  1.00  0.00    -0.200 F 
ATOM     56  C   UNL     1      -3.111   8.212   4.809  1.00  0.00     0.200 A 
ATOM     57  F   UNL     1      -3.365   7.265   2.664  1.00  0.00    -0.200 F 
ATOM     58  F   UNL     1      -3.131   9.446   4.286  1.00  0.00    -0.200 F 
ENDBRANCH  24  48
BRANCH  36  59
ATOM     59  C   UNL     1      -7.251   2.221  10.370  1.00  0.00     0.064 A 
ATOM     60  C   UNL     1      -8.518   2.431   9.809  1.00  0.00     0.173 A 
ATOM     61  C   UNL     1      -7.096   2.406  11.751  1.00  0.00     0.173 A 
ATOM     62  F   UNL     1      -8.702   2.295   8.487  1.00  0.00    -0.203 F 
ATOM     63  C   UNL     1      -9.588   2.829  10.602  1.00  0.00     0.198 A 
ATOM     64  C   UNL     1      -8.176   2.770  12.546  1.00  0.00     0.198 A 
ATOM     65  F   UNL     1      -5.899   2.224  12.329  1.00  0.00    -0.203 F 
ATOM     66  F   UNL     1     -10.779   3.073  10.040  1.00  0.00    -0.200 F 
ATOM     67  C   UNL     1      -9.419   2.987  11.970  1.00  0.00     0.200 A 
ATOM     68  F   UNL     1      -8.014   2.914  13.868  1.00  0.00    -0.200 F 
ATOM     69  F   UNL     1     -10.455   3.358  12.734  1.00  0.00    -0.200 F 
ENDBRANCH  36  59
ENDBRANCH  10  11
ENDBRANCH   3   5
ENDBRANCH   2   3
ENDBRANCH   1   2
BRANCH   1  70
ATOM     70  C   UNL     1       6.721   1.575   3.109  1.00  0.00     0.274 C 
BRANCH  70  71
ATOM     71  O   UNL     1       5.639   2.497   2.833  1.00  0.00    -0.461 OA
BRANCH  71  72
ATOM     72  C   UNL     1       5.362   2.745   1.527  1.00  0.00     0.329 C 
ATOM     73  O   UNL     1       6.074   2.370   0.598  1.00  0.00    -0.250 OA
BRANCH  72  74
ATOM     74  C   UNL     1       3.957   3.334   1.274  1.00  0.00     0.206 C 
ATOM     75  C   UNL     1       3.101   2.121   0.899  1.00  0.00     0.109 C 
ATOM     76  N   UNL     1       3.155   4.050   2.288  1.00  0.00    -0.309 N 
ATOM     77  S   UNL     1       2.520   1.556   2.517  1.00  0.00    -0.126 SA
ATOM     78  C   UNL     1       2.441   3.229   3.233  1.00  0.00     0.116 C 
ATOM     79  C   UNL     1       2.363   5.133   1.890  1.00  0.00     0.224 C 
ATOM     80  C   UNL     1       0.975   3.594   2.938  1.00  0.00     0.055 C 
ATOM     81  C   UNL     1       1.015   5.052   2.566  1.00  0.00     0.104 C 
ATOM     82  O   UNL     1       2.651   5.961   1.040  1.00  0.00    -0.275 OA
BRANCH  78  83
ATOM     83  C   UNL     1       2.991   3.392   4.677  1.00  0.00    -0.012 A 
ATOM     84  C   UNL     1       3.962   2.519   5.196  1.00  0.00     0.007 A 
ATOM     85  C   UNL     1       2.540   4.352   5.602  1.00  0.00     0.007 A 
ATOM     86  C   UNL     1       4.390   2.505   6.533  1.00  0.00     0.000 A 
ATOM     87  C   UNL     1       2.890   4.295   6.973  1.00  0.00     0.000 A 
ATOM     88  C   UNL     1       3.806   3.361   7.442  1.00  0.00     0.000 A 
ENDBRANCH  78  83
ENDBRANCH  72  74
ENDBRANCH  71  72
ENDBRANCH  70  71
ENDBRANCH   1  70
TORSDOF 12
