REMARK SMILES Cc1c(/C=C/C(=O)OCCOC(=O)c2ccc(-c3c4nc(c(-c5c(F)c(F)c(F)c(F)c5F)c5ccc([nH]5)c(-c5c(F)c(F)c(F)c(F)c5F)c5nc(c(-c6c(F)c(F)c(F)c(F)c6F)c6ccc3[nH]6)C=C5)C=C4)cc2)cccc1C(=O)N1C[C@@H](C)[C@@H](C)C1
REMARK SMILES IDX 9 1 8 2 6 3 7 4 5 5 4 6 3 7 1 8 2 9 80 10 77 11 79 12 78 13
REMARK SMILES IDX 81 14 82 15 83 16 84 17 89 18 85 19 87 20 86 21 88 22 10 23
REMARK SMILES IDX 11 24 12 25 13 26 14 27 15 28 76 29 16 30 75 31 17 32 18 33
REMARK SMILES IDX 19 34 69 35 20 36 74 37 68 38 70 39 21 40 73 41 67 42 66 43
REMARK SMILES IDX 22 45 54 46 34 47 53 48 35 49 38 50 52 51 71 52 36 53 37 54
REMARK SMILES IDX 51 56 72 57 39 58 23 59 24 60 32 61 25 62 26 63 30 64 33 65
REMARK SMILES IDX 27 66 28 67 31 68 29 69 55 70 56 71 64 72 57 73 58 74 62 75
REMARK SMILES IDX 65 76 59 77 60 78 63 79 61 80 40 81 41 82 49 83 42 84 43 85
REMARK SMILES IDX 47 86 50 87 44 88 45 89 48 90 46 91
REMARK H PARENT 70 44 38 55
REMARK Flexibility Score: inf
ROOT
ATOM      1  C   UNL     1       3.471  -5.723   2.183  1.00  0.00     0.275 C 
ENDROOT
BRANCH   1   2
ATOM      2  O   UNL     1       2.588  -4.606   2.282  1.00  0.00    -0.459 OA
BRANCH   2   3
ATOM      3  C   UNL     1       2.588  -3.809   1.191  1.00  0.00     0.330 C 
ATOM      4  O   UNL     1       3.377  -3.855   0.260  1.00  0.00    -0.247 OA
BRANCH   3   5
ATOM      5  C   UNL     1       1.462  -2.867   1.290  1.00  0.00     0.094 C 
ATOM      6  C   UNL     1       1.139  -2.203   0.172  1.00  0.00     0.016 C 
BRANCH   6   7
ATOM      7  C   UNL     1       0.439  -0.920   0.194  1.00  0.00    -0.022 A 
ATOM      8  C   UNL     1       2.672   0.107   0.715  1.00  0.00     0.046 C 
ATOM      9  C   UNL     1       1.221   0.257   0.325  1.00  0.00    -0.031 A 
ATOM     10  C   UNL     1       0.603   1.504   0.104  1.00  0.00     0.043 A 
ATOM     11  C   UNL     1      -0.944  -0.858   0.017  1.00  0.00     0.008 A 
ATOM     12  C   UNL     1      -0.793   1.548  -0.088  1.00  0.00     0.014 A 
ATOM     13  C   UNL     1      -1.563   0.382  -0.102  1.00  0.00     0.001 A 
BRANCH  10  14
ATOM     14  C   UNL     1       1.290   2.825   0.240  1.00  0.00     0.254 C 
ATOM     15  O   UNL     1       0.652   3.767   0.709  1.00  0.00    -0.269 OA
BRANCH  14  16
ATOM     16  N   UNL     1       2.641   2.934  -0.034  1.00  0.00    -0.338 N 
ATOM     17  C   UNL     1       3.475   3.739   0.830  1.00  0.00     0.123 C 
ATOM     18  C   UNL     1       3.307   2.608  -1.287  1.00  0.00     0.123 C 
ATOM     19  C   UNL     1       4.722   4.070   0.020  1.00  0.00     0.010 C 
ATOM     20  C   UNL     1       4.787   2.968  -1.062  1.00  0.00     0.010 C 
ATOM     21  C   UNL     1       5.940   4.218   0.922  1.00  0.00     0.010 C 
ATOM     22  C   UNL     1       5.636   1.750  -0.701  1.00  0.00     0.010 C 
ENDBRANCH  14  16
ENDBRANCH  10  14
ENDBRANCH   6   7
ENDBRANCH   3   5
ENDBRANCH   2   3
ENDBRANCH   1   2
BRANCH   1  23
ATOM     23  C   UNL     1       2.856  -6.952   2.860  1.00  0.00     0.275 C 
BRANCH  23  24
ATOM     24  O   UNL     1       1.395  -7.053   2.944  1.00  0.00    -0.458 OA
BRANCH  24  25
ATOM     25  C   UNL     1       0.420  -6.602   2.112  1.00  0.00     0.338 C 
ATOM     26  O   UNL     1      -0.688  -6.284   2.530  1.00  0.00    -0.246 OA
BRANCH  25  27
ATOM     27  C   UNL     1       0.718  -6.489   0.673  1.00  0.00     0.060 A 
ATOM     28  C   UNL     1       0.034  -5.562  -0.141  1.00  0.00     0.016 A 
ATOM     29  C   UNL     1       1.752  -7.242   0.152  1.00  0.00     0.016 A 
ATOM     30  C   UNL     1       0.473  -5.319  -1.445  1.00  0.00     0.010 A 
ATOM     31  C   UNL     1       2.317  -6.844  -1.026  1.00  0.00     0.010 A 
ATOM     32  C   UNL     1       1.642  -5.946  -1.866  1.00  0.00    -0.014 A 
BRANCH  32  33
ATOM     33  C   UNL     1       2.159  -5.963  -3.226  1.00  0.00     0.031 A 
ATOM     34  C   UNL     1       2.781  -4.808  -3.882  1.00  0.00     0.074 A 
ATOM     35  C   UNL     1       2.175  -7.207  -3.758  1.00  0.00     0.049 A 
ATOM     36  N   UNL     1       2.833  -4.671  -5.162  1.00  0.00    -0.248 NA
ATOM     37  C   UNL     1       3.409  -3.704  -3.164  1.00  0.00     0.031 C 
ATOM     38  C   UNL     1       2.882  -7.756  -4.898  1.00  0.00     0.029 A 
ATOM     39  N   UNL     1       1.386  -8.282  -3.307  1.00  0.00    -0.354 N 
ATOM     40  C   UNL     1       3.768  -3.693  -5.423  1.00  0.00     0.074 A 
ATOM     41  C   UNL     1       3.981  -3.019  -4.165  1.00  0.00     0.031 C 
ATOM     42  C   UNL     1       2.281  -8.914  -5.246  1.00  0.00     0.029 A 
ATOM     43  C   UNL     1       1.071  -9.035  -4.440  1.00  0.00     0.049 A 
ATOM     44  H   UNL     1       1.113  -8.467  -2.379  1.00  0.00     0.167 HD
ATOM     45  C   UNL     1       4.421  -3.703  -6.622  1.00  0.00     0.037 A 
ATOM     46  C   UNL     1      -0.223  -8.980  -4.879  1.00  0.00     0.037 A 
ATOM     47  C   UNL     1       3.998  -4.848  -7.425  1.00  0.00     0.049 A 
ATOM     48  C   UNL     1      -0.334  -8.324  -6.236  1.00  0.00     0.074 A 
ATOM     49  C   UNL     1       4.535  -6.109  -7.628  1.00  0.00     0.029 A 
ATOM     50  N   UNL     1       2.683  -4.926  -7.843  1.00  0.00    -0.354 N 
ATOM     51  N   UNL     1       0.614  -7.613  -6.778  1.00  0.00    -0.248 NA
ATOM     52  C   UNL     1      -1.542  -8.358  -7.052  1.00  0.00     0.031 C 
ATOM     53  C   UNL     1       3.527  -6.938  -8.194  1.00  0.00     0.029 A 
ATOM     54  C   UNL     1       2.379  -6.180  -8.331  1.00  0.00     0.049 A 
ATOM     55  H   UNL     1       2.043  -4.179  -7.799  1.00  0.00     0.167 HD
ATOM     56  C   UNL     1       0.204  -7.145  -7.992  1.00  0.00     0.074 A 
ATOM     57  C   UNL     1      -1.175  -7.592  -8.095  1.00  0.00     0.031 C 
ATOM     58  C   UNL     1       1.032  -6.434  -8.811  1.00  0.00     0.037 A 
BRANCH  45  59
ATOM     59  C   UNL     1       5.644  -2.876  -6.939  1.00  0.00     0.064 A 
ATOM     60  C   UNL     1       6.660  -3.381  -7.782  1.00  0.00     0.173 A 
ATOM     61  C   UNL     1       5.872  -1.576  -6.449  1.00  0.00     0.173 A 
ATOM     62  F   UNL     1       6.548  -4.570  -8.385  1.00  0.00    -0.203 F 
ATOM     63  C   UNL     1       7.842  -2.685  -8.039  1.00  0.00     0.198 A 
ATOM     64  C   UNL     1       7.073  -0.891  -6.681  1.00  0.00     0.198 A 
ATOM     65  F   UNL     1       4.926  -0.922  -5.759  1.00  0.00    -0.203 F 
ATOM     66  F   UNL     1       8.772  -3.230  -8.837  1.00  0.00    -0.200 F 
ATOM     67  C   UNL     1       8.061  -1.450  -7.469  1.00  0.00     0.200 A 
ATOM     68  F   UNL     1       7.267   0.319  -6.136  1.00  0.00    -0.200 F 
ATOM     69  F   UNL     1       9.209  -0.796  -7.692  1.00  0.00    -0.200 F 
ENDBRANCH  45  59
BRANCH  46  70
ATOM     70  C   UNL     1      -1.212  -8.797  -3.756  1.00  0.00     0.064 A 
ATOM     71  C   UNL     1      -1.173  -9.691  -2.660  1.00  0.00     0.173 A 
ATOM     72  C   UNL     1      -1.903  -7.593  -3.563  1.00  0.00     0.173 A 
ATOM     73  F   UNL     1      -0.517 -10.859  -2.768  1.00  0.00    -0.203 F 
ATOM     74  C   UNL     1      -1.682  -9.341  -1.409  1.00  0.00     0.198 A 
ATOM     75  C   UNL     1      -2.441  -7.260  -2.315  1.00  0.00     0.198 A 
ATOM     76  F   UNL     1      -1.989  -6.691  -4.550  1.00  0.00    -0.203 F 
ATOM     77  F   UNL     1      -1.499 -10.155  -0.359  1.00  0.00    -0.200 F 
ATOM     78  C   UNL     1      -2.300  -8.116  -1.233  1.00  0.00     0.200 A 
ATOM     79  F   UNL     1      -3.028  -6.067  -2.140  1.00  0.00    -0.200 F 
ATOM     80  F   UNL     1      -2.724  -7.744  -0.017  1.00  0.00    -0.200 F 
ENDBRANCH  46  70
BRANCH  58  81
ATOM     81  C   UNL     1       0.637  -5.911 -10.161  1.00  0.00     0.064 A 
ATOM     82  C   UNL     1      -0.163  -6.642 -11.048  1.00  0.00     0.173 A 
ATOM     83  C   UNL     1       1.138  -4.682 -10.649  1.00  0.00     0.173 A 
ATOM     84  F   UNL     1      -0.575  -7.882 -10.747  1.00  0.00    -0.203 F 
ATOM     85  C   UNL     1      -0.535  -6.126 -12.290  1.00  0.00     0.198 A 
ATOM     86  C   UNL     1       0.818  -4.200 -11.913  1.00  0.00     0.198 A 
ATOM     87  F   UNL     1       1.936  -3.895  -9.915  1.00  0.00    -0.203 F 
ATOM     88  F   UNL     1      -1.372  -6.822 -13.071  1.00  0.00    -0.200 F 
ATOM     89  C   UNL     1      -0.045  -4.906 -12.721  1.00  0.00     0.200 A 
ATOM     90  F   UNL     1       1.344  -3.040 -12.331  1.00  0.00    -0.200 F 
ATOM     91  F   UNL     1      -0.398  -4.416 -13.916  1.00  0.00    -0.200 F 
ENDBRANCH  58  81
ENDBRANCH  32  33
ENDBRANCH  25  27
ENDBRANCH  24  25
ENDBRANCH  23  24
ENDBRANCH   1  23
TORSDOF 14
