REMARK SMILES CCCC[C@@H](C(=O)OCCOC(=O)c1ccc(-c2c3nc(c(-c4c(F)c(F)c(F)c(F)c4F)c4ccc([nH]4)c(-c4c(F)c(F)c(F)c(F)c4F)c4nc(c(-c5c(F)c(F)c(F)c(F)c5F)c5ccc2[nH]5)C=C4)C=C3)cc1)C1(O)Cc2ccccc2C1
REMARK SMILES IDX 9 1 8 2 6 3 7 4 5 5 4 6 3 7 2 8 1 9 77 10 79 11 86 12 80 13
REMARK SMILES IDX 85 14 81 15 84 16 82 17 83 18 78 19 10 21 11 22 12 23 13 24
REMARK SMILES IDX 14 25 15 26 76 27 16 28 75 29 17 30 18 31 19 32 69 33 20 34
REMARK SMILES IDX 74 35 68 36 70 37 21 38 73 39 67 40 66 41 22 43 54 44 34 45
REMARK SMILES IDX 53 46 35 47 38 48 52 49 71 50 36 51 37 52 51 54 72 55 39 56
REMARK SMILES IDX 23 57 24 58 32 59 25 60 26 61 30 62 33 63 27 64 28 65 31 66
REMARK SMILES IDX 29 67 55 68 56 69 64 70 57 71 58 72 62 73 65 74 59 75 60 76
REMARK SMILES IDX 63 77 61 78 40 79 41 80 49 81 42 82 43 83 47 84 50 85 44 86
REMARK SMILES IDX 45 87 48 88 46 89
REMARK H PARENT 78 20 70 42 38 53
REMARK Flexibility Score: inf
ROOT
ATOM      1  C   UNL     1      -0.973  -1.271   5.185  1.00  0.00     0.274 C 
ENDROOT
BRANCH   1   2
ATOM      2  O   UNL     1      -0.557  -0.445   4.046  1.00  0.00    -0.462 OA
BRANCH   2   3
ATOM      3  C   UNL     1      -1.365  -0.147   2.971  1.00  0.00     0.312 C 
ATOM      4  O   UNL     1      -2.441  -0.687   2.737  1.00  0.00    -0.252 OA
BRANCH   3   5
ATOM      5  C   UNL     1      -0.782   0.998   2.124  1.00  0.00     0.131 C 
BRANCH   5   6
ATOM      6  C   UNL     1       0.786   0.643   2.046  1.00  0.00     0.018 C 
BRANCH   6   7
ATOM      7  C   UNL     1       1.285  -0.783   1.789  1.00  0.00     0.001 C 
BRANCH   7   8
ATOM      8  C   UNL     1       0.800  -1.429   0.518  1.00  0.00    -0.003 C 
ATOM      9  C   UNL     1       1.166  -0.590  -0.689  1.00  0.00     0.004 C 
ENDBRANCH   7   8
ENDBRANCH   6   7
ENDBRANCH   5   6
BRANCH   5  10
ATOM     10  C   UNL     1      -0.969   2.647   2.408  1.00  0.00     0.086 C 
ATOM     11  C   UNL     1      -1.908   3.943   3.155  1.00  0.00     0.072 C 
ATOM     12  C   UNL     1      -0.033   2.822   3.519  1.00  0.00     0.072 C 
ATOM     13  C   UNL     1      -1.520   4.246   5.003  1.00  0.00    -0.042 A 
ATOM     14  C   UNL     1      -1.142   2.616   4.518  1.00  0.00    -0.042 A 
ATOM     15  C   UNL     1      -2.755   4.462   6.617  1.00  0.00     0.004 A 
ATOM     16  C   UNL     1      -2.208   1.358   5.154  1.00  0.00     0.004 A 
ATOM     17  C   UNL     1      -3.575   3.048   7.324  1.00  0.00     0.000 A 
ATOM     18  C   UNL     1      -3.318   1.537   6.550  1.00  0.00     0.000 A 
BRANCH  10  19
ATOM     19  O   UNL     1      -0.703   3.228   1.125  1.00  0.00    -0.388 OA
ATOM     20  H   UNL     1      -1.425   3.011   0.514  1.00  0.00     0.211 HD
ENDBRANCH  10  19
ENDBRANCH   5  10
ENDBRANCH   3   5
ENDBRANCH   2   3
ENDBRANCH   1   2
BRANCH   1  21
ATOM     21  C   UNL     1      -0.318  -0.689   6.486  1.00  0.00     0.275 C 
BRANCH  21  22
ATOM     22  O   UNL     1      -1.050   0.459   7.031  1.00  0.00    -0.458 OA
BRANCH  22  23
ATOM     23  C   UNL     1      -0.518   1.724   6.928  1.00  0.00     0.338 C 
ATOM     24  O   UNL     1       0.694   1.919   6.994  1.00  0.00    -0.246 OA
BRANCH  23  25
ATOM     25  C   UNL     1      -1.546   2.989   6.514  1.00  0.00     0.060 A 
ATOM     26  C   UNL     1      -3.125   3.263   5.248  1.00  0.00     0.016 A 
ATOM     27  C   UNL     1      -0.632   4.454   6.980  1.00  0.00     0.016 A 
ATOM     28  C   UNL     1      -3.547   4.944   4.746  1.00  0.00     0.010 A 
ATOM     29  C   UNL     1      -1.153   6.014   6.379  1.00  0.00     0.010 A 
ATOM     30  C   UNL     1      -2.558   6.282   5.321  1.00  0.00    -0.014 A 
BRANCH  30  31
ATOM     31  C   UNL     1      -3.054   7.685   5.047  1.00  0.00     0.031 A 
ATOM     32  C   UNL     1      -2.121   8.867   5.074  1.00  0.00     0.074 A 
ATOM     33  C   UNL     1      -4.366   7.931   4.821  1.00  0.00     0.049 A 
ATOM     34  N   UNL     1      -2.412  10.130   5.271  1.00  0.00    -0.248 NA
ATOM     35  C   UNL     1      -0.682   8.605   4.988  1.00  0.00     0.031 C 
ATOM     36  C   UNL     1      -5.452   6.960   4.906  1.00  0.00     0.029 A 
ATOM     37  N   UNL     1      -5.026   9.068   4.416  1.00  0.00    -0.354 N 
ATOM     38  C   UNL     1      -1.199  10.765   5.508  1.00  0.00     0.074 A 
ATOM     39  C   UNL     1      -0.177   9.743   5.445  1.00  0.00     0.031 C 
ATOM     40  C   UNL     1      -6.539   7.425   4.288  1.00  0.00     0.029 A 
ATOM     41  C   UNL     1      -6.346   8.846   4.089  1.00  0.00     0.049 A 
ATOM     42  H   UNL     1      -4.597   9.953   4.366  1.00  0.00     0.167 HD
ATOM     43  C   UNL     1      -0.978  12.082   5.745  1.00  0.00     0.037 A 
ATOM     44  C   UNL     1      -7.347   9.693   3.786  1.00  0.00     0.037 A 
ATOM     45  C   UNL     1      -2.001  13.087   5.584  1.00  0.00     0.049 A 
ATOM     46  C   UNL     1      -7.056  11.153   3.919  1.00  0.00     0.074 A 
ATOM     47  C   UNL     1      -1.890  14.462   5.687  1.00  0.00     0.029 A 
ATOM     48  N   UNL     1      -3.316  12.819   5.214  1.00  0.00    -0.354 N 
ATOM     49  N   UNL     1      -5.935  11.737   4.265  1.00  0.00    -0.248 NA
ATOM     50  C   UNL     1      -8.175  12.070   3.689  1.00  0.00     0.031 C 
ATOM     51  C   UNL     1      -3.138  15.024   5.394  1.00  0.00     0.029 A 
ATOM     52  C   UNL     1      -4.017  14.004   5.061  1.00  0.00     0.049 A 
ATOM     53  H   UNL     1      -3.692  11.920   5.081  1.00  0.00     0.167 HD
ATOM     54  C   UNL     1      -6.207  13.092   4.293  1.00  0.00     0.074 A 
ATOM     55  C   UNL     1      -7.595  13.243   3.897  1.00  0.00     0.031 C 
ATOM     56  C   UNL     1      -5.390  14.117   4.633  1.00  0.00     0.037 A 
BRANCH  43  57
ATOM     57  C   UNL     1       0.397  12.507   6.196  1.00  0.00     0.064 A 
ATOM     58  C   UNL     1       1.539  12.367   5.393  1.00  0.00     0.173 A 
ATOM     59  C   UNL     1       0.574  13.074   7.472  1.00  0.00     0.173 A 
ATOM     60  F   UNL     1       1.439  11.845   4.161  1.00  0.00    -0.203 F 
ATOM     61  C   UNL     1       2.805  12.708   5.869  1.00  0.00     0.198 A 
ATOM     62  C   UNL     1       1.835  13.460   7.926  1.00  0.00     0.198 A 
ATOM     63  F   UNL     1      -0.477  13.257   8.284  1.00  0.00    -0.203 F 
ATOM     64  F   UNL     1       3.886  12.479   5.110  1.00  0.00    -0.200 F 
ATOM     65  C   UNL     1       2.951  13.259   7.132  1.00  0.00     0.200 A 
ATOM     66  F   UNL     1       1.968  14.017   9.138  1.00  0.00    -0.200 F 
ATOM     67  F   UNL     1       4.169  13.588   7.586  1.00  0.00    -0.200 F 
ENDBRANCH  43  57
BRANCH  44  68
ATOM     68  C   UNL     1      -8.708   9.182   3.451  1.00  0.00     0.064 A 
ATOM     69  C   UNL     1      -9.256   9.393   2.178  1.00  0.00     0.173 A 
ATOM     70  C   UNL     1      -9.475   8.441   4.366  1.00  0.00     0.173 A 
ATOM     71  F   UNL     1      -8.582  10.115   1.270  1.00  0.00    -0.203 F 
ATOM     72  C   UNL     1     -10.510   8.886   1.837  1.00  0.00     0.198 A 
ATOM     73  C   UNL     1     -10.703   7.890   4.007  1.00  0.00     0.198 A 
ATOM     74  F   UNL     1      -9.009   8.205   5.601  1.00  0.00    -0.203 F 
ATOM     75  F   UNL     1     -11.026   9.142   0.627  1.00  0.00    -0.200 F 
ATOM     76  C   UNL     1     -11.225   8.122   2.745  1.00  0.00     0.200 A 
ATOM     77  F   UNL     1     -11.371   7.122   4.879  1.00  0.00    -0.200 F 
ATOM     78  F   UNL     1     -12.417   7.612   2.408  1.00  0.00    -0.200 F 
ENDBRANCH  44  68
BRANCH  56  79
ATOM     79  C   UNL     1      -5.964  15.492   4.501  1.00  0.00     0.064 A 
ATOM     80  C   UNL     1      -6.925  15.983   5.394  1.00  0.00     0.173 A 
ATOM     81  C   UNL     1      -5.528  16.331   3.466  1.00  0.00     0.173 A 
ATOM     82  F   UNL     1      -7.391  15.203   6.381  1.00  0.00    -0.203 F 
ATOM     83  C   UNL     1      -7.450  17.261   5.240  1.00  0.00     0.198 A 
ATOM     84  C   UNL     1      -6.028  17.621   3.336  1.00  0.00     0.198 A 
ATOM     85  F   UNL     1      -4.611  15.901   2.586  1.00  0.00    -0.203 F 
ATOM     86  F   UNL     1      -8.411  17.692   6.068  1.00  0.00    -0.200 F 
ATOM     87  C   UNL     1      -6.994  18.082   4.218  1.00  0.00     0.200 A 
ATOM     88  F   UNL     1      -5.578  18.416   2.356  1.00  0.00    -0.200 F 
ATOM     89  F   UNL     1      -7.496  19.316   4.076  1.00  0.00    -0.200 F 
ENDBRANCH  56  79
ENDBRANCH  30  31
ENDBRANCH  23  25
ENDBRANCH  22  23
ENDBRANCH  21  22
ENDBRANCH   1  21
TORSDOF 16
