REMARK SMILES COc1ccc(OC)c([C@H](C(=O)OCCOC(=O)c2ccc(-c3c4nc(c(-c5c(F)c(F)c(F)c(F)c5F)c5ccc([nH]5)c(-c5c(F)c(F)c(F)c(F)c5F)c5nc(c(-c6c(F)c(F)c(F)c(F)c6F)c6ccc3[nH]6)C=C5)C=C4)cc2)[NH+]2CC[NH+](Cc3nccn3C)CC2)c1
REMARK SMILES IDX 14 1 13 2 11 3 12 4 10 5 9 6 3 7 4 8 95 9 5 10 6 11 2 12
REMARK SMILES IDX 1 13 7 14 8 15 82 16 83 17 94 18 84 20 93 21 85 22 86 24
REMARK SMILES IDX 87 25 88 26 91 27 89 28 90 29 92 30 15 31 16 32 17 33 18 34
REMARK SMILES IDX 19 35 20 36 81 37 21 38 80 39 22 40 23 41 24 42 74 43 25 44
REMARK SMILES IDX 79 45 73 46 75 47 26 48 78 49 72 50 71 51 27 53 59 54 39 55
REMARK SMILES IDX 58 56 40 57 43 58 57 59 76 60 41 61 42 62 56 64 77 65 44 66
REMARK SMILES IDX 28 67 29 68 37 69 30 70 31 71 35 72 38 73 32 74 33 75 36 76
REMARK SMILES IDX 34 77 60 78 61 79 69 80 62 81 63 82 67 83 70 84 64 85 65 86
REMARK SMILES IDX 68 87 66 88 45 89 46 90 54 91 47 92 48 93 52 94 55 95 49 96
REMARK SMILES IDX 50 97 53 98 51 99
REMARK H PARENT 82 19 85 23 75 52 43 63
REMARK Flexibility Score: inf
ROOT
ATOM      1  C   UNL     1       0.492  -1.905   2.056  1.00  0.00     0.274 C 
ENDROOT
BRANCH   1   2
ATOM      2  O   UNL     1       1.782  -2.576   2.144  1.00  0.00    -0.457 OA
BRANCH   2   3
ATOM      3  C   UNL     1       2.948  -1.909   1.980  1.00  0.00     0.370 C 
ATOM      4  O   UNL     1       2.971  -0.752   1.561  1.00  0.00    -0.245 OA
BRANCH   3   5
ATOM      5  C   UNL     1       4.268  -2.715   2.419  1.00  0.00     0.330 C 
BRANCH   5   6
ATOM      6  C   UNL     1       5.184  -1.971   3.429  1.00  0.00     0.067 A 
ATOM      7  C   UNL     1       5.329   0.108   4.772  1.00  0.00     0.119 A 
ATOM      8  C   UNL     1       6.528  -0.306   5.317  1.00  0.00     0.050 A 
ATOM      9  C   UNL     1       4.658  -0.769   3.937  1.00  0.00     0.060 A 
ATOM     10  C   UNL     1       7.087  -1.507   4.880  1.00  0.00     0.051 A 
ATOM     11  C   UNL     1       6.473  -2.312   3.887  1.00  0.00     0.128 A 
BRANCH   7  12
ATOM     12  O   UNL     1       4.857   1.341   5.108  1.00  0.00    -0.497 OA
ATOM     13  C   UNL     1       3.601   1.798   4.580  1.00  0.00     0.278 C 
ENDBRANCH   7  12
BRANCH  11  14
ATOM     14  O   UNL     1       7.340  -3.306   3.541  1.00  0.00    -0.496 OA
ATOM     15  C   UNL     1       7.038  -4.279   2.571  1.00  0.00     0.278 C 
ENDBRANCH  11  14
ENDBRANCH   5   6
BRANCH   5  16
ATOM     16  N   UNL     1       4.075  -4.117   2.827  1.00  0.00    -0.310 N 
ATOM     17  C   UNL     1       3.396  -4.421   4.081  1.00  0.00     0.325 C 
ATOM     18  C   UNL     1       3.768  -5.086   1.787  1.00  0.00     0.325 C 
ATOM     19  H   UNL     1       5.057  -4.257   3.065  1.00  0.00     0.349 HD
ATOM     20  C   UNL     1       1.890  -4.683   3.939  1.00  0.00     0.324 C 
ATOM     21  C   UNL     1       2.280  -5.422   1.590  1.00  0.00     0.324 C 
ATOM     22  N   UNL     1       1.424  -5.473   2.781  1.00  0.00    -0.319 N 
ATOM     23  H   UNL     1       0.594  -4.985   2.446  1.00  0.00     0.348 HD
BRANCH  22  24
ATOM     24  C   UNL     1       0.960  -6.811   3.168  1.00  0.00     0.339 C 
BRANCH  24  25
ATOM     25  C   UNL     1       1.906  -7.515   4.096  1.00  0.00     0.164 A 
ATOM     26  N   UNL     1       2.059  -7.208   5.374  1.00  0.00    -0.236 NA
ATOM     27  N   UNL     1       2.827  -8.464   3.734  1.00  0.00    -0.333 N 
ATOM     28  C   UNL     1       3.214  -7.806   5.776  1.00  0.00     0.131 A 
ATOM     29  C   UNL     1       3.723  -8.579   4.764  1.00  0.00     0.107 A 
ATOM     30  C   UNL     1       2.874  -9.242   2.524  1.00  0.00     0.151 C 
ENDBRANCH  24  25
ENDBRANCH  22  24
ENDBRANCH   5  16
ENDBRANCH   3   5
ENDBRANCH   2   3
ENDBRANCH   1   2
BRANCH   1  31
ATOM     31  C   UNL     1      -0.398  -2.241   3.285  1.00  0.00     0.275 C 
BRANCH  31  32
ATOM     32  O   UNL     1       0.223  -1.691   4.477  1.00  0.00    -0.458 OA
BRANCH  32  33
ATOM     33  C   UNL     1      -0.073  -2.211   5.701  1.00  0.00     0.338 C 
ATOM     34  O   UNL     1      -0.942  -3.046   5.942  1.00  0.00    -0.246 OA
BRANCH  33  35
ATOM     35  C   UNL     1       0.829  -1.593   6.730  1.00  0.00     0.060 A 
ATOM     36  C   UNL     1       2.070  -1.107   6.334  1.00  0.00     0.016 A 
ATOM     37  C   UNL     1       0.513  -1.489   8.088  1.00  0.00     0.016 A 
ATOM     38  C   UNL     1       2.930  -0.454   7.232  1.00  0.00     0.010 A 
ATOM     39  C   UNL     1       1.364  -0.764   8.976  1.00  0.00     0.010 A 
ATOM     40  C   UNL     1       2.573  -0.171   8.546  1.00  0.00    -0.014 A 
BRANCH  40  41
ATOM     41  C   UNL     1       3.447   0.683   9.453  1.00  0.00     0.031 A 
ATOM     42  C   UNL     1       4.017   0.116  10.709  1.00  0.00     0.074 A 
ATOM     43  C   UNL     1       3.907   1.930   9.177  1.00  0.00     0.049 A 
ATOM     44  N   UNL     1       4.607   0.738  11.697  1.00  0.00    -0.248 NA
ATOM     45  C   UNL     1       4.015  -1.346  10.815  1.00  0.00     0.031 C 
ATOM     46  C   UNL     1       3.972   2.494   7.856  1.00  0.00     0.029 A 
ATOM     47  N   UNL     1       4.465   2.941   9.941  1.00  0.00    -0.354 N 
ATOM     48  C   UNL     1       5.029  -0.251  12.560  1.00  0.00     0.074 A 
ATOM     49  C   UNL     1       4.619  -1.518  11.982  1.00  0.00     0.031 C 
ATOM     50  C   UNL     1       4.384   3.764   7.869  1.00  0.00     0.029 A 
ATOM     51  C   UNL     1       4.626   4.129   9.247  1.00  0.00     0.049 A 
ATOM     52  H   UNL     1       4.722   2.826  10.884  1.00  0.00     0.167 HD
ATOM     53  C   UNL     1       5.704  -0.104  13.723  1.00  0.00     0.037 A 
ATOM     54  C   UNL     1       4.952   5.380   9.627  1.00  0.00     0.037 A 
ATOM     55  C   UNL     1       6.174   1.147  14.268  1.00  0.00     0.049 A 
ATOM     56  C   UNL     1       5.455   5.575  11.016  1.00  0.00     0.074 A 
ATOM     57  C   UNL     1       6.790   1.366  15.489  1.00  0.00     0.029 A 
ATOM     58  N   UNL     1       6.111   2.382  13.635  1.00  0.00    -0.354 N 
ATOM     59  N   UNL     1       5.687   4.657  11.917  1.00  0.00    -0.248 NA
ATOM     60  C   UNL     1       5.816   6.937  11.428  1.00  0.00     0.031 C 
ATOM     61  C   UNL     1       7.028   2.737  15.629  1.00  0.00     0.029 A 
ATOM     62  C   UNL     1       6.628   3.371  14.467  1.00  0.00     0.049 A 
ATOM     63  H   UNL     1       5.752   2.535  12.730  1.00  0.00     0.167 HD
ATOM     64  C   UNL     1       6.278   5.312  12.978  1.00  0.00     0.074 A 
ATOM     65  C   UNL     1       6.370   6.711  12.611  1.00  0.00     0.031 C 
ATOM     66  C   UNL     1       6.718   4.773  14.138  1.00  0.00     0.037 A 
BRANCH  53  67
ATOM     67  C   UNL     1       5.858  -1.339  14.550  1.00  0.00     0.064 A 
ATOM     68  C   UNL     1       6.746  -2.370  14.220  1.00  0.00     0.173 A 
ATOM     69  C   UNL     1       5.069  -1.485  15.702  1.00  0.00     0.173 A 
ATOM     70  F   UNL     1       7.495  -2.289  13.110  1.00  0.00    -0.203 F 
ATOM     71  C   UNL     1       6.820  -3.519  15.002  1.00  0.00     0.198 A 
ATOM     72  C   UNL     1       5.173  -2.616  16.500  1.00  0.00     0.198 A 
ATOM     73  F   UNL     1       4.199  -0.525  16.052  1.00  0.00    -0.203 F 
ATOM     74  F   UNL     1       7.629  -4.524  14.639  1.00  0.00    -0.200 F 
ATOM     75  C   UNL     1       6.040  -3.637  16.145  1.00  0.00     0.200 A 
ATOM     76  F   UNL     1       4.426  -2.721  17.608  1.00  0.00    -0.200 F 
ATOM     77  F   UNL     1       6.117  -4.742  16.898  1.00  0.00    -0.200 F 
ENDBRANCH  53  67
BRANCH  54  78
ATOM     78  C   UNL     1       4.837   6.525   8.677  1.00  0.00     0.064 A 
ATOM     79  C   UNL     1       5.958   7.241   8.235  1.00  0.00     0.173 A 
ATOM     80  C   UNL     1       3.578   6.956   8.223  1.00  0.00     0.173 A 
ATOM     81  F   UNL     1       7.183   6.889   8.651  1.00  0.00    -0.203 F 
ATOM     82  C   UNL     1       5.825   8.353   7.402  1.00  0.00     0.198 A 
ATOM     83  C   UNL     1       3.448   8.053   7.372  1.00  0.00     0.198 A 
ATOM     84  F   UNL     1       2.466   6.318   8.620  1.00  0.00    -0.203 F 
ATOM     85  F   UNL     1       6.912   9.050   7.040  1.00  0.00    -0.200 F 
ATOM     86  C   UNL     1       4.571   8.757   6.970  1.00  0.00     0.200 A 
ATOM     87  F   UNL     1       2.233   8.438   6.955  1.00  0.00    -0.200 F 
ATOM     88  F   UNL     1       4.445   9.832   6.179  1.00  0.00    -0.200 F 
ENDBRANCH  54  78
BRANCH  66  89
ATOM     89  C   UNL     1       7.360   5.707  15.118  1.00  0.00     0.064 A 
ATOM     90  C   UNL     1       6.620   6.697  15.782  1.00  0.00     0.173 A 
ATOM     91  C   UNL     1       8.729   5.607  15.406  1.00  0.00     0.173 A 
ATOM     92  F   UNL     1       5.312   6.851  15.525  1.00  0.00    -0.203 F 
ATOM     93  C   UNL     1       7.233   7.570  16.677  1.00  0.00     0.198 A 
ATOM     94  C   UNL     1       9.332   6.458  16.328  1.00  0.00     0.198 A 
ATOM     95  F   UNL     1       9.484   4.681  14.796  1.00  0.00    -0.203 F 
ATOM     96  F   UNL     1       6.518   8.545  17.254  1.00  0.00    -0.200 F 
ATOM     97  C   UNL     1       8.585   7.444  16.956  1.00  0.00     0.200 A 
ATOM     98  F   UNL     1      10.636   6.328  16.605  1.00  0.00    -0.200 F 
ATOM     99  F   UNL     1       9.172   8.280  17.823  1.00  0.00    -0.200 F 
ENDBRANCH  66  89
ENDBRANCH  40  41
ENDBRANCH  33  35
ENDBRANCH  32  33
ENDBRANCH  31  32
ENDBRANCH   1  31
TORSDOF 17
