REMARK SMILES Cc1ccc(Cl)c(Nc2ccccc2C(=O)NCC(=O)OCCOC(=O)c2ccc(-c3c4nc(c(-c5c(F)c(F)c(F)c(F)c5F)c5ccc([nH]5)c(-c5c(F)c(F)c(F)c(F)c5F)c5nc(c(-c6c(F)c(F)c(F)c(F)c6F)c6ccc3[nH]6)C=C5)C=C4)cc2)c1Cl
REMARK SMILES IDX 22 1 21 2 19 3 20 4 18 5 17 6 15 7 16 8 14 10 9 11 10 12
REMARK SMILES IDX 11 13 13 14 12 15 8 16 7 18 1 19 2 20 3 21 90 22 4 23 91 24
REMARK SMILES IDX 5 25 6 26 23 27 24 28 25 29 26 30 27 31 28 32 89 33 29 34
REMARK SMILES IDX 88 35 30 36 31 37 32 38 82 39 33 40 87 41 81 42 83 43 34 44
REMARK SMILES IDX 86 45 80 46 79 47 35 49 67 50 47 51 66 52 48 53 51 54 65 55
REMARK SMILES IDX 84 56 49 57 50 58 64 60 85 61 52 62 36 63 37 64 45 65 38 66
REMARK SMILES IDX 39 67 43 68 46 69 40 70 41 71 44 72 42 73 68 74 69 75 77 76
REMARK SMILES IDX 70 77 71 78 75 79 78 80 72 81 73 82 76 83 74 84 53 85 54 86
REMARK SMILES IDX 62 87 55 88 56 89 60 90 63 91 57 92 58 93 61 94 59 95
REMARK H PARENT 17 9 8 17 83 48 51 59
REMARK Flexibility Score: inf
ROOT
ATOM      1  C   UNL     1      -3.919  -2.432   3.327  1.00  0.00     0.274 C 
ENDROOT
BRANCH   1   2
ATOM      2  O   UNL     1      -2.529  -2.245   3.002  1.00  0.00    -0.461 OA
BRANCH   2   3
ATOM      3  C   UNL     1      -2.321  -1.927   1.703  1.00  0.00     0.325 C 
ATOM      4  O   UNL     1      -3.204  -1.848   0.850  1.00  0.00    -0.250 OA
BRANCH   3   5
ATOM      5  C   UNL     1      -0.905  -1.505   1.382  1.00  0.00     0.239 C 
BRANCH   5   6
ATOM      6  N   UNL     1       0.244  -1.778   2.212  1.00  0.00    -0.341 N 
ATOM      7  C   UNL     1       1.455  -2.326   1.854  1.00  0.00     0.253 C 
ATOM      8  O   UNL     1       2.413  -2.111   2.600  1.00  0.00    -0.269 OA
ATOM      9  H   UNL     1       0.148  -1.541   3.162  1.00  0.00     0.164 HD
BRANCH   7  10
ATOM     10  C   UNL     1       1.617  -3.320   0.745  1.00  0.00     0.063 A 
ATOM     11  C   UNL     1       1.221  -3.227  -0.607  1.00  0.00     0.051 A 
ATOM     12  C   UNL     1       1.372  -4.376  -1.420  1.00  0.00     0.027 A 
ATOM     13  C   UNL     1       1.973  -5.545  -0.954  1.00  0.00     0.002 A 
ATOM     14  C   UNL     1       2.257  -4.502   1.187  1.00  0.00     0.016 A 
ATOM     15  C   UNL     1       2.446  -5.598   0.346  1.00  0.00     0.001 A 
BRANCH  11  16
ATOM     16  N   UNL     1       0.786  -2.076  -1.302  1.00  0.00    -0.352 N 
ATOM     17  H   UNL     1       0.152  -2.280  -2.027  1.00  0.00     0.167 HD
BRANCH  16  18
ATOM     18  C   UNL     1       1.065  -0.694  -1.182  1.00  0.00     0.077 A 
ATOM     19  C   UNL     1       3.690   1.801   0.104  1.00  0.00     0.046 C 
ATOM     20  C   UNL     1       2.412   1.219  -0.436  1.00  0.00    -0.030 A 
ATOM     21  C   UNL     1       1.342   2.081  -0.704  1.00  0.00     0.006 A 
ATOM     22  C   UNL     1       2.281  -0.161  -0.708  1.00  0.00     0.069 A 
ATOM     23  C   UNL     1       0.171   1.589  -1.262  1.00  0.00     0.023 A 
ATOM     24  Cl  UNL     1       3.705  -1.157  -0.615  1.00  0.00    -0.082 Cl
ATOM     25  C   UNL     1       0.032   0.222  -1.491  1.00  0.00     0.066 A 
ATOM     26  Cl  UNL     1      -1.477  -0.325  -2.153  1.00  0.00    -0.082 Cl
ENDBRANCH  16  18
ENDBRANCH  11  16
ENDBRANCH   7  10
ENDBRANCH   5   6
ENDBRANCH   3   5
ENDBRANCH   2   3
ENDBRANCH   1   2
BRANCH   1  27
ATOM     27  C   UNL     1      -4.540  -1.132   3.840  1.00  0.00     0.275 C 
BRANCH  27  28
ATOM     28  O   UNL     1      -4.436  -0.066   2.870  1.00  0.00    -0.458 OA
BRANCH  28  29
ATOM     29  C   UNL     1      -3.633   0.965   3.216  1.00  0.00     0.338 C 
ATOM     30  O   UNL     1      -2.969   1.070   4.241  1.00  0.00    -0.246 OA
BRANCH  29  31
ATOM     31  C   UNL     1      -3.654   2.032   2.198  1.00  0.00     0.060 A 
ATOM     32  C   UNL     1      -3.293   1.780   0.876  1.00  0.00     0.016 A 
ATOM     33  C   UNL     1      -3.901   3.345   2.607  1.00  0.00     0.016 A 
ATOM     34  C   UNL     1      -3.098   2.853  -0.005  1.00  0.00     0.010 A 
ATOM     35  C   UNL     1      -3.777   4.404   1.696  1.00  0.00     0.010 A 
ATOM     36  C   UNL     1      -3.319   4.186   0.385  1.00  0.00    -0.014 A 
BRANCH  36  37
ATOM     37  C   UNL     1      -3.013   5.351  -0.518  1.00  0.00     0.031 A 
ATOM     38  C   UNL     1      -2.168   6.506  -0.018  1.00  0.00     0.074 A 
ATOM     39  C   UNL     1      -3.456   5.418  -1.792  1.00  0.00     0.049 A 
ATOM     40  N   UNL     1      -2.029   7.715  -0.511  1.00  0.00    -0.248 NA
ATOM     41  C   UNL     1      -1.389   6.274   1.207  1.00  0.00     0.031 C 
ATOM     42  C   UNL     1      -4.228   4.389  -2.483  1.00  0.00     0.029 A 
ATOM     43  N   UNL     1      -3.309   6.410  -2.739  1.00  0.00    -0.354 N 
ATOM     44  C   UNL     1      -1.240   8.412   0.398  1.00  0.00     0.074 A 
ATOM     45  C   UNL     1      -0.901   7.482   1.454  1.00  0.00     0.031 C 
ATOM     46  C   UNL     1      -4.436   4.771  -3.752  1.00  0.00     0.029 A 
ATOM     47  C   UNL     1      -3.919   6.124  -3.936  1.00  0.00     0.049 A 
ATOM     48  H   UNL     1      -2.813   7.244  -2.573  1.00  0.00     0.167 HD
ATOM     49  C   UNL     1      -0.846   9.710   0.364  1.00  0.00     0.037 A 
ATOM     50  C   UNL     1      -4.108   6.873  -5.042  1.00  0.00     0.037 A 
ATOM     51  C   UNL     1      -1.074  10.614  -0.735  1.00  0.00     0.049 A 
ATOM     52  C   UNL     1      -3.649   8.304  -5.075  1.00  0.00     0.074 A 
ATOM     53  C   UNL     1      -0.676  11.936  -0.864  1.00  0.00     0.029 A 
ATOM     54  N   UNL     1      -1.728  10.282  -1.911  1.00  0.00    -0.354 N 
ATOM     55  N   UNL     1      -3.023   8.993  -4.154  1.00  0.00    -0.248 NA
ATOM     56  C   UNL     1      -3.960   9.073  -6.291  1.00  0.00     0.031 C 
ATOM     57  C   UNL     1      -1.111  12.410  -2.107  1.00  0.00     0.029 A 
ATOM     58  C   UNL     1      -1.746  11.373  -2.768  1.00  0.00     0.049 A 
ATOM     59  H   UNL     1      -2.121   9.402  -2.109  1.00  0.00     0.167 HD
ATOM     60  C   UNL     1      -2.878  10.274  -4.670  1.00  0.00     0.074 A 
ATOM     61  C   UNL     1      -3.451  10.262  -5.998  1.00  0.00     0.031 C 
ATOM     62  C   UNL     1      -2.329  11.365  -4.083  1.00  0.00     0.037 A 
BRANCH  49  63
ATOM     63  C   UNL     1      -0.161  10.264   1.581  1.00  0.00     0.064 A 
ATOM     64  C   UNL     1       1.165   9.950   1.907  1.00  0.00     0.173 A 
ATOM     65  C   UNL     1      -0.841  11.177   2.405  1.00  0.00     0.173 A 
ATOM     66  F   UNL     1       1.855   9.076   1.158  1.00  0.00    -0.203 F 
ATOM     67  C   UNL     1       1.777  10.508   3.027  1.00  0.00     0.198 A 
ATOM     68  C   UNL     1      -0.217  11.755   3.507  1.00  0.00     0.198 A 
ATOM     69  F   UNL     1      -2.108  11.521   2.130  1.00  0.00    -0.203 F 
ATOM     70  F   UNL     1       3.032  10.161   3.345  1.00  0.00    -0.200 F 
ATOM     71  C   UNL     1       1.089  11.415   3.821  1.00  0.00     0.200 A 
ATOM     72  F   UNL     1      -0.879  12.642   4.262  1.00  0.00    -0.200 F 
ATOM     73  F   UNL     1       1.684  11.958   4.893  1.00  0.00    -0.200 F 
ENDBRANCH  49  63
BRANCH  50  74
ATOM     74  C   UNL     1      -4.838   6.289  -6.197  1.00  0.00     0.064 A 
ATOM     75  C   UNL     1      -4.171   5.972  -7.387  1.00  0.00     0.173 A 
ATOM     76  C   UNL     1      -6.210   6.004  -6.118  1.00  0.00     0.173 A 
ATOM     77  F   UNL     1      -2.868   6.260  -7.522  1.00  0.00    -0.203 F 
ATOM     78  C   UNL     1      -4.847   5.380  -8.452  1.00  0.00     0.198 A 
ATOM     79  C   UNL     1      -6.876   5.384  -7.171  1.00  0.00     0.198 A 
ATOM     80  F   UNL     1      -6.893   6.297  -5.002  1.00  0.00    -0.203 F 
ATOM     81  F   UNL     1      -4.193   5.108  -9.590  1.00  0.00    -0.200 F 
ATOM     82  C   UNL     1      -6.195   5.073  -8.338  1.00  0.00     0.200 A 
ATOM     83  F   UNL     1      -8.175   5.075  -7.049  1.00  0.00    -0.200 F 
ATOM     84  F   UNL     1      -6.838   4.480  -9.352  1.00  0.00    -0.200 F 
ENDBRANCH  50  74
BRANCH  62  85
ATOM     85  C   UNL     1      -2.315  12.640  -4.874  1.00  0.00     0.064 A 
ATOM     86  C   UNL     1      -3.480  13.401  -5.050  1.00  0.00     0.173 A 
ATOM     87  C   UNL     1      -1.124  13.119  -5.438  1.00  0.00     0.173 A 
ATOM     88  F   UNL     1      -4.647  12.977  -4.543  1.00  0.00    -0.203 F 
ATOM     89  C   UNL     1      -3.456  14.587  -5.781  1.00  0.00     0.198 A 
ATOM     90  C   UNL     1      -1.100  14.315  -6.151  1.00  0.00     0.198 A 
ATOM     91  F   UNL     1       0.017  12.429  -5.295  1.00  0.00    -0.203 F 
ATOM     92  F   UNL     1      -4.588  15.279  -5.970  1.00  0.00    -0.200 F 
ATOM     93  C   UNL     1      -2.266  15.045  -6.327  1.00  0.00     0.200 A 
ATOM     94  F   UNL     1       0.052  14.760  -6.673  1.00  0.00    -0.200 F 
ATOM     95  F   UNL     1      -2.245  16.185  -7.031  1.00  0.00    -0.200 F 
ENDBRANCH  62  85
ENDBRANCH  36  37
ENDBRANCH  29  31
ENDBRANCH  28  29
ENDBRANCH  27  28
ENDBRANCH   1  27
TORSDOF 15
