REMARK SMILES C[C@@H](C(=O)OCCOC(=O)c1ccc(-c2c3nc(c(-c4c(F)c(F)c(F)c(F)c4F)c4ccc([nH]4)c(-c4c(F)c(F)c(F)c(F)c4F)c4nc(c(-c5c(F)c(F)c(F)c(F)c5F)c5ccc2[nH]5)C=C4)C=C3)cc1)c1ccc2c3cc(Cl)ccc3n(C(=O)c3ccc(Cl)cc3)c2c1
REMARK SMILES IDX 6 1 5 2 3 3 4 4 2 5 1 6 74 7 75 8 96 9 76 10 95 11 77 12
REMARK SMILES IDX 85 13 78 14 84 15 79 16 83 17 80 18 82 19 81 20 86 21 87 22
REMARK SMILES IDX 88 23 89 24 94 25 90 26 93 27 91 28 92 29 7 30 8 31 9 32
REMARK SMILES IDX 10 33 11 34 12 35 73 36 13 37 72 38 14 39 15 40 16 41 66 42
REMARK SMILES IDX 17 43 71 44 65 45 67 46 18 47 70 48 64 49 63 50 19 52 51 53
REMARK SMILES IDX 31 54 50 55 32 56 35 57 49 58 68 59 33 60 34 61 48 63 69 64
REMARK SMILES IDX 36 65 20 66 21 67 29 68 22 69 23 70 27 71 30 72 24 73 25 74
REMARK SMILES IDX 28 75 26 76 52 77 53 78 61 79 54 80 55 81 59 82 62 83 56 84
REMARK SMILES IDX 57 85 60 86 58 87 37 88 38 89 46 90 39 91 40 92 44 93 47 94
REMARK SMILES IDX 41 95 42 96 45 97 43 98
REMARK H PARENT 67 51 35 62
REMARK Flexibility Score: inf
ROOT
ATOM      1  C   UNL     1       2.334  -3.722  -0.188  1.00  0.00     0.274 C 
ENDROOT
BRANCH   1   2
ATOM      2  O   UNL     1       1.928  -2.345  -0.238  1.00  0.00    -0.462 OA
BRANCH   2   3
ATOM      3  C   UNL     1       1.900  -1.766  -1.471  1.00  0.00     0.313 C 
ATOM      4  O   UNL     1       2.235  -2.333  -2.505  1.00  0.00    -0.252 OA
BRANCH   3   5
ATOM      5  C   UNL     1       1.297  -0.351  -1.426  1.00  0.00     0.126 C 
ATOM      6  C   UNL     1       1.534   0.295  -0.057  1.00  0.00     0.025 C 
BRANCH   5   7
ATOM      7  C   UNL     1      -0.177  -0.284  -1.812  1.00  0.00    -0.032 A 
ATOM      8  C   UNL     1      -0.864   0.928  -1.877  1.00  0.00     0.005 A 
ATOM      9  C   UNL     1      -0.881  -1.460  -2.069  1.00  0.00     0.032 A 
ATOM     10  C   UNL     1      -2.218   0.967  -2.221  1.00  0.00     0.011 A 
ATOM     11  C   UNL     1      -2.274  -1.450  -2.244  1.00  0.00     0.057 A 
ATOM     12  C   UNL     1      -2.927  -0.237  -2.405  1.00  0.00     0.008 A 
ATOM     13  N   UNL     1      -3.216  -2.518  -2.215  1.00  0.00    -0.276 N 
ATOM     14  C   UNL     1      -4.290  -0.512  -2.617  1.00  0.00     0.009 A 
ATOM     15  C   UNL     1      -4.478  -1.835  -2.169  1.00  0.00     0.057 A 
ATOM     16  C   UNL     1      -5.380   0.370  -2.853  1.00  0.00     0.031 A 
ATOM     17  C   UNL     1      -5.746  -2.054  -1.608  1.00  0.00     0.029 A 
ATOM     18  C   UNL     1      -6.653   0.028  -2.426  1.00  0.00     0.041 A 
ATOM     19  C   UNL     1      -6.820  -1.145  -1.728  1.00  0.00     0.023 A 
ATOM     20  Cl  UNL     1      -7.951   1.144  -2.592  1.00  0.00    -0.084 Cl
BRANCH  13  21
ATOM     21  C   UNL     1      -2.728  -3.904  -2.106  1.00  0.00     0.262 C 
ATOM     22  O   UNL     1      -1.497  -4.042  -2.095  1.00  0.00    -0.268 OA
BRANCH  21  23
ATOM     23  C   UNL     1      -3.266  -5.280  -1.956  1.00  0.00     0.040 A 
ATOM     24  C   UNL     1      -2.730  -6.038  -0.876  1.00  0.00     0.015 A 
ATOM     25  C   UNL     1      -4.125  -5.947  -2.826  1.00  0.00     0.015 A 
ATOM     26  C   UNL     1      -3.204  -7.310  -0.531  1.00  0.00     0.021 A 
ATOM     27  C   UNL     1      -4.603  -7.243  -2.487  1.00  0.00     0.021 A 
ATOM     28  C   UNL     1      -4.181  -7.891  -1.320  1.00  0.00     0.041 A 
ATOM     29  Cl  UNL     1      -4.886  -9.383  -0.834  1.00  0.00    -0.084 Cl
ENDBRANCH  21  23
ENDBRANCH  13  21
ENDBRANCH   5   7
ENDBRANCH   3   5
ENDBRANCH   2   3
ENDBRANCH   1   2
BRANCH   1  30
ATOM     30  C   UNL     1       1.901  -4.328   1.153  1.00  0.00     0.275 C 
BRANCH  30  31
ATOM     31  O   UNL     1       0.459  -4.442   1.254  1.00  0.00    -0.458 OA
BRANCH  31  32
ATOM     32  C   UNL     1      -0.185  -3.416   1.850  1.00  0.00     0.338 C 
ATOM     33  O   UNL     1       0.333  -2.399   2.330  1.00  0.00    -0.246 OA
BRANCH  32  34
ATOM     34  C   UNL     1      -1.653  -3.612   1.805  1.00  0.00     0.060 A 
ATOM     35  C   UNL     1      -2.456  -2.569   1.342  1.00  0.00     0.016 A 
ATOM     36  C   UNL     1      -2.268  -4.794   2.240  1.00  0.00     0.016 A 
ATOM     37  C   UNL     1      -3.851  -2.728   1.267  1.00  0.00     0.010 A 
ATOM     38  C   UNL     1      -3.673  -4.954   2.153  1.00  0.00     0.010 A 
ATOM     39  C   UNL     1      -4.489  -3.932   1.642  1.00  0.00    -0.014 A 
BRANCH  39  40
ATOM     40  C   UNL     1      -6.005  -4.026   1.604  1.00  0.00     0.031 A 
ATOM     41  C   UNL     1      -6.760  -3.281   2.634  1.00  0.00     0.074 A 
ATOM     42  C   UNL     1      -6.729  -4.513   0.567  1.00  0.00     0.049 A 
ATOM     43  N   UNL     1      -8.021  -2.955   2.623  1.00  0.00    -0.248 NA
ATOM     44  C   UNL     1      -5.990  -2.800   3.785  1.00  0.00     0.031 C 
ATOM     45  C   UNL     1      -6.071  -5.017  -0.601  1.00  0.00     0.029 A 
ATOM     46  N   UNL     1      -8.054  -4.479   0.165  1.00  0.00    -0.354 N 
ATOM     47  C   UNL     1      -8.210  -2.234   3.779  1.00  0.00     0.074 A 
ATOM     48  C   UNL     1      -6.925  -2.134   4.443  1.00  0.00     0.031 C 
ATOM     49  C   UNL     1      -6.901  -5.057  -1.648  1.00  0.00     0.029 A 
ATOM     50  C   UNL     1      -8.230  -4.744  -1.192  1.00  0.00     0.049 A 
ATOM     51  H   UNL     1      -8.799  -4.286   0.778  1.00  0.00     0.167 HD
ATOM     52  C   UNL     1      -9.373  -1.748   4.258  1.00  0.00     0.037 A 
ATOM     53  C   UNL     1      -9.284  -4.695  -2.035  1.00  0.00     0.037 A 
ATOM     54  C   UNL     1     -10.655  -1.916   3.629  1.00  0.00     0.049 A 
ATOM     55  C   UNL     1     -10.578  -4.264  -1.436  1.00  0.00     0.074 A 
ATOM     56  C   UNL     1     -11.901  -1.608   4.142  1.00  0.00     0.029 A 
ATOM     57  N   UNL     1     -10.865  -2.445   2.361  1.00  0.00    -0.354 N 
ATOM     58  N   UNL     1     -10.763  -3.677  -0.283  1.00  0.00    -0.248 NA
ATOM     59  C   UNL     1     -11.799  -4.501  -2.213  1.00  0.00     0.031 C 
ATOM     60  C   UNL     1     -12.869  -2.006   3.214  1.00  0.00     0.029 A 
ATOM     61  C   UNL     1     -12.227  -2.510   2.095  1.00  0.00     0.049 A 
ATOM     62  H   UNL     1     -10.155  -2.731   1.743  1.00  0.00     0.167 HD
ATOM     63  C   UNL     1     -12.125  -3.490  -0.179  1.00  0.00     0.074 A 
ATOM     64  C   UNL     1     -12.713  -3.959  -1.420  1.00  0.00     0.031 C 
ATOM     65  C   UNL     1     -12.816  -3.001   0.875  1.00  0.00     0.037 A 
BRANCH  52  66
ATOM     66  C   UNL     1      -9.289  -1.147   5.618  1.00  0.00     0.064 A 
ATOM     67  C   UNL     1      -8.744   0.124   5.837  1.00  0.00     0.173 A 
ATOM     68  C   UNL     1      -9.672  -1.914   6.727  1.00  0.00     0.173 A 
ATOM     69  F   UNL     1      -8.303   0.858   4.804  1.00  0.00    -0.203 F 
ATOM     70  C   UNL     1      -8.575   0.604   7.131  1.00  0.00     0.198 A 
ATOM     71  C   UNL     1      -9.524  -1.421   8.015  1.00  0.00     0.198 A 
ATOM     72  F   UNL     1     -10.157  -3.154   6.556  1.00  0.00    -0.203 F 
ATOM     73  F   UNL     1      -7.993   1.794   7.331  1.00  0.00    -0.200 F 
ATOM     74  C   UNL     1      -8.970  -0.166   8.217  1.00  0.00     0.200 A 
ATOM     75  F   UNL     1      -9.892  -2.172   9.062  1.00  0.00    -0.200 F 
ATOM     76  F   UNL     1      -8.795   0.293   9.463  1.00  0.00    -0.200 F 
ENDBRANCH  52  66
BRANCH  53  77
ATOM     77  C   UNL     1      -9.188  -5.058  -3.494  1.00  0.00     0.064 A 
ATOM     78  C   UNL     1      -9.613  -4.181  -4.508  1.00  0.00     0.173 A 
ATOM     79  C   UNL     1      -8.700  -6.309  -3.914  1.00  0.00     0.173 A 
ATOM     80  F   UNL     1     -10.109  -2.977  -4.189  1.00  0.00    -0.203 F 
ATOM     81  C   UNL     1      -9.569  -4.544  -5.859  1.00  0.00     0.198 A 
ATOM     82  C   UNL     1      -8.616  -6.654  -5.265  1.00  0.00     0.198 A 
ATOM     83  F   UNL     1      -8.280  -7.207  -3.010  1.00  0.00    -0.203 F 
ATOM     84  F   UNL     1     -10.034  -3.703  -6.794  1.00  0.00    -0.200 F 
ATOM     85  C   UNL     1      -9.062  -5.776  -6.237  1.00  0.00     0.200 A 
ATOM     86  F   UNL     1      -8.099  -7.838  -5.619  1.00  0.00    -0.200 F 
ATOM     87  F   UNL     1      -9.011  -6.121  -7.531  1.00  0.00    -0.200 F 
ENDBRANCH  53  77
BRANCH  65  88
ATOM     88  C   UNL     1     -14.305  -2.990   0.738  1.00  0.00     0.064 A 
ATOM     89  C   UNL     1     -15.042  -4.184   0.734  1.00  0.00     0.173 A 
ATOM     90  C   UNL     1     -15.001  -1.781   0.612  1.00  0.00     0.173 A 
ATOM     91  F   UNL     1     -14.415  -5.367   0.827  1.00  0.00    -0.203 F 
ATOM     92  C   UNL     1     -16.424  -4.168   0.578  1.00  0.00     0.198 A 
ATOM     93  C   UNL     1     -16.386  -1.768   0.488  1.00  0.00     0.198 A 
ATOM     94  F   UNL     1     -14.337  -0.615   0.607  1.00  0.00    -0.203 F 
ATOM     95  F   UNL     1     -17.102  -5.322   0.517  1.00  0.00    -0.200 F 
ATOM     96  C   UNL     1     -17.094  -2.960   0.462  1.00  0.00     0.200 A 
ATOM     97  F   UNL     1     -17.035  -0.600   0.385  1.00  0.00    -0.200 F 
ATOM     98  F   UNL     1     -18.426  -2.945   0.314  1.00  0.00    -0.200 F 
ENDBRANCH  65  88
ENDBRANCH  39  40
ENDBRANCH  32  34
ENDBRANCH  31  32
ENDBRANCH  30  31
ENDBRANCH   1  30
TORSDOF 14
