REMARK SMILES C[C@@H](NS(=O)(=O)c1ccc2c(c1)CCC2)C(=O)OCCOC(=O)c1ccc(-c2c3nc(c(-c4c(F)c(F)c(F)c(F)c4F)c4ccc([nH]4)c(-c4c(F)c(F)c(F)c(F)c4F)c4nc(c(-c5c(F)c(F)c(F)c(F)c5F)c5ccc2[nH]5)C=C4)C=C3)cc1
REMARK SMILES IDX 19 1 18 2 16 3 17 4 2 5 1 6 3 7 4 9 5 10 6 11 7 12 8 13
REMARK SMILES IDX 12 14 9 15 11 16 10 17 13 18 15 19 14 20 20 21 21 22 22 23
REMARK SMILES IDX 23 24 24 25 25 26 86 27 26 28 85 29 27 30 28 31 29 32 79 33
REMARK SMILES IDX 30 34 84 35 78 36 80 37 31 38 83 39 77 40 76 41 32 43 64 44
REMARK SMILES IDX 44 45 63 46 45 47 48 48 62 49 81 50 46 51 47 52 61 54 82 55
REMARK SMILES IDX 49 56 33 57 34 58 42 59 35 60 36 61 40 62 43 63 37 64 38 65
REMARK SMILES IDX 41 66 39 67 65 68 66 69 74 70 67 71 68 72 72 73 75 74 69 75
REMARK SMILES IDX 70 76 73 77 71 78 50 79 51 80 59 81 52 82 53 83 57 84 60 85
REMARK SMILES IDX 54 86 55 87 58 88 56 89
REMARK H PARENT 3 8 80 42 48 53
REMARK Flexibility Score: inf
ROOT
ATOM      1  C   UNL     1      -3.153  -0.432  -0.541  1.00  0.00     0.274 C 
ENDROOT
BRANCH   1   2
ATOM      2  O   UNL     1      -1.734  -0.667  -0.648  1.00  0.00    -0.461 OA
BRANCH   2   3
ATOM      3  C   UNL     1      -1.054   0.199  -1.448  1.00  0.00     0.324 C 
ATOM      4  O   UNL     1      -1.567   1.160  -2.009  1.00  0.00    -0.250 OA
BRANCH   3   5
ATOM      5  C   UNL     1       0.409  -0.174  -1.650  1.00  0.00     0.176 C 
ATOM      6  C   UNL     1       1.022  -0.848  -0.428  1.00  0.00     0.038 C 
BRANCH   5   7
ATOM      7  N   UNL     1       0.593  -1.031  -2.842  1.00  0.00    -0.197 NA
ATOM      8  H   UNL     1      -0.060  -1.810  -2.758  1.00  0.00     0.142 HD
BRANCH   7   9
ATOM      9  S   UNL     1       0.359  -0.346  -4.372  1.00  0.00     0.241 S 
ATOM     10  O   UNL     1       0.844   1.018  -4.309  1.00  0.00    -0.207 OA
ATOM     11  O   UNL     1       0.903  -1.297  -5.313  1.00  0.00    -0.207 OA
BRANCH   9  12
ATOM     12  C   UNL     1      -1.401  -0.345  -4.582  1.00  0.00     0.082 A 
ATOM     13  C   UNL     1      -2.065   0.870  -4.838  1.00  0.00     0.022 A 
ATOM     14  C   UNL     1      -2.110  -1.532  -4.363  1.00  0.00     0.025 A 
ATOM     15  C   UNL     1      -3.459   0.928  -4.801  1.00  0.00     0.005 A 
ATOM     16  C   UNL     1      -3.493  -1.461  -4.356  1.00  0.00    -0.043 A 
ATOM     17  C   UNL     1      -4.156  -0.241  -4.548  1.00  0.00    -0.045 A 
ATOM     18  C   UNL     1      -4.468  -2.555  -4.056  1.00  0.00     0.036 C 
ATOM     19  C   UNL     1      -5.630  -0.401  -4.337  1.00  0.00     0.036 C 
ATOM     20  C   UNL     1      -5.789  -1.916  -4.512  1.00  0.00     0.010 C 
ENDBRANCH   9  12
ENDBRANCH   7   9
ENDBRANCH   5   7
ENDBRANCH   3   5
ENDBRANCH   2   3
ENDBRANCH   1   2
BRANCH   1  21
ATOM     21  C   UNL     1      -3.531   0.551   0.577  1.00  0.00     0.275 C 
BRANCH  21  22
ATOM     22  O   UNL     1      -3.206   1.916   0.250  1.00  0.00    -0.458 OA
BRANCH  22  23
ATOM     23  C   UNL     1      -1.956   2.305   0.598  1.00  0.00     0.338 C 
ATOM     24  O   UNL     1      -1.135   1.652   1.223  1.00  0.00    -0.246 OA
BRANCH  23  25
ATOM     25  C   UNL     1      -1.619   3.591  -0.045  1.00  0.00     0.060 A 
ATOM     26  C   UNL     1      -0.387   3.678  -0.709  1.00  0.00     0.016 A 
ATOM     27  C   UNL     1      -2.453   4.706   0.041  1.00  0.00     0.016 A 
ATOM     28  C   UNL     1       0.027   4.877  -1.276  1.00  0.00     0.010 A 
ATOM     29  C   UNL     1      -2.025   5.921  -0.505  1.00  0.00     0.010 A 
ATOM     30  C   UNL     1      -0.774   6.014  -1.143  1.00  0.00    -0.014 A 
BRANCH  30  31
ATOM     31  C   UNL     1      -0.226   7.333  -1.528  1.00  0.00     0.031 A 
ATOM     32  C   UNL     1       0.343   8.213  -0.454  1.00  0.00     0.074 A 
ATOM     33  C   UNL     1      -0.201   7.722  -2.813  1.00  0.00     0.049 A 
ATOM     34  N   UNL     1       0.772   9.446  -0.527  1.00  0.00    -0.248 NA
ATOM     35  C   UNL     1       0.440   7.619   0.889  1.00  0.00     0.031 C 
ATOM     36  C   UNL     1      -0.644   6.916  -3.949  1.00  0.00     0.029 A 
ATOM     37  N   UNL     1       0.212   8.904  -3.375  1.00  0.00    -0.354 N 
ATOM     38  C   UNL     1       1.168   9.782   0.760  1.00  0.00     0.074 A 
ATOM     39  C   UNL     1       0.919   8.629   1.598  1.00  0.00     0.031 C 
ATOM     40  C   UNL     1      -0.496   7.635  -5.075  1.00  0.00     0.029 A 
ATOM     41  C   UNL     1       0.008   8.963  -4.731  1.00  0.00     0.049 A 
ATOM     42  H   UNL     1       0.615   9.637  -2.857  1.00  0.00     0.167 HD
ATOM     43  C   UNL     1       1.690  10.951   1.200  1.00  0.00     0.037 A 
ATOM     44  C   UNL     1       0.177   9.990  -5.586  1.00  0.00     0.037 A 
ATOM     45  C   UNL     1       1.943  12.088   0.356  1.00  0.00     0.049 A 
ATOM     46  C   UNL     1       0.687  11.306  -5.061  1.00  0.00     0.074 A 
ATOM     47  C   UNL     1       2.462  13.322   0.701  1.00  0.00     0.029 A 
ATOM     48  N   UNL     1       1.691  12.124  -1.008  1.00  0.00    -0.354 N 
ATOM     49  N   UNL     1       1.033  11.633  -3.838  1.00  0.00    -0.248 NA
ATOM     50  C   UNL     1       0.823  12.400  -6.033  1.00  0.00     0.031 C 
ATOM     51  C   UNL     1       2.486  14.121  -0.448  1.00  0.00     0.029 A 
ATOM     52  C   UNL     1       2.027  13.368  -1.517  1.00  0.00     0.049 A 
ATOM     53  H   UNL     1       1.328  11.377  -1.536  1.00  0.00     0.167 HD
ATOM     54  C   UNL     1       1.451  12.955  -3.898  1.00  0.00     0.074 A 
ATOM     55  C   UNL     1       1.323  13.370  -5.280  1.00  0.00     0.031 C 
ATOM     56  C   UNL     1       1.902  13.755  -2.900  1.00  0.00     0.037 A 
BRANCH  43  57
ATOM     57  C   UNL     1       1.976  11.067   2.667  1.00  0.00     0.064 A 
ATOM     58  C   UNL     1       3.044  10.387   3.271  1.00  0.00     0.173 A 
ATOM     59  C   UNL     1       1.168  11.877   3.480  1.00  0.00     0.173 A 
ATOM     60  F   UNL     1       3.832   9.584   2.541  1.00  0.00    -0.203 F 
ATOM     61  C   UNL     1       3.277  10.494   4.640  1.00  0.00     0.198 A 
ATOM     62  C   UNL     1       1.421  12.002   4.843  1.00  0.00     0.198 A 
ATOM     63  F   UNL     1       0.133  12.547   2.952  1.00  0.00    -0.203 F 
ATOM     64  F   UNL     1       4.272   9.796   5.205  1.00  0.00    -0.200 F 
ATOM     65  C   UNL     1       2.469  11.305   5.424  1.00  0.00     0.200 A 
ATOM     66  F   UNL     1       0.644  12.792   5.597  1.00  0.00    -0.200 F 
ATOM     67  F   UNL     1       2.695  11.406   6.741  1.00  0.00    -0.200 F 
ENDBRANCH  43  57
BRANCH  44  68
ATOM     68  C   UNL     1      -0.169   9.822  -7.021  1.00  0.00     0.064 A 
ATOM     69  C   UNL     1       0.824   9.812  -8.009  1.00  0.00     0.173 A 
ATOM     70  C   UNL     1      -1.502   9.673  -7.432  1.00  0.00     0.173 A 
ATOM     71  F   UNL     1       2.110   9.981  -7.668  1.00  0.00    -0.203 F 
ATOM     72  C   UNL     1       0.495   9.671  -9.357  1.00  0.00     0.198 A 
ATOM     73  C   UNL     1      -1.827   9.505  -8.776  1.00  0.00     0.198 A 
ATOM     74  F   UNL     1      -2.490   9.683  -6.526  1.00  0.00    -0.203 F 
ATOM     75  F   UNL     1       1.460   9.707 -10.286  1.00  0.00    -0.200 F 
ATOM     76  C   UNL     1      -0.828   9.510  -9.738  1.00  0.00     0.200 A 
ATOM     77  F   UNL     1      -3.106   9.343  -9.139  1.00  0.00    -0.200 F 
ATOM     78  F   UNL     1      -1.143   9.371 -11.033  1.00  0.00    -0.200 F 
ENDBRANCH  44  68
BRANCH  56  79
ATOM     79  C   UNL     1       2.329  15.144  -3.270  1.00  0.00     0.064 A 
ATOM     80  C   UNL     1       1.396  16.143  -3.582  1.00  0.00     0.173 A 
ATOM     81  C   UNL     1       3.689  15.491  -3.261  1.00  0.00     0.173 A 
ATOM     82  F   UNL     1       0.086  15.855  -3.617  1.00  0.00    -0.203 F 
ATOM     83  C   UNL     1       1.811  17.436  -3.891  1.00  0.00     0.198 A 
ATOM     84  C   UNL     1       4.098  16.791  -3.544  1.00  0.00     0.198 A 
ATOM     85  F   UNL     1       4.620  14.573  -2.961  1.00  0.00    -0.203 F 
ATOM     86  F   UNL     1       0.905  18.366  -4.224  1.00  0.00    -0.200 F 
ATOM     87  C   UNL     1       3.159  17.760  -3.864  1.00  0.00     0.200 A 
ATOM     88  F   UNL     1       5.400  17.106  -3.505  1.00  0.00    -0.200 F 
ATOM     89  F   UNL     1       3.555  19.008  -4.153  1.00  0.00    -0.200 F 
ENDBRANCH  56  79
ENDBRANCH  30  31
ENDBRANCH  23  25
ENDBRANCH  22  23
ENDBRANCH  21  22
ENDBRANCH   1  21
TORSDOF 14
