REMARK SMILES O=C(CC[N@H+]1CCC[C@@H](C(=O)OCCOC(=O)c2ccc(-c3c4nc(c(-c5c(F)c(F)c(F)c(F)c5F)c5ccc([nH]5)c(-c5c(F)c(F)c(F)c(F)c5F)c5nc(c(-c6c(F)c(F)c(F)c(F)c6F)c6ccc3[nH]6)C=C5)C=C4)cc2)C1)Nc1cccc(F)c1
REMARK SMILES IDX 13 1 12 2 10 3 11 4 9 5 5 6 6 7 81 8 7 10 8 11 4 12 3 13
REMARK SMILES IDX 2 14 1 15 82 16 83 18 84 19 89 20 85 21 87 22 86 23 88 24
REMARK SMILES IDX 14 25 15 26 16 27 17 28 18 29 19 30 80 31 20 32 79 33 21 34
REMARK SMILES IDX 22 35 23 36 73 37 24 38 78 39 72 40 74 41 25 42 77 43 71 44
REMARK SMILES IDX 70 45 26 47 58 48 38 49 57 50 39 51 42 52 56 53 75 54 40 55
REMARK SMILES IDX 41 56 55 58 76 59 43 60 27 61 28 62 36 63 29 64 30 65 34 66
REMARK SMILES IDX 37 67 31 68 32 69 35 70 33 71 59 72 60 73 68 74 61 75 62 76
REMARK SMILES IDX 66 77 69 78 63 79 64 80 67 81 65 82 44 83 45 84 53 85 46 86
REMARK SMILES IDX 47 87 51 88 54 89 48 90 49 91 52 92 50 93
REMARK H PARENT 5 9 82 17 74 46 42 57
REMARK Flexibility Score: inf
ROOT
ATOM      1  C   UNL     1       4.876   5.176  -1.268  1.00  0.00     0.274 C 
ENDROOT
BRANCH   1   2
ATOM      2  O   UNL     1       5.692   3.985  -1.216  1.00  0.00    -0.462 OA
BRANCH   2   3
ATOM      3  C   UNL     1       4.967   2.865  -0.974  1.00  0.00     0.314 C 
ATOM      4  O   UNL     1       3.743   2.879  -0.891  1.00  0.00    -0.252 OA
BRANCH   3   5
ATOM      5  C   UNL     1       5.791   1.606  -0.723  1.00  0.00     0.154 C 
ATOM      6  N   UNL     1       5.189  -0.872  -0.432  1.00  0.00    -0.334 N 
ATOM      7  C   UNL     1       5.963  -1.186  -1.647  1.00  0.00     0.262 C 
ATOM      8  C   UNL     1       4.729   0.512  -0.501  1.00  0.00     0.277 C 
ATOM      9  H   UNL     1       5.771  -0.973   0.400  1.00  0.00     0.348 HD
ATOM     10  C   UNL     1       7.157  -0.243  -1.821  1.00  0.00     0.062 C 
ATOM     11  C   UNL     1       6.777   1.242  -1.832  1.00  0.00     0.027 C 
BRANCH   6  12
ATOM     12  C   UNL     1       4.045  -1.828  -0.311  1.00  0.00     0.272 C 
BRANCH  12  13
ATOM     13  C   UNL     1       2.819  -1.395   0.530  1.00  0.00     0.161 C 
BRANCH  13  14
ATOM     14  C   UNL     1       1.814  -0.631  -0.329  1.00  0.00     0.230 C 
ATOM     15  O   UNL     1       1.387  -1.116  -1.375  1.00  0.00    -0.275 OA
ATOM     16  N   UNL     1       1.482   0.616   0.174  1.00  0.00    -0.326 N 
ATOM     17  H   UNL     1       1.666   0.771   1.129  1.00  0.00     0.169 HD
BRANCH  16  18
ATOM     18  C   UNL     1       0.906   1.692  -0.545  1.00  0.00     0.044 A 
ATOM     19  C   UNL     1       0.731   1.685  -1.934  1.00  0.00     0.026 A 
ATOM     20  C   UNL     1       0.589   2.857   0.164  1.00  0.00     0.065 A 
ATOM     21  C   UNL     1       0.260   2.820  -2.606  1.00  0.00     0.005 A 
ATOM     22  C   UNL     1       0.115   3.979  -0.514  1.00  0.00     0.125 A 
ATOM     23  C   UNL     1      -0.050   3.973  -1.892  1.00  0.00     0.039 A 
ATOM     24  F   UNL     1      -0.174   5.091   0.176  1.00  0.00    -0.207 F 
ENDBRANCH  16  18
ENDBRANCH  13  14
ENDBRANCH  12  13
ENDBRANCH   6  12
ENDBRANCH   3   5
ENDBRANCH   2   3
ENDBRANCH   1   2
BRANCH   1  25
ATOM     25  C   UNL     1       4.401   5.547  -2.680  1.00  0.00     0.275 C 
BRANCH  25  26
ATOM     26  O   UNL     1       3.662   4.500  -3.341  1.00  0.00    -0.458 OA
BRANCH  26  27
ATOM     27  C   UNL     1       4.407   3.724  -4.160  1.00  0.00     0.338 C 
ATOM     28  O   UNL     1       5.603   3.826  -4.380  1.00  0.00    -0.246 OA
BRANCH  27  29
ATOM     29  C   UNL     1       3.621   2.616  -4.730  1.00  0.00     0.060 A 
ATOM     30  C   UNL     1       3.887   1.335  -4.249  1.00  0.00     0.016 A 
ATOM     31  C   UNL     1       2.823   2.780  -5.861  1.00  0.00     0.016 A 
ATOM     32  C   UNL     1       3.440   0.210  -4.928  1.00  0.00     0.010 A 
ATOM     33  C   UNL     1       2.334   1.644  -6.529  1.00  0.00     0.010 A 
ATOM     34  C   UNL     1       2.678   0.351  -6.091  1.00  0.00    -0.014 A 
BRANCH  34  35
ATOM     35  C   UNL     1       2.353  -0.866  -6.880  1.00  0.00     0.031 A 
ATOM     36  C   UNL     1       3.042  -1.114  -8.195  1.00  0.00     0.074 A 
ATOM     37  C   UNL     1       1.530  -1.804  -6.374  1.00  0.00     0.049 A 
ATOM     38  N   UNL     1       2.868  -2.088  -9.054  1.00  0.00    -0.248 NA
ATOM     39  C   UNL     1       4.076  -0.145  -8.590  1.00  0.00     0.031 C 
ATOM     40  C   UNL     1       0.880  -1.741  -5.066  1.00  0.00     0.029 A 
ATOM     41  N   UNL     1       1.119  -3.007  -6.894  1.00  0.00    -0.354 N 
ATOM     42  C   UNL     1       3.746  -1.834 -10.099  1.00  0.00     0.074 A 
ATOM     43  C   UNL     1       4.450  -0.612  -9.773  1.00  0.00     0.031 C 
ATOM     44  C   UNL     1       0.162  -2.860  -4.879  1.00  0.00     0.029 A 
ATOM     45  C   UNL     1       0.257  -3.692  -6.074  1.00  0.00     0.049 A 
ATOM     46  H   UNL     1       1.413  -3.345  -7.771  1.00  0.00     0.167 HD
ATOM     47  C   UNL     1       3.947  -2.555 -11.228  1.00  0.00     0.037 A 
ATOM     48  C   UNL     1      -0.404  -4.848  -6.276  1.00  0.00     0.037 A 
ATOM     49  C   UNL     1       3.273  -3.787 -11.542  1.00  0.00     0.049 A 
ATOM     50  C   UNL     1      -0.219  -5.591  -7.571  1.00  0.00     0.074 A 
ATOM     51  C   UNL     1       3.396  -4.576 -12.673  1.00  0.00     0.029 A 
ATOM     52  N   UNL     1       2.357  -4.416 -10.713  1.00  0.00    -0.354 N 
ATOM     53  N   UNL     1       0.570  -5.313  -8.579  1.00  0.00    -0.248 NA
ATOM     54  C   UNL     1      -1.029  -6.803  -7.761  1.00  0.00     0.031 C 
ATOM     55  C   UNL     1       2.530  -5.667 -12.543  1.00  0.00     0.029 A 
ATOM     56  C   UNL     1       1.894  -5.576 -11.316  1.00  0.00     0.049 A 
ATOM     57  H   UNL     1       2.076  -4.088  -9.829  1.00  0.00     0.167 HD
ATOM     58  C   UNL     1       0.366  -6.319  -9.513  1.00  0.00     0.074 A 
ATOM     59  C   UNL     1      -0.610  -7.226  -8.945  1.00  0.00     0.031 C 
ATOM     60  C   UNL     1       0.932  -6.474 -10.734  1.00  0.00     0.037 A 
BRANCH  47  61
ATOM     61  C   UNL     1       4.915  -2.008 -12.233  1.00  0.00     0.064 A 
ATOM     62  C   UNL     1       6.301  -2.094 -12.047  1.00  0.00     0.173 A 
ATOM     63  C   UNL     1       4.443  -1.423 -13.418  1.00  0.00     0.173 A 
ATOM     64  F   UNL     1       6.800  -2.633 -10.924  1.00  0.00    -0.203 F 
ATOM     65  C   UNL     1       7.182  -1.597 -13.004  1.00  0.00     0.198 A 
ATOM     66  C   UNL     1       5.326  -0.946 -14.382  1.00  0.00     0.198 A 
ATOM     67  F   UNL     1       3.124  -1.321 -13.643  1.00  0.00    -0.203 F 
ATOM     68  F   UNL     1       8.504  -1.657 -12.793  1.00  0.00    -0.200 F 
ATOM     69  C   UNL     1       6.694  -1.029 -14.172  1.00  0.00     0.200 A 
ATOM     70  F   UNL     1       4.853  -0.405 -15.513  1.00  0.00    -0.200 F 
ATOM     71  F   UNL     1       7.544  -0.555 -15.095  1.00  0.00    -0.200 F 
ENDBRANCH  47  61
BRANCH  48  72
ATOM     72  C   UNL     1      -1.337  -5.357  -5.238  1.00  0.00     0.064 A 
ATOM     73  C   UNL     1      -1.056  -6.528  -4.522  1.00  0.00     0.173 A 
ATOM     74  C   UNL     1      -2.543  -4.695  -4.964  1.00  0.00     0.173 A 
ATOM     75  F   UNL     1       0.069  -7.213  -4.773  1.00  0.00    -0.203 F 
ATOM     76  C   UNL     1      -1.954  -7.025  -3.579  1.00  0.00     0.198 A 
ATOM     77  C   UNL     1      -3.427  -5.178  -4.002  1.00  0.00     0.198 A 
ATOM     78  F   UNL     1      -2.863  -3.577  -5.632  1.00  0.00    -0.203 F 
ATOM     79  F   UNL     1      -1.685  -8.173  -2.942  1.00  0.00    -0.200 F 
ATOM     80  C   UNL     1      -3.135  -6.347  -3.316  1.00  0.00     0.200 A 
ATOM     81  F   UNL     1      -4.565  -4.519  -3.749  1.00  0.00    -0.200 F 
ATOM     82  F   UNL     1      -3.999  -6.829  -2.413  1.00  0.00    -0.200 F 
ENDBRANCH  48  72
BRANCH  60  83
ATOM     83  C   UNL     1       0.531  -7.679 -11.530  1.00  0.00     0.064 A 
ATOM     84  C   UNL     1      -0.715  -7.751 -12.169  1.00  0.00     0.173 A 
ATOM     85  C   UNL     1       1.418  -8.753 -11.691  1.00  0.00     0.173 A 
ATOM     86  F   UNL     1      -1.603  -6.755 -12.031  1.00  0.00    -0.203 F 
ATOM     87  C   UNL     1      -1.065  -8.864 -12.929  1.00  0.00     0.198 A 
ATOM     88  C   UNL     1       1.074  -9.854 -12.470  1.00  0.00     0.198 A 
ATOM     89  F   UNL     1       2.623  -8.728 -11.103  1.00  0.00    -0.203 F 
ATOM     90  F   UNL     1      -2.274  -8.928 -13.503  1.00  0.00    -0.200 F 
ATOM     91  C   UNL     1      -0.168  -9.911 -13.084  1.00  0.00     0.200 A 
ATOM     92  F   UNL     1       1.945 -10.861 -12.626  1.00  0.00    -0.200 F 
ATOM     93  F   UNL     1      -0.504 -10.978 -13.821  1.00  0.00    -0.200 F 
ENDBRANCH  60  83
ENDBRANCH  34  35
ENDBRANCH  27  29
ENDBRANCH  26  27
ENDBRANCH  25  26
ENDBRANCH   1  25
TORSDOF 15
