REMARK SMILES O=C(OCCOC(=O)[C@@H](Cc1c[nH]c2ccccc12)Nc1ncnc2ccccc12)c1ccc(-c2c3nc(c(-c4c(F)c(F)c(F)c(F)c4F)c4ccc([nH]4)c(-c4c(F)c(F)c(F)c(F)c4F)c4nc(c(-c5c(F)c(F)c(F)c(F)c5F)c5ccc2[nH]5)C=C4)C=C3)cc1
REMARK SMILES IDX 4 1 3 2 2 3 1 4 31 5 32 6 93 7 33 8 92 9 34 10 35 11 36 12
REMARK SMILES IDX 86 13 37 14 91 15 85 16 87 17 38 18 90 19 84 20 83 21 39 23
REMARK SMILES IDX 71 24 51 25 70 26 52 27 55 28 69 29 88 30 53 31 54 32 68 34
REMARK SMILES IDX 89 35 56 36 40 37 41 38 49 39 42 40 43 41 47 42 50 43 44 44
REMARK SMILES IDX 45 45 48 46 46 47 72 48 73 49 81 50 74 51 75 52 79 53 82 54
REMARK SMILES IDX 76 55 77 56 80 57 78 58 57 59 58 60 66 61 59 62 60 63 64 64
REMARK SMILES IDX 67 65 61 66 62 67 65 68 63 69 5 70 6 71 7 72 8 73 9 74 10 75
REMARK SMILES IDX 11 76 12 77 19 78 13 79 14 80 18 81 15 83 17 84 16 85 20 86
REMARK SMILES IDX 21 88 22 89 30 90 23 91 25 92 29 93 24 94 26 95 28 96 27 97
REMARK H PARENT 87 22 55 33 13 82 20 87
REMARK Flexibility Score: inf
ROOT
ATOM      1  C   UNL     1       3.776  -1.182  -1.707  1.00  0.00     0.275 C 
ENDROOT
BRANCH   1   2
ATOM      2  O   UNL     1       2.579  -1.335  -0.942  1.00  0.00    -0.458 OA
BRANCH   2   3
ATOM      3  C   UNL     1       2.361  -0.811   0.282  1.00  0.00     0.338 C 
ATOM      4  O   UNL     1       1.247  -0.898   0.793  1.00  0.00    -0.246 OA
BRANCH   3   5
ATOM      5  C   UNL     1       3.384  -0.010   1.016  1.00  0.00     0.060 A 
ATOM      6  C   UNL     1       4.800   0.550   0.282  1.00  0.00     0.016 A 
ATOM      7  C   UNL     1       2.808   0.543   2.569  1.00  0.00     0.016 A 
ATOM      8  C   UNL     1       5.649   1.813   1.016  1.00  0.00     0.010 A 
ATOM      9  C   UNL     1       3.480   1.807   3.462  1.00  0.00     0.010 A 
ATOM     10  C   UNL     1       4.945   2.576   2.841  1.00  0.00    -0.014 A 
BRANCH  10  11
ATOM     11  C   UNL     1       5.339   3.680   3.951  1.00  0.00     0.031 A 
ATOM     12  C   UNL     1       5.871   3.113   5.234  1.00  0.00     0.074 A 
ATOM     13  C   UNL     1       5.342   5.026   3.757  1.00  0.00     0.049 A 
ATOM     14  N   UNL     1       6.684   3.659   6.094  1.00  0.00    -0.248 NA
ATOM     15  C   UNL     1       5.423   1.765   5.621  1.00  0.00     0.031 C 
ATOM     16  C   UNL     1       4.635   5.758   2.711  1.00  0.00     0.029 A 
ATOM     17  N   UNL     1       6.211   5.979   4.250  1.00  0.00    -0.354 N 
ATOM     18  C   UNL     1       6.854   2.704   7.085  1.00  0.00     0.074 A 
ATOM     19  C   UNL     1       6.024   1.579   6.776  1.00  0.00     0.031 C 
ATOM     20  C   UNL     1       5.338   6.850   2.379  1.00  0.00     0.029 A 
ATOM     21  C   UNL     1       6.356   7.063   3.392  1.00  0.00     0.049 A 
ATOM     22  H   UNL     1       6.676   5.900   5.114  1.00  0.00     0.167 HD
ATOM     23  C   UNL     1       7.655   2.767   8.163  1.00  0.00     0.037 A 
ATOM     24  C   UNL     1       7.195   8.121   3.435  1.00  0.00     0.037 A 
ATOM     25  C   UNL     1       8.406   3.941   8.473  1.00  0.00     0.049 A 
ATOM     26  C   UNL     1       8.046   8.200   4.668  1.00  0.00     0.074 A 
ATOM     27  C   UNL     1       9.192   4.196   9.574  1.00  0.00     0.029 A 
ATOM     28  N   UNL     1       8.412   5.083   7.681  1.00  0.00    -0.354 N 
ATOM     29  N   UNL     1       8.227   7.287   5.593  1.00  0.00    -0.248 NA
ATOM     30  C   UNL     1       8.736   9.467   4.920  1.00  0.00     0.031 C 
ATOM     31  C   UNL     1       9.588   5.533   9.499  1.00  0.00     0.029 A 
ATOM     32  C   UNL     1       9.165   6.065   8.287  1.00  0.00     0.049 A 
ATOM     33  H   UNL     1       7.949   5.177   6.817  1.00  0.00     0.167 HD
ATOM     34  C   UNL     1       9.035   7.868   6.551  1.00  0.00     0.074 A 
ATOM     35  C   UNL     1       9.355   9.198   6.060  1.00  0.00     0.031 C 
ATOM     36  C   UNL     1       9.459   7.364   7.736  1.00  0.00     0.037 A 
BRANCH  23  37
ATOM     37  C   UNL     1       7.614   1.599   9.097  1.00  0.00     0.064 A 
ATOM     38  C   UNL     1       8.067   0.320   8.729  1.00  0.00     0.173 A 
ATOM     39  C   UNL     1       6.996   1.742  10.346  1.00  0.00     0.173 A 
ATOM     40  F   UNL     1       8.607   0.114   7.517  1.00  0.00    -0.203 F 
ATOM     41  C   UNL     1       7.868  -0.776   9.565  1.00  0.00     0.198 A 
ATOM     42  C   UNL     1       6.843   0.655  11.198  1.00  0.00     0.198 A 
ATOM     43  F   UNL     1       6.504   2.932  10.724  1.00  0.00    -0.203 F 
ATOM     44  F   UNL     1       8.213  -2.004   9.154  1.00  0.00    -0.200 F 
ATOM     45  C   UNL     1       7.267  -0.604  10.803  1.00  0.00     0.200 A 
ATOM     46  F   UNL     1       6.258   0.823  12.392  1.00  0.00    -0.200 F 
ATOM     47  F   UNL     1       7.074  -1.658  11.607  1.00  0.00    -0.200 F 
ENDBRANCH  23  37
BRANCH  24  48
ATOM     48  C   UNL     1       7.177   9.223   2.413  1.00  0.00     0.064 A 
ATOM     49  C   UNL     1       8.338   9.663   1.752  1.00  0.00     0.173 A 
ATOM     50  C   UNL     1       5.989   9.911   2.110  1.00  0.00     0.173 A 
ATOM     51  F   UNL     1       9.521   9.084   2.011  1.00  0.00    -0.203 F 
ATOM     52  C   UNL     1       8.307  10.735   0.851  1.00  0.00     0.198 A 
ATOM     53  C   UNL     1       5.947  10.938   1.167  1.00  0.00     0.198 A 
ATOM     54  F   UNL     1       4.846   9.590   2.734  1.00  0.00    -0.203 F 
ATOM     55  F   UNL     1       9.444  11.175   0.292  1.00  0.00    -0.200 F 
ATOM     56  C   UNL     1       7.109  11.361   0.549  1.00  0.00     0.200 A 
ATOM     57  F   UNL     1       4.778  11.521   0.871  1.00  0.00    -0.200 F 
ATOM     58  F   UNL     1       7.076  12.381  -0.321  1.00  0.00    -0.200 F 
ENDBRANCH  24  48
BRANCH  36  59
ATOM     59  C   UNL     1      10.407   8.215   8.511  1.00  0.00     0.064 A 
ATOM     60  C   UNL     1      10.022   9.423   9.103  1.00  0.00     0.173 A 
ATOM     61  C   UNL     1      11.732   7.782   8.667  1.00  0.00     0.173 A 
ATOM     62  F   UNL     1       8.764   9.873   8.973  1.00  0.00    -0.203 F 
ATOM     63  C   UNL     1      10.955  10.207   9.767  1.00  0.00     0.198 A 
ATOM     64  C   UNL     1      12.643   8.535   9.389  1.00  0.00     0.198 A 
ATOM     65  F   UNL     1      12.135   6.620   8.129  1.00  0.00    -0.203 F 
ATOM     66  F   UNL     1      10.601  11.411  10.235  1.00  0.00    -0.200 F 
ATOM     67  C   UNL     1      12.261   9.758   9.918  1.00  0.00     0.200 A 
ATOM     68  F   UNL     1      13.890   8.081   9.563  1.00  0.00    -0.200 F 
ATOM     69  F   UNL     1      13.158  10.514  10.562  1.00  0.00    -0.200 F 
ENDBRANCH  36  59
ENDBRANCH  10  11
ENDBRANCH   3   5
ENDBRANCH   2   3
ENDBRANCH   1   2
BRANCH   1  70
ATOM     70  C   UNL     1       3.830   0.160  -2.510  1.00  0.00     0.274 C 
BRANCH  70  71
ATOM     71  O   UNL     1       3.552   1.400  -1.770  1.00  0.00    -0.461 OA
BRANCH  71  72
ATOM     72  C   UNL     1       2.260   1.753  -1.534  1.00  0.00     0.329 C 
ATOM     73  O   UNL     1       1.323   1.192  -2.096  1.00  0.00    -0.250 OA
BRANCH  72  74
ATOM     74  C   UNL     1       2.044   2.850  -0.448  1.00  0.00     0.195 C 
BRANCH  74  75
ATOM     75  C   UNL     1       2.449   2.511   0.969  1.00  0.00     0.074 C 
BRANCH  75  76
ATOM     76  C   UNL     1       3.931   2.246   1.369  1.00  0.00    -0.020 A 
ATOM     77  C   UNL     1       5.054   3.657   1.115  1.00  0.00     0.087 A 
ATOM     78  C   UNL     1       5.152   0.803   2.428  1.00  0.00     0.003 A 
ATOM     79  N   UNL     1       6.663   3.296   1.921  1.00  0.00    -0.361 N 
ATOM     80  C   UNL     1       6.771   1.616   2.624  1.00  0.00     0.046 A 
ATOM     81  C   UNL     1       5.246  -0.619   2.763  1.00  0.00     0.010 A 
ATOM     82  H   UNL     1       7.398   3.949   1.970  1.00  0.00     0.166 HD
ATOM     83  C   UNL     1       7.912   0.804   2.602  1.00  0.00     0.026 A 
ATOM     84  C   UNL     1       6.499  -1.250   2.627  1.00  0.00     0.001 A 
ATOM     85  C   UNL     1       7.733  -0.583   2.491  1.00  0.00     0.002 A 
ENDBRANCH  75  76
ENDBRANCH  74  75
BRANCH  74  86
ATOM     86  N   UNL     1       2.540   4.191  -0.743  1.00  0.00    -0.356 N 
ATOM     87  H   UNL     1       3.494   4.317  -0.952  1.00  0.00     0.163 HD
BRANCH  86  88
ATOM     88  C   UNL     1       1.701   5.286  -0.735  1.00  0.00     0.137 A 
ATOM     89  N   UNL     1       1.950   6.038  -1.815  1.00  0.00    -0.219 NA
ATOM     90  C   UNL     1       0.644   5.591   0.198  1.00  0.00     0.043 A 
ATOM     91  C   UNL     1       1.073   7.001  -2.080  1.00  0.00     0.224 A 
ATOM     92  C   UNL     1      -0.212   6.609  -0.243  1.00  0.00     0.076 A 
ATOM     93  C   UNL     1       0.332   5.053   1.500  1.00  0.00     0.014 A 
ATOM     94  N   UNL     1      -0.014   7.297  -1.368  1.00  0.00    -0.236 NA
ATOM     95  C   UNL     1      -1.339   6.951   0.503  1.00  0.00     0.029 A 
ATOM     96  C   UNL     1      -0.786   5.428   2.251  1.00  0.00     0.001 A 
ATOM     97  C   UNL     1      -1.646   6.368   1.732  1.00  0.00     0.002 A 
ENDBRANCH  86  88
ENDBRANCH  74  86
ENDBRANCH  72  74
ENDBRANCH  71  72
ENDBRANCH  70  71
ENDBRANCH   1  70
TORSDOF 15
