REMARK SMILES CCN(CCC(=O)OCCOC(=O)c1ccc(-c2c3nc(c(-c4c(F)c(F)c(F)c(F)c4F)c4ccc([nH]4)c(-c4c(F)c(F)c(F)c(F)c4F)c4nc(c(-c5c(F)c(F)c(F)c(F)c5F)c5ccc2[nH]5)C=C4)C=C3)cc1)S(=O)(=O)c1cn(CC)cn1
REMARK SMILES IDX 8 1 6 2 7 3 5 4 4 5 3 6 2 7 1 8 77 9 78 10 79 11 80 12 81 13
REMARK SMILES IDX 86 14 82 15 85 16 83 17 84 18 9 19 10 20 11 21 12 22 13 23
REMARK SMILES IDX 14 24 15 25 76 26 16 27 75 28 17 29 18 30 19 31 69 32 20 33
REMARK SMILES IDX 74 34 68 35 70 36 21 37 73 38 67 39 66 40 22 42 54 43 34 44
REMARK SMILES IDX 53 45 35 46 38 47 52 48 71 49 36 50 37 51 51 53 72 54 39 55
REMARK SMILES IDX 23 56 24 57 32 58 25 59 26 60 30 61 33 62 27 63 28 64 31 65
REMARK SMILES IDX 29 66 55 67 56 68 64 69 57 70 58 71 62 72 65 73 59 74 60 75
REMARK SMILES IDX 63 76 61 77 40 78 41 79 49 80 42 81 43 82 47 83 50 84 44 85
REMARK SMILES IDX 45 86 48 87 46 88
REMARK H PARENT 70 41 38 52
REMARK Flexibility Score: inf
ROOT
ATOM      1  O   UNL     1       3.434  -2.208   2.476  1.00  0.00    -0.462 OA
ENDROOT
BRANCH   1   2
ATOM      2  C   UNL     1       2.406  -2.968   2.902  1.00  0.00     0.307 C 
ATOM      3  O   UNL     1       2.507  -4.115   3.326  1.00  0.00    -0.252 OA
BRANCH   2   4
ATOM      4  C   UNL     1       1.069  -2.286   2.761  1.00  0.00     0.139 C 
BRANCH   4   5
ATOM      5  C   UNL     1       1.040  -0.771   2.966  1.00  0.00     0.114 C 
BRANCH   5   6
ATOM      6  N   UNL     1       1.258   0.101   1.775  1.00  0.00    -0.196 NA
BRANCH   6   7
ATOM      7  C   UNL     1       0.808  -0.481   0.482  1.00  0.00     0.099 C 
ATOM      8  C   UNL     1       0.797   0.481  -0.689  1.00  0.00     0.022 C 
ENDBRANCH   6   7
BRANCH   6   9
ATOM      9  S   UNL     1       2.636   1.118   1.736  1.00  0.00     0.262 S 
ATOM     10  O   UNL     1       3.743   0.348   1.206  1.00  0.00    -0.205 OA
ATOM     11  O   UNL     1       2.232   2.356   1.095  1.00  0.00    -0.205 OA
BRANCH   9  12
ATOM     12  C   UNL     1       3.156   1.652   3.325  1.00  0.00     0.188 A 
ATOM     13  C   UNL     1       2.646   2.713   4.057  1.00  0.00     0.129 A 
ATOM     14  N   UNL     1       4.239   1.103   3.993  1.00  0.00    -0.224 NA
ATOM     15  N   UNL     1       3.430   2.787   5.176  1.00  0.00    -0.336 N 
ATOM     16  C   UNL     1       4.342   1.774   5.116  1.00  0.00     0.201 A 
BRANCH  15  17
ATOM     17  C   UNL     1       3.409   3.821   6.191  1.00  0.00     0.120 C 
ATOM     18  C   UNL     1       2.644   3.421   7.440  1.00  0.00     0.027 C 
ENDBRANCH  15  17
ENDBRANCH   9  12
ENDBRANCH   6   9
ENDBRANCH   5   6
ENDBRANCH   4   5
ENDBRANCH   2   4
ENDBRANCH   1   2
BRANCH   1  19
ATOM     19  C   UNL     1       4.761  -2.752   2.613  1.00  0.00     0.274 C 
BRANCH  19  20
ATOM     20  C   UNL     1       5.468  -2.233   3.870  1.00  0.00     0.275 C 
BRANCH  20  21
ATOM     21  O   UNL     1       4.960  -2.835   5.080  1.00  0.00    -0.458 OA
BRANCH  21  22
ATOM     22  C   UNL     1       3.879  -2.222   5.597  1.00  0.00     0.338 C 
ATOM     23  O   UNL     1       3.292  -1.236   5.179  1.00  0.00    -0.246 OA
BRANCH  22  24
ATOM     24  C   UNL     1       3.315  -2.936   6.733  1.00  0.00     0.060 A 
ATOM     25  C   UNL     1       1.972  -3.310   6.626  1.00  0.00     0.016 A 
ATOM     26  C   UNL     1       4.008  -3.044   7.938  1.00  0.00     0.016 A 
ATOM     27  C   UNL     1       1.301  -3.780   7.739  1.00  0.00     0.010 A 
ATOM     28  C   UNL     1       3.336  -3.539   9.055  1.00  0.00     0.010 A 
ATOM     29  C   UNL     1       1.980  -3.896   8.958  1.00  0.00    -0.014 A 
BRANCH  29  30
ATOM     30  C   UNL     1       1.244  -4.427  10.118  1.00  0.00     0.031 A 
ATOM     31  C   UNL     1       0.763  -3.510  11.196  1.00  0.00     0.074 A 
ATOM     32  C   UNL     1       0.968  -5.742  10.138  1.00  0.00     0.049 A 
ATOM     33  N   UNL     1       0.100  -3.796  12.286  1.00  0.00    -0.248 NA
ATOM     34  C   UNL     1       1.064  -2.079  11.030  1.00  0.00     0.031 C 
ATOM     35  C   UNL     1       1.362  -6.696   9.098  1.00  0.00     0.029 A 
ATOM     36  N   UNL     1       0.278  -6.498  11.045  1.00  0.00    -0.354 N 
ATOM     37  C   UNL     1      -0.076  -2.590  12.948  1.00  0.00     0.074 A 
ATOM     38  C   UNL     1       0.554  -1.566  12.141  1.00  0.00     0.031 C 
ATOM     39  C   UNL     1       0.884  -7.908   9.414  1.00  0.00     0.029 A 
ATOM     40  C   UNL     1       0.196  -7.822  10.697  1.00  0.00     0.049 A 
ATOM     41  H   UNL     1      -0.120  -6.128  11.866  1.00  0.00     0.167 HD
ATOM     42  C   UNL     1      -0.704  -2.372  14.128  1.00  0.00     0.037 A 
ATOM     43  C   UNL     1      -0.365  -8.852  11.354  1.00  0.00     0.037 A 
ATOM     44  C   UNL     1      -1.333  -3.408  14.905  1.00  0.00     0.049 A 
ATOM     45  C   UNL     1      -1.035  -8.580  12.669  1.00  0.00     0.074 A 
ATOM     46  C   UNL     1      -1.998  -3.303  16.114  1.00  0.00     0.029 A 
ATOM     47  N   UNL     1      -1.374  -4.748  14.542  1.00  0.00    -0.354 N 
ATOM     48  N   UNL     1      -1.189  -7.439  13.297  1.00  0.00    -0.248 NA
ATOM     49  C   UNL     1      -1.605  -9.737  13.368  1.00  0.00     0.031 C 
ATOM     50  C   UNL     1      -2.410  -4.585  16.498  1.00  0.00     0.029 A 
ATOM     51  C   UNL     1      -2.039  -5.483  15.510  1.00  0.00     0.049 A 
ATOM     52  H   UNL     1      -0.987  -5.122  13.717  1.00  0.00     0.167 HD
ATOM     53  C   UNL     1      -1.886  -7.734  14.458  1.00  0.00     0.074 A 
ATOM     54  C   UNL     1      -2.142  -9.162  14.436  1.00  0.00     0.031 C 
ATOM     55  C   UNL     1      -2.277  -6.903  15.455  1.00  0.00     0.037 A 
BRANCH  42  56
ATOM     56  C   UNL     1      -0.701  -0.971  14.665  1.00  0.00     0.064 A 
ATOM     57  C   UNL     1      -1.494   0.040  14.103  1.00  0.00     0.173 A 
ATOM     58  C   UNL     1       0.097  -0.641  15.771  1.00  0.00     0.173 A 
ATOM     59  F   UNL     1      -2.261  -0.218  13.033  1.00  0.00    -0.203 F 
ATOM     60  C   UNL     1      -1.471   1.336  14.616  1.00  0.00     0.198 A 
ATOM     61  C   UNL     1       0.100   0.649  16.295  1.00  0.00     0.198 A 
ATOM     62  F   UNL     1       0.875  -1.571  16.344  1.00  0.00    -0.203 F 
ATOM     63  F   UNL     1      -2.203   2.298  14.036  1.00  0.00    -0.200 F 
ATOM     64  C   UNL     1      -0.679   1.638  15.713  1.00  0.00     0.200 A 
ATOM     65  F   UNL     1       0.863   0.937  17.358  1.00  0.00    -0.200 F 
ATOM     66  F   UNL     1      -0.657   2.885  16.204  1.00  0.00    -0.200 F 
ENDBRANCH  42  56
BRANCH  43  67
ATOM     67  C   UNL     1      -0.311 -10.214  10.770  1.00  0.00     0.064 A 
ATOM     68  C   UNL     1      -1.468 -10.833  10.279  1.00  0.00     0.173 A 
ATOM     69  C   UNL     1       0.901 -10.911  10.659  1.00  0.00     0.173 A 
ATOM     70  F   UNL     1      -2.652 -10.212  10.377  1.00  0.00    -0.203 F 
ATOM     71  C   UNL     1      -1.416 -12.103   9.709  1.00  0.00     0.198 A 
ATOM     72  C   UNL     1       0.957 -12.169  10.065  1.00  0.00     0.198 A 
ATOM     73  F   UNL     1       2.038 -10.357  11.108  1.00  0.00    -0.203 F 
ATOM     74  F   UNL     1      -2.542 -12.687   9.277  1.00  0.00    -0.200 F 
ATOM     75  C   UNL     1      -0.203 -12.766   9.596  1.00  0.00     0.200 A 
ATOM     76  F   UNL     1       2.133 -12.799   9.943  1.00  0.00    -0.200 F 
ATOM     77  F   UNL     1      -0.152 -13.984   9.038  1.00  0.00    -0.200 F 
ENDBRANCH  43  67
BRANCH  55  78
ATOM     78  C   UNL     1      -3.044  -7.525  16.582  1.00  0.00     0.064 A 
ATOM     79  C   UNL     1      -2.410  -8.325  17.544  1.00  0.00     0.173 A 
ATOM     80  C   UNL     1      -4.423  -7.308  16.706  1.00  0.00     0.173 A 
ATOM     81  F   UNL     1      -1.095  -8.575  17.454  1.00  0.00    -0.203 F 
ATOM     82  C   UNL     1      -3.138  -8.909  18.576  1.00  0.00     0.198 A 
ATOM     83  C   UNL     1      -5.143  -7.873  17.754  1.00  0.00     0.198 A 
ATOM     84  F   UNL     1      -5.071  -6.546  15.811  1.00  0.00    -0.203 F 
ATOM     85  F   UNL     1      -2.523  -9.711  19.456  1.00  0.00    -0.200 F 
ATOM     86  C   UNL     1      -4.502  -8.679  18.682  1.00  0.00     0.200 A 
ATOM     87  F   UNL     1      -6.459  -7.644  17.860  1.00  0.00    -0.200 F 
ATOM     88  F   UNL     1      -5.202  -9.244  19.676  1.00  0.00    -0.200 F 
ENDBRANCH  55  78
ENDBRANCH  29  30
ENDBRANCH  22  24
ENDBRANCH  21  22
ENDBRANCH  20  21
ENDBRANCH  19  20
ENDBRANCH   1  19
TORSDOF 17
