REMARK SMILES O=C(CCCCc1nc(C[C@H]2CCCO2)no1)OCCOC(=O)c1ccc(-c2c3nc(c(-c4c(F)c(F)c(F)c(F)c4F)c4ccc([nH]4)c(-c4c(F)c(F)c(F)c(F)c4F)c4nc(c(-c5c(F)c(F)c(F)c(F)c5F)c5ccc2[nH]5)C=C4)C=C3)cc1
REMARK SMILES IDX 1 1 2 2 3 3 4 4 5 5 6 6 7 7 8 8 17 9 9 10 16 11 10 12 11 13
REMARK SMILES IDX 12 14 15 15 13 16 14 17 18 18 19 19 20 20 21 21 22 22 23 23
REMARK SMILES IDX 24 24 25 25 86 26 26 27 85 28 27 29 28 30 29 31 79 32 30 33
REMARK SMILES IDX 84 34 78 35 80 36 31 37 83 38 77 39 76 40 32 42 64 43 44 44
REMARK SMILES IDX 63 45 45 46 48 47 62 48 81 49 46 50 47 51 61 53 82 54 49 55
REMARK SMILES IDX 33 56 34 57 42 58 35 59 36 60 40 61 43 62 37 63 38 64 41 65
REMARK SMILES IDX 39 66 65 67 66 68 74 69 67 70 68 71 72 72 75 73 69 74 70 75
REMARK SMILES IDX 73 76 71 77 50 78 51 79 59 80 52 81 53 82 57 83 60 84 54 85
REMARK SMILES IDX 55 86 58 87 56 88
REMARK H PARENT 80 41 48 52
REMARK Flexibility Score: inf
ROOT
ATOM      1  O   UNL     1       5.236 -11.606   7.261  1.00  0.00    -0.252 OA
ATOM      2  C   UNL     1       5.646 -10.574   7.784  1.00  0.00     0.305 C 
ENDROOT
BRANCH   2   3
ATOM      3  C   UNL     1       6.471  -9.571   7.003  1.00  0.00     0.123 C 
BRANCH   3   4
ATOM      4  C   UNL     1       5.771  -9.012   5.770  1.00  0.00     0.012 C 
BRANCH   4   5
ATOM      5  C   UNL     1       4.852  -7.806   6.021  1.00  0.00     0.010 C 
BRANCH   5   6
ATOM      6  C   UNL     1       5.467  -6.586   6.720  1.00  0.00     0.100 C 
BRANCH   6   7
ATOM      7  C   UNL     1       6.734  -6.115   6.123  1.00  0.00     0.226 A 
ATOM      8  N   UNL     1       7.068  -5.950   4.867  1.00  0.00    -0.196 NA
ATOM      9  O   UNL     1       7.742  -5.818   6.997  1.00  0.00    -0.339 OA
ATOM     10  C   UNL     1       8.372  -5.539   4.970  1.00  0.00     0.174 A 
ATOM     11  N   UNL     1       8.837  -5.440   6.222  1.00  0.00    -0.062 NA
BRANCH  10  12
ATOM     12  C   UNL     1       9.204  -5.257   3.781  1.00  0.00     0.113 C 
BRANCH  12  13
ATOM     13  C   UNL     1       8.977  -3.852   3.217  1.00  0.00     0.126 C 
ATOM     14  C   UNL     1       9.583  -2.731   4.051  1.00  0.00     0.035 C 
ATOM     15  O   UNL     1       9.638  -3.778   1.934  1.00  0.00    -0.378 OA
ATOM     16  C   UNL     1      10.995  -2.655   3.526  1.00  0.00     0.031 C 
ATOM     17  C   UNL     1      10.802  -2.948   2.054  1.00  0.00     0.160 C 
ENDBRANCH  12  13
ENDBRANCH  10  12
ENDBRANCH   6   7
ENDBRANCH   5   6
ENDBRANCH   4   5
ENDBRANCH   3   4
ENDBRANCH   2   3
BRANCH   2  18
ATOM     18  O   UNL     1       5.489 -10.363   9.115  1.00  0.00    -0.462 OA
BRANCH  18  19
ATOM     19  C   UNL     1       5.206  -9.054   9.638  1.00  0.00     0.274 C 
BRANCH  19  20
ATOM     20  C   UNL     1       6.352  -8.467  10.468  1.00  0.00     0.275 C 
BRANCH  20  21
ATOM     21  O   UNL     1       7.613  -8.575   9.787  1.00  0.00    -0.458 OA
BRANCH  21  22
ATOM     22  C   UNL     1       8.289  -9.719  10.070  1.00  0.00     0.338 C 
ATOM     23  O   UNL     1       8.001 -10.535  10.924  1.00  0.00    -0.246 OA
BRANCH  22  24
ATOM     24  C   UNL     1       9.382  -9.937   9.095  1.00  0.00     0.060 A 
ATOM     25  C   UNL     1       9.648 -11.262   8.731  1.00  0.00     0.016 A 
ATOM     26  C   UNL     1      10.173  -8.899   8.593  1.00  0.00     0.016 A 
ATOM     27  C   UNL     1      10.754 -11.562   7.939  1.00  0.00     0.010 A 
ATOM     28  C   UNL     1      11.284  -9.201   7.793  1.00  0.00     0.010 A 
ATOM     29  C   UNL     1      11.609 -10.540   7.509  1.00  0.00    -0.014 A 
BRANCH  29  30
ATOM     30  C   UNL     1      12.926 -10.915   6.936  1.00  0.00     0.031 A 
ATOM     31  C   UNL     1      14.124 -10.964   7.847  1.00  0.00     0.074 A 
ATOM     32  C   UNL     1      13.047 -11.295   5.653  1.00  0.00     0.049 A 
ATOM     33  N   UNL     1      15.335 -11.401   7.608  1.00  0.00    -0.248 NA
ATOM     34  C   UNL     1      13.928 -10.455   9.214  1.00  0.00     0.031 C 
ATOM     35  C   UNL     1      11.968 -11.312   4.670  1.00  0.00     0.029 A 
ATOM     36  N   UNL     1      14.141 -11.760   4.964  1.00  0.00    -0.354 N 
ATOM     37  C   UNL     1      16.037 -11.236   8.795  1.00  0.00     0.074 A 
ATOM     38  C   UNL     1      15.134 -10.614   9.739  1.00  0.00     0.031 C 
ATOM     39  C   UNL     1      12.450 -11.775   3.503  1.00  0.00     0.029 A 
ATOM     40  C   UNL     1      13.872 -12.083   3.658  1.00  0.00     0.049 A 
ATOM     41  H   UNL     1      15.034 -11.852   5.368  1.00  0.00     0.167 HD
ATOM     42  C   UNL     1      17.312 -11.589   9.083  1.00  0.00     0.037 A 
ATOM     43  C   UNL     1      14.679 -12.583   2.702  1.00  0.00     0.037 A 
ATOM     44  C   UNL     1      18.217 -12.207   8.152  1.00  0.00     0.049 A 
ATOM     45  C   UNL     1      16.113 -12.914   3.032  1.00  0.00     0.074 A 
ATOM     46  C   UNL     1      19.517 -12.631   8.363  1.00  0.00     0.029 A 
ATOM     47  N   UNL     1      17.918 -12.477   6.825  1.00  0.00    -0.354 N 
ATOM     48  N   UNL     1      16.744 -12.826   4.177  1.00  0.00    -0.248 NA
ATOM     49  C   UNL     1      16.941 -13.431   1.932  1.00  0.00     0.031 C 
ATOM     50  C   UNL     1      20.022 -13.116   7.151  1.00  0.00     0.029 A 
ATOM     51  C   UNL     1      19.020 -13.036   6.198  1.00  0.00     0.049 A 
ATOM     52  H   UNL     1      17.052 -12.298   6.394  1.00  0.00     0.167 HD
ATOM     53  C   UNL     1      18.025 -13.312   3.946  1.00  0.00     0.074 A 
ATOM     54  C   UNL     1      18.081 -13.698   2.552  1.00  0.00     0.031 C 
ATOM     55  C   UNL     1      19.060 -13.433   4.814  1.00  0.00     0.037 A 
BRANCH  42  56
ATOM     56  C   UNL     1      17.808 -11.300  10.468  1.00  0.00     0.064 A 
ATOM     57  C   UNL     1      17.375 -12.048  11.573  1.00  0.00     0.173 A 
ATOM     58  C   UNL     1      18.743 -10.278  10.689  1.00  0.00     0.173 A 
ATOM     59  F   UNL     1      16.471 -13.025  11.414  1.00  0.00    -0.203 F 
ATOM     60  C   UNL     1      17.842 -11.766  12.854  1.00  0.00     0.198 A 
ATOM     61  C   UNL     1      19.226 -10.015  11.968  1.00  0.00     0.198 A 
ATOM     62  F   UNL     1      19.189  -9.536   9.664  1.00  0.00    -0.203 F 
ATOM     63  F   UNL     1      17.381 -12.463  13.902  1.00  0.00    -0.200 F 
ATOM     64  C   UNL     1      18.770 -10.754  13.050  1.00  0.00     0.200 A 
ATOM     65  F   UNL     1      20.129  -9.043  12.154  1.00  0.00    -0.200 F 
ATOM     66  F   UNL     1      19.219 -10.484  14.283  1.00  0.00    -0.200 F 
ENDBRANCH  42  56
BRANCH  43  67
ATOM     67  C   UNL     1      14.149 -12.835   1.338  1.00  0.00     0.064 A 
ATOM     68  C   UNL     1      13.980 -14.142   0.859  1.00  0.00     0.173 A 
ATOM     69  C   UNL     1      13.838 -11.777   0.473  1.00  0.00     0.173 A 
ATOM     70  F   UNL     1      14.292 -15.186   1.641  1.00  0.00    -0.203 F 
ATOM     71  C   UNL     1      13.539 -14.380  -0.441  1.00  0.00     0.198 A 
ATOM     72  C   UNL     1      13.375 -12.016  -0.819  1.00  0.00     0.198 A 
ATOM     73  F   UNL     1      13.990 -10.509   0.882  1.00  0.00    -0.203 F 
ATOM     74  F   UNL     1      13.434 -15.638  -0.890  1.00  0.00    -0.200 F 
ATOM     75  C   UNL     1      13.233 -13.317  -1.277  1.00  0.00     0.200 A 
ATOM     76  F   UNL     1      13.077 -10.987  -1.623  1.00  0.00    -0.200 F 
ATOM     77  F   UNL     1      12.816 -13.547  -2.530  1.00  0.00    -0.200 F 
ENDBRANCH  43  67
BRANCH  55  78
ATOM     78  C   UNL     1      20.329 -14.047   4.298  1.00  0.00     0.064 A 
ATOM     79  C   UNL     1      21.178 -13.359   3.419  1.00  0.00     0.173 A 
ATOM     80  C   UNL     1      20.720 -15.327   4.722  1.00  0.00     0.173 A 
ATOM     81  F   UNL     1      20.844 -12.139   2.975  1.00  0.00    -0.203 F 
ATOM     82  C   UNL     1      22.359 -13.941   2.963  1.00  0.00     0.198 A 
ATOM     83  C   UNL     1      21.914 -15.894   4.286  1.00  0.00     0.198 A 
ATOM     84  F   UNL     1      19.948 -16.024   5.569  1.00  0.00    -0.203 F 
ATOM     85  F   UNL     1      23.132 -13.283   2.088  1.00  0.00    -0.200 F 
ATOM     86  C   UNL     1      22.729 -15.204   3.401  1.00  0.00     0.200 A 
ATOM     87  F   UNL     1      22.277 -17.108   4.720  1.00  0.00    -0.200 F 
ATOM     88  F   UNL     1      23.868 -15.758   2.965  1.00  0.00    -0.200 F 
ENDBRANCH  55  78
ENDBRANCH  29  30
ENDBRANCH  22  24
ENDBRANCH  21  22
ENDBRANCH  20  21
ENDBRANCH  19  20
ENDBRANCH  18  19
ENDBRANCH   2  18
TORSDOF 17
