REMARK SMILES Cc1cccc(-c2cccc(C(=O)OCCOC(=O)c3ccc(-c4c5nc(c(-c6c(F)c(F)c(F)c(F)c6F)c6ccc([nH]6)c(-c6c(F)c(F)c(F)c(F)c6F)c6nc(c(-c7c(F)c(F)c(F)c(F)c7F)c7ccc4[nH]7)C=C6)C=C5)cc3)c2)c1
REMARK SMILES IDX 16 1 15 2 14 3 12 4 13 5 11 6 7 7 8 8 83 9 9 10 10 11 6 12
REMARK SMILES IDX 1 13 2 14 3 15 84 16 4 17 5 18 17 19 18 20 19 21 20 22 21 23
REMARK SMILES IDX 82 24 22 25 81 26 23 27 24 28 25 29 75 30 26 31 80 32 74 33
REMARK SMILES IDX 76 34 27 35 79 36 73 37 72 38 28 40 60 41 40 42 59 43 41 44
REMARK SMILES IDX 44 45 58 46 77 47 42 48 43 49 57 51 78 52 45 53 29 54 30 55
REMARK SMILES IDX 38 56 31 57 32 58 36 59 39 60 33 61 34 62 37 63 35 64 61 65
REMARK SMILES IDX 62 66 70 67 63 68 64 69 68 70 71 71 65 72 66 73 69 74 67 75
REMARK SMILES IDX 46 76 47 77 55 78 48 79 49 80 53 81 56 82 50 83 51 84 54 85
REMARK SMILES IDX 52 86
REMARK H PARENT 76 39 44 50
REMARK Flexibility Score: inf
ROOT
ATOM      1  C   UNL     1      -8.039   4.446   1.784  1.00  0.00     0.275 C 
ENDROOT
BRANCH   1   2
ATOM      2  C   UNL     1      -6.990   5.233   0.982  1.00  0.00     0.275 C 
BRANCH   2   3
ATOM      3  O   UNL     1      -5.975   4.429   0.347  1.00  0.00    -0.458 OA
BRANCH   3   4
ATOM      4  C   UNL     1      -4.892   5.179   0.007  1.00  0.00     0.338 C 
ATOM      5  O   UNL     1      -4.809   6.389   0.196  1.00  0.00    -0.246 OA
BRANCH   4   6
ATOM      6  C   UNL     1      -3.783   4.464  -0.682  1.00  0.00     0.060 A 
ATOM      7  C   UNL     1      -2.074   2.712  -0.902  1.00  0.00    -0.018 A 
ATOM      8  C   UNL     1      -1.430   3.536  -1.850  1.00  0.00     0.009 A 
ATOM      9  C   UNL     1      -3.306   3.173  -0.372  1.00  0.00     0.024 A 
ATOM     10  C   UNL     1      -1.929   4.784  -2.207  1.00  0.00     0.002 A 
ATOM     11  C   UNL     1      -3.084   5.253  -1.606  1.00  0.00     0.016 A 
BRANCH   7  12
ATOM     12  C   UNL     1      -1.402   1.445  -0.495  1.00  0.00    -0.018 A 
ATOM     13  C   UNL     1       2.209   0.191  -0.011  1.00  0.00     0.044 C 
ATOM     14  C   UNL     1       0.709   0.211  -0.080  1.00  0.00    -0.051 A 
ATOM     15  C   UNL     1      -0.015  -0.972   0.058  1.00  0.00     0.003 A 
ATOM     16  C   UNL     1       0.008   1.401  -0.342  1.00  0.00     0.012 A 
ATOM     17  C   UNL     1      -1.407  -0.953  -0.040  1.00  0.00     0.001 A 
ATOM     18  C   UNL     1      -2.094   0.241  -0.311  1.00  0.00     0.009 A 
ENDBRANCH   7  12
ENDBRANCH   4   6
ENDBRANCH   3   4
ENDBRANCH   2   3
ENDBRANCH   1   2
BRANCH   1  19
ATOM     19  O   UNL     1      -7.718   3.099   2.230  1.00  0.00    -0.458 OA
BRANCH  19  20
ATOM     20  C   UNL     1      -6.506   2.623   2.606  1.00  0.00     0.338 C 
ATOM     21  O   UNL     1      -6.186   1.448   2.459  1.00  0.00    -0.246 OA
BRANCH  20  22
ATOM     22  C   UNL     1      -5.559   3.587   3.176  1.00  0.00     0.060 A 
ATOM     23  C   UNL     1      -4.188   3.461   2.892  1.00  0.00     0.016 A 
ATOM     24  C   UNL     1      -6.054   4.679   3.876  1.00  0.00     0.016 A 
ATOM     25  C   UNL     1      -3.317   4.488   3.216  1.00  0.00     0.010 A 
ATOM     26  C   UNL     1      -5.246   5.768   4.026  1.00  0.00     0.010 A 
ATOM     27  C   UNL     1      -3.872   5.631   3.779  1.00  0.00    -0.014 A 
BRANCH  27  28
ATOM     28  C   UNL     1      -3.092   6.611   4.503  1.00  0.00     0.031 A 
ATOM     29  C   UNL     1      -2.391   7.676   3.787  1.00  0.00     0.074 A 
ATOM     30  C   UNL     1      -3.284   6.469   5.836  1.00  0.00     0.049 A 
ATOM     31  N   UNL     1      -1.397   8.332   4.264  1.00  0.00    -0.248 NA
ATOM     32  C   UNL     1      -2.713   8.066   2.417  1.00  0.00     0.031 C 
ATOM     33  C   UNL     1      -3.022   7.325   6.973  1.00  0.00     0.029 A 
ATOM     34  N   UNL     1      -3.737   5.270   6.432  1.00  0.00    -0.354 N 
ATOM     35  C   UNL     1      -1.246   9.456   3.476  1.00  0.00     0.074 A 
ATOM     36  C   UNL     1      -1.929   9.138   2.250  1.00  0.00     0.031 C 
ATOM     37  C   UNL     1      -2.957   6.547   8.076  1.00  0.00     0.029 A 
ATOM     38  C   UNL     1      -3.048   5.156   7.636  1.00  0.00     0.049 A 
ATOM     39  H   UNL     1      -4.404   4.644   6.069  1.00  0.00     0.167 HD
ATOM     40  C   UNL     1      -0.762  10.585   4.075  1.00  0.00     0.037 A 
ATOM     41  C   UNL     1      -2.053   4.219   7.684  1.00  0.00     0.037 A 
ATOM     42  C   UNL     1      -0.423  10.265   5.466  1.00  0.00     0.049 A 
ATOM     43  C   UNL     1      -0.717   4.911   7.799  1.00  0.00     0.074 A 
ATOM     44  C   UNL     1      -1.137  10.421   6.644  1.00  0.00     0.029 A 
ATOM     45  N   UNL     1       0.564   9.319   5.724  1.00  0.00    -0.354 N 
ATOM     46  N   UNL     1      -0.432   6.063   7.249  1.00  0.00    -0.248 NA
ATOM     47  C   UNL     1       0.352   4.398   8.642  1.00  0.00     0.031 C 
ATOM     48  C   UNL     1      -0.630   9.481   7.584  1.00  0.00     0.029 A 
ATOM     49  C   UNL     1       0.385   8.758   6.976  1.00  0.00     0.049 A 
ATOM     50  H   UNL     1       1.289   9.082   5.101  1.00  0.00     0.167 HD
ATOM     51  C   UNL     1       0.771   6.501   7.734  1.00  0.00     0.074 A 
ATOM     52  C   UNL     1       1.230   5.412   8.583  1.00  0.00     0.031 C 
ATOM     53  C   UNL     1       1.298   7.731   7.453  1.00  0.00     0.037 A 
BRANCH  40  54
ATOM     54  C   UNL     1      -0.892  12.016   3.576  1.00  0.00     0.064 A 
ATOM     55  C   UNL     1      -0.722  13.095   4.479  1.00  0.00     0.173 A 
ATOM     56  C   UNL     1      -1.222  12.412   2.265  1.00  0.00     0.173 A 
ATOM     57  F   UNL     1      -0.334  12.893   5.745  1.00  0.00    -0.203 F 
ATOM     58  C   UNL     1      -0.938  14.430   4.121  1.00  0.00     0.198 A 
ATOM     59  C   UNL     1      -1.452  13.749   1.910  1.00  0.00     0.198 A 
ATOM     60  F   UNL     1      -1.298  11.538   1.260  1.00  0.00    -0.203 F 
ATOM     61  F   UNL     1      -0.777  15.398   5.036  1.00  0.00    -0.200 F 
ATOM     62  C   UNL     1      -1.319  14.758   2.839  1.00  0.00     0.200 A 
ATOM     63  F   UNL     1      -1.801  14.050   0.650  1.00  0.00    -0.200 F 
ATOM     64  F   UNL     1      -1.534  16.035   2.496  1.00  0.00    -0.200 F 
ENDBRANCH  40  54
BRANCH  41  65
ATOM     65  C   UNL     1      -2.341   2.971   6.887  1.00  0.00     0.064 A 
ATOM     66  C   UNL     1      -3.590   2.323   7.063  1.00  0.00     0.173 A 
ATOM     67  C   UNL     1      -1.575   2.551   5.793  1.00  0.00     0.173 A 
ATOM     68  F   UNL     1      -4.381   2.661   8.095  1.00  0.00    -0.203 F 
ATOM     69  C   UNL     1      -4.089   1.402   6.141  1.00  0.00     0.198 A 
ATOM     70  C   UNL     1      -2.065   1.598   4.886  1.00  0.00     0.198 A 
ATOM     71  F   UNL     1      -0.381   3.106   5.545  1.00  0.00    -0.203 F 
ATOM     72  F   UNL     1      -5.333   0.919   6.283  1.00  0.00    -0.200 F 
ATOM     73  C   UNL     1      -3.327   1.044   5.046  1.00  0.00     0.200 A 
ATOM     74  F   UNL     1      -1.345   1.279   3.799  1.00  0.00    -0.200 F 
ATOM     75  F   UNL     1      -3.825   0.212   4.120  1.00  0.00    -0.200 F 
ENDBRANCH  41  65
BRANCH  53  76
ATOM     76  C   UNL     1       2.735   8.127   7.679  1.00  0.00     0.064 A 
ATOM     77  C   UNL     1       3.794   7.208   7.712  1.00  0.00     0.173 A 
ATOM     78  C   UNL     1       3.112   9.494   7.684  1.00  0.00     0.173 A 
ATOM     79  F   UNL     1       3.588   5.893   7.563  1.00  0.00    -0.203 F 
ATOM     80  C   UNL     1       5.121   7.619   7.829  1.00  0.00     0.198 A 
ATOM     81  C   UNL     1       4.442   9.899   7.706  1.00  0.00     0.198 A 
ATOM     82  F   UNL     1       2.207  10.482   7.627  1.00  0.00    -0.203 F 
ATOM     83  F   UNL     1       6.089   6.699   7.928  1.00  0.00    -0.200 F 
ATOM     84  C   UNL     1       5.446   8.962   7.807  1.00  0.00     0.200 A 
ATOM     85  F   UNL     1       4.742  11.202   7.603  1.00  0.00    -0.200 F 
ATOM     86  F   UNL     1       6.727   9.349   7.856  1.00  0.00    -0.200 F 
ENDBRANCH  53  76
ENDBRANCH  27  28
ENDBRANCH  20  22
ENDBRANCH  19  20
ENDBRANCH   1  19
TORSDOF 12
