REMARK SMILES C[N@@H+]1CC[N@@H+](Cc2ncc[nH]2)C[C@@]12CCC(=O)N(CC(=O)OCCOC(=O)c1ccc(-c3c4nc(c(-c5c(F)c(F)c(F)c(F)c5F)c5ccc([nH]5)c(-c5c(F)c(F)c(F)c(F)c5F)c5nc(c(-c6c(F)c(F)c(F)c(F)c6F)c6ccc3[nH]6)C=C5)C=C4)cc1)CC2
REMARK SMILES IDX 20 1 21 2 19 3 18 4 91 5 92 6 13 7 1 8 2 9 3 10 4 12 12 13
REMARK SMILES IDX 5 14 14 16 6 18 7 19 8 20 11 21 9 22 10 23 16 25 17 26 15 27
REMARK SMILES IDX 22 29 23 30 24 31 25 32 26 33 27 34 28 35 29 36 90 37 30 38
REMARK SMILES IDX 89 39 31 40 32 41 33 42 83 43 34 44 88 45 82 46 84 47 35 48
REMARK SMILES IDX 87 49 81 50 80 51 36 53 68 54 48 55 67 56 49 57 52 58 66 59
REMARK SMILES IDX 85 60 50 61 51 62 65 64 86 65 53 66 37 67 38 68 46 69 39 70
REMARK SMILES IDX 40 71 44 72 47 73 41 74 42 75 45 76 43 77 69 78 70 79 78 80
REMARK SMILES IDX 71 81 72 82 76 83 79 84 73 85 74 86 77 87 75 88 54 89 55 90
REMARK SMILES IDX 63 91 56 92 57 93 61 94 64 95 58 96 59 97 62 98 60 99
REMARK H PARENT 2 11 5 15 11 24 84 52 52 63
REMARK Flexibility Score: 80.00
ROOT
ATOM      1  C   UNL     1      -6.029  -1.200  -2.047  1.00  0.00     0.325 C 
ATOM      2  O   UNL     1      -6.991  -1.837  -2.464  1.00  0.00    -0.250 OA
ENDROOT
BRANCH   1   3
ATOM      3  C   UNL     1      -4.589  -1.512  -2.476  1.00  0.00     0.242 C 
BRANCH   3   4
ATOM      4  N   UNL     1      -3.587  -0.550  -2.008  1.00  0.00    -0.331 N 
BRANCH   4   5
ATOM      5  C   UNL     1      -2.687  -0.912  -0.925  1.00  0.00     0.127 C 
BRANCH   5   6
ATOM      6  C   UNL     1      -1.206  -0.789  -1.326  1.00  0.00     0.096 C 
BRANCH   6   7
ATOM      7  C   UNL     1      -0.558   0.630  -1.177  1.00  0.00     0.149 C 
ATOM      8  C   UNL     1       1.730  -0.369  -1.017  1.00  0.00     0.333 C 
ATOM      9  N   UNL     1       0.868   0.633  -1.655  1.00  0.00    -0.323 N 
ATOM     10  C   UNL     1       1.477   1.981  -1.468  1.00  0.00     0.324 C 
ATOM     11  H   UNL     1       0.815   0.386  -2.643  1.00  0.00     0.348 HD
ATOM     12  C   UNL     1       1.001   2.814  -0.240  1.00  0.00     0.324 C 
ATOM     13  C   UNL     1      -0.613   1.047   0.340  1.00  0.00     0.332 C 
ATOM     14  N   UNL     1       0.383   2.016   0.817  1.00  0.00    -0.319 N 
ATOM     15  H   UNL     1       1.128   1.413   1.166  1.00  0.00     0.348 HD
BRANCH   7  16
ATOM     16  C   UNL     1      -1.321   1.640  -2.106  1.00  0.00     0.084 CG0
ATOM     17  G   UNL     1      -2.821   1.779  -1.913  1.00  0.00     0.000 G0
ENDBRANCH   7  16
BRANCH  14  18
ATOM     18  C   UNL     1       0.001   2.797   2.003  1.00  0.00     0.339 C 
BRANCH  18  19
ATOM     19  C   UNL     1      -1.420   3.279   2.037  1.00  0.00     0.161 A 
ATOM     20  N   UNL     1      -1.946   4.313   1.410  1.00  0.00    -0.236 NA
ATOM     21  N   UNL     1      -2.391   2.597   2.736  1.00  0.00    -0.344 N 
ATOM     22  C   UNL     1      -3.290   4.272   1.687  1.00  0.00     0.131 A 
ATOM     23  C   UNL     1      -3.592   3.197   2.487  1.00  0.00     0.104 A 
ATOM     24  H   UNL     1      -2.245   1.813   3.315  1.00  0.00     0.167 HD
ENDBRANCH  18  19
ENDBRANCH  14  18
ENDBRANCH   6   7
ENDBRANCH   5   6
ENDBRANCH   4   5
BRANCH   4  25
ATOM     25  C   UNL     1      -3.565   0.684  -2.623  1.00  0.00     0.223 C 
ATOM     26  O   UNL     1      -4.151   0.899  -3.680  1.00  0.00    -0.275 OA
BRANCH  25  27
ATOM     27  C   UNL     1      -2.821   1.779  -1.913  1.00  0.00     0.107 CG0
ATOM     28  G   UNL     1      -1.321   1.640  -2.106  1.00  0.00     0.000 G0
ENDBRANCH  25  27
ENDBRANCH   4  25
ENDBRANCH   3   4
ENDBRANCH   1   3
BRANCH   1  29
ATOM     29  O   UNL     1      -6.105  -0.184  -1.140  1.00  0.00    -0.461 OA
BRANCH  29  30
ATOM     30  C   UNL     1      -7.429   0.289  -0.817  1.00  0.00     0.274 C 
BRANCH  30  31
ATOM     31  C   UNL     1      -7.684   1.617  -1.522  1.00  0.00     0.275 C 
BRANCH  31  32
ATOM     32  O   UNL     1      -7.574   1.417  -2.940  1.00  0.00    -0.458 OA
BRANCH  32  33
ATOM     33  C   UNL     1      -6.881   2.369  -3.608  1.00  0.00     0.338 C 
ATOM     34  O   UNL     1      -6.419   3.401  -3.152  1.00  0.00    -0.246 OA
BRANCH  33  35
ATOM     35  C   UNL     1      -6.861   2.028  -5.044  1.00  0.00     0.060 A 
ATOM     36  C   UNL     1      -6.456   0.765  -5.486  1.00  0.00     0.016 A 
ATOM     37  C   UNL     1      -7.200   3.020  -5.964  1.00  0.00     0.016 A 
ATOM     38  C   UNL     1      -6.321   0.514  -6.851  1.00  0.00     0.010 A 
ATOM     39  C   UNL     1      -7.143   2.742  -7.329  1.00  0.00     0.010 A 
ATOM     40  C   UNL     1      -6.676   1.496  -7.785  1.00  0.00    -0.014 A 
BRANCH  40  41
ATOM     41  C   UNL     1      -6.550   1.248  -9.242  1.00  0.00     0.031 A 
ATOM     42  C   UNL     1      -5.586   2.059 -10.061  1.00  0.00     0.074 A 
ATOM     43  C   UNL     1      -7.332   0.329  -9.836  1.00  0.00     0.049 A 
ATOM     44  N   UNL     1      -5.454   2.126 -11.362  1.00  0.00    -0.248 NA
ATOM     45  C   UNL     1      -4.655   2.922  -9.317  1.00  0.00     0.031 C 
ATOM     46  C   UNL     1      -8.287  -0.541  -9.149  1.00  0.00     0.029 A 
ATOM     47  N   UNL     1      -7.459  -0.014 -11.159  1.00  0.00    -0.354 N 
ATOM     48  C   UNL     1      -4.453   3.060 -11.593  1.00  0.00     0.074 A 
ATOM     49  C   UNL     1      -4.021   3.547 -10.300  1.00  0.00     0.031 C 
ATOM     50  C   UNL     1      -8.901  -1.319 -10.054  1.00  0.00     0.029 A 
ATOM     51  C   UNL     1      -8.427  -0.961 -11.387  1.00  0.00     0.049 A 
ATOM     52  H   UNL     1      -6.910   0.380 -11.875  1.00  0.00     0.167 HD
ATOM     53  C   UNL     1      -3.940   3.469 -12.779  1.00  0.00     0.037 A 
ATOM     54  C   UNL     1      -8.907  -1.456 -12.543  1.00  0.00     0.037 A 
ATOM     55  C   UNL     1      -4.351   2.958 -14.061  1.00  0.00     0.049 A 
ATOM     56  C   UNL     1      -8.349  -0.956 -13.846  1.00  0.00     0.074 A 
ATOM     57  C   UNL     1      -3.869   3.286 -15.316  1.00  0.00     0.029 A 
ATOM     58  N   UNL     1      -5.339   2.003 -14.250  1.00  0.00    -0.354 N 
ATOM     59  N   UNL     1      -7.409  -0.068 -14.058  1.00  0.00    -0.248 NA
ATOM     60  C   UNL     1      -8.926  -1.523 -15.073  1.00  0.00     0.031 C 
ATOM     61  C   UNL     1      -4.593   2.558 -16.268  1.00  0.00     0.029 A 
ATOM     62  C   UNL     1      -5.494   1.744 -15.602  1.00  0.00     0.049 A 
ATOM     63  H   UNL     1      -5.854   1.573 -13.529  1.00  0.00     0.167 HD
ATOM     64  C   UNL     1      -7.266   0.016 -15.435  1.00  0.00     0.074 A 
ATOM     65  C   UNL     1      -8.207  -0.922 -16.011  1.00  0.00     0.031 C 
ATOM     66  C   UNL     1      -6.432   0.802 -16.158  1.00  0.00     0.037 A 
BRANCH  53  67
ATOM     67  C   UNL     1      -2.890   4.540 -12.749  1.00  0.00     0.064 A 
ATOM     68  C   UNL     1      -1.583   4.281 -12.311  1.00  0.00     0.173 A 
ATOM     69  C   UNL     1      -3.185   5.833 -13.207  1.00  0.00     0.173 A 
ATOM     70  F   UNL     1      -1.253   3.064 -11.854  1.00  0.00    -0.203 F 
ATOM     71  C   UNL     1      -0.616   5.284 -12.312  1.00  0.00     0.198 A 
ATOM     72  C   UNL     1      -2.209   6.826 -13.232  1.00  0.00     0.198 A 
ATOM     73  F   UNL     1      -4.418   6.131 -13.645  1.00  0.00    -0.203 F 
ATOM     74  F   UNL     1       0.616   5.024 -11.854  1.00  0.00    -0.200 F 
ATOM     75  C   UNL     1      -0.928   6.552 -12.779  1.00  0.00     0.200 A 
ATOM     76  F   UNL     1      -2.509   8.047 -13.696  1.00  0.00    -0.200 F 
ATOM     77  F   UNL     1       0.007   7.513 -12.789  1.00  0.00    -0.200 F 
ENDBRANCH  53  67
BRANCH  54  78
ATOM     78  C   UNL     1      -9.989  -2.472 -12.516  1.00  0.00     0.064 A 
ATOM     79  C   UNL     1      -9.737  -3.800 -12.886  1.00  0.00     0.173 A 
ATOM     80  C   UNL     1     -11.292  -2.140 -12.116  1.00  0.00     0.173 A 
ATOM     81  F   UNL     1      -8.512  -4.158 -13.299  1.00  0.00    -0.203 F 
ATOM     82  C   UNL     1     -10.750  -4.755 -12.870  1.00  0.00     0.198 A 
ATOM     83  C   UNL     1     -12.298  -3.102 -12.074  1.00  0.00     0.198 A 
ATOM     84  F   UNL     1     -11.583  -0.882 -11.753  1.00  0.00    -0.203 F 
ATOM     85  F   UNL     1     -10.493  -6.008 -13.267  1.00  0.00    -0.200 F 
ATOM     86  C   UNL     1     -12.028  -4.407 -12.457  1.00  0.00     0.200 A 
ATOM     87  F   UNL     1     -13.528  -2.765 -11.663  1.00  0.00    -0.200 F 
ATOM     88  F   UNL     1     -13.001  -5.328 -12.435  1.00  0.00    -0.200 F 
ENDBRANCH  54  78
BRANCH  66  89
ATOM     89  C   UNL     1      -6.475   0.655 -17.650  1.00  0.00     0.064 A 
ATOM     90  C   UNL     1      -7.542   1.159 -18.407  1.00  0.00     0.173 A 
ATOM     91  C   UNL     1      -5.421   0.029 -18.332  1.00  0.00     0.173 A 
ATOM     92  F   UNL     1      -8.582   1.750 -17.798  1.00  0.00    -0.203 F 
ATOM     93  C   UNL     1      -7.563   1.022 -19.792  1.00  0.00     0.198 A 
ATOM     94  C   UNL     1      -5.433  -0.083 -19.719  1.00  0.00     0.198 A 
ATOM     95  F   UNL     1      -4.375  -0.467 -17.653  1.00  0.00    -0.203 F 
ATOM     96  F   UNL     1      -8.613   1.472 -20.493  1.00  0.00    -0.200 F 
ATOM     97  C   UNL     1      -6.506   0.407 -20.447  1.00  0.00     0.200 A 
ATOM     98  F   UNL     1      -4.406  -0.669 -20.352  1.00  0.00    -0.200 F 
ATOM     99  F   UNL     1      -6.526   0.280 -21.781  1.00  0.00    -0.200 F 
ENDBRANCH  66  89
ENDBRANCH  40  41
ENDBRANCH  33  35
ENDBRANCH  32  33
ENDBRANCH  31  32
ENDBRANCH  30  31
ENDBRANCH  29  30
ENDBRANCH   1  29
TORSDOF 14
