REMARK SMILES CCCC[C@H]1C[NH2+]CCN1c1ccc(C(=O)OCCOC(=O)c2ccc(-c3c4nc(c(-c5c(F)c(F)c(F)c(F)c5F)c5ccc([nH]5)c(-c5c(F)c(F)c(F)c(F)c5F)c5nc(c(-c6c(F)c(F)c(F)c(F)c6F)c6ccc3[nH]6)C=C5)C=C4)cc2)cc1
REMARK SMILES IDX 18 1 17 2 15 3 16 4 14 5 11 6 12 7 87 8 13 9 86 10 10 11
REMARK SMILES IDX 5 12 6 13 7 14 9 15 8 16 4 19 3 20 2 21 1 22 19 23 20 24
REMARK SMILES IDX 21 25 22 26 23 27 24 28 85 29 25 30 84 31 26 32 27 33 28 34
REMARK SMILES IDX 78 35 29 36 83 37 77 38 79 39 30 40 82 41 76 42 75 43 31 45
REMARK SMILES IDX 63 46 43 47 62 48 44 49 47 50 61 51 80 52 45 53 46 54 60 56
REMARK SMILES IDX 81 57 48 58 32 59 33 60 41 61 34 62 35 63 39 64 42 65 36 66
REMARK SMILES IDX 37 67 40 68 38 69 64 70 65 71 73 72 66 73 67 74 71 75 74 76
REMARK SMILES IDX 68 77 69 78 72 79 70 80 49 81 50 82 58 83 51 84 52 85 56 86
REMARK SMILES IDX 59 87 53 88 54 89 57 90 55 91
REMARK H PARENT 7 17 7 18 79 44 47 55
REMARK Flexibility Score: inf
ROOT
ATOM      1  C   UNL     1       3.525   4.658  -7.112  1.00  0.00     0.275 C 
ENDROOT
BRANCH   1   2
ATOM      2  O   UNL     1       2.552   3.679  -6.686  1.00  0.00    -0.458 OA
BRANCH   2   3
ATOM      3  C   UNL     1       2.286   3.674  -5.358  1.00  0.00     0.338 C 
ATOM      4  O   UNL     1       2.778   4.409  -4.514  1.00  0.00    -0.246 OA
BRANCH   3   5
ATOM      5  C   UNL     1       1.232   2.695  -5.019  1.00  0.00     0.060 A 
ATOM      6  C   UNL     1      -0.679   0.850  -4.067  1.00  0.00     0.037 A 
ATOM      7  C   UNL     1      -0.756   2.196  -3.721  1.00  0.00     0.027 A 
ATOM      8  C   UNL     1       0.352   0.451  -4.934  1.00  0.00     0.027 A 
ATOM      9  C   UNL     1       0.207   3.097  -4.160  1.00  0.00     0.018 A 
ATOM     10  C   UNL     1       1.295   1.366  -5.429  1.00  0.00     0.018 A 
BRANCH   6  11
ATOM     11  N   UNL     1      -1.585  -0.034  -3.529  1.00  0.00    -0.357 N 
ATOM     12  C   UNL     1      -1.159  -1.300  -2.907  1.00  0.00     0.137 C 
ATOM     13  C   UNL     1      -1.798  -2.470  -3.704  1.00  0.00     0.285 C 
ATOM     14  N   UNL     1      -3.270  -2.379  -3.834  1.00  0.00    -0.343 N 
ATOM     15  C   UNL     1      -3.022   0.157  -3.772  1.00  0.00     0.178 C 
ATOM     16  C   UNL     1      -3.611  -1.088  -4.476  1.00  0.00     0.282 C 
ATOM     17  H   UNL     1      -3.700  -2.427  -2.910  1.00  0.00     0.346 HD
ATOM     18  H   UNL     1      -3.618  -3.152  -4.401  1.00  0.00     0.346 HD
BRANCH  12  19
ATOM     19  C   UNL     1      -1.545  -1.266  -1.407  1.00  0.00     0.031 C 
BRANCH  19  20
ATOM     20  C   UNL     1      -1.245  -2.539  -0.608  1.00  0.00     0.002 C 
BRANCH  20  21
ATOM     21  C   UNL     1       0.225  -2.958  -0.569  1.00  0.00    -0.003 C 
ATOM     22  C   UNL     1       1.110  -1.967   0.171  1.00  0.00     0.004 C 
ENDBRANCH  20  21
ENDBRANCH  19  20
ENDBRANCH  12  19
ENDBRANCH   6  11
ENDBRANCH   3   5
ENDBRANCH   2   3
ENDBRANCH   1   2
BRANCH   1  23
ATOM     23  C   UNL     1       2.859   5.906  -7.693  1.00  0.00     0.275 C 
BRANCH  23  24
ATOM     24  O   UNL     1       2.119   6.606  -6.675  1.00  0.00    -0.458 OA
BRANCH  24  25
ATOM     25  C   UNL     1       0.786   6.695  -6.883  1.00  0.00     0.338 C 
ATOM     26  O   UNL     1       0.154   6.293  -7.845  1.00  0.00    -0.246 OA
BRANCH  25  27
ATOM     27  C   UNL     1       0.117   7.316  -5.725  1.00  0.00     0.060 A 
ATOM     28  C   UNL     1       0.161   6.661  -4.504  1.00  0.00     0.016 A 
ATOM     29  C   UNL     1      -0.734   8.404  -5.893  1.00  0.00     0.016 A 
ATOM     30  C   UNL     1      -0.775   6.959  -3.516  1.00  0.00     0.010 A 
ATOM     31  C   UNL     1      -1.557   8.812  -4.832  1.00  0.00     0.010 A 
ATOM     32  C   UNL     1      -1.641   8.055  -3.648  1.00  0.00    -0.014 A 
BRANCH  32  33
ATOM     33  C   UNL     1      -2.637   8.373  -2.573  1.00  0.00     0.031 A 
ATOM     34  C   UNL     1      -4.103   8.559  -2.903  1.00  0.00     0.074 A 
ATOM     35  C   UNL     1      -2.249   8.471  -1.283  1.00  0.00     0.049 A 
ATOM     36  N   UNL     1      -5.077   9.000  -2.142  1.00  0.00    -0.248 NA
ATOM     37  C   UNL     1      -4.528   8.224  -4.270  1.00  0.00     0.031 C 
ATOM     38  C   UNL     1      -0.882   8.288  -0.791  1.00  0.00     0.029 A 
ATOM     39  N   UNL     1      -2.970   8.734  -0.141  1.00  0.00    -0.354 N 
ATOM     40  C   UNL     1      -6.204   9.062  -2.955  1.00  0.00     0.074 A 
ATOM     41  C   UNL     1      -5.794   8.617  -4.270  1.00  0.00     0.031 C 
ATOM     42  C   UNL     1      -0.874   8.372   0.546  1.00  0.00     0.029 A 
ATOM     43  C   UNL     1      -2.208   8.736   1.003  1.00  0.00     0.049 A 
ATOM     44  H   UNL     1      -3.940   8.904  -0.144  1.00  0.00     0.167 HD
ATOM     45  C   UNL     1      -7.463   9.452  -2.636  1.00  0.00     0.037 A 
ATOM     46  C   UNL     1      -2.522   9.045   2.276  1.00  0.00     0.037 A 
ATOM     47  C   UNL     1      -7.891   9.825  -1.311  1.00  0.00     0.049 A 
ATOM     48  C   UNL     1      -3.918   9.491   2.601  1.00  0.00     0.074 A 
ATOM     49  C   UNL     1      -9.153  10.208  -0.886  1.00  0.00     0.029 A 
ATOM     50  N   UNL     1      -7.073   9.844  -0.191  1.00  0.00    -0.354 N 
ATOM     51  N   UNL     1      -4.957   9.600   1.809  1.00  0.00    -0.248 NA
ATOM     52  C   UNL     1      -4.180   9.879   3.993  1.00  0.00     0.031 C 
ATOM     53  C   UNL     1      -9.089  10.498   0.481  1.00  0.00     0.029 A 
ATOM     54  C   UNL     1      -7.800  10.246   0.920  1.00  0.00     0.049 A 
ATOM     55  H   UNL     1      -6.118   9.606  -0.185  1.00  0.00     0.167 HD
ATOM     56  C   UNL     1      -5.995  10.059   2.606  1.00  0.00     0.074 A 
ATOM     57  C   UNL     1      -5.469  10.180   3.950  1.00  0.00     0.031 C 
ATOM     58  C   UNL     1      -7.268  10.363   2.253  1.00  0.00     0.037 A 
BRANCH  45  59
ATOM     59  C   UNL     1      -8.476   9.529  -3.746  1.00  0.00     0.064 A 
ATOM     60  C   UNL     1      -9.011   8.384  -4.353  1.00  0.00     0.173 A 
ATOM     61  C   UNL     1      -8.957  10.779  -4.173  1.00  0.00     0.173 A 
ATOM     62  F   UNL     1      -8.582   7.165  -3.990  1.00  0.00    -0.203 F 
ATOM     63  C   UNL     1      -9.965   8.486  -5.364  1.00  0.00     0.198 A 
ATOM     64  C   UNL     1      -9.933  10.876  -5.161  1.00  0.00     0.198 A 
ATOM     65  F   UNL     1      -8.490  11.908  -3.619  1.00  0.00    -0.203 F 
ATOM     66  F   UNL     1     -10.427   7.379  -5.962  1.00  0.00    -0.200 F 
ATOM     67  C   UNL     1     -10.431   9.731  -5.762  1.00  0.00     0.200 A 
ATOM     68  F   UNL     1     -10.394  12.080  -5.530  1.00  0.00    -0.200 F 
ATOM     69  F   UNL     1     -11.355   9.826  -6.727  1.00  0.00    -0.200 F 
ENDBRANCH  45  59
BRANCH  46  70
ATOM     70  C   UNL     1      -1.474   8.990   3.331  1.00  0.00     0.064 A 
ATOM     71  C   UNL     1      -1.538   8.047   4.366  1.00  0.00     0.173 A 
ATOM     72  C   UNL     1      -0.384   9.874   3.323  1.00  0.00     0.173 A 
ATOM     73  F   UNL     1      -2.575   7.199   4.435  1.00  0.00    -0.203 F 
ATOM     74  C   UNL     1      -0.558   7.996   5.355  1.00  0.00     0.198 A 
ATOM     75  C   UNL     1       0.615   9.798   4.290  1.00  0.00     0.198 A 
ATOM     76  F   UNL     1      -0.275  10.798   2.357  1.00  0.00    -0.203 F 
ATOM     77  F   UNL     1      -0.667   7.114   6.358  1.00  0.00    -0.200 F 
ATOM     78  C   UNL     1       0.523   8.864   5.310  1.00  0.00     0.200 A 
ATOM     79  F   UNL     1       1.666  10.627   4.232  1.00  0.00    -0.200 F 
ATOM     80  F   UNL     1       1.472   8.805   6.254  1.00  0.00    -0.200 F 
ENDBRANCH  46  70
BRANCH  58  81
ATOM     81  C   UNL     1      -8.186  10.823   3.347  1.00  0.00     0.064 A 
ATOM     82  C   UNL     1      -8.049  12.086   3.941  1.00  0.00     0.173 A 
ATOM     83  C   UNL     1      -9.220   9.992   3.803  1.00  0.00     0.173 A 
ATOM     84  F   UNL     1      -7.064  12.911   3.553  1.00  0.00    -0.203 F 
ATOM     85  C   UNL     1      -8.892  12.487   4.973  1.00  0.00     0.198 A 
ATOM     86  C   UNL     1     -10.081  10.408   4.815  1.00  0.00     0.198 A 
ATOM     87  F   UNL     1      -9.398   8.775   3.265  1.00  0.00    -0.203 F 
ATOM     88  F   UNL     1      -8.705  13.675   5.566  1.00  0.00    -0.200 F 
ATOM     89  C   UNL     1      -9.910  11.650   5.406  1.00  0.00     0.200 A 
ATOM     90  F   UNL     1     -11.071   9.602   5.224  1.00  0.00    -0.200 F 
ATOM     91  F   UNL     1     -10.720  12.037   6.401  1.00  0.00    -0.200 F 
ENDBRANCH  58  81
ENDBRANCH  32  33
ENDBRANCH  25  27
ENDBRANCH  24  25
ENDBRANCH  23  24
ENDBRANCH   1  23
TORSDOF 15
