REMARK SMILES CCC1(C)CC[NH+]([C@@H]2CC[C@]([NH2+]C3CC3)(C(=O)OCCOC(=O)c3ccc(-c4c5nc(c(-c6c(F)c(F)c(F)c(F)c6F)c6ccc([nH]6)c(-c6c(F)c(F)c(F)c(F)c6F)c6nc(c(-c7c(F)c(F)c(F)c(F)c7F)c7ccc4[nH]7)C=C6)C=C5)cc3)C2)CC1
REMARK SMILES IDX 19 1 18 2 16 3 17 4 11 5 8 6 9 7 87 8 10 9 7 10 3 11 4 12
REMARK SMILES IDX 5 13 89 14 6 15 88 16 2 18 1 19 12 20 13 23 14 24 15 25
REMARK SMILES IDX 20 26 21 27 22 28 23 29 24 30 25 31 86 32 26 33 85 34 27 35
REMARK SMILES IDX 28 36 29 37 79 38 30 39 84 40 78 41 80 42 31 43 83 44 77 45
REMARK SMILES IDX 76 46 32 48 64 49 44 50 63 51 45 52 48 53 62 54 81 55 46 56
REMARK SMILES IDX 47 57 61 59 82 60 49 61 33 62 34 63 42 64 35 65 36 66 40 67
REMARK SMILES IDX 43 68 37 69 38 70 41 71 39 72 65 73 66 74 74 75 67 76 68 77
REMARK SMILES IDX 72 78 75 79 69 80 70 81 73 82 71 83 50 84 51 85 59 86 52 87
REMARK SMILES IDX 53 88 57 89 60 90 54 91 55 92 58 93 56 94
REMARK H PARENT 7 17 12 21 12 22 80 47 48 58
REMARK Flexibility Score: inf
ROOT
ATOM      1  C   UNL     1       8.033   1.738  -4.941  1.00  0.00     0.274 C 
ENDROOT
BRANCH   1   2
ATOM      2  O   UNL     1       6.969   2.707  -4.867  1.00  0.00    -0.457 OA
BRANCH   2   3
ATOM      3  C   UNL     1       5.818   2.326  -4.241  1.00  0.00     0.368 C 
ATOM      4  O   UNL     1       5.637   1.212  -3.758  1.00  0.00    -0.245 OA
BRANCH   3   5
ATOM      5  C   UNL     1       4.756   3.467  -4.191  1.00  0.00     0.200 C 
ATOM      6  C   UNL     1       3.167   4.300  -2.507  1.00  0.00     0.191 C 
ATOM      7  C   UNL     1       2.439   3.248  -3.353  1.00  0.00     0.072 C 
ATOM      8  C   UNL     1       4.649   3.954  -2.727  1.00  0.00     0.146 C 
ATOM      9  C   UNL     1       3.368   2.868  -4.508  1.00  0.00     0.087 C 
BRANCH   6  10
ATOM     10  N   UNL     1       2.732   4.542  -1.122  1.00  0.00    -0.332 N 
ATOM     11  C   UNL     1       0.929   2.423   0.009  1.00  0.00    -0.022 C 
ATOM     12  C   UNL     1       0.491   2.698   1.463  1.00  0.00     0.012 C 
ATOM     13  C   UNL     1       0.411   3.577  -0.898  1.00  0.00     0.068 C 
ATOM     14  C   UNL     1       2.472   2.307  -0.040  1.00  0.00     0.068 C 
ATOM     15  C   UNL     1       1.305   4.822  -0.948  1.00  0.00     0.263 C 
ATOM     16  C   UNL     1       3.191   3.653  -0.064  1.00  0.00     0.263 C 
ATOM     17  H   UNL     1       3.266   5.400  -0.981  1.00  0.00     0.348 HD
BRANCH  11  18
ATOM     18  C   UNL     1       0.276   1.100  -0.493  1.00  0.00     0.004 C 
ATOM     19  C   UNL     1       0.732  -0.179   0.198  1.00  0.00     0.004 C 
ENDBRANCH  11  18
ENDBRANCH   6  10
BRANCH   5  20
ATOM     20  N   UNL     1       5.119   4.522  -5.171  1.00  0.00    -0.329 N 
ATOM     21  H   UNL     1       5.103   4.095  -6.097  1.00  0.00     0.347 HD
ATOM     22  H   UNL     1       6.029   4.861  -4.859  1.00  0.00     0.347 HD
BRANCH  20  23
ATOM     23  C   UNL     1       4.279   5.715  -5.226  1.00  0.00     0.183 C 
ATOM     24  C   UNL     1       4.777   6.971  -4.570  1.00  0.00     0.071 C 
ATOM     25  C   UNL     1       4.735   6.875  -6.066  1.00  0.00     0.071 C 
ENDBRANCH  20  23
ENDBRANCH   5  20
ENDBRANCH   3   5
ENDBRANCH   2   3
ENDBRANCH   1   2
BRANCH   1  26
ATOM     26  C   UNL     1       9.077   2.017  -3.863  1.00  0.00     0.275 C 
BRANCH  26  27
ATOM     27  O   UNL     1       8.501   1.733  -2.577  1.00  0.00    -0.458 OA
BRANCH  27  28
ATOM     28  C   UNL     1       8.745   2.632  -1.597  1.00  0.00     0.338 C 
ATOM     29  O   UNL     1       9.468   3.611  -1.661  1.00  0.00    -0.246 OA
BRANCH  28  30
ATOM     30  C   UNL     1       7.987   2.262  -0.379  1.00  0.00     0.060 A 
ATOM     31  C   UNL     1       6.742   1.644  -0.466  1.00  0.00     0.016 A 
ATOM     32  C   UNL     1       8.484   2.623   0.875  1.00  0.00     0.016 A 
ATOM     33  C   UNL     1       5.958   1.491   0.677  1.00  0.00     0.010 A 
ATOM     34  C   UNL     1       7.724   2.386   2.030  1.00  0.00     0.010 A 
ATOM     35  C   UNL     1       6.418   1.873   1.947  1.00  0.00    -0.014 A 
BRANCH  35  36
ATOM     36  C   UNL     1       5.522   1.827   3.151  1.00  0.00     0.031 A 
ATOM     37  C   UNL     1       5.373   3.044   4.040  1.00  0.00     0.074 A 
ATOM     38  C   UNL     1       4.790   0.735   3.458  1.00  0.00     0.049 A 
ATOM     39  N   UNL     1       4.867   3.138   5.246  1.00  0.00    -0.248 NA
ATOM     40  C   UNL     1       5.879   4.321   3.511  1.00  0.00     0.031 C 
ATOM     41  C   UNL     1       4.748  -0.510   2.693  1.00  0.00     0.029 A 
ATOM     42  N   UNL     1       3.914   0.508   4.496  1.00  0.00    -0.354 N 
ATOM     43  C   UNL     1       5.091   4.447   5.656  1.00  0.00     0.074 A 
ATOM     44  C   UNL     1       5.752   5.122   4.560  1.00  0.00     0.031 C 
ATOM     45  C   UNL     1       3.838  -1.333   3.234  1.00  0.00     0.029 A 
ATOM     46  C   UNL     1       3.318  -0.730   4.456  1.00  0.00     0.049 A 
ATOM     47  H   UNL     1       3.733   1.170   5.202  1.00  0.00     0.167 HD
ATOM     48  C   UNL     1       4.783   5.031   6.841  1.00  0.00     0.037 A 
ATOM     49  C   UNL     1       2.487  -1.341   5.322  1.00  0.00     0.037 A 
ATOM     50  C   UNL     1       4.018   4.406   7.890  1.00  0.00     0.049 A 
ATOM     51  C   UNL     1       2.124  -0.665   6.614  1.00  0.00     0.074 A 
ATOM     52  C   UNL     1       3.655   4.924   9.123  1.00  0.00     0.029 A 
ATOM     53  N   UNL     1       3.454   3.143   7.809  1.00  0.00    -0.354 N 
ATOM     54  N   UNL     1       2.469   0.518   7.054  1.00  0.00    -0.248 NA
ATOM     55  C   UNL     1       1.285  -1.432   7.549  1.00  0.00     0.031 C 
ATOM     56  C   UNL     1       2.882   3.970   9.793  1.00  0.00     0.029 A 
ATOM     57  C   UNL     1       2.737   2.871   8.964  1.00  0.00     0.049 A 
ATOM     58  H   UNL     1       3.549   2.530   7.045  1.00  0.00     0.167 HD
ATOM     59  C   UNL     1       1.899   0.637   8.314  1.00  0.00     0.074 A 
ATOM     60  C   UNL     1       1.156  -0.581   8.557  1.00  0.00     0.031 C 
ATOM     61  C   UNL     1       1.998   1.659   9.198  1.00  0.00     0.037 A 
BRANCH  48  62
ATOM     62  C   UNL     1       5.304   6.415   7.096  1.00  0.00     0.064 A 
ATOM     63  C   UNL     1       4.744   7.550   6.495  1.00  0.00     0.173 A 
ATOM     64  C   UNL     1       6.349   6.607   8.016  1.00  0.00     0.173 A 
ATOM     65  F   UNL     1       3.752   7.419   5.602  1.00  0.00    -0.203 F 
ATOM     66  C   UNL     1       5.222   8.825   6.790  1.00  0.00     0.198 A 
ATOM     67  C   UNL     1       6.806   7.884   8.329  1.00  0.00     0.198 A 
ATOM     68  F   UNL     1       6.913   5.555   8.628  1.00  0.00    -0.203 F 
ATOM     69  F   UNL     1       4.695   9.894   6.178  1.00  0.00    -0.200 F 
ATOM     70  C   UNL     1       6.245   8.992   7.712  1.00  0.00     0.200 A 
ATOM     71  F   UNL     1       7.783   8.043   9.233  1.00  0.00    -0.200 F 
ATOM     72  F   UNL     1       6.693  10.221   8.005  1.00  0.00    -0.200 F 
ENDBRANCH  48  62
BRANCH  49  73
ATOM     73  C   UNL     1       1.976  -2.703   5.017  1.00  0.00     0.064 A 
ATOM     74  C   UNL     1       0.623  -2.911   4.717  1.00  0.00     0.173 A 
ATOM     75  C   UNL     1       2.826  -3.819   5.013  1.00  0.00     0.173 A 
ATOM     76  F   UNL     1      -0.234  -1.880   4.741  1.00  0.00    -0.203 F 
ATOM     77  C   UNL     1       0.139  -4.185   4.427  1.00  0.00     0.198 A 
ATOM     78  C   UNL     1       2.348  -5.086   4.691  1.00  0.00     0.198 A 
ATOM     79  F   UNL     1       4.128  -3.672   5.300  1.00  0.00    -0.203 F 
ATOM     80  F   UNL     1      -1.166  -4.364   4.181  1.00  0.00    -0.200 F 
ATOM     81  C   UNL     1       1.004  -5.269   4.403  1.00  0.00     0.200 A 
ATOM     82  F   UNL     1       3.190  -6.128   4.656  1.00  0.00    -0.200 F 
ATOM     83  F   UNL     1       0.541  -6.492   4.110  1.00  0.00    -0.200 F 
ENDBRANCH  49  73
BRANCH  61  84
ATOM     84  C   UNL     1       1.270   1.513  10.500  1.00  0.00     0.064 A 
ATOM     85  C   UNL     1       1.747   0.669  11.513  1.00  0.00     0.173 A 
ATOM     86  C   UNL     1       0.095   2.239  10.744  1.00  0.00     0.173 A 
ATOM     87  F   UNL     1       2.858  -0.057  11.319  1.00  0.00    -0.203 F 
ATOM     88  C   UNL     1       1.059   0.537  12.716  1.00  0.00     0.198 A 
ATOM     89  C   UNL     1      -0.579   2.120  11.957  1.00  0.00     0.198 A 
ATOM     90  F   UNL     1      -0.399   3.062   9.807  1.00  0.00    -0.203 F 
ATOM     91  F   UNL     1       1.508  -0.308  13.654  1.00  0.00    -0.200 F 
ATOM     92  C   UNL     1      -0.101   1.265  12.938  1.00  0.00     0.200 A 
ATOM     93  F   UNL     1      -1.696   2.828  12.173  1.00  0.00    -0.200 F 
ATOM     94  F   UNL     1      -0.763   1.135  14.096  1.00  0.00    -0.200 F 
ENDBRANCH  61  84
ENDBRANCH  35  36
ENDBRANCH  28  30
ENDBRANCH  27  28
ENDBRANCH  26  27
ENDBRANCH   1  26
TORSDOF 15
