REMARK SMILES O=C(COCC(=O)OCCOC(=O)c1ccc(-c2c3nc(c(-c4c(F)c(F)c(F)c(F)c4F)c4ccc([nH]4)c(-c4c(F)c(F)c(F)c(F)c4F)c4nc(c(-c5c(F)c(F)c(F)c(F)c5F)c5ccc2[nH]5)C=C4)C=C3)cc1)/[NH+]=C1\S[C@@H]2CS(=O)(=O)C[C@H]2N1c1ccc(Cl)cc1
REMARK SMILES IDX 9 1 8 2 6 3 7 4 5 5 4 6 3 7 2 8 1 9 77 10 78 11 79 13 87 14
REMARK SMILES IDX 80 15 86 16 81 17 85 18 82 19 83 20 84 21 88 22 89 23 94 24
REMARK SMILES IDX 90 25 93 26 91 27 92 28 10 29 11 30 12 31 13 32 14 33 15 34
REMARK SMILES IDX 76 35 16 36 75 37 17 38 18 39 19 40 69 41 20 42 74 43 68 44
REMARK SMILES IDX 70 45 21 46 73 47 67 48 66 49 22 51 54 52 34 53 53 54 35 55
REMARK SMILES IDX 38 56 52 57 71 58 36 59 37 60 51 62 72 63 39 64 23 65 24 66
REMARK SMILES IDX 32 67 25 68 26 69 30 70 33 71 27 72 28 73 31 74 29 75 55 76
REMARK SMILES IDX 56 77 64 78 57 79 58 80 62 81 65 82 59 83 60 84 63 85 61 86
REMARK SMILES IDX 40 87 41 88 49 89 42 90 43 91 47 92 50 93 44 94 45 95 48 96
REMARK SMILES IDX 46 97
REMARK H PARENT 77 12 70 50 38 61
REMARK Flexibility Score: inf
ROOT
ATOM      1  C   UNL     1       1.634   3.229   4.464  1.00  0.00     0.274 C 
ENDROOT
BRANCH   1   2
ATOM      2  O   UNL     1       2.559   2.485   3.645  1.00  0.00    -0.460 OA
BRANCH   2   3
ATOM      3  C   UNL     1       2.524   1.133   3.796  1.00  0.00     0.332 C 
ATOM      4  O   UNL     1       1.821   0.530   4.600  1.00  0.00    -0.250 OA
BRANCH   3   5
ATOM      5  C   UNL     1       3.468   0.409   2.828  1.00  0.00     0.283 C 
BRANCH   5   6
ATOM      6  O   UNL     1       4.059   1.115   1.753  1.00  0.00    -0.358 OA
BRANCH   6   7
ATOM      7  C   UNL     1       3.151   1.458   0.715  1.00  0.00     0.288 C 
BRANCH   7   8
ATOM      8  C   UNL     1       2.757   0.414  -0.365  1.00  0.00     0.333 C 
ATOM      9  O   UNL     1       1.859   0.663  -1.167  1.00  0.00    -0.244 OA
ATOM     10  N   UNL     1       3.383  -0.808  -0.358  1.00  0.00    -0.202 N 
ATOM     11  C   UNL     1       4.631  -0.902  -0.676  1.00  0.00     0.319 C 
ATOM     12  H   UNL     1       2.878  -1.617  -0.110  1.00  0.00     0.316 HD
ATOM     13  S   UNL     1       5.707   0.504  -0.975  1.00  0.00    -0.029 SA
ATOM     14  N   UNL     1       5.385  -2.082  -0.782  1.00  0.00    -0.217 N 
ATOM     15  C   UNL     1       7.083  -0.482  -0.366  1.00  0.00     0.120 C 
ATOM     16  C   UNL     1       6.808  -1.816  -1.074  1.00  0.00     0.212 C 
ATOM     17  C   UNL     1       8.506  -0.092  -0.656  1.00  0.00     0.156 C 
ATOM     18  C   UNL     1       7.886  -2.726  -0.533  1.00  0.00     0.188 C 
ATOM     19  S   UNL     1       9.345  -1.678  -0.588  1.00  0.00     0.155 S 
ATOM     20  O   UNL     1      10.031  -1.793   0.681  1.00  0.00    -0.229 OA
ATOM     21  O   UNL     1      10.011  -1.890  -1.854  1.00  0.00    -0.229 OA
BRANCH  14  22
ATOM     22  C   UNL     1       4.843  -3.308  -1.218  1.00  0.00     0.128 A 
ATOM     23  C   UNL     1       5.324  -4.535  -0.731  1.00  0.00     0.053 A 
ATOM     24  C   UNL     1       3.804  -3.358  -2.166  1.00  0.00     0.053 A 
ATOM     25  C   UNL     1       4.825  -5.757  -1.198  1.00  0.00     0.025 A 
ATOM     26  C   UNL     1       3.297  -4.578  -2.635  1.00  0.00     0.025 A 
ATOM     27  C   UNL     1       3.817  -5.774  -2.154  1.00  0.00     0.041 A 
ATOM     28  Cl  UNL     1       3.211  -7.275  -2.733  1.00  0.00    -0.084 Cl
ENDBRANCH  14  22
ENDBRANCH   7   8
ENDBRANCH   6   7
ENDBRANCH   5   6
ENDBRANCH   3   5
ENDBRANCH   2   3
ENDBRANCH   1   2
BRANCH   1  29
ATOM     29  C   UNL     1       0.372   3.574   3.678  1.00  0.00     0.275 C 
BRANCH  29  30
ATOM     30  O   UNL     1      -0.236   2.373   3.169  1.00  0.00    -0.458 OA
BRANCH  30  31
ATOM     31  C   UNL     1      -0.367   2.319   1.825  1.00  0.00     0.338 C 
ATOM     32  O   UNL     1      -0.063   3.182   1.018  1.00  0.00    -0.246 OA
BRANCH  31  33
ATOM     33  C   UNL     1      -0.953   1.032   1.418  1.00  0.00     0.060 A 
ATOM     34  C   UNL     1      -0.327  -0.181   1.719  1.00  0.00     0.016 A 
ATOM     35  C   UNL     1      -2.092   1.060   0.615  1.00  0.00     0.016 A 
ATOM     36  C   UNL     1      -0.812  -1.369   1.167  1.00  0.00     0.010 A 
ATOM     37  C   UNL     1      -2.612  -0.133   0.118  1.00  0.00     0.010 A 
ATOM     38  C   UNL     1      -1.964  -1.355   0.368  1.00  0.00    -0.014 A 
BRANCH  38  39
ATOM     39  C   UNL     1      -2.529  -2.593  -0.224  1.00  0.00     0.031 A 
ATOM     40  C   UNL     1      -2.578  -2.749  -1.718  1.00  0.00     0.074 A 
ATOM     41  C   UNL     1      -3.095  -3.518   0.574  1.00  0.00     0.049 A 
ATOM     42  N   UNL     1      -3.273  -3.590  -2.440  1.00  0.00    -0.248 NA
ATOM     43  C   UNL     1      -1.748  -1.821  -2.503  1.00  0.00     0.031 C 
ATOM     44  C   UNL     1      -3.087  -3.493   2.036  1.00  0.00     0.029 A 
ATOM     45  N   UNL     1      -3.826  -4.638   0.262  1.00  0.00    -0.354 N 
ATOM     46  C   UNL     1      -3.003  -3.265  -3.763  1.00  0.00     0.074 A 
ATOM     47  C   UNL     1      -2.078  -2.151  -3.745  1.00  0.00     0.031 C 
ATOM     48  C   UNL     1      -3.799  -4.533   2.496  1.00  0.00     0.029 A 
ATOM     49  C   UNL     1      -4.368  -5.255   1.362  1.00  0.00     0.049 A 
ATOM     50  H   UNL     1      -3.949  -4.965  -0.659  1.00  0.00     0.167 HD
ATOM     51  C   UNL     1      -3.492  -3.846  -4.885  1.00  0.00     0.037 A 
ATOM     52  C   UNL     1      -5.267  -6.254   1.449  1.00  0.00     0.037 A 
ATOM     53  C   UNL     1      -4.385  -4.976  -4.889  1.00  0.00     0.049 A 
ATOM     54  C   UNL     1      -5.818  -6.860   0.188  1.00  0.00     0.074 A 
ATOM     55  C   UNL     1      -4.908  -5.659  -5.974  1.00  0.00     0.029 A 
ATOM     56  N   UNL     1      -4.883  -5.593  -3.751  1.00  0.00    -0.354 N 
ATOM     57  N   UNL     1      -5.566  -6.545  -1.059  1.00  0.00    -0.248 NA
ATOM     58  C   UNL     1      -6.785  -7.955   0.346  1.00  0.00     0.031 C 
ATOM     59  C   UNL     1      -5.752  -6.666  -5.494  1.00  0.00     0.029 A 
ATOM     60  C   UNL     1      -5.717  -6.640  -4.109  1.00  0.00     0.049 A 
ATOM     61  H   UNL     1      -4.674  -5.327  -2.827  1.00  0.00     0.167 HD
ATOM     62  C   UNL     1      -6.314  -7.421  -1.832  1.00  0.00     0.074 A 
ATOM     63  C   UNL     1      -7.028  -8.284  -0.915  1.00  0.00     0.031 C 
ATOM     64  C   UNL     1      -6.400  -7.504  -3.182  1.00  0.00     0.037 A 
BRANCH  51  65
ATOM     65  C   UNL     1      -3.096  -3.266  -6.210  1.00  0.00     0.064 A 
ATOM     66  C   UNL     1      -1.816  -3.456  -6.748  1.00  0.00     0.173 A 
ATOM     67  C   UNL     1      -4.042  -2.583  -6.992  1.00  0.00     0.173 A 
ATOM     68  F   UNL     1      -0.873  -4.095  -6.038  1.00  0.00    -0.203 F 
ATOM     69  C   UNL     1      -1.494  -2.977  -8.016  1.00  0.00     0.198 A 
ATOM     70  C   UNL     1      -3.725  -2.127  -8.268  1.00  0.00     0.198 A 
ATOM     71  F   UNL     1      -5.285  -2.382  -6.527  1.00  0.00    -0.203 F 
ATOM     72  F   UNL     1      -0.257  -3.151  -8.502  1.00  0.00    -0.200 F 
ATOM     73  C   UNL     1      -2.450  -2.323  -8.779  1.00  0.00     0.200 A 
ATOM     74  F   UNL     1      -4.655  -1.510  -9.009  1.00  0.00    -0.200 F 
ATOM     75  F   UNL     1      -2.144  -1.882 -10.007  1.00  0.00    -0.200 F 
ENDBRANCH  51  65
BRANCH  52  76
ATOM     76  C   UNL     1      -5.728  -6.720   2.782  1.00  0.00     0.064 A 
ATOM     77  C   UNL     1      -5.370  -7.986   3.264  1.00  0.00     0.173 A 
ATOM     78  C   UNL     1      -6.534  -5.913   3.599  1.00  0.00     0.173 A 
ATOM     79  F   UNL     1      -4.621  -8.802   2.509  1.00  0.00    -0.203 F 
ATOM     80  C   UNL     1      -5.815  -8.434   4.506  1.00  0.00     0.198 A 
ATOM     81  C   UNL     1      -6.954  -6.350   4.853  1.00  0.00     0.198 A 
ATOM     82  F   UNL     1      -6.903  -4.692   3.183  1.00  0.00    -0.203 F 
ATOM     83  F   UNL     1      -5.495  -9.666   4.924  1.00  0.00    -0.200 F 
ATOM     84  C   UNL     1      -6.600  -7.614   5.302  1.00  0.00     0.200 A 
ATOM     85  F   UNL     1      -7.701  -5.550   5.624  1.00  0.00    -0.200 F 
ATOM     86  F   UNL     1      -7.023  -8.044   6.498  1.00  0.00    -0.200 F 
ENDBRANCH  52  76
BRANCH  64  87
ATOM     87  C   UNL     1      -7.248  -8.602  -3.750  1.00  0.00     0.064 A 
ATOM     88  C   UNL     1      -8.648  -8.541  -3.726  1.00  0.00     0.173 A 
ATOM     89  C   UNL     1      -6.646  -9.711  -4.364  1.00  0.00     0.173 A 
ATOM     90  F   UNL     1      -9.268  -7.509  -3.135  1.00  0.00    -0.203 F 
ATOM     91  C   UNL     1      -9.416  -9.561  -4.281  1.00  0.00     0.198 A 
ATOM     92  C   UNL     1      -7.416 -10.716  -4.940  1.00  0.00     0.198 A 
ATOM     93  F   UNL     1      -5.309  -9.812  -4.416  1.00  0.00    -0.203 F 
ATOM     94  F   UNL     1     -10.753  -9.503  -4.213  1.00  0.00    -0.200 F 
ATOM     95  C   UNL     1      -8.800 -10.643  -4.894  1.00  0.00     0.200 A 
ATOM     96  F   UNL     1      -6.820 -11.755  -5.541  1.00  0.00    -0.200 F 
ATOM     97  F   UNL     1      -9.542 -11.620  -5.434  1.00  0.00    -0.200 F 
ENDBRANCH  64  87
ENDBRANCH  38  39
ENDBRANCH  31  33
ENDBRANCH  30  31
ENDBRANCH  29  30
ENDBRANCH   1  29
TORSDOF 15
