REMARK SMILES Cc1cc(NCc2ccc(C(=O)OCCOC(=O)c3ccc(-c4c5nc(c(-c6c(F)c(F)c(F)c(F)c6F)c6ccc([nH]6)c(-c6c(F)c(F)c(F)c(F)c6F)c6nc(c(-c7c(F)c(F)c(F)c(F)c7F)c7ccc4[nH]7)C=C6)C=C5)cc3)o2)ccc1F
REMARK SMILES IDX 14 1 13 2 11 3 12 4 10 5 7 6 8 7 82 8 9 9 6 10 5 11 4 13
REMARK SMILES IDX 1 14 2 15 3 16 85 17 84 18 86 19 83 20 15 21 16 22 17 23
REMARK SMILES IDX 18 24 19 25 20 26 81 27 21 28 80 29 22 30 23 31 24 32 74 33
REMARK SMILES IDX 25 34 79 35 73 36 75 37 26 38 78 39 72 40 71 41 27 43 59 44
REMARK SMILES IDX 39 45 58 46 40 47 43 48 57 49 76 50 41 51 42 52 56 54 77 55
REMARK SMILES IDX 44 56 28 57 29 58 37 59 30 60 31 61 35 62 38 63 32 64 33 65
REMARK SMILES IDX 36 66 34 67 60 68 61 69 69 70 62 71 63 72 67 73 70 74 64 75
REMARK SMILES IDX 65 76 68 77 66 78 45 79 46 80 54 81 47 82 48 83 52 84 55 85
REMARK SMILES IDX 49 86 50 87 53 88 51 89
REMARK H PARENT 5 12 75 42 43 53
REMARK Flexibility Score: inf
ROOT
ATOM      1  C   UNL     1      -9.152   2.874   4.884  1.00  0.00     0.275 C 
ENDROOT
BRANCH   1   2
ATOM      2  O   UNL     1      -8.553   1.741   4.214  1.00  0.00    -0.456 OA
BRANCH   2   3
ATOM      3  C   UNL     1      -8.416   1.822   2.846  1.00  0.00     0.374 C 
ATOM      4  O   UNL     1      -8.972   2.665   2.154  1.00  0.00    -0.242 OA
BRANCH   3   5
ATOM      5  C   UNL     1      -7.438   0.843   2.391  1.00  0.00     0.211 A 
ATOM      6  C   UNL     1      -5.779   0.122   1.101  1.00  0.00     0.124 A 
ATOM      7  C   UNL     1      -5.914  -0.796   2.121  1.00  0.00     0.048 A 
ATOM      8  O   UNL     1      -6.731   1.098   1.234  1.00  0.00    -0.452 OA
ATOM      9  C   UNL     1      -6.962  -0.328   2.952  1.00  0.00     0.058 A 
BRANCH   6  10
ATOM     10  C   UNL     1      -4.846   0.223  -0.067  1.00  0.00     0.188 C 
BRANCH  10  11
ATOM     11  N   UNL     1      -3.585   0.909   0.189  1.00  0.00    -0.378 N 
ATOM     12  H   UNL     1      -3.654   1.858   0.440  1.00  0.00     0.161 HD
BRANCH  11  13
ATOM     13  C   UNL     1      -2.307   0.394   0.122  1.00  0.00     0.035 A 
ATOM     14  C   UNL     1       1.252   1.807  -0.189  1.00  0.00     0.047 C 
ATOM     15  C   UNL     1       0.111   0.845  -0.067  1.00  0.00    -0.013 A 
ATOM     16  C   UNL     1      -1.221   1.288   0.022  1.00  0.00     0.032 A 
ATOM     17  C   UNL     1       0.351  -0.525  -0.068  1.00  0.00     0.126 A 
ATOM     18  C   UNL     1      -0.697  -1.433   0.003  1.00  0.00     0.041 A 
ATOM     19  F   UNL     1       1.609  -0.985  -0.138  1.00  0.00    -0.207 F 
ATOM     20  C   UNL     1      -2.018  -0.973   0.085  1.00  0.00     0.029 A 
ENDBRANCH  11  13
ENDBRANCH  10  11
ENDBRANCH   6  10
ENDBRANCH   3   5
ENDBRANCH   2   3
ENDBRANCH   1   2
BRANCH   1  21
ATOM     21  C   UNL     1      -8.104   3.814   5.496  1.00  0.00     0.275 C 
BRANCH  21  22
ATOM     22  O   UNL     1      -7.642   4.823   4.579  1.00  0.00    -0.458 OA
BRANCH  22  23
ATOM     23  C   UNL     1      -6.689   4.359   3.743  1.00  0.00     0.338 C 
ATOM     24  O   UNL     1      -6.405   3.190   3.559  1.00  0.00    -0.246 OA
BRANCH  23  25
ATOM     25  C   UNL     1      -5.716   5.368   3.323  1.00  0.00     0.060 A 
ATOM     26  C   UNL     1      -4.810   4.894   2.357  1.00  0.00     0.016 A 
ATOM     27  C   UNL     1      -5.338   6.279   4.309  1.00  0.00     0.016 A 
ATOM     28  C   UNL     1      -3.458   5.086   2.567  1.00  0.00     0.010 A 
ATOM     29  C   UNL     1      -3.991   6.476   4.508  1.00  0.00     0.010 A 
ATOM     30  C   UNL     1      -3.066   5.805   3.695  1.00  0.00    -0.014 A 
BRANCH  30  31
ATOM     31  C   UNL     1      -1.671   6.004   4.022  1.00  0.00     0.031 A 
ATOM     32  C   UNL     1      -0.924   6.967   3.202  1.00  0.00     0.074 A 
ATOM     33  C   UNL     1      -1.097   5.369   5.064  1.00  0.00     0.049 A 
ATOM     34  N   UNL     1       0.356   6.985   3.085  1.00  0.00    -0.248 NA
ATOM     35  C   UNL     1      -1.601   7.964   2.381  1.00  0.00     0.031 C 
ATOM     36  C   UNL     1       0.186   5.683   5.680  1.00  0.00     0.029 A 
ATOM     37  N   UNL     1      -1.487   4.164   5.667  1.00  0.00    -0.354 N 
ATOM     38  C   UNL     1       0.686   8.161   2.456  1.00  0.00     0.074 A 
ATOM     39  C   UNL     1      -0.561   8.674   1.938  1.00  0.00     0.031 C 
ATOM     40  C   UNL     1       0.625   4.603   6.343  1.00  0.00     0.029 A 
ATOM     41  C   UNL     1      -0.281   3.513   6.039  1.00  0.00     0.049 A 
ATOM     42  H   UNL     1      -2.406   3.837   5.803  1.00  0.00     0.167 HD
ATOM     43  C   UNL     1       1.955   8.638   2.596  1.00  0.00     0.037 A 
ATOM     44  C   UNL     1       0.085   2.330   5.457  1.00  0.00     0.037 A 
ATOM     45  C   UNL     1       2.803   7.680   3.309  1.00  0.00     0.049 A 
ATOM     46  C   UNL     1       1.349   2.394   4.630  1.00  0.00     0.074 A 
ATOM     47  C   UNL     1       3.232   7.548   4.621  1.00  0.00     0.029 A 
ATOM     48  N   UNL     1       3.046   6.454   2.715  1.00  0.00    -0.354 N 
ATOM     49  N   UNL     1       2.042   3.482   4.438  1.00  0.00    -0.248 NA
ATOM     50  C   UNL     1       1.882   1.256   3.883  1.00  0.00     0.031 C 
ATOM     51  C   UNL     1       3.739   6.226   4.796  1.00  0.00     0.029 A 
ATOM     52  C   UNL     1       3.631   5.560   3.590  1.00  0.00     0.049 A 
ATOM     53  H   UNL     1       2.829   6.245   1.778  1.00  0.00     0.167 HD
ATOM     54  C   UNL     1       3.055   3.232   3.555  1.00  0.00     0.074 A 
ATOM     55  C   UNL     1       2.917   1.822   3.238  1.00  0.00     0.031 C 
ATOM     56  C   UNL     1       3.907   4.209   3.123  1.00  0.00     0.037 A 
BRANCH  43  57
ATOM     57  C   UNL     1       2.320  10.081   2.345  1.00  0.00     0.064 A 
ATOM     58  C   UNL     1       3.324  10.710   3.110  1.00  0.00     0.173 A 
ATOM     59  C   UNL     1       1.675  10.921   1.417  1.00  0.00     0.173 A 
ATOM     60  F   UNL     1       4.098  10.017   3.954  1.00  0.00    -0.203 F 
ATOM     61  C   UNL     1       3.569  12.084   3.042  1.00  0.00     0.198 A 
ATOM     62  C   UNL     1       1.874  12.305   1.393  1.00  0.00     0.198 A 
ATOM     63  F   UNL     1       0.875  10.424   0.465  1.00  0.00    -0.203 F 
ATOM     64  F   UNL     1       4.532  12.623   3.801  1.00  0.00    -0.200 F 
ATOM     65  C   UNL     1       2.814  12.889   2.215  1.00  0.00     0.200 A 
ATOM     66  F   UNL     1       1.146  13.068   0.563  1.00  0.00    -0.200 F 
ATOM     67  F   UNL     1       3.013  14.213   2.188  1.00  0.00    -0.200 F 
ENDBRANCH  43  57
BRANCH  44  68
ATOM     68  C   UNL     1      -1.101   1.479   5.168  1.00  0.00     0.064 A 
ATOM     69  C   UNL     1      -1.829   1.030   6.285  1.00  0.00     0.173 A 
ATOM     70  C   UNL     1      -1.786   1.656   3.959  1.00  0.00     0.173 A 
ATOM     71  F   UNL     1      -1.204   0.826   7.455  1.00  0.00    -0.203 F 
ATOM     72  C   UNL     1      -3.217   0.994   6.254  1.00  0.00     0.198 A 
ATOM     73  C   UNL     1      -3.178   1.600   3.930  1.00  0.00     0.198 A 
ATOM     74  F   UNL     1      -1.125   2.080   2.873  1.00  0.00    -0.203 F 
ATOM     75  F   UNL     1      -3.905   0.771   7.384  1.00  0.00    -0.200 F 
ATOM     76  C   UNL     1      -3.891   1.321   5.089  1.00  0.00     0.200 A 
ATOM     77  F   UNL     1      -3.824   1.943   2.809  1.00  0.00    -0.200 F 
ATOM     78  F   UNL     1      -5.226   1.417   5.119  1.00  0.00    -0.200 F 
ENDBRANCH  44  68
BRANCH  56  79
ATOM     79  C   UNL     1       5.064   3.964   2.191  1.00  0.00     0.064 A 
ATOM     80  C   UNL     1       5.876   2.822   2.280  1.00  0.00     0.173 A 
ATOM     81  C   UNL     1       5.466   4.926   1.237  1.00  0.00     0.173 A 
ATOM     82  F   UNL     1       5.665   1.898   3.228  1.00  0.00    -0.203 F 
ATOM     83  C   UNL     1       6.951   2.613   1.412  1.00  0.00     0.198 A 
ATOM     84  C   UNL     1       6.575   4.743   0.413  1.00  0.00     0.198 A 
ATOM     85  F   UNL     1       4.790   6.067   1.051  1.00  0.00    -0.203 F 
ATOM     86  F   UNL     1       7.652   1.473   1.487  1.00  0.00    -0.200 F 
ATOM     87  C   UNL     1       7.302   3.575   0.483  1.00  0.00     0.200 A 
ATOM     88  F   UNL     1       6.923   5.705  -0.453  1.00  0.00    -0.200 F 
ATOM     89  F   UNL     1       8.341   3.379  -0.340  1.00  0.00    -0.200 F 
ENDBRANCH  56  79
ENDBRANCH  30  31
ENDBRANCH  23  25
ENDBRANCH  22  23
ENDBRANCH  21  22
ENDBRANCH   1  21
TORSDOF 14
