REMARK SMILES O=C(OCCOC(=O)[C@H]1[C@@H](C(=O)NN2CCOCC2)[C@H]2C=C[C@@H]1CC2)c1ccc(-c2c3nc(c(-c4c(F)c(F)c(F)c(F)c4F)c4ccc([nH]4)c(-c4c(F)c(F)c(F)c(F)c4F)c4nc(c(-c5c(F)c(F)c(F)c(F)c5F)c5ccc2[nH]5)C=C4)C=C3)cc1
REMARK SMILES IDX 4 1 3 2 2 3 1 4 26 5 27 6 88 7 28 8 87 9 29 10 30 11 31 12
REMARK SMILES IDX 81 13 32 14 86 15 80 16 82 17 33 18 85 19 79 20 78 21 34 23
REMARK SMILES IDX 66 24 46 25 65 26 47 27 50 28 64 29 83 30 48 31 49 32 63 34
REMARK SMILES IDX 84 35 51 36 35 37 36 38 44 39 37 40 38 41 42 42 45 43 39 44
REMARK SMILES IDX 40 45 43 46 41 47 67 48 68 49 76 50 69 51 70 52 74 53 77 54
REMARK SMILES IDX 71 55 72 56 75 57 73 58 52 59 53 60 61 61 54 62 55 63 59 64
REMARK SMILES IDX 62 65 56 66 57 67 60 68 58 69 5 70 6 71 7 72 8 73 9 74 10 75
REMARK SMILES IDX 23 76 20 77 22 78 24 79 21 80 25 81 11 82 12 83 13 84 14 86
REMARK SMILES IDX 15 87 19 88 16 89 18 90 17 91
REMARK H PARENT 82 22 50 33 13 85
REMARK Flexibility Score: inf
ROOT
ATOM      1  C   UNL     1       5.743   2.521  -4.992  1.00  0.00     0.275 C 
ENDROOT
BRANCH   1   2
ATOM      2  O   UNL     1       6.598   2.600  -3.821  1.00  0.00    -0.458 OA
BRANCH   2   3
ATOM      3  C   UNL     1       6.293   1.852  -2.734  1.00  0.00     0.338 C 
ATOM      4  O   UNL     1       6.480   0.647  -2.662  1.00  0.00    -0.246 OA
BRANCH   3   5
ATOM      5  C   UNL     1       5.652   2.655  -1.641  1.00  0.00     0.060 A 
ATOM      6  C   UNL     1       5.355   4.015  -1.773  1.00  0.00     0.016 A 
ATOM      7  C   UNL     1       5.214   1.992  -0.481  1.00  0.00     0.016 A 
ATOM      8  C   UNL     1       4.573   4.676  -0.796  1.00  0.00     0.010 A 
ATOM      9  C   UNL     1       4.418   2.656   0.483  1.00  0.00     0.010 A 
ATOM     10  C   UNL     1       4.023   3.998   0.314  1.00  0.00    -0.014 A 
BRANCH  10  11
ATOM     11  C   UNL     1       3.387   4.772   1.448  1.00  0.00     0.031 A 
ATOM     12  C   UNL     1       4.388   5.303   2.417  1.00  0.00     0.074 A 
ATOM     13  C   UNL     1       2.083   5.097   1.672  1.00  0.00     0.049 A 
ATOM     14  N   UNL     1       4.183   5.973   3.514  1.00  0.00    -0.248 NA
ATOM     15  C   UNL     1       5.808   5.045   2.112  1.00  0.00     0.031 C 
ATOM     16  C   UNL     1       0.956   4.681   0.861  1.00  0.00     0.029 A 
ATOM     17  N   UNL     1       1.415   5.797   2.663  1.00  0.00    -0.354 N 
ATOM     18  C   UNL     1       5.441   6.299   3.970  1.00  0.00     0.074 A 
ATOM     19  C   UNL     1       6.409   5.667   3.105  1.00  0.00     0.031 C 
ATOM     20  C   UNL     1      -0.174   5.344   1.136  1.00  0.00     0.029 A 
ATOM     21  C   UNL     1       0.034   5.766   2.501  1.00  0.00     0.049 A 
ATOM     22  H   UNL     1       1.869   6.265   3.401  1.00  0.00     0.167 HD
ATOM     23  C   UNL     1       5.751   7.087   5.016  1.00  0.00     0.037 A 
ATOM     24  C   UNL     1      -0.974   5.807   3.393  1.00  0.00     0.037 A 
ATOM     25  C   UNL     1       4.772   7.563   5.947  1.00  0.00     0.049 A 
ATOM     26  C   UNL     1      -0.608   6.269   4.750  1.00  0.00     0.074 A 
ATOM     27  C   UNL     1       4.962   8.273   7.112  1.00  0.00     0.029 A 
ATOM     28  N   UNL     1       3.405   7.310   5.843  1.00  0.00    -0.354 N 
ATOM     29  N   UNL     1       0.590   6.543   5.195  1.00  0.00    -0.248 NA
ATOM     30  C   UNL     1      -1.700   6.528   5.685  1.00  0.00     0.031 C 
ATOM     31  C   UNL     1       3.725   8.373   7.758  1.00  0.00     0.029 A 
ATOM     32  C   UNL     1       2.747   7.801   6.956  1.00  0.00     0.049 A 
ATOM     33  H   UNL     1       2.972   6.849   5.089  1.00  0.00     0.167 HD
ATOM     34  C   UNL     1       0.398   7.138   6.418  1.00  0.00     0.074 A 
ATOM     35  C   UNL     1      -1.033   7.102   6.678  1.00  0.00     0.031 C 
ATOM     36  C   UNL     1       1.326   7.733   7.201  1.00  0.00     0.037 A 
BRANCH  23  37
ATOM     37  C   UNL     1       7.212   7.339   5.200  1.00  0.00     0.064 A 
ATOM     38  C   UNL     1       7.944   8.101   4.270  1.00  0.00     0.173 A 
ATOM     39  C   UNL     1       7.918   6.654   6.195  1.00  0.00     0.173 A 
ATOM     40  F   UNL     1       7.315   8.720   3.258  1.00  0.00    -0.203 F 
ATOM     41  C   UNL     1       9.335   8.123   4.305  1.00  0.00     0.198 A 
ATOM     42  C   UNL     1       9.306   6.704   6.244  1.00  0.00     0.198 A 
ATOM     43  F   UNL     1       7.265   5.881   7.076  1.00  0.00    -0.203 F 
ATOM     44  F   UNL     1      10.018   8.766   3.348  1.00  0.00    -0.200 F 
ATOM     45  C   UNL     1      10.014   7.423   5.290  1.00  0.00     0.200 A 
ATOM     46  F   UNL     1       9.964   6.013   7.184  1.00  0.00    -0.200 F 
ATOM     47  F   UNL     1      11.354   7.410   5.301  1.00  0.00    -0.200 F 
ENDBRANCH  23  37
BRANCH  24  48
ATOM     48  C   UNL     1      -2.353   5.345   3.045  1.00  0.00     0.064 A 
ATOM     49  C   UNL     1      -3.392   6.247   2.793  1.00  0.00     0.173 A 
ATOM     50  C   UNL     1      -2.647   3.973   2.913  1.00  0.00     0.173 A 
ATOM     51  F   UNL     1      -3.171   7.564   2.907  1.00  0.00    -0.203 F 
ATOM     52  C   UNL     1      -4.668   5.804   2.436  1.00  0.00     0.198 A 
ATOM     53  C   UNL     1      -3.921   3.531   2.544  1.00  0.00     0.198 A 
ATOM     54  F   UNL     1      -1.688   3.057   3.115  1.00  0.00    -0.203 F 
ATOM     55  F   UNL     1      -5.646   6.694   2.216  1.00  0.00    -0.200 F 
ATOM     56  C   UNL     1      -4.932   4.448   2.309  1.00  0.00     0.200 A 
ATOM     57  F   UNL     1      -4.165   2.219   2.406  1.00  0.00    -0.200 F 
ATOM     58  F   UNL     1      -6.157   4.028   1.961  1.00  0.00    -0.200 F 
ENDBRANCH  24  48
BRANCH  36  59
ATOM     59  C   UNL     1       0.794   8.477   8.376  1.00  0.00     0.064 A 
ATOM     60  C   UNL     1       0.263   7.822   9.492  1.00  0.00     0.173 A 
ATOM     61  C   UNL     1       0.836   9.878   8.372  1.00  0.00     0.173 A 
ATOM     62  F   UNL     1       0.169   6.483   9.510  1.00  0.00    -0.203 F 
ATOM     63  C   UNL     1      -0.226   8.551  10.567  1.00  0.00     0.198 A 
ATOM     64  C   UNL     1       0.384  10.601   9.466  1.00  0.00     0.198 A 
ATOM     65  F   UNL     1       1.321  10.540   7.310  1.00  0.00    -0.203 F 
ATOM     66  F   UNL     1      -0.786   7.913  11.603  1.00  0.00    -0.200 F 
ATOM     67  C   UNL     1      -0.152   9.937  10.559  1.00  0.00     0.200 A 
ATOM     68  F   UNL     1       0.464  11.938   9.460  1.00  0.00    -0.200 F 
ATOM     69  F   UNL     1      -0.609  10.637  11.605  1.00  0.00    -0.200 F 
ENDBRANCH  36  59
ENDBRANCH  10  11
ENDBRANCH   3   5
ENDBRANCH   2   3
ENDBRANCH   1   2
BRANCH   1  70
ATOM     70  C   UNL     1       4.786   1.327  -5.100  1.00  0.00     0.274 C 
BRANCH  70  71
ATOM     71  O   UNL     1       3.872   1.452  -4.002  1.00  0.00    -0.462 OA
BRANCH  71  72
ATOM     72  C   UNL     1       2.949   0.493  -3.791  1.00  0.00     0.310 C 
ATOM     73  O   UNL     1       2.838  -0.550  -4.431  1.00  0.00    -0.252 OA
BRANCH  72  74
ATOM     74  C   UNL     1       2.162   0.864  -2.575  1.00  0.00     0.119 C 
ATOM     75  C   UNL     1       2.062   2.335  -2.113  1.00  0.00     0.101 C 
ATOM     76  C   UNL     1       0.856   0.067  -2.221  1.00  0.00     0.026 C 
ATOM     77  C   UNL     1       1.096   2.225  -0.940  1.00  0.00     0.025 C 
ATOM     78  C   UNL     1      -0.377   0.971  -2.272  1.00  0.00    -0.027 C 
ATOM     79  C   UNL     1       0.991  -0.272  -0.702  1.00  0.00     0.009 C 
ATOM     80  C   UNL     1      -0.272   2.087  -1.534  1.00  0.00    -0.027 C 
ATOM     81  C   UNL     1       1.306   1.046   0.039  1.00  0.00     0.009 C 
BRANCH  75  82
ATOM     82  C   UNL     1       1.817   3.814  -2.667  1.00  0.00     0.238 C 
ATOM     83  O   UNL     1       2.243   4.787  -2.026  1.00  0.00    -0.273 OA
ATOM     84  N   UNL     1       0.877   4.189  -3.586  1.00  0.00    -0.288 N 
ATOM     85  H   UNL     1      -0.070   4.262  -3.326  1.00  0.00     0.185 HD
BRANCH  84  86
ATOM     86  N   UNL     1       1.284   4.477  -4.940  1.00  0.00    -0.217 NA
ATOM     87  C   UNL     1       0.100   4.642  -5.813  1.00  0.00     0.136 C 
ATOM     88  C   UNL     1       2.077   3.377  -5.487  1.00  0.00     0.136 C 
ATOM     89  C   UNL     1      -0.726   3.353  -5.875  1.00  0.00     0.177 C 
ATOM     90  C   UNL     1       1.227   2.103  -5.569  1.00  0.00     0.177 C 
ATOM     91  O   UNL     1       0.074   2.280  -6.390  1.00  0.00    -0.379 OA
ENDBRANCH  84  86
ENDBRANCH  75  82
ENDBRANCH  72  74
ENDBRANCH  71  72
ENDBRANCH  70  71
ENDBRANCH   1  70
TORSDOF 13
