REMARK SMILES Cc1ccc(-c2cc(OCC(=O)OCCOC(=O)c3ccc(-c4c5nc(c(-c6c(F)c(F)c(F)c(F)c6F)c6ccc([nH]6)c(-c6c(F)c(F)c(F)c(F)c6F)c6nc(c(-c7c(F)c(F)c(F)c(F)c7F)c7ccc4[nH]7)C=C6)C=C5)cc3)nc(NCc3ccc4c(c3)OCO4)n2)cc1
REMARK SMILES IDX 13 1 11 2 12 3 10 4 9 5 8 6 6 7 7 8 95 9 83 10 82 11 5 12
REMARK SMILES IDX 1 13 2 14 3 15 97 16 4 17 96 18 84 19 85 21 86 22 87 23
REMARK SMILES IDX 91 24 88 25 90 26 89 27 92 28 94 29 93 30 14 31 15 32 16 33
REMARK SMILES IDX 17 34 18 35 19 36 20 37 81 38 21 39 80 40 22 41 23 42 24 43
REMARK SMILES IDX 74 44 25 45 79 46 73 47 75 48 26 49 78 50 72 51 71 52 27 54
REMARK SMILES IDX 59 55 39 56 58 57 40 58 43 59 57 60 76 61 41 62 42 63 56 65
REMARK SMILES IDX 77 66 44 67 28 68 29 69 37 70 30 71 31 72 35 73 38 74 32 75
REMARK SMILES IDX 33 76 36 77 34 78 60 79 61 80 69 81 62 82 63 83 67 84 70 85
REMARK SMILES IDX 64 86 65 87 68 88 66 89 45 90 46 91 54 92 47 93 48 94 52 95
REMARK SMILES IDX 55 96 49 97 50 98 53 99 51 100
REMARK H PARENT 84 20 75 53 43 64
REMARK Flexibility Score: inf
ROOT
ATOM      1  O   UNL     1      -4.148   5.105  -1.735  1.00  0.00    -0.460 OA
ENDROOT
BRANCH   1   2
ATOM      2  C   UNL     1      -3.918   3.849  -2.434  1.00  0.00     0.344 C 
ATOM      3  O   UNL     1      -2.707   3.904  -2.791  1.00  0.00    -0.248 OA
BRANCH   2   4
ATOM      4  C   UNL     1      -5.371   2.216  -2.514  1.00  0.00     0.353 C 
BRANCH   4   5
ATOM      5  O   UNL     1      -5.431   0.661  -2.223  1.00  0.00    -0.466 OA
BRANCH   5   6
ATOM      6  C   UNL     1      -5.072   0.076  -1.000  1.00  0.00     0.219 A 
ATOM      7  C   UNL     1      -3.277  -0.707   0.274  1.00  0.00     0.080 A 
ATOM      8  C   UNL     1      -3.824  -0.519  -0.976  1.00  0.00     0.097 A 
ATOM      9  N   UNL     1      -4.025  -0.612   1.374  1.00  0.00    -0.213 NA
ATOM     10  C   UNL     1      -5.322  -0.319   1.233  1.00  0.00     0.226 A 
ATOM     11  N   UNL     1      -5.865   0.163   0.089  1.00  0.00    -0.177 NA
BRANCH   7  12
ATOM     12  C   UNL     1      -1.821  -0.760   0.483  1.00  0.00     0.000 A 
ATOM     13  C   UNL     1       2.445  -0.214   0.048  1.00  0.00     0.044 C 
ATOM     14  C   UNL     1       0.984  -0.447   0.290  1.00  0.00    -0.051 A 
ATOM     15  C   UNL     1       0.364  -1.630  -0.127  1.00  0.00     0.004 A 
ATOM     16  C   UNL     1       0.217   0.513   0.945  1.00  0.00     0.004 A 
ATOM     17  C   UNL     1      -1.029  -1.771  -0.061  1.00  0.00     0.010 A 
ATOM     18  C   UNL     1      -1.160   0.320   1.101  1.00  0.00     0.010 A 
ENDBRANCH   7  12
BRANCH  10  19
ATOM     19  N   UNL     1      -6.124  -0.560   2.329  1.00  0.00    -0.350 N 
ATOM     20  H   UNL     1      -6.975  -0.079   2.445  1.00  0.00     0.164 HD
BRANCH  19  21
ATOM     21  C   UNL     1      -5.684  -1.547   3.315  1.00  0.00     0.152 C 
BRANCH  21  22
ATOM     22  C   UNL     1      -6.034  -2.984   2.947  1.00  0.00    -0.025 A 
ATOM     23  C   UNL     1      -5.404  -4.058   3.638  1.00  0.00     0.009 A 
ATOM     24  C   UNL     1      -6.942  -3.286   1.921  1.00  0.00     0.056 A 
ATOM     25  C   UNL     1      -5.613  -5.394   3.263  1.00  0.00     0.051 A 
ATOM     26  C   UNL     1      -7.087  -4.602   1.543  1.00  0.00     0.166 A 
ATOM     27  C   UNL     1      -6.431  -5.627   2.182  1.00  0.00     0.165 A 
ATOM     28  O   UNL     1      -7.809  -5.038   0.473  1.00  0.00    -0.454 OA
ATOM     29  O   UNL     1      -6.650  -6.827   1.576  1.00  0.00    -0.454 OA
ATOM     30  C   UNL     1      -7.278  -6.372   0.357  1.00  0.00     0.468 C 
ENDBRANCH  21  22
ENDBRANCH  19  21
ENDBRANCH  10  19
ENDBRANCH   5   6
ENDBRANCH   4   5
ENDBRANCH   2   4
ENDBRANCH   1   2
BRANCH   1  31
ATOM     31  C   UNL     1      -3.078   5.657  -0.939  1.00  0.00     0.274 C 
BRANCH  31  32
ATOM     32  C   UNL     1      -2.993   4.932   0.412  1.00  0.00     0.275 C 
BRANCH  32  33
ATOM     33  O   UNL     1      -2.367   3.628   0.444  1.00  0.00    -0.458 OA
BRANCH  33  34
ATOM     34  C   UNL     1      -2.493   2.637  -0.454  1.00  0.00     0.338 C 
ATOM     35  O   UNL     1      -1.506   2.063  -0.898  1.00  0.00    -0.246 OA
BRANCH  34  36
ATOM     36  C   UNL     1      -3.792   2.334  -1.128  1.00  0.00     0.060 A 
ATOM     37  C   UNL     1      -3.362   1.852  -2.842  1.00  0.00     0.016 A 
ATOM     38  C   UNL     1      -5.223   3.399  -0.840  1.00  0.00     0.016 A 
ATOM     39  C   UNL     1      -4.121   2.684  -4.222  1.00  0.00     0.010 A 
ATOM     40  C   UNL     1      -6.011   4.209  -2.272  1.00  0.00     0.010 A 
ATOM     41  C   UNL     1      -5.356   3.921  -3.923  1.00  0.00    -0.014 A 
BRANCH  41  42
ATOM     42  C   UNL     1      -5.277   5.161  -4.718  1.00  0.00     0.031 A 
ATOM     43  C   UNL     1      -6.538   5.614  -5.280  1.00  0.00     0.074 A 
ATOM     44  C   UNL     1      -4.139   5.910  -4.762  1.00  0.00     0.049 A 
ATOM     45  N   UNL     1      -6.620   6.381  -6.301  1.00  0.00    -0.248 NA
ATOM     46  C   UNL     1      -7.832   5.115  -4.828  1.00  0.00     0.031 C 
ATOM     47  C   UNL     1      -3.949   7.341  -5.003  1.00  0.00     0.029 A 
ATOM     48  N   UNL     1      -2.829   5.472  -4.628  1.00  0.00    -0.354 N 
ATOM     49  C   UNL     1      -7.919   6.820  -6.335  1.00  0.00     0.074 A 
ATOM     50  C   UNL     1      -8.657   5.840  -5.585  1.00  0.00     0.031 C 
ATOM     51  C   UNL     1      -2.636   7.607  -5.179  1.00  0.00     0.029 A 
ATOM     52  C   UNL     1      -1.915   6.349  -5.192  1.00  0.00     0.049 A 
ATOM     53  H   UNL     1      -2.577   4.632  -4.182  1.00  0.00     0.167 HD
ATOM     54  C   UNL     1      -8.136   8.085  -6.794  1.00  0.00     0.037 A 
ATOM     55  C   UNL     1      -1.097   5.867  -6.172  1.00  0.00     0.037 A 
ATOM     56  C   UNL     1      -6.861   8.672  -7.253  1.00  0.00     0.049 A 
ATOM     57  C   UNL     1      -1.600   6.320  -7.531  1.00  0.00     0.074 A 
ATOM     58  C   UNL     1      -5.973   9.602  -6.735  1.00  0.00     0.029 A 
ATOM     59  N   UNL     1      -6.140   7.992  -8.224  1.00  0.00    -0.354 N 
ATOM     60  N   UNL     1      -2.685   7.027  -7.707  1.00  0.00    -0.248 NA
ATOM     61  C   UNL     1      -0.966   5.978  -8.796  1.00  0.00     0.031 C 
ATOM     62  C   UNL     1      -4.737   9.491  -7.449  1.00  0.00     0.029 A 
ATOM     63  C   UNL     1      -4.874   8.507  -8.412  1.00  0.00     0.049 A 
ATOM     64  H   UNL     1      -6.494   7.223  -8.727  1.00  0.00     0.167 HD
ATOM     65  C   UNL     1      -2.935   7.216  -9.037  1.00  0.00     0.074 A 
ATOM     66  C   UNL     1      -1.842   6.495  -9.679  1.00  0.00     0.031 C 
ATOM     67  C   UNL     1      -4.032   7.929  -9.462  1.00  0.00     0.037 A 
BRANCH  54  68
ATOM     68  C   UNL     1      -9.409   8.880  -6.582  1.00  0.00     0.064 A 
ATOM     69  C   UNL     1      -9.400  10.280  -6.758  1.00  0.00     0.173 A 
ATOM     70  C   UNL     1     -10.661   8.357  -6.193  1.00  0.00     0.173 A 
ATOM     71  F   UNL     1      -8.304  10.926  -7.177  1.00  0.00    -0.203 F 
ATOM     72  C   UNL     1     -10.521  11.081  -6.518  1.00  0.00     0.198 A 
ATOM     73  C   UNL     1     -11.774   9.160  -5.925  1.00  0.00     0.198 A 
ATOM     74  F   UNL     1     -10.895   7.048  -6.103  1.00  0.00    -0.203 F 
ATOM     75  F   UNL     1     -10.441  12.405  -6.707  1.00  0.00    -0.200 F 
ATOM     76  C   UNL     1     -11.706  10.523  -6.089  1.00  0.00     0.200 A 
ATOM     77  F   UNL     1     -12.918   8.589  -5.518  1.00  0.00    -0.200 F 
ATOM     78  F   UNL     1     -12.779  11.289  -5.857  1.00  0.00    -0.200 F 
ENDBRANCH  54  68
BRANCH  55  79
ATOM     79  C   UNL     1      -0.548   4.511  -5.815  1.00  0.00     0.064 A 
ATOM     80  C   UNL     1       0.293   4.413  -4.680  1.00  0.00     0.173 A 
ATOM     81  C   UNL     1      -1.128   3.319  -6.268  1.00  0.00     0.173 A 
ATOM     82  F   UNL     1       0.895   5.514  -4.202  1.00  0.00    -0.203 F 
ATOM     83  C   UNL     1       0.443   3.220  -3.967  1.00  0.00     0.198 A 
ATOM     84  C   UNL     1      -0.961   2.120  -5.561  1.00  0.00     0.198 A 
ATOM     85  F   UNL     1      -1.966   3.327  -7.314  1.00  0.00    -0.203 F 
ATOM     86  F   UNL     1       1.156   3.200  -2.831  1.00  0.00    -0.200 F 
ATOM     87  C   UNL     1      -0.201   2.076  -4.400  1.00  0.00     0.200 A 
ATOM     88  F   UNL     1      -1.641   1.026  -5.940  1.00  0.00    -0.200 F 
ATOM     89  F   UNL     1      -0.143   0.946  -3.679  1.00  0.00    -0.200 F 
ENDBRANCH  55  79
BRANCH  67  90
ATOM     90  C   UNL     1      -4.475   8.109 -10.908  1.00  0.00     0.064 A 
ATOM     91  C   UNL     1      -3.609   8.039 -12.004  1.00  0.00     0.173 A 
ATOM     92  C   UNL     1      -5.824   8.403 -11.252  1.00  0.00     0.173 A 
ATOM     93  F   UNL     1      -2.281   8.030 -11.842  1.00  0.00    -0.203 F 
ATOM     94  C   UNL     1      -4.075   8.061 -13.324  1.00  0.00     0.198 A 
ATOM     95  C   UNL     1      -6.282   8.468 -12.563  1.00  0.00     0.198 A 
ATOM     96  F   UNL     1      -6.774   8.660 -10.347  1.00  0.00    -0.203 F 
ATOM     97  F   UNL     1      -3.207   7.903 -14.332  1.00  0.00    -0.200 F 
ATOM     98  C   UNL     1      -5.414   8.255 -13.602  1.00  0.00     0.200 A 
ATOM     99  F   UNL     1      -7.576   8.734 -12.797  1.00  0.00    -0.200 F 
ATOM    100  F   UNL     1      -5.859   8.276 -14.864  1.00  0.00    -0.200 F 
ENDBRANCH  67  90
ENDBRANCH  41  42
ENDBRANCH  34  36
ENDBRANCH  33  34
ENDBRANCH  32  33
ENDBRANCH  31  32
ENDBRANCH   1  31
TORSDOF 17
