REMARK SMILES CC(C)=CC(=O)Nc1ccc(C(=O)OCCOC(=O)c2ccc(-c3c4nc(c(-c5c(F)c(F)c(F)c(F)c5F)c5ccc([nH]5)c(-c5c(F)c(F)c(F)c(F)c5F)c5nc(c(-c6c(F)c(F)c(F)c(F)c6F)c6ccc3[nH]6)C=C5)C=C4)cc2)cc1
REMARK SMILES IDX 15 1 14 2 12 3 13 4 11 5 8 6 9 7 84 8 10 9 83 10 7 11 5 12
REMARK SMILES IDX 6 13 4 15 1 16 2 17 3 18 16 19 17 20 18 21 19 22 20 23 21 24
REMARK SMILES IDX 82 25 22 26 81 27 23 28 24 29 25 30 75 31 26 32 80 33 74 34
REMARK SMILES IDX 76 35 27 36 79 37 73 38 72 39 28 41 60 42 40 43 59 44 41 45
REMARK SMILES IDX 44 46 58 47 77 48 42 49 43 50 57 52 78 53 45 54 29 55 30 56
REMARK SMILES IDX 38 57 31 58 32 59 36 60 39 61 33 62 34 63 37 64 35 65 61 66
REMARK SMILES IDX 62 67 70 68 63 69 64 70 68 71 71 72 65 73 66 74 69 75 67 76
REMARK SMILES IDX 46 77 47 78 55 79 48 80 49 81 53 82 56 83 50 84 51 85 54 86
REMARK SMILES IDX 52 87
REMARK H PARENT 7 14 76 40 44 51
REMARK Flexibility Score: inf
ROOT
ATOM      1  C   UNL     1       1.589   3.862   4.242  1.00  0.00     0.275 C 
ENDROOT
BRANCH   1   2
ATOM      2  O   UNL     1       2.042   2.892   3.277  1.00  0.00    -0.458 OA
BRANCH   2   3
ATOM      3  C   UNL     1       1.332   2.862   2.124  1.00  0.00     0.338 C 
ATOM      4  O   UNL     1       0.348   3.532   1.854  1.00  0.00    -0.246 OA
BRANCH   3   5
ATOM      5  C   UNL     1       1.922   1.915   1.154  1.00  0.00     0.060 A 
ATOM      6  C   UNL     1       2.491  -0.022  -0.760  1.00  0.00     0.041 A 
ATOM      7  C   UNL     1       2.156   1.264  -1.172  1.00  0.00     0.027 A 
ATOM      8  C   UNL     1       2.711  -0.289   0.597  1.00  0.00     0.027 A 
ATOM      9  C   UNL     1       1.815   2.211  -0.212  1.00  0.00     0.018 A 
ATOM     10  C   UNL     1       2.436   0.684   1.561  1.00  0.00     0.018 A 
BRANCH   6  11
ATOM     11  N   UNL     1       2.446  -1.024  -1.737  1.00  0.00    -0.323 N 
ATOM     12  C   UNL     1       1.876  -2.266  -1.655  1.00  0.00     0.248 C 
ATOM     13  O   UNL     1       1.969  -3.058  -2.591  1.00  0.00    -0.270 OA
ATOM     14  H   UNL     1       2.880  -0.807  -2.594  1.00  0.00     0.170 HD
BRANCH  12  15
ATOM     15  C   UNL     1       1.111  -2.662  -0.443  1.00  0.00     0.070 C 
ATOM     16  C   UNL     1      -0.662  -0.837  -0.513  1.00  0.00     0.039 C 
ATOM     17  C   UNL     1       0.027  -2.042   0.072  1.00  0.00    -0.071 C 
ATOM     18  C   UNL     1      -0.599  -2.540   1.347  1.00  0.00     0.039 C 
ENDBRANCH  12  15
ENDBRANCH   6  11
ENDBRANCH   3   5
ENDBRANCH   2   3
ENDBRANCH   1   2
BRANCH   1  19
ATOM     19  C   UNL     1       2.423   5.139   4.150  1.00  0.00     0.275 C 
BRANCH  19  20
ATOM     20  O   UNL     1       2.252   5.744   2.854  1.00  0.00    -0.458 OA
BRANCH  20  21
ATOM     21  C   UNL     1       3.377   5.936   2.133  1.00  0.00     0.338 C 
ATOM     22  O   UNL     1       4.530   5.718   2.482  1.00  0.00    -0.246 OA
BRANCH  21  23
ATOM     23  C   UNL     1       3.042   6.470   0.800  1.00  0.00     0.060 A 
ATOM     24  C   UNL     1       2.075   5.847   0.014  1.00  0.00     0.016 A 
ATOM     25  C   UNL     1       3.775   7.534   0.277  1.00  0.00     0.016 A 
ATOM     26  C   UNL     1       1.911   6.207  -1.323  1.00  0.00     0.010 A 
ATOM     27  C   UNL     1       3.525   7.973  -1.028  1.00  0.00     0.010 A 
ATOM     28  C   UNL     1       2.616   7.293  -1.860  1.00  0.00    -0.014 A 
BRANCH  28  29
ATOM     29  C   UNL     1       2.434   7.704  -3.283  1.00  0.00     0.031 A 
ATOM     30  C   UNL     1       3.627   7.799  -4.200  1.00  0.00     0.074 A 
ATOM     31  C   UNL     1       1.212   8.006  -3.768  1.00  0.00     0.049 A 
ATOM     32  N   UNL     1       3.729   8.371  -5.374  1.00  0.00    -0.248 NA
ATOM     33  C   UNL     1       4.875   7.182  -3.724  1.00  0.00     0.031 C 
ATOM     34  C   UNL     1      -0.046   7.912  -3.028  1.00  0.00     0.029 A 
ATOM     35  N   UNL     1       0.829   8.456  -5.010  1.00  0.00    -0.354 N 
ATOM     36  C   UNL     1       5.064   8.250  -5.740  1.00  0.00     0.074 A 
ATOM     37  C   UNL     1       5.732   7.537  -4.671  1.00  0.00     0.031 C 
ATOM     38  C   UNL     1      -1.061   8.252  -3.835  1.00  0.00     0.029 A 
ATOM     39  C   UNL     1      -0.521   8.688  -5.118  1.00  0.00     0.049 A 
ATOM     40  H   UNL     1       1.462   8.598  -5.751  1.00  0.00     0.167 HD
ATOM     41  C   UNL     1       5.676   8.700  -6.861  1.00  0.00     0.037 A 
ATOM     42  C   UNL     1      -1.243   9.241  -6.111  1.00  0.00     0.037 A 
ATOM     43  C   UNL     1       4.997   9.341  -7.958  1.00  0.00     0.049 A 
ATOM     44  C   UNL     1      -0.542   9.750  -7.338  1.00  0.00     0.074 A 
ATOM     45  C   UNL     1       5.528   9.808  -9.148  1.00  0.00     0.029 A 
ATOM     46  N   UNL     1       3.633   9.582  -8.007  1.00  0.00    -0.354 N 
ATOM     47  N   UNL     1       0.733   9.710  -7.637  1.00  0.00    -0.248 NA
ATOM     48  C   UNL     1      -1.377  10.413  -8.350  1.00  0.00     0.031 C 
ATOM     49  C   UNL     1       4.488  10.356  -9.907  1.00  0.00     0.029 A 
ATOM     50  C   UNL     1       3.306  10.201  -9.204  1.00  0.00     0.049 A 
ATOM     51  H   UNL     1       2.992   9.349  -7.298  1.00  0.00     0.167 HD
ATOM     52  C   UNL     1       0.855  10.344  -8.865  1.00  0.00     0.074 A 
ATOM     53  C   UNL     1      -0.479  10.735  -9.271  1.00  0.00     0.031 C 
ATOM     54  C   UNL     1       1.974  10.589  -9.587  1.00  0.00     0.037 A 
BRANCH  41  55
ATOM     55  C   UNL     1       7.166   8.551  -6.950  1.00  0.00     0.064 A 
ATOM     56  C   UNL     1       7.776   7.315  -7.205  1.00  0.00     0.173 A 
ATOM     57  C   UNL     1       7.992   9.679  -6.822  1.00  0.00     0.173 A 
ATOM     58  F   UNL     1       7.031   6.206  -7.321  1.00  0.00    -0.203 F 
ATOM     59  C   UNL     1       9.161   7.210  -7.308  1.00  0.00     0.198 A 
ATOM     60  C   UNL     1       9.374   9.574  -6.950  1.00  0.00     0.198 A 
ATOM     61  F   UNL     1       7.456  10.885  -6.583  1.00  0.00    -0.203 F 
ATOM     62  F   UNL     1       9.727   6.013  -7.515  1.00  0.00    -0.200 F 
ATOM     63  C   UNL     1       9.958   8.340  -7.188  1.00  0.00     0.200 A 
ATOM     64  F   UNL     1      10.140  10.669  -6.844  1.00  0.00    -0.200 F 
ATOM     65  F   UNL     1      11.290   8.237  -7.295  1.00  0.00    -0.200 F 
ENDBRANCH  41  55
BRANCH  42  66
ATOM     66  C   UNL     1      -2.713   9.394  -5.956  1.00  0.00     0.064 A 
ATOM     67  C   UNL     1      -3.601   8.628  -6.722  1.00  0.00     0.173 A 
ATOM     68  C   UNL     1      -3.257  10.297  -5.030  1.00  0.00     0.173 A 
ATOM     69  F   UNL     1      -3.127   7.773  -7.640  1.00  0.00    -0.203 F 
ATOM     70  C   UNL     1      -4.979   8.760  -6.569  1.00  0.00     0.198 A 
ATOM     71  C   UNL     1      -4.635  10.408  -4.858  1.00  0.00     0.198 A 
ATOM     72  F   UNL     1      -2.448  11.056  -4.277  1.00  0.00    -0.203 F 
ATOM     73  F   UNL     1      -5.809   8.040  -7.336  1.00  0.00    -0.200 F 
ATOM     74  C   UNL     1      -5.495   9.643  -5.630  1.00  0.00     0.200 A 
ATOM     75  F   UNL     1      -5.127  11.252  -3.941  1.00  0.00    -0.200 F 
ATOM     76  F   UNL     1      -6.820   9.759  -5.474  1.00  0.00    -0.200 F 
ENDBRANCH  42  66
BRANCH  54  77
ATOM     77  C   UNL     1       1.801  11.307 -10.890  1.00  0.00     0.064 A 
ATOM     78  C   UNL     1       1.558  12.688 -10.934  1.00  0.00     0.173 A 
ATOM     79  C   UNL     1       1.907  10.616 -12.106  1.00  0.00     0.173 A 
ATOM     80  F   UNL     1       1.430  13.386  -9.796  1.00  0.00    -0.203 F 
ATOM     81  C   UNL     1       1.410  13.348 -12.150  1.00  0.00     0.198 A 
ATOM     82  C   UNL     1       1.780  11.284 -13.320  1.00  0.00     0.198 A 
ATOM     83  F   UNL     1       2.141   9.296 -12.114  1.00  0.00    -0.203 F 
ATOM     84  F   UNL     1       1.141  14.661 -12.169  1.00  0.00    -0.200 F 
ATOM     85  C   UNL     1       1.526  12.648 -13.341  1.00  0.00     0.200 A 
ATOM     86  F   UNL     1       1.898  10.607 -14.471  1.00  0.00    -0.200 F 
ATOM     87  F   UNL     1       1.385  13.286 -14.511  1.00  0.00    -0.200 F 
ENDBRANCH  54  77
ENDBRANCH  28  29
ENDBRANCH  21  23
ENDBRANCH  20  21
ENDBRANCH  19  20
ENDBRANCH   1  19
TORSDOF 13
