REMARK SMILES Cc1nonc1C[C@@]1(C(=O)OCCOC(=O)c2ccc(-c3c4nc(c(-c5c(F)c(F)c(F)c(F)c5F)c5ccc([nH]5)c(-c5c(F)c(F)c(F)c(F)c5F)c5nc(c(-c6c(F)c(F)c(F)c(F)c6F)c6ccc3[nH]6)C=C5)C=C4)cc2)CCC[NH2+]C1
REMARK SMILES IDX 12 1 11 2 9 3 10 4 8 5 80 6 84 7 81 8 83 9 82 10 7 13 6 14
REMARK SMILES IDX 1 15 2 16 3 17 4 18 5 19 13 20 14 21 15 22 16 23 17 24 18 25
REMARK SMILES IDX 79 26 19 27 78 28 20 29 21 30 22 31 72 32 23 33 77 34 71 35
REMARK SMILES IDX 73 36 24 37 76 38 70 39 69 40 25 42 57 43 37 44 56 45 38 46
REMARK SMILES IDX 41 47 55 48 74 49 39 50 40 51 54 53 75 54 42 55 26 56 27 57
REMARK SMILES IDX 35 58 28 59 29 60 33 61 36 62 30 63 31 64 34 65 32 66 58 67
REMARK SMILES IDX 59 68 67 69 60 70 61 71 65 72 68 73 62 74 63 75 66 76 64 77
REMARK SMILES IDX 43 78 44 79 52 80 45 81 46 82 50 83 53 84 47 85 48 86 51 87
REMARK SMILES IDX 49 88
REMARK H PARENT 83 11 83 12 73 41 41 52
REMARK Flexibility Score: inf
ROOT
ATOM      1  C   UNL     1       1.730   2.431   1.417  1.00  0.00     0.274 C 
ENDROOT
BRANCH   1   2
ATOM      2  O   UNL     1       1.325   3.093   0.195  1.00  0.00    -0.461 OA
BRANCH   2   3
ATOM      3  C   UNL     1       0.347   2.464  -0.524  1.00  0.00     0.318 C 
ATOM      4  O   UNL     1      -0.151   1.397  -0.183  1.00  0.00    -0.251 OA
BRANCH   3   5
ATOM      5  C   UNL     1       0.002   3.202  -1.835  1.00  0.00     0.122 C 
ATOM      6  C   UNL     1      -1.499   3.104  -2.218  1.00  0.00     0.031 C 
ATOM      7  C   UNL     1       0.811   2.503  -2.959  1.00  0.00     0.279 C 
ATOM      8  C   UNL     1      -1.950   1.688  -2.576  1.00  0.00     0.063 C 
ATOM      9  N   UNL     1       0.374   1.137  -3.251  1.00  0.00    -0.345 N 
ATOM     10  C   UNL     1      -1.037   1.056  -3.619  1.00  0.00     0.260 C 
ATOM     11  H   UNL     1       0.933   0.775  -4.025  1.00  0.00     0.346 HD
ATOM     12  H   UNL     1       0.501   0.587  -2.401  1.00  0.00     0.346 HD
BRANCH   5  13
ATOM     13  C   UNL     1       0.443   4.695  -1.788  1.00  0.00     0.086 C 
BRANCH  13  14
ATOM     14  C   UNL     1      -0.144   5.591  -0.740  1.00  0.00     0.109 A 
ATOM     15  C   UNL     1       1.315   7.757  -0.948  1.00  0.00     0.073 C 
ATOM     16  C   UNL     1       0.240   6.907  -0.400  1.00  0.00     0.105 A 
ATOM     17  N   UNL     1      -0.548   7.365   0.575  1.00  0.00    -0.055 NA
ATOM     18  O   UNL     1      -1.425   6.325   0.849  1.00  0.00    -0.244 OA
ATOM     19  N   UNL     1      -1.171   5.233   0.031  1.00  0.00    -0.055 NA
ENDBRANCH  13  14
ENDBRANCH   5  13
ENDBRANCH   3   5
ENDBRANCH   2   3
ENDBRANCH   1   2
BRANCH   1  20
ATOM     20  C   UNL     1       0.893   2.884   2.620  1.00  0.00     0.275 C 
BRANCH  20  21
ATOM     21  O   UNL     1      -0.476   2.528   2.396  1.00  0.00    -0.458 OA
BRANCH  21  22
ATOM     22  C   UNL     1      -1.400   3.115   3.190  1.00  0.00     0.338 C 
ATOM     23  O   UNL     1      -1.188   3.773   4.193  1.00  0.00    -0.246 OA
BRANCH  22  24
ATOM     24  C   UNL     1      -2.749   2.850   2.624  1.00  0.00     0.060 A 
ATOM     25  C   UNL     1      -2.907   2.703   1.246  1.00  0.00     0.016 A 
ATOM     26  C   UNL     1      -3.879   2.818   3.440  1.00  0.00     0.016 A 
ATOM     27  C   UNL     1      -4.165   2.572   0.668  1.00  0.00     0.010 A 
ATOM     28  C   UNL     1      -5.146   2.618   2.869  1.00  0.00     0.010 A 
ATOM     29  C   UNL     1      -5.303   2.515   1.473  1.00  0.00    -0.014 A 
BRANCH  29  30
ATOM     30  C   UNL     1      -6.643   2.439   0.833  1.00  0.00     0.031 A 
ATOM     31  C   UNL     1      -7.606   3.583   0.985  1.00  0.00     0.074 A 
ATOM     32  C   UNL     1      -6.980   1.392   0.053  1.00  0.00     0.049 A 
ATOM     33  N   UNL     1      -8.863   3.666   0.626  1.00  0.00    -0.248 NA
ATOM     34  C   UNL     1      -7.083   4.798   1.628  1.00  0.00     0.031 C 
ATOM     35  C   UNL     1      -6.116   0.254  -0.263  1.00  0.00     0.029 A 
ATOM     36  N   UNL     1      -8.142   1.125  -0.632  1.00  0.00    -0.354 N 
ATOM     37  C   UNL     1      -9.293   4.918   1.046  1.00  0.00     0.074 A 
ATOM     38  C   UNL     1      -8.165   5.561   1.684  1.00  0.00     0.031 C 
ATOM     39  C   UNL     1      -6.765  -0.572  -1.099  1.00  0.00     0.029 A 
ATOM     40  C   UNL     1      -8.115  -0.063  -1.320  1.00  0.00     0.049 A 
ATOM     41  H   UNL     1      -8.919   1.729  -0.629  1.00  0.00     0.167 HD
ATOM     42  C   UNL     1     -10.519   5.477   0.913  1.00  0.00     0.037 A 
ATOM     43  C   UNL     1      -9.080  -0.689  -2.020  1.00  0.00     0.037 A 
ATOM     44  C   UNL     1     -11.630   4.860   0.237  1.00  0.00     0.049 A 
ATOM     45  C   UNL     1     -10.447  -0.068  -2.114  1.00  0.00     0.074 A 
ATOM     46  C   UNL     1     -12.919   5.339   0.075  1.00  0.00     0.029 A 
ATOM     47  N   UNL     1     -11.576   3.634  -0.408  1.00  0.00    -0.354 N 
ATOM     48  N   UNL     1     -10.872   1.077  -1.639  1.00  0.00    -0.248 NA
ATOM     49  C   UNL     1     -11.476  -0.838  -2.828  1.00  0.00     0.031 C 
ATOM     50  C   UNL     1     -13.652   4.390  -0.647  1.00  0.00     0.029 A 
ATOM     51  C   UNL     1     -12.809   3.339  -0.968  1.00  0.00     0.049 A 
ATOM     52  H   UNL     1     -10.779   3.059  -0.462  1.00  0.00     0.167 HD
ATOM     53  C   UNL     1     -12.208   1.171  -2.005  1.00  0.00     0.074 A 
ATOM     54  C   UNL     1     -12.518  -0.022  -2.765  1.00  0.00     0.031 C 
ATOM     55  C   UNL     1     -13.101   2.151  -1.727  1.00  0.00     0.037 A 
BRANCH  42  56
ATOM     56  C   UNL     1     -10.734   6.814   1.557  1.00  0.00     0.064 A 
ATOM     57  C   UNL     1     -10.201   7.992   1.017  1.00  0.00     0.173 A 
ATOM     58  C   UNL     1     -11.501   6.913   2.728  1.00  0.00     0.173 A 
ATOM     59  F   UNL     1      -9.446   7.946  -0.090  1.00  0.00    -0.203 F 
ATOM     60  C   UNL     1     -10.407   9.221   1.641  1.00  0.00     0.198 A 
ATOM     61  C   UNL     1     -11.726   8.145   3.335  1.00  0.00     0.198 A 
ATOM     62  F   UNL     1     -12.035   5.814   3.282  1.00  0.00    -0.203 F 
ATOM     63  F   UNL     1      -9.851  10.330   1.134  1.00  0.00    -0.200 F 
ATOM     64  C   UNL     1     -11.174   9.297   2.795  1.00  0.00     0.200 A 
ATOM     65  F   UNL     1     -12.476   8.218   4.444  1.00  0.00    -0.200 F 
ATOM     66  F   UNL     1     -11.374  10.480   3.391  1.00  0.00    -0.200 F 
ENDBRANCH  42  56
BRANCH  43  67
ATOM     67  C   UNL     1      -8.807  -2.004  -2.658  1.00  0.00     0.064 A 
ATOM     68  C   UNL     1      -8.785  -2.140  -4.053  1.00  0.00     0.173 A 
ATOM     69  C   UNL     1      -8.593  -3.156  -1.887  1.00  0.00     0.173 A 
ATOM     70  F   UNL     1      -9.016  -1.073  -4.833  1.00  0.00    -0.203 F 
ATOM     71  C   UNL     1      -8.577  -3.381  -4.652  1.00  0.00     0.198 A 
ATOM     72  C   UNL     1      -8.355  -4.391  -2.486  1.00  0.00     0.198 A 
ATOM     73  F   UNL     1      -8.612  -3.082  -0.548  1.00  0.00    -0.203 F 
ATOM     74  F   UNL     1      -8.612  -3.492  -5.987  1.00  0.00    -0.200 F 
ATOM     75  C   UNL     1      -8.355  -4.503  -3.868  1.00  0.00     0.200 A 
ATOM     76  F   UNL     1      -8.133  -5.471  -1.726  1.00  0.00    -0.200 F 
ATOM     77  F   UNL     1      -8.155  -5.696  -4.445  1.00  0.00    -0.200 F 
ENDBRANCH  43  67
BRANCH  55  78
ATOM     78  C   UNL     1     -14.488   1.988  -2.278  1.00  0.00     0.064 A 
ATOM     79  C   UNL     1     -15.383   1.048  -1.747  1.00  0.00     0.173 A 
ATOM     80  C   UNL     1     -14.929   2.788  -3.342  1.00  0.00     0.173 A 
ATOM     81  F   UNL     1     -15.002   0.247  -0.739  1.00  0.00    -0.203 F 
ATOM     82  C   UNL     1     -16.659   0.893  -2.282  1.00  0.00     0.198 A 
ATOM     83  C   UNL     1     -16.214   2.649  -3.858  1.00  0.00     0.198 A 
ATOM     84  F   UNL     1     -14.113   3.705  -3.883  1.00  0.00    -0.203 F 
ATOM     85  F   UNL     1     -17.479  -0.048  -1.794  1.00  0.00    -0.200 F 
ATOM     86  C   UNL     1     -17.075   1.696  -3.334  1.00  0.00     0.200 A 
ATOM     87  F   UNL     1     -16.618   3.431  -4.868  1.00  0.00    -0.200 F 
ATOM     88  F   UNL     1     -18.302   1.543  -3.850  1.00  0.00    -0.200 F 
ENDBRANCH  55  78
ENDBRANCH  29  30
ENDBRANCH  22  24
ENDBRANCH  21  22
ENDBRANCH  20  21
ENDBRANCH   1  20
TORSDOF 13
