REMARK SMILES CCSc1ccc(-c2cc(Cl)cc3c2O[C@H](C(F)(F)F)C(C(=O)OCCOC(=O)c2ccc(-c4c5nc(c(-c6c(F)c(F)c(F)c(F)c6F)c6ccc([nH]6)c(-c6c(F)c(F)c(F)c(F)c6F)c6nc(c(-c7c(F)c(F)c(F)c(F)c7F)c7ccc4[nH]7)C=C6)C=C5)cc2)=C3)cc1
REMARK SMILES IDX 25 1 24 2 22 3 23 4 21 5 8 6 9 7 14 8 10 9 13 10 15 11 11 12
REMARK SMILES IDX 12 13 93 14 16 15 7 16 4 17 5 18 95 19 6 20 94 21 3 22 2 23
REMARK SMILES IDX 1 24 17 25 18 26 19 27 20 28 26 29 27 30 28 31 29 32 30 33
REMARK SMILES IDX 31 34 92 35 32 36 91 37 33 38 34 39 35 40 85 41 36 42 90 43
REMARK SMILES IDX 84 44 86 45 37 46 89 47 83 48 82 49 38 51 70 52 50 53 69 54
REMARK SMILES IDX 51 55 54 56 68 57 87 58 52 59 53 60 67 62 88 63 55 64 39 65
REMARK SMILES IDX 40 66 48 67 41 68 42 69 46 70 49 71 43 72 44 73 47 74 45 75
REMARK SMILES IDX 71 76 72 77 80 78 73 79 74 80 78 81 81 82 75 83 76 84 79 85
REMARK SMILES IDX 77 86 56 87 57 88 65 89 58 90 59 91 63 92 66 93 60 94 61 95
REMARK SMILES IDX 64 96 62 97
REMARK H PARENT 86 50 54 61
REMARK Flexibility Score: inf
ROOT
ATOM      1  C   UNL     1      13.865  -2.323   2.973  1.00  0.00     0.275 C 
ENDROOT
BRANCH   1   2
ATOM      2  O   UNL     1      12.842  -1.569   3.674  1.00  0.00    -0.459 OA
BRANCH   2   3
ATOM      3  C   UNL     1      12.822  -0.260   3.308  1.00  0.00     0.338 C 
ATOM      4  O   UNL     1      13.607   0.241   2.509  1.00  0.00    -0.246 OA
BRANCH   3   5
ATOM      5  C   UNL     1      11.702   0.525   3.885  1.00  0.00     0.087 C 
ATOM      6  C   UNL     1       7.830  -0.281   2.885  1.00  0.00     0.026 A 
ATOM      7  C   UNL     1       8.043  -0.925   1.644  1.00  0.00     0.033 A 
ATOM      8  C   UNL     1       8.983   0.337   3.395  1.00  0.00     0.135 A 
ATOM      9  C   UNL     1       9.217  -0.809   0.890  1.00  0.00     0.042 A 
ATOM     10  C   UNL     1      10.029   0.690   2.502  1.00  0.00     0.019 A 
ATOM     11  O   UNL     1       9.315   0.419   4.748  1.00  0.00    -0.475 OA
ATOM     12  Cl  UNL     1       9.600  -1.782  -0.469  1.00  0.00    -0.084 Cl
ATOM     13  C   UNL     1      10.158   0.113   1.255  1.00  0.00     0.032 A 
ATOM     14  C   UNL     1      11.197   1.422   3.023  1.00  0.00     0.027 C 
ATOM     15  C   UNL     1      10.780   0.079   5.004  1.00  0.00     0.316 C 
BRANCH   6  16
ATOM     16  C   UNL     1       6.379  -0.198   3.297  1.00  0.00    -0.015 A 
ATOM     17  C   UNL     1       3.464  -0.346   3.318  1.00  0.00     0.007 A 
ATOM     18  C   UNL     1       4.261  -1.290   3.977  1.00  0.00     0.015 A 
ATOM     19  C   UNL     1       4.133   0.692   2.672  1.00  0.00     0.015 A 
ATOM     20  C   UNL     1       5.681  -1.190   4.003  1.00  0.00     0.010 A 
ATOM     21  C   UNL     1       5.552   0.749   2.648  1.00  0.00     0.010 A 
BRANCH  17  22
ATOM     22  S   UNL     1       1.702  -0.304   3.674  1.00  0.00    -0.126 SA
BRANCH  22  23
ATOM     23  C   UNL     1       0.791  -0.463   2.087  1.00  0.00     0.071 C 
ATOM     24  C   UNL     1       1.047   0.648   1.096  1.00  0.00     0.016 C 
ENDBRANCH  22  23
ENDBRANCH  17  22
ENDBRANCH   6  16
BRANCH  15  25
ATOM     25  C   UNL     1      11.312   0.793   6.256  1.00  0.00     0.430 C 
ATOM     26  F   UNL     1      11.163   2.138   6.166  1.00  0.00    -0.167 F 
ATOM     27  F   UNL     1      10.698   0.384   7.385  1.00  0.00    -0.167 F 
ATOM     28  F   UNL     1      12.640   0.557   6.419  1.00  0.00    -0.167 F 
ENDBRANCH  15  25
ENDBRANCH   3   5
ENDBRANCH   2   3
ENDBRANCH   1   2
BRANCH   1  29
ATOM     29  C   UNL     1      13.625  -3.836   2.990  1.00  0.00     0.275 C 
BRANCH  29  30
ATOM     30  O   UNL     1      12.325  -4.166   2.465  1.00  0.00    -0.458 OA
BRANCH  30  31
ATOM     31  C   UNL     1      11.364  -4.280   3.416  1.00  0.00     0.338 C 
ATOM     32  O   UNL     1      11.528  -4.187   4.617  1.00  0.00    -0.246 OA
BRANCH  31  33
ATOM     33  C   UNL     1      10.015  -4.388   2.801  1.00  0.00     0.060 A 
ATOM     34  C   UNL     1       8.967  -3.854   3.540  1.00  0.00     0.016 A 
ATOM     35  C   UNL     1       9.737  -4.984   1.563  1.00  0.00     0.016 A 
ATOM     36  C   UNL     1       7.675  -3.873   3.015  1.00  0.00     0.010 A 
ATOM     37  C   UNL     1       8.419  -4.982   1.037  1.00  0.00     0.010 A 
ATOM     38  C   UNL     1       7.367  -4.388   1.742  1.00  0.00    -0.014 A 
BRANCH  38  39
ATOM     39  C   UNL     1       5.926  -4.311   1.293  1.00  0.00     0.031 A 
ATOM     40  C   UNL     1       4.891  -5.007   2.127  1.00  0.00     0.074 A 
ATOM     41  C   UNL     1       5.479  -3.484   0.317  1.00  0.00     0.049 A 
ATOM     42  N   UNL     1       3.588  -4.908   2.083  1.00  0.00    -0.248 NA
ATOM     43  C   UNL     1       5.396  -5.932   3.151  1.00  0.00     0.031 C 
ATOM     44  C   UNL     1       6.335  -2.707  -0.555  1.00  0.00     0.029 A 
ATOM     45  N   UNL     1       4.215  -3.069  -0.056  1.00  0.00    -0.354 N 
ATOM     46  C   UNL     1       3.118  -5.750   3.075  1.00  0.00     0.074 A 
ATOM     47  C   UNL     1       4.274  -6.331   3.725  1.00  0.00     0.031 C 
ATOM     48  C   UNL     1       5.625  -1.761  -1.186  1.00  0.00     0.029 A 
ATOM     49  C   UNL     1       4.210  -2.015  -0.957  1.00  0.00     0.049 A 
ATOM     50  H   UNL     1       3.391  -3.484   0.287  1.00  0.00     0.167 HD
ATOM     51  C   UNL     1       1.837  -6.055   3.383  1.00  0.00     0.037 A 
ATOM     52  C   UNL     1       3.202  -1.367  -1.588  1.00  0.00     0.037 A 
ATOM     53  C   UNL     1       0.688  -5.573   2.664  1.00  0.00     0.049 A 
ATOM     54  C   UNL     1       1.808  -1.900  -1.390  1.00  0.00     0.074 A 
ATOM     55  C   UNL     1      -0.643  -5.883   2.870  1.00  0.00     0.029 A 
ATOM     56  N   UNL     1       0.735  -4.718   1.571  1.00  0.00    -0.354 N 
ATOM     57  N   UNL     1       1.383  -2.792  -0.530  1.00  0.00    -0.248 NA
ATOM     58  C   UNL     1       0.761  -1.389  -2.286  1.00  0.00     0.031 C 
ATOM     59  C   UNL     1      -1.392  -5.286   1.851  1.00  0.00     0.029 A 
ATOM     60  C   UNL     1      -0.544  -4.518   1.069  1.00  0.00     0.049 A 
ATOM     61  H   UNL     1       1.554  -4.313   1.205  1.00  0.00     0.167 HD
ATOM     62  C   UNL     1       0.017  -2.914  -0.741  1.00  0.00     0.074 A 
ATOM     63  C   UNL     1      -0.312  -2.030  -1.840  1.00  0.00     0.031 C 
ATOM     64  C   UNL     1      -0.878  -3.658  -0.044  1.00  0.00     0.037 A 
BRANCH  51  65
ATOM     65  C   UNL     1       1.651  -7.072   4.468  1.00  0.00     0.064 A 
ATOM     66  C   UNL     1       1.929  -6.784   5.813  1.00  0.00     0.173 A 
ATOM     67  C   UNL     1       1.277  -8.383   4.136  1.00  0.00     0.173 A 
ATOM     68  F   UNL     1       2.330  -5.555   6.171  1.00  0.00    -0.203 F 
ATOM     69  C   UNL     1       1.883  -7.786   6.779  1.00  0.00     0.198 A 
ATOM     70  C   UNL     1       1.202  -9.373   5.110  1.00  0.00     0.198 A 
ATOM     71  F   UNL     1       1.016  -8.710   2.862  1.00  0.00    -0.203 F 
ATOM     72  F   UNL     1       2.235  -7.511   8.043  1.00  0.00    -0.200 F 
ATOM     73  C   UNL     1       1.520  -9.078   6.427  1.00  0.00     0.200 A 
ATOM     74  F   UNL     1       0.854 -10.620   4.767  1.00  0.00    -0.200 F 
ATOM     75  F   UNL     1       1.501 -10.046   7.353  1.00  0.00    -0.200 F 
ENDBRANCH  51  65
BRANCH  52  76
ATOM     76  C   UNL     1       3.462  -0.234  -2.544  1.00  0.00     0.064 A 
ATOM     77  C   UNL     1       2.919   1.051  -2.361  1.00  0.00     0.173 A 
ATOM     78  C   UNL     1       4.246  -0.413  -3.694  1.00  0.00     0.173 A 
ATOM     79  F   UNL     1       2.082   1.297  -1.350  1.00  0.00    -0.203 F 
ATOM     80  C   UNL     1       3.177   2.101  -3.246  1.00  0.00     0.198 A 
ATOM     81  C   UNL     1       4.527   0.642  -4.566  1.00  0.00     0.198 A 
ATOM     82  F   UNL     1       4.754  -1.621  -3.976  1.00  0.00    -0.203 F 
ATOM     83  F   UNL     1       2.615   3.301  -3.039  1.00  0.00    -0.200 F 
ATOM     84  C   UNL     1       3.994   1.899  -4.341  1.00  0.00     0.200 A 
ATOM     85  F   UNL     1       5.316   0.433  -5.629  1.00  0.00    -0.200 F 
ATOM     86  F   UNL     1       4.251   2.907  -5.186  1.00  0.00    -0.200 F 
ENDBRANCH  52  76
BRANCH  64  87
ATOM     87  C   UNL     1      -2.334  -3.490  -0.383  1.00  0.00     0.064 A 
ATOM     88  C   UNL     1      -2.894  -3.946  -1.584  1.00  0.00     0.173 A 
ATOM     89  C   UNL     1      -3.193  -2.886   0.551  1.00  0.00     0.173 A 
ATOM     90  F   UNL     1      -2.118  -4.511  -2.521  1.00  0.00    -0.203 F 
ATOM     91  C   UNL     1      -4.254  -3.786  -1.845  1.00  0.00     0.198 A 
ATOM     92  C   UNL     1      -4.557  -2.766   0.305  1.00  0.00     0.198 A 
ATOM     93  F   UNL     1      -2.708  -2.423   1.714  1.00  0.00    -0.203 F 
ATOM     94  F   UNL     1      -4.760  -4.179  -3.023  1.00  0.00    -0.200 F 
ATOM     95  C   UNL     1      -5.086  -3.208  -0.896  1.00  0.00     0.200 A 
ATOM     96  F   UNL     1      -5.357  -2.222   1.232  1.00  0.00    -0.200 F 
ATOM     97  F   UNL     1      -6.395  -3.068  -1.144  1.00  0.00    -0.200 F 
ENDBRANCH  64  87
ENDBRANCH  38  39
ENDBRANCH  31  33
ENDBRANCH  30  31
ENDBRANCH  29  30
ENDBRANCH   1  29
TORSDOF 15
