REMARK SMILES C[C@H](c1ccc(C(=O)OCCOC(=O)c2ccc(-c3c4nc(c(-c5c(F)c(F)c(F)c(F)c5F)c5ccc([nH]5)c(-c5c(F)c(F)c(F)c(F)c5F)c5nc(c(-c6c(F)c(F)c(F)c(F)c6F)c6ccc3[nH]6)C=C5)C=C4)cc2)o1)[NH+]1Cc2ccccc2C1
REMARK SMILES IDX 10 1 9 2 7 3 8 4 6 5 3 6 4 7 78 8 5 9 2 10 1 11 79 12 80 13
REMARK SMILES IDX 87 14 81 16 86 17 82 18 85 19 83 20 84 21 11 22 12 23 13 24
REMARK SMILES IDX 14 25 15 26 16 27 77 28 17 29 76 30 18 31 19 32 20 33 70 34
REMARK SMILES IDX 21 35 75 36 69 37 71 38 22 39 74 40 68 41 67 42 23 44 55 45
REMARK SMILES IDX 35 46 54 47 36 48 39 49 53 50 72 51 37 52 38 53 52 55 73 56
REMARK SMILES IDX 40 57 24 58 25 59 33 60 26 61 27 62 31 63 34 64 28 65 29 66
REMARK SMILES IDX 32 67 30 68 56 69 57 70 65 71 58 72 59 73 63 74 66 75 60 76
REMARK SMILES IDX 61 77 64 78 62 79 41 80 42 81 50 82 43 83 44 84 48 85 51 86
REMARK SMILES IDX 45 87 46 88 49 89 47 90
REMARK H PARENT 79 15 71 43 39 54
REMARK Flexibility Score: inf
ROOT
ATOM      1  C   UNL     1       3.380   0.025  -5.498  1.00  0.00     0.275 C 
ENDROOT
BRANCH   1   2
ATOM      2  O   UNL     1       2.581   0.559  -4.432  1.00  0.00    -0.456 OA
BRANCH   2   3
ATOM      3  C   UNL     1       1.748  -0.298  -3.778  1.00  0.00     0.374 C 
ATOM      4  O   UNL     1       1.415  -1.407  -4.195  1.00  0.00    -0.242 OA
BRANCH   3   5
ATOM      5  C   UNL     1       1.464   0.245  -2.472  1.00  0.00     0.212 A 
ATOM      6  C   UNL     1       0.762   0.189  -0.379  1.00  0.00     0.162 A 
ATOM      7  C   UNL     1       1.618   1.270  -0.492  1.00  0.00     0.053 A 
ATOM      8  O   UNL     1       0.682  -0.457  -1.583  1.00  0.00    -0.448 OA
ATOM      9  C   UNL     1       1.976   1.367  -1.846  1.00  0.00     0.059 A 
BRANCH   6  10
ATOM     10  C   UNL     1      -0.045  -0.350   0.791  1.00  0.00     0.248 C 
ATOM     11  C   UNL     1       0.884  -0.460   2.019  1.00  0.00     0.084 C 
BRANCH  10  12
ATOM     12  N   UNL     1      -1.325   0.403   0.941  1.00  0.00    -0.319 N 
ATOM     13  C   UNL     1      -1.126   1.865   1.030  1.00  0.00     0.300 C 
ATOM     14  C   UNL     1      -2.101   0.084   2.188  1.00  0.00     0.300 C 
ATOM     15  H   UNL     1      -1.829   0.113   0.103  1.00  0.00     0.349 HD
ATOM     16  C   UNL     1      -1.030   2.152   2.483  1.00  0.00     0.015 A 
ATOM     17  C   UNL     1      -1.812   1.211   3.145  1.00  0.00     0.015 A 
ATOM     18  C   UNL     1      -0.331   3.131   3.158  1.00  0.00     0.010 A 
ATOM     19  C   UNL     1      -2.150   1.402   4.468  1.00  0.00     0.010 A 
ATOM     20  C   UNL     1      -0.563   3.257   4.523  1.00  0.00     0.001 A 
ATOM     21  C   UNL     1      -1.526   2.451   5.156  1.00  0.00     0.001 A 
ENDBRANCH  10  12
ENDBRANCH   6  10
ENDBRANCH   3   5
ENDBRANCH   2   3
ENDBRANCH   1   2
BRANCH   1  22
ATOM     22  C   UNL     1       4.819  -0.162  -5.009  1.00  0.00     0.275 C 
BRANCH  22  23
ATOM     23  O   UNL     1       4.906  -1.255  -4.071  1.00  0.00    -0.458 OA
BRANCH  23  24
ATOM     24  C   UNL     1       4.924  -0.905  -2.759  1.00  0.00     0.338 C 
ATOM     25  O   UNL     1       4.915   0.210  -2.292  1.00  0.00    -0.246 OA
BRANCH  24  26
ATOM     26  C   UNL     1       4.835  -2.128  -1.937  1.00  0.00     0.060 A 
ATOM     27  C   UNL     1       3.704  -2.307  -1.139  1.00  0.00     0.016 A 
ATOM     28  C   UNL     1       5.875  -3.057  -1.902  1.00  0.00     0.016 A 
ATOM     29  C   UNL     1       3.598  -3.414  -0.303  1.00  0.00     0.010 A 
ATOM     30  C   UNL     1       5.769  -4.174  -1.064  1.00  0.00     0.010 A 
ATOM     31  C   UNL     1       4.631  -4.356  -0.257  1.00  0.00    -0.014 A 
BRANCH  31  32
ATOM     32  C   UNL     1       4.526  -5.511   0.667  1.00  0.00     0.031 A 
ATOM     33  C   UNL     1       5.358  -5.551   1.915  1.00  0.00     0.074 A 
ATOM     34  C   UNL     1       3.661  -6.506   0.398  1.00  0.00     0.049 A 
ATOM     35  N   UNL     1       5.463  -6.499   2.812  1.00  0.00    -0.248 NA
ATOM     36  C   UNL     1       6.182  -4.365   2.192  1.00  0.00     0.031 C 
ATOM     37  C   UNL     1       2.764  -6.553  -0.756  1.00  0.00     0.029 A 
ATOM     38  N   UNL     1       3.397  -7.670   1.076  1.00  0.00    -0.354 N 
ATOM     39  C   UNL     1       6.376  -6.033   3.748  1.00  0.00     0.074 A 
ATOM     40  C   UNL     1       6.810  -4.726   3.302  1.00  0.00     0.031 C 
ATOM     41  C   UNL     1       2.047  -7.687  -0.707  1.00  0.00     0.029 A 
ATOM     42  C   UNL     1       2.469  -8.468   0.453  1.00  0.00     0.049 A 
ATOM     43  H   UNL     1       3.831  -7.909   1.927  1.00  0.00     0.167 HD
ATOM     44  C   UNL     1       6.807  -6.643   4.879  1.00  0.00     0.037 A 
ATOM     45  C   UNL     1       2.032  -9.702   0.767  1.00  0.00     0.037 A 
ATOM     46  C   UNL     1       6.360  -7.938   5.324  1.00  0.00     0.049 A 
ATOM     47  C   UNL     1       2.580 -10.386   1.991  1.00  0.00     0.074 A 
ATOM     48  C   UNL     1       6.724  -8.632   6.464  1.00  0.00     0.029 A 
ATOM     49  N   UNL     1       5.451  -8.736   4.644  1.00  0.00    -0.354 N 
ATOM     50  N   UNL     1       3.443  -9.940   2.872  1.00  0.00    -0.248 NA
ATOM     51  C   UNL     1       2.099 -11.748   2.260  1.00  0.00     0.031 C 
ATOM     52  C   UNL     1       6.073  -9.870   6.450  1.00  0.00     0.029 A 
ATOM     53  C   UNL     1       5.264  -9.928   5.327  1.00  0.00     0.049 A 
ATOM     54  H   UNL     1       5.005  -8.493   3.801  1.00  0.00     0.167 HD
ATOM     55  C   UNL     1       3.594 -10.955   3.807  1.00  0.00     0.074 A 
ATOM     56  C   UNL     1       2.718 -12.033   3.397  1.00  0.00     0.031 C 
ATOM     57  C   UNL     1       4.389 -10.992   4.904  1.00  0.00     0.037 A 
BRANCH  44  58
ATOM     58  C   UNL     1       7.840  -5.929   5.700  1.00  0.00     0.064 A 
ATOM     59  C   UNL     1       7.526  -4.791   6.458  1.00  0.00     0.173 A 
ATOM     60  C   UNL     1       9.156  -6.412   5.756  1.00  0.00     0.173 A 
ATOM     61  F   UNL     1       6.286  -4.281   6.429  1.00  0.00    -0.203 F 
ATOM     62  C   UNL     1       8.498  -4.149   7.222  1.00  0.00     0.198 A 
ATOM     63  C   UNL     1      10.118  -5.785   6.542  1.00  0.00     0.198 A 
ATOM     64  F   UNL     1       9.507  -7.500   5.053  1.00  0.00    -0.203 F 
ATOM     65  F   UNL     1       8.188  -3.038   7.904  1.00  0.00    -0.200 F 
ATOM     66  C   UNL     1       9.791  -4.650   7.269  1.00  0.00     0.200 A 
ATOM     67  F   UNL     1      11.364  -6.277   6.595  1.00  0.00    -0.200 F 
ATOM     68  F   UNL     1      10.724  -4.035   8.009  1.00  0.00    -0.200 F 
ENDBRANCH  44  58
BRANCH  45  69
ATOM     69  C   UNL     1       1.042 -10.383  -0.107  1.00  0.00     0.064 A 
ATOM     70  C   UNL     1      -0.262 -10.637   0.336  1.00  0.00     0.173 A 
ATOM     71  C   UNL     1       1.385 -10.802  -1.402  1.00  0.00     0.173 A 
ATOM     72  F   UNL     1      -0.629 -10.282   1.577  1.00  0.00    -0.203 F 
ATOM     73  C   UNL     1      -1.183 -11.297  -0.476  1.00  0.00     0.198 A 
ATOM     74  C   UNL     1       0.455 -11.435  -2.224  1.00  0.00     0.198 A 
ATOM     75  F   UNL     1       2.622 -10.587  -1.872  1.00  0.00    -0.203 F 
ATOM     76  F   UNL     1      -2.409 -11.570  -0.010  1.00  0.00    -0.200 F 
ATOM     77  C   UNL     1      -0.825 -11.689  -1.758  1.00  0.00     0.200 A 
ATOM     78  F   UNL     1       0.802 -11.803  -3.465  1.00  0.00    -0.200 F 
ATOM     79  F   UNL     1      -1.712 -12.321  -2.539  1.00  0.00    -0.200 F 
ENDBRANCH  45  69
BRANCH  57  80
ATOM     80  C   UNL     1       4.330 -12.229   5.752  1.00  0.00     0.064 A 
ATOM     81  C   UNL     1       4.892 -13.441   5.323  1.00  0.00     0.173 A 
ATOM     82  C   UNL     1       3.733 -12.194   7.021  1.00  0.00     0.173 A 
ATOM     83  F   UNL     1       5.459 -13.530   4.111  1.00  0.00    -0.203 F 
ATOM     84  C   UNL     1       4.837 -14.578   6.125  1.00  0.00     0.198 A 
ATOM     85  C   UNL     1       3.706 -13.326   7.832  1.00  0.00     0.198 A 
ATOM     86  F   UNL     1       3.186 -11.059   7.481  1.00  0.00    -0.203 F 
ATOM     87  F   UNL     1       5.339 -15.737   5.675  1.00  0.00    -0.200 F 
ATOM     88  C   UNL     1       4.251 -14.518   7.380  1.00  0.00     0.200 A 
ATOM     89  F   UNL     1       3.150 -13.262   9.050  1.00  0.00    -0.200 F 
ATOM     90  F   UNL     1       4.204 -15.612   8.152  1.00  0.00    -0.200 F 
ENDBRANCH  57  80
ENDBRANCH  31  32
ENDBRANCH  24  26
ENDBRANCH  23  24
ENDBRANCH  22  23
ENDBRANCH   1  22
TORSDOF 13
