REMARK SMILES C[NH2+]CCC(=O)N1CC[C@@H](C(=O)OCCOC(=O)c2ccc(-c3c4nc(c(-c5c(F)c(F)c(F)c(F)c5F)c5ccc([nH]5)c(-c5c(F)c(F)c(F)c(F)c5F)c5nc(c(-c6c(F)c(F)c(F)c(F)c6F)c6ccc3[nH]6)C=C5)C=C4)cc2)[C@@H]1C
REMARK SMILES IDX 14 1 13 2 11 3 12 4 10 5 7 6 8 7 82 8 9 9 83 10 5 11 6 12
REMARK SMILES IDX 4 13 3 14 2 15 1 16 15 19 16 20 17 21 18 22 19 23 20 24
REMARK SMILES IDX 81 25 21 26 80 27 22 28 23 29 24 30 74 31 25 32 79 33 73 34
REMARK SMILES IDX 75 35 26 36 78 37 72 38 71 39 27 41 59 42 39 43 58 44 40 45
REMARK SMILES IDX 43 46 57 47 76 48 41 49 42 50 56 52 77 53 44 54 28 55 29 56
REMARK SMILES IDX 37 57 30 58 31 59 35 60 38 61 32 62 33 63 36 64 34 65 60 66
REMARK SMILES IDX 61 67 69 68 62 69 63 70 67 71 70 72 64 73 65 74 68 75 66 76
REMARK SMILES IDX 45 77 46 78 54 79 47 80 48 81 52 82 55 83 49 84 50 85 53 86
REMARK SMILES IDX 51 87
REMARK H PARENT 2 17 2 18 75 40 43 51
REMARK Flexibility Score: inf
ROOT
ATOM      1  C   UNL     1       4.327   1.120  -0.721  1.00  0.00     0.274 C 
ENDROOT
BRANCH   1   2
ATOM      2  O   UNL     1       3.338   0.326  -1.410  1.00  0.00    -0.462 OA
BRANCH   2   3
ATOM      3  C   UNL     1       3.784  -0.503  -2.388  1.00  0.00     0.311 C 
ATOM      4  O   UNL     1       4.951  -0.576  -2.757  1.00  0.00    -0.252 OA
BRANCH   3   5
ATOM      5  C   UNL     1       2.695  -1.350  -3.015  1.00  0.00     0.123 C 
ATOM      6  N   UNL     1       0.320  -1.363  -3.014  1.00  0.00    -0.339 N 
ATOM      7  C   UNL     1       0.747  -1.326  -4.396  1.00  0.00     0.121 C 
ATOM      8  C   UNL     1       1.456  -1.613  -2.135  1.00  0.00     0.096 C 
ATOM      9  C   UNL     1       2.136  -0.715  -4.291  1.00  0.00     0.039 C 
ATOM     10  C   UNL     1       1.413  -3.072  -1.665  1.00  0.00     0.032 C 
BRANCH   6  11
ATOM     11  C   UNL     1      -1.002  -1.217  -2.667  1.00  0.00     0.228 C 
ATOM     12  O   UNL     1      -1.903  -1.478  -3.468  1.00  0.00    -0.275 OA
BRANCH  11  13
ATOM     13  C   UNL     1      -1.326  -0.510  -1.357  1.00  0.00     0.161 C 
BRANCH  13  14
ATOM     14  C   UNL     1      -1.207  -1.280  -0.041  1.00  0.00     0.270 C 
BRANCH  14  15
ATOM     15  N   UNL     1      -0.072  -1.015   0.852  1.00  0.00    -0.348 N 
ATOM     16  C   UNL     1       0.297   0.383   1.002  1.00  0.00     0.330 C 
ATOM     17  H   UNL     1      -0.308  -1.378   1.775  1.00  0.00     0.346 HD
ATOM     18  H   UNL     1       0.733  -1.471   0.421  1.00  0.00     0.346 HD
ENDBRANCH  14  15
ENDBRANCH  13  14
ENDBRANCH  11  13
ENDBRANCH   6  11
ENDBRANCH   3   5
ENDBRANCH   2   3
ENDBRANCH   1   2
BRANCH   1  19
ATOM     19  C   UNL     1       4.641   0.557   0.670  1.00  0.00     0.275 C 
BRANCH  19  20
ATOM     20  O   UNL     1       5.315  -0.713   0.590  1.00  0.00    -0.458 OA
BRANCH  20  21
ATOM     21  C   UNL     1       4.496  -1.789   0.609  1.00  0.00     0.338 C 
ATOM     22  O   UNL     1       3.281  -1.790   0.718  1.00  0.00    -0.246 OA
BRANCH  21  23
ATOM     23  C   UNL     1       5.268  -3.001   0.295  1.00  0.00     0.060 A 
ATOM     24  C   UNL     1       5.004  -3.634  -0.920  1.00  0.00     0.016 A 
ATOM     25  C   UNL     1       6.168  -3.559   1.201  1.00  0.00     0.016 A 
ATOM     26  C   UNL     1       5.604  -4.846  -1.228  1.00  0.00     0.010 A 
ATOM     27  C   UNL     1       6.800  -4.766   0.878  1.00  0.00     0.010 A 
ATOM     28  C   UNL     1       6.510  -5.421  -0.333  1.00  0.00    -0.014 A 
BRANCH  28  29
ATOM     29  C   UNL     1       7.135  -6.717  -0.681  1.00  0.00     0.031 A 
ATOM     30  C   UNL     1       6.722  -7.969   0.030  1.00  0.00     0.074 A 
ATOM     31  C   UNL     1       8.045  -6.764  -1.671  1.00  0.00     0.049 A 
ATOM     32  N   UNL     1       7.194  -9.184  -0.091  1.00  0.00    -0.248 NA
ATOM     33  C   UNL     1       5.633  -7.839   1.010  1.00  0.00     0.031 C 
ATOM     34  C   UNL     1       8.485  -5.615  -2.464  1.00  0.00     0.029 A 
ATOM     35  N   UNL     1       8.759  -7.818  -2.181  1.00  0.00    -0.354 N 
ATOM     36  C   UNL     1       6.481  -9.957   0.815  1.00  0.00     0.074 A 
ATOM     37  C   UNL     1       5.551  -9.074   1.485  1.00  0.00     0.031 C 
ATOM     38  C   UNL     1       9.393  -6.027  -3.362  1.00  0.00     0.029 A 
ATOM     39  C   UNL     1       9.635  -7.454  -3.173  1.00  0.00     0.049 A 
ATOM     40  H   UNL     1       8.654  -8.744  -1.866  1.00  0.00     0.167 HD
ATOM     41  C   UNL     1       6.600 -11.284   1.061  1.00  0.00     0.037 A 
ATOM     42  C   UNL     1      10.552  -8.184  -3.833  1.00  0.00     0.037 A 
ATOM     43  C   UNL     1       7.514 -12.157   0.372  1.00  0.00     0.049 A 
ATOM     44  C   UNL     1      10.693  -9.645  -3.512  1.00  0.00     0.074 A 
ATOM     45  C   UNL     1       7.688 -13.521   0.526  1.00  0.00     0.029 A 
ATOM     46  N   UNL     1       8.411 -11.748  -0.605  1.00  0.00    -0.354 N 
ATOM     47  N   UNL     1      10.019 -10.369  -2.651  1.00  0.00    -0.248 NA
ATOM     48  C   UNL     1      11.723 -10.388  -4.248  1.00  0.00     0.031 C 
ATOM     49  C   UNL     1       8.722 -13.929  -0.325  1.00  0.00     0.029 A 
ATOM     50  C   UNL     1       9.162 -12.827  -1.042  1.00  0.00     0.049 A 
ATOM     51  H   UNL     1       8.501 -10.825  -0.938  1.00  0.00     0.167 HD
ATOM     52  C   UNL     1      10.537 -11.652  -2.745  1.00  0.00     0.074 A 
ATOM     53  C   UNL     1      11.568 -11.613  -3.763  1.00  0.00     0.031 C 
ATOM     54  C   UNL     1      10.191 -12.763  -2.049  1.00  0.00     0.037 A 
BRANCH  41  55
ATOM     55  C   UNL     1       5.747 -11.860   2.153  1.00  0.00     0.064 A 
ATOM     56  C   UNL     1       4.366 -12.044   1.998  1.00  0.00     0.173 A 
ATOM     57  C   UNL     1       6.329 -12.246   3.370  1.00  0.00     0.173 A 
ATOM     58  F   UNL     1       3.760 -11.676   0.859  1.00  0.00    -0.203 F 
ATOM     59  C   UNL     1       3.594 -12.567   3.032  1.00  0.00     0.198 A 
ATOM     60  C   UNL     1       5.559 -12.792   4.392  1.00  0.00     0.198 A 
ATOM     61  F   UNL     1       7.647 -12.093   3.568  1.00  0.00    -0.203 F 
ATOM     62  F   UNL     1       2.268 -12.690   2.881  1.00  0.00    -0.200 F 
ATOM     63  C   UNL     1       4.191 -12.945   4.226  1.00  0.00     0.200 A 
ATOM     64  F   UNL     1       6.139 -13.164   5.542  1.00  0.00    -0.200 F 
ATOM     65  F   UNL     1       3.446 -13.447   5.220  1.00  0.00    -0.200 F 
ENDBRANCH  41  55
BRANCH  42  66
ATOM     66  C   UNL     1      11.423  -7.525  -4.839  1.00  0.00     0.064 A 
ATOM     67  C   UNL     1      11.270  -7.780  -6.207  1.00  0.00     0.173 A 
ATOM     68  C   UNL     1      12.405  -6.602  -4.450  1.00  0.00     0.173 A 
ATOM     69  F   UNL     1      10.359  -8.672  -6.625  1.00  0.00    -0.203 F 
ATOM     70  C   UNL     1      12.069  -7.137  -7.150  1.00  0.00     0.198 A 
ATOM     71  C   UNL     1      13.186  -5.941  -5.395  1.00  0.00     0.198 A 
ATOM     72  F   UNL     1      12.589  -6.324  -3.151  1.00  0.00    -0.203 F 
ATOM     73  F   UNL     1      11.923  -7.418  -8.452  1.00  0.00    -0.200 F 
ATOM     74  C   UNL     1      13.020  -6.212  -6.744  1.00  0.00     0.200 A 
ATOM     75  F   UNL     1      14.093  -5.038  -4.998  1.00  0.00    -0.200 F 
ATOM     76  F   UNL     1      13.778  -5.584  -7.653  1.00  0.00    -0.200 F 
ENDBRANCH  42  66
BRANCH  54  77
ATOM     77  C   UNL     1      10.932 -14.027  -2.372  1.00  0.00     0.064 A 
ATOM     78  C   UNL     1      12.256 -14.225  -1.955  1.00  0.00     0.173 A 
ATOM     79  C   UNL     1      10.300 -15.062  -3.077  1.00  0.00     0.173 A 
ATOM     80  F   UNL     1      12.907 -13.256  -1.293  1.00  0.00    -0.203 F 
ATOM     81  C   UNL     1      12.928 -15.408  -2.249  1.00  0.00     0.198 A 
ATOM     82  C   UNL     1      10.967 -16.253  -3.348  1.00  0.00     0.198 A 
ATOM     83  F   UNL     1       9.033 -14.921  -3.494  1.00  0.00    -0.203 F 
ATOM     84  F   UNL     1      14.207 -15.560  -1.877  1.00  0.00    -0.200 F 
ATOM     85  C   UNL     1      12.282 -16.422  -2.939  1.00  0.00     0.200 A 
ATOM     86  F   UNL     1      10.339 -17.236  -4.006  1.00  0.00    -0.200 F 
ATOM     87  F   UNL     1      12.929 -17.562  -3.218  1.00  0.00    -0.200 F 
ENDBRANCH  54  77
ENDBRANCH  28  29
ENDBRANCH  21  23
ENDBRANCH  20  21
ENDBRANCH  19  20
ENDBRANCH   1  19
TORSDOF 15
