REMARK SMILES CC(C)c1cc(C#N)cc2nc(-c3ccc(C(=O)OCCOC(=O)c4ccc(-c5c6nc(c(-c7c(F)c(F)c(F)c(F)c7F)c7ccc([nH]7)c(-c7c(F)c(F)c(F)c(F)c7F)c7nc(c(-c8c(F)c(F)c(F)c(F)c8F)c8ccc5[nH]8)C=C7)C=C6)cc4)cc3)oc12
REMARK SMILES IDX 20 1 19 2 17 3 18 4 16 5 13 6 14 7 89 8 15 9 88 10 12 11
REMARK SMILES IDX 4 12 5 13 91 14 6 15 10 16 90 17 9 18 11 19 2 20 1 21 3 22
REMARK SMILES IDX 7 23 8 24 21 25 22 26 23 27 24 28 25 29 26 30 87 31 27 32
REMARK SMILES IDX 86 33 28 34 29 35 30 36 80 37 31 38 85 39 79 40 81 41 32 42
REMARK SMILES IDX 84 43 78 44 77 45 33 47 65 48 45 49 64 50 46 51 49 52 63 53
REMARK SMILES IDX 82 54 47 55 48 56 62 58 83 59 50 60 34 61 35 62 43 63 36 64
REMARK SMILES IDX 37 65 41 66 44 67 38 68 39 69 42 70 40 71 66 72 67 73 75 74
REMARK SMILES IDX 68 75 69 76 73 77 76 78 70 79 71 80 74 81 72 82 51 83 52 84
REMARK SMILES IDX 60 85 53 86 54 87 58 88 61 89 55 90 56 91 59 92 57 93
REMARK H PARENT 81 46 49 57
REMARK Flexibility Score: inf
ROOT
ATOM      1  C   UNL     1      -2.966 -12.356  -1.564  1.00  0.00     0.275 C 
ENDROOT
BRANCH   1   2
ATOM      2  O   UNL     1      -3.045 -10.911  -1.696  1.00  0.00    -0.458 OA
BRANCH   2   3
ATOM      3  C   UNL     1      -3.337 -10.255  -0.548  1.00  0.00     0.338 C 
ATOM      4  O   UNL     1      -3.502 -10.813   0.523  1.00  0.00    -0.246 OA
BRANCH   3   5
ATOM      5  C   UNL     1      -3.307  -8.766  -0.688  1.00  0.00     0.060 A 
ATOM      6  C   UNL     1      -2.941  -5.949  -0.712  1.00  0.00     0.037 A 
ATOM      7  C   UNL     1      -2.774  -6.656   0.462  1.00  0.00     0.014 A 
ATOM      8  C   UNL     1      -3.377  -6.648  -1.855  1.00  0.00     0.014 A 
ATOM      9  C   UNL     1      -3.016  -8.025   0.455  1.00  0.00     0.016 A 
ATOM     10  C   UNL     1      -3.533  -8.054  -1.854  1.00  0.00     0.016 A 
BRANCH   6  11
ATOM     11  C   UNL     1      -2.872  -4.500  -0.655  1.00  0.00     0.227 A 
ATOM     12  C   UNL     1      -1.070  -1.468  -0.157  1.00  0.00     0.001 A 
ATOM     13  C   UNL     1      -1.754  -0.224  -0.073  1.00  0.00     0.027 A 
ATOM     14  C   UNL     1      -1.942  -2.563  -0.330  1.00  0.00     0.158 A 
ATOM     15  C   UNL     1      -3.155  -0.102  -0.124  1.00  0.00     0.055 A 
ATOM     16  C   UNL     1      -3.328  -2.464  -0.396  1.00  0.00     0.111 A 
ATOM     17  O   UNL     1      -1.642  -3.904  -0.470  1.00  0.00    -0.436 OA
ATOM     18  C   UNL     1      -3.960  -1.230  -0.265  1.00  0.00     0.052 A 
ATOM     19  N   UNL     1      -3.897  -3.682  -0.608  1.00  0.00    -0.209 NA
BRANCH  12  20
ATOM     20  C   UNL     1       0.452  -1.558  -0.132  1.00  0.00     0.017 C 
ATOM     21  C   UNL     1       1.181  -0.200  -0.134  1.00  0.00     0.012 C 
ATOM     22  C   UNL     1       0.958  -2.366   1.067  1.00  0.00     0.012 C 
ENDBRANCH  12  20
BRANCH  15  23
ATOM     23  C   UNL     1      -3.771   1.185  -0.065  1.00  0.00     0.099 C 
ATOM     24  N   UNL     1      -4.283   2.235  -0.029  1.00  0.00    -0.192 NA
ENDBRANCH  15  23
ENDBRANCH   6  11
ENDBRANCH   3   5
ENDBRANCH   2   3
ENDBRANCH   1   2
BRANCH   1  25
ATOM     25  C   UNL     1      -1.530 -12.864  -1.749  1.00  0.00     0.275 C 
BRANCH  25  26
ATOM     26  O   UNL     1      -0.798 -12.688  -0.526  1.00  0.00    -0.458 OA
BRANCH  26  27
ATOM     27  C   UNL     1       0.069 -11.649  -0.494  1.00  0.00     0.338 C 
ATOM     28  O   UNL     1       0.583 -11.088  -1.447  1.00  0.00    -0.246 OA
BRANCH  27  29
ATOM     29  C   UNL     1      -0.043 -11.065   0.859  1.00  0.00     0.060 A 
ATOM     30  C   UNL     1      -0.384 -11.810   1.996  1.00  0.00     0.016 A 
ATOM     31  C   UNL     1      -0.089  -9.687   0.911  1.00  0.00     0.016 A 
ATOM     32  C   UNL     1      -1.127 -11.204   3.021  1.00  0.00     0.010 A 
ATOM     33  C   UNL     1      -0.698  -9.100   2.003  1.00  0.00     0.010 A 
ATOM     34  C   UNL     1      -1.455  -9.857   2.920  1.00  0.00    -0.014 A 
BRANCH  34  35
ATOM     35  C   UNL     1      -2.408  -9.145   3.830  1.00  0.00     0.031 A 
ATOM     36  C   UNL     1      -1.628  -8.392   4.838  1.00  0.00     0.074 A 
ATOM     37  C   UNL     1      -3.765  -8.949   3.769  1.00  0.00     0.049 A 
ATOM     38  N   UNL     1      -1.328  -8.834   6.015  1.00  0.00    -0.248 NA
ATOM     39  C   UNL     1      -0.860  -7.202   4.431  1.00  0.00     0.031 C 
ATOM     40  C   UNL     1      -4.775  -9.391   2.800  1.00  0.00     0.029 A 
ATOM     41  N   UNL     1      -4.551  -8.157   4.594  1.00  0.00    -0.354 N 
ATOM     42  C   UNL     1      -0.507  -7.859   6.551  1.00  0.00     0.074 A 
ATOM     43  C   UNL     1       0.011  -7.117   5.438  1.00  0.00     0.031 C 
ATOM     44  C   UNL     1      -5.907  -8.648   2.883  1.00  0.00     0.029 A 
ATOM     45  C   UNL     1      -5.822  -7.824   4.066  1.00  0.00     0.049 A 
ATOM     46  H   UNL     1      -4.248  -7.851   5.480  1.00  0.00     0.167 HD
ATOM     47  C   UNL     1      -0.611  -7.499   7.857  1.00  0.00     0.037 A 
ATOM     48  C   UNL     1      -6.780  -7.017   4.618  1.00  0.00     0.037 A 
ATOM     49  C   UNL     1      -1.401  -8.456   8.592  1.00  0.00     0.049 A 
ATOM     50  C   UNL     1      -6.487  -6.955   6.072  1.00  0.00     0.074 A 
ATOM     51  C   UNL     1      -1.304  -9.818   8.809  1.00  0.00     0.029 A 
ATOM     52  N   UNL     1      -2.712  -8.131   8.850  1.00  0.00    -0.354 N 
ATOM     53  N   UNL     1      -6.589  -7.992   6.859  1.00  0.00    -0.248 NA
ATOM     54  C   UNL     1      -5.554  -5.920   6.489  1.00  0.00     0.031 C 
ATOM     55  C   UNL     1      -2.638 -10.308   8.695  1.00  0.00     0.029 A 
ATOM     56  C   UNL     1      -3.490  -9.216   8.531  1.00  0.00     0.049 A 
ATOM     57  H   UNL     1      -3.035  -7.270   9.202  1.00  0.00     0.167 HD
ATOM     58  C   UNL     1      -5.418  -7.967   7.600  1.00  0.00     0.074 A 
ATOM     59  C   UNL     1      -4.821  -6.657   7.326  1.00  0.00     0.031 C 
ATOM     60  C   UNL     1      -4.865  -9.109   8.101  1.00  0.00     0.037 A 
BRANCH  47  61
ATOM     61  C   UNL     1      -0.331  -6.109   8.361  1.00  0.00     0.064 A 
ATOM     62  C   UNL     1      -0.205  -5.907   9.745  1.00  0.00     0.173 A 
ATOM     63  C   UNL     1      -0.411  -4.933   7.579  1.00  0.00     0.173 A 
ATOM     64  F   UNL     1      -0.166  -6.952  10.584  1.00  0.00    -0.203 F 
ATOM     65  C   UNL     1      -0.195  -4.627  10.303  1.00  0.00     0.198 A 
ATOM     66  C   UNL     1      -0.335  -3.659   8.132  1.00  0.00     0.198 A 
ATOM     67  F   UNL     1      -0.679  -4.952   6.269  1.00  0.00    -0.203 F 
ATOM     68  F   UNL     1      -0.185  -4.485  11.635  1.00  0.00    -0.200 F 
ATOM     69  C   UNL     1      -0.253  -3.504   9.496  1.00  0.00     0.200 A 
ATOM     70  F   UNL     1      -0.421  -2.588   7.329  1.00  0.00    -0.200 F 
ATOM     71  F   UNL     1      -0.283  -2.278  10.032  1.00  0.00    -0.200 F 
ENDBRANCH  47  61
BRANCH  48  72
ATOM     72  C   UNL     1      -7.668  -6.002   3.963  1.00  0.00     0.064 A 
ATOM     73  C   UNL     1      -8.712  -5.352   4.658  1.00  0.00     0.173 A 
ATOM     74  C   UNL     1      -7.308  -5.423   2.731  1.00  0.00     0.173 A 
ATOM     75  F   UNL     1      -9.098  -5.793   5.865  1.00  0.00    -0.203 F 
ATOM     76  C   UNL     1      -9.330  -4.190   4.164  1.00  0.00     0.198 A 
ATOM     77  C   UNL     1      -7.922  -4.263   2.241  1.00  0.00     0.198 A 
ATOM     78  F   UNL     1      -6.284  -5.918   2.023  1.00  0.00    -0.203 F 
ATOM     79  F   UNL     1     -10.278  -3.570   4.884  1.00  0.00    -0.200 F 
ATOM     80  C   UNL     1      -8.923  -3.639   2.962  1.00  0.00     0.200 A 
ATOM     81  F   UNL     1      -7.489  -3.714   1.097  1.00  0.00    -0.200 F 
ATOM     82  F   UNL     1      -9.461  -2.493   2.519  1.00  0.00    -0.200 F 
ENDBRANCH  48  72
BRANCH  60  83
ATOM     83  C   UNL     1      -5.650 -10.395   8.025  1.00  0.00     0.064 A 
ATOM     84  C   UNL     1      -6.010 -11.040   6.827  1.00  0.00     0.173 A 
ATOM     85  C   UNL     1      -5.861 -11.099   9.217  1.00  0.00     0.173 A 
ATOM     86  F   UNL     1      -5.772 -10.473   5.640  1.00  0.00    -0.203 F 
ATOM     87  C   UNL     1      -6.561 -12.325   6.831  1.00  0.00     0.198 A 
ATOM     88  C   UNL     1      -6.380 -12.392   9.217  1.00  0.00     0.198 A 
ATOM     89  F   UNL     1      -5.497 -10.554  10.388  1.00  0.00    -0.203 F 
ATOM     90  F   UNL     1      -6.881 -12.925   5.675  1.00  0.00    -0.200 F 
ATOM     91  C   UNL     1      -6.732 -13.004   8.026  1.00  0.00     0.200 A 
ATOM     92  F   UNL     1      -6.496 -13.059  10.373  1.00  0.00    -0.200 F 
ATOM     93  F   UNL     1      -7.207 -14.257   8.029  1.00  0.00    -0.200 F 
ENDBRANCH  60  83
ENDBRANCH  34  35
ENDBRANCH  27  29
ENDBRANCH  26  27
ENDBRANCH  25  26
ENDBRANCH   1  25
TORSDOF 14
