REMARK SMILES O=C(COc1ccc(N2C[C@@H](C(=O)OCCOC(=O)c3ccc(-c4c5nc(c(-c6c(F)c(F)c(F)c(F)c6F)c6ccc([nH]6)c(-c6c(F)c(F)c(F)c(F)c6F)c6nc(c(-c7c(F)c(F)c(F)c(F)c7F)c7ccc4[nH]7)C=C6)C=C5)cc3)CC2=O)cc1)Nc1ccc(Cl)cc1Cl
REMARK SMILES IDX 14 1 12 2 13 3 11 4 9 5 10 6 84 7 83 8 85 9 8 10 5 11 6 12
REMARK SMILES IDX 87 13 7 14 86 15 4 16 3 17 2 18 1 19 88 20 89 22 90 23 95 24
REMARK SMILES IDX 91 25 94 26 96 27 92 28 93 29 15 30 16 31 17 32 18 33 19 34
REMARK SMILES IDX 20 35 21 36 82 37 22 38 81 39 23 40 24 41 25 42 75 43 26 44
REMARK SMILES IDX 80 45 74 46 76 47 27 48 79 49 73 50 72 51 28 53 60 54 40 55
REMARK SMILES IDX 59 56 41 57 44 58 58 59 77 60 42 61 43 62 57 64 78 65 45 66
REMARK SMILES IDX 29 67 30 68 38 69 31 70 32 71 36 72 39 73 33 74 34 75 37 76
REMARK SMILES IDX 35 77 61 78 62 79 70 80 63 81 64 82 68 83 71 84 65 85 66 86
REMARK SMILES IDX 69 87 67 88 46 89 47 90 55 91 48 92 49 93 53 94 56 95 50 96
REMARK SMILES IDX 51 97 54 98 52 99
REMARK H PARENT 88 21 76 52 44 63
REMARK Flexibility Score: inf
ROOT
ATOM      1  O   UNL     1      -1.304   8.676   2.974  1.00  0.00    -0.462 OA
ENDROOT
BRANCH   1   2
ATOM      2  C   UNL     1      -0.187   8.833   2.225  1.00  0.00     0.311 C 
ATOM      3  O   UNL     1      -0.046   9.662   1.335  1.00  0.00    -0.252 OA
BRANCH   2   4
ATOM      4  C   UNL     1       0.918   7.891   2.622  1.00  0.00     0.128 C 
ATOM      5  N   UNL     1       1.759   5.771   2.210  1.00  0.00    -0.312 N 
ATOM      6  C   UNL     1       1.209   6.905   1.515  1.00  0.00     0.141 C 
ATOM      7  C   UNL     1       1.472   5.802   3.579  1.00  0.00     0.227 C 
ATOM      8  C   UNL     1       0.673   7.040   3.858  1.00  0.00     0.117 C 
ATOM      9  O   UNL     1       1.779   4.992   4.441  1.00  0.00    -0.274 OA
BRANCH   5  10
ATOM     10  C   UNL     1       2.313   4.668   1.537  1.00  0.00     0.044 A 
ATOM     11  C   UNL     1       3.339   2.414   0.222  1.00  0.00     0.120 A 
ATOM     12  C   UNL     1       3.646   3.689  -0.247  1.00  0.00     0.048 A 
ATOM     13  C   UNL     1       2.553   2.269   1.359  1.00  0.00     0.048 A 
ATOM     14  C   UNL     1       3.108   4.816   0.393  1.00  0.00     0.030 A 
ATOM     15  C   UNL     1       2.049   3.385   2.012  1.00  0.00     0.030 A 
BRANCH  11  16
ATOM     16  O   UNL     1       3.905   1.326  -0.388  1.00  0.00    -0.484 OA
BRANCH  16  17
ATOM     17  C   UNL     1       2.944   0.555  -1.119  1.00  0.00     0.329 C 
BRANCH  17  18
ATOM     18  C   UNL     1       2.057  -0.354  -0.258  1.00  0.00     0.262 C 
ATOM     19  O   UNL     1       0.849  -0.430  -0.456  1.00  0.00    -0.271 OA
ATOM     20  N   UNL     1       2.765  -0.949   0.782  1.00  0.00    -0.322 N 
ATOM     21  H   UNL     1       3.747  -0.882   0.761  1.00  0.00     0.170 HD
BRANCH  20  22
ATOM     22  C   UNL     1       2.179  -1.644   1.867  1.00  0.00     0.060 A 
ATOM     23  C   UNL     1       2.716  -1.345   3.132  1.00  0.00     0.029 A 
ATOM     24  C   UNL     1       1.114  -2.557   1.785  1.00  0.00     0.066 A 
ATOM     25  C   UNL     1       2.147  -1.872   4.294  1.00  0.00     0.023 A 
ATOM     26  C   UNL     1       0.546  -3.083   2.954  1.00  0.00     0.043 A 
ATOM     27  Cl  UNL     1       0.565  -3.244   0.295  1.00  0.00    -0.082 Cl
ATOM     28  C   UNL     1       1.054  -2.727   4.199  1.00  0.00     0.042 A 
ATOM     29  Cl  UNL     1       0.350  -3.372   5.630  1.00  0.00    -0.084 Cl
ENDBRANCH  20  22
ENDBRANCH  17  18
ENDBRANCH  16  17
ENDBRANCH  11  16
ENDBRANCH   5  10
ENDBRANCH   2   4
ENDBRANCH   1   2
BRANCH   1  30
ATOM     30  C   UNL     1      -2.351   9.653   2.822  1.00  0.00     0.274 C 
BRANCH  30  31
ATOM     31  C   UNL     1      -2.388  10.590   4.033  1.00  0.00     0.275 C 
BRANCH  31  32
ATOM     32  O   UNL     1      -1.218  11.431   4.091  1.00  0.00    -0.458 OA
BRANCH  32  33
ATOM     33  C   UNL     1      -0.194  10.934   4.821  1.00  0.00     0.338 C 
ATOM     34  O   UNL     1      -0.160   9.879   5.430  1.00  0.00    -0.246 OA
BRANCH  33  35
ATOM     35  C   UNL     1       0.996  11.782   4.661  1.00  0.00     0.060 A 
ATOM     36  C   UNL     1       2.077  11.245   3.963  1.00  0.00     0.016 A 
ATOM     37  C   UNL     1       1.104  13.027   5.277  1.00  0.00     0.016 A 
ATOM     38  C   UNL     1       3.285  11.924   3.895  1.00  0.00     0.010 A 
ATOM     39  C   UNL     1       2.314  13.727   5.188  1.00  0.00     0.010 A 
ATOM     40  C   UNL     1       3.415  13.171   4.509  1.00  0.00    -0.014 A 
BRANCH  40  41
ATOM     41  C   UNL     1       4.728  13.856   4.468  1.00  0.00     0.031 A 
ATOM     42  C   UNL     1       5.558  13.956   5.713  1.00  0.00     0.074 A 
ATOM     43  C   UNL     1       5.194  14.333   3.300  1.00  0.00     0.049 A 
ATOM     44  N   UNL     1       6.687  14.588   5.906  1.00  0.00    -0.248 NA
ATOM     45  C   UNL     1       5.051  13.251   6.900  1.00  0.00     0.031 C 
ATOM     46  C   UNL     1       4.508  14.227   2.012  1.00  0.00     0.029 A 
ATOM     47  N   UNL     1       6.359  14.993   3.006  1.00  0.00    -0.354 N 
ATOM     48  C   UNL     1       7.007  14.388   7.241  1.00  0.00     0.074 A 
ATOM     49  C   UNL     1       5.953  13.579   7.814  1.00  0.00     0.031 C 
ATOM     50  C   UNL     1       5.271  14.791   1.062  1.00  0.00     0.029 A 
ATOM     51  C   UNL     1       6.467  15.349   1.684  1.00  0.00     0.049 A 
ATOM     52  H   UNL     1       7.051  15.193   3.677  1.00  0.00     0.167 HD
ATOM     53  C   UNL     1       8.085  14.844   7.923  1.00  0.00     0.037 A 
ATOM     54  C   UNL     1       7.410  16.074   1.054  1.00  0.00     0.037 A 
ATOM     55  C   UNL     1       9.145  15.622   7.338  1.00  0.00     0.049 A 
ATOM     56  C   UNL     1       8.567  16.615   1.846  1.00  0.00     0.074 A 
ATOM     57  C   UNL     1      10.285  16.123   7.941  1.00  0.00     0.029 A 
ATOM     58  N   UNL     1       9.196  16.006   6.005  1.00  0.00    -0.354 N 
ATOM     59  N   UNL     1       8.844  16.456   3.117  1.00  0.00    -0.248 NA
ATOM     60  C   UNL     1       9.533  17.449   1.119  1.00  0.00     0.031 C 
ATOM     61  C   UNL     1      11.007  16.842   6.982  1.00  0.00     0.029 A 
ATOM     62  C   UNL     1      10.338  16.755   5.771  1.00  0.00     0.049 A 
ATOM     63  H   UNL     1       8.520  15.780   5.326  1.00  0.00     0.167 HD
ATOM     64  C   UNL     1      10.020  17.157   3.342  1.00  0.00     0.074 A 
ATOM     65  C   UNL     1      10.413  17.729   2.070  1.00  0.00     0.031 C 
ATOM     66  C   UNL     1      10.709  17.316   4.498  1.00  0.00     0.037 A 
BRANCH  53  67
ATOM     67  C   UNL     1       8.146  14.547   9.392  1.00  0.00     0.064 A 
ATOM     68  C   UNL     1       8.441  13.266   9.878  1.00  0.00     0.173 A 
ATOM     69  C   UNL     1       7.920  15.569  10.326  1.00  0.00     0.173 A 
ATOM     70  F   UNL     1       8.647  12.251   9.025  1.00  0.00    -0.203 F 
ATOM     71  C   UNL     1       8.483  13.013  11.247  1.00  0.00     0.198 A 
ATOM     72  C   UNL     1       7.988  15.319  11.694  1.00  0.00     0.198 A 
ATOM     73  F   UNL     1       7.636  16.813   9.912  1.00  0.00    -0.203 F 
ATOM     74  F   UNL     1       8.723  11.771  11.691  1.00  0.00    -0.200 F 
ATOM     75  C   UNL     1       8.262  14.040  12.153  1.00  0.00     0.200 A 
ATOM     76  F   UNL     1       7.782  16.314  12.567  1.00  0.00    -0.200 F 
ATOM     77  F   UNL     1       8.305  13.795  13.470  1.00  0.00    -0.200 F 
ENDBRANCH  53  67
BRANCH  54  78
ATOM     78  C   UNL     1       7.277  16.350  -0.398  1.00  0.00     0.064 A 
ATOM     79  C   UNL     1       8.141  15.758  -1.327  1.00  0.00     0.173 A 
ATOM     80  C   UNL     1       6.273  17.200  -0.887  1.00  0.00     0.173 A 
ATOM     81  F   UNL     1       9.131  14.957  -0.905  1.00  0.00    -0.203 F 
ATOM     82  C   UNL     1       8.010  16.009  -2.692  1.00  0.00     0.198 A 
ATOM     83  C   UNL     1       6.127  17.430  -2.252  1.00  0.00     0.198 A 
ATOM     84  F   UNL     1       5.421  17.792  -0.036  1.00  0.00    -0.203 F 
ATOM     85  F   UNL     1       8.869  15.455  -3.558  1.00  0.00    -0.200 F 
ATOM     86  C   UNL     1       6.998  16.838  -3.154  1.00  0.00     0.200 A 
ATOM     87  F   UNL     1       5.140  18.221  -2.695  1.00  0.00    -0.200 F 
ATOM     88  F   UNL     1       6.866  17.070  -4.467  1.00  0.00    -0.200 F 
ENDBRANCH  54  78
BRANCH  66  89
ATOM     89  C   UNL     1      11.970  18.124   4.432  1.00  0.00     0.064 A 
ATOM     90  C   UNL     1      11.937  19.522   4.322  1.00  0.00     0.173 A 
ATOM     91  C   UNL     1      13.222  17.497   4.513  1.00  0.00     0.173 A 
ATOM     92  F   UNL     1      10.763  20.163   4.223  1.00  0.00    -0.203 F 
ATOM     93  C   UNL     1      13.115  20.262   4.275  1.00  0.00     0.198 A 
ATOM     94  C   UNL     1      14.397  18.242   4.490  1.00  0.00     0.198 A 
ATOM     95  F   UNL     1      13.303  16.163   4.623  1.00  0.00    -0.203 F 
ATOM     96  F   UNL     1      13.063  21.593   4.128  1.00  0.00    -0.200 F 
ATOM     97  C   UNL     1      14.343  19.622   4.365  1.00  0.00     0.200 A 
ATOM     98  F   UNL     1      15.582  17.624   4.585  1.00  0.00    -0.200 F 
ATOM     99  F   UNL     1      15.476  20.337   4.323  1.00  0.00    -0.200 F 
ENDBRANCH  66  89
ENDBRANCH  40  41
ENDBRANCH  33  35
ENDBRANCH  32  33
ENDBRANCH  31  32
ENDBRANCH  30  31
ENDBRANCH   1  30
TORSDOF 16
