REMARK SMILES CS(=O)(=O)CCCNC(=O)N[C@H]1C=C[C@@H](C(=O)OCCOC(=O)c2ccc(-c3c4nc(c(-c5c(F)c(F)c(F)c(F)c5F)c5ccc([nH]5)c(-c5c(F)c(F)c(F)c(F)c5F)c5nc(c(-c6c(F)c(F)c(F)c(F)c6F)c6ccc3[nH]6)C=C5)C=C4)cc2)C1
REMARK SMILES IDX 18 1 16 2 17 3 15 4 12 5 13 6 87 7 14 8 11 9 8 10 9 11 10 13
REMARK SMILES IDX 7 15 6 16 5 17 2 18 1 19 3 20 4 21 19 22 20 23 21 24 22 25
REMARK SMILES IDX 23 26 24 27 25 28 86 29 26 30 85 31 27 32 28 33 29 34 79 35
REMARK SMILES IDX 30 36 84 37 78 38 80 39 31 40 83 41 77 42 76 43 32 45 64 46
REMARK SMILES IDX 44 47 63 48 45 49 48 50 62 51 81 52 46 53 47 54 61 56 82 57
REMARK SMILES IDX 49 58 33 59 34 60 42 61 35 62 36 63 40 64 43 65 37 66 38 67
REMARK SMILES IDX 41 68 39 69 65 70 66 71 74 72 67 73 68 74 72 75 75 76 69 77
REMARK SMILES IDX 70 78 73 79 71 80 50 81 51 82 59 83 52 84 53 85 57 86 60 87
REMARK SMILES IDX 54 88 55 89 58 90 56 91
REMARK H PARENT 8 12 11 14 80 44 48 55
REMARK Flexibility Score: inf
ROOT
ATOM      1  O   UNL     1       0.514   5.298   5.878  1.00  0.00    -0.462 OA
ENDROOT
BRANCH   1   2
ATOM      2  C   UNL     1      -0.548   4.739   5.249  1.00  0.00     0.312 C 
ATOM      3  O   UNL     1      -1.609   4.446   5.793  1.00  0.00    -0.252 OA
BRANCH   2   4
ATOM      4  C   UNL     1      -0.316   4.498   3.770  1.00  0.00     0.124 C 
ATOM      5  C   UNL     1       1.151   4.317   1.880  1.00  0.00     0.107 C 
ATOM      6  C   UNL     1       0.819   2.966   2.431  1.00  0.00    -0.006 C 
ATOM      7  C   UNL     1       0.853   5.216   3.086  1.00  0.00     0.048 C 
ATOM      8  C   UNL     1      -0.012   3.060   3.475  1.00  0.00    -0.014 C 
BRANCH   5   9
ATOM      9  N   UNL     1       2.517   4.339   1.439  1.00  0.00    -0.332 N 
ATOM     10  N   UNL     1       2.447   3.324  -0.698  1.00  0.00    -0.338 N 
ATOM     11  C   UNL     1       3.113   3.872   0.333  1.00  0.00     0.315 C 
ATOM     12  H   UNL     1       3.034   2.919  -1.377  1.00  0.00     0.165 HD
ATOM     13  O   UNL     1       4.340   3.937   0.253  1.00  0.00    -0.249 OA
ATOM     14  H   UNL     1       3.132   4.780   2.068  1.00  0.00     0.165 HD
BRANCH  10  15
ATOM     15  C   UNL     1       1.034   3.210  -1.007  1.00  0.00     0.119 C 
BRANCH  15  16
ATOM     16  C   UNL     1       0.772   2.714  -2.425  1.00  0.00     0.037 C 
BRANCH  16  17
ATOM     17  C   UNL     1       1.279   1.312  -2.739  1.00  0.00     0.138 C 
BRANCH  17  18
ATOM     18  S   UNL     1       0.354  -0.025  -2.000  1.00  0.00     0.147 S 
ATOM     19  C   UNL     1       1.137  -0.320  -0.432  1.00  0.00     0.158 C 
ATOM     20  O   UNL     1       0.597  -1.201  -2.815  1.00  0.00    -0.229 OA
ATOM     21  O   UNL     1      -1.000   0.425  -1.745  1.00  0.00    -0.229 OA
ENDBRANCH  17  18
ENDBRANCH  16  17
ENDBRANCH  15  16
ENDBRANCH  10  15
ENDBRANCH   5   9
ENDBRANCH   2   4
ENDBRANCH   1   2
BRANCH   1  22
ATOM     22  C   UNL     1       0.306   5.675   7.252  1.00  0.00     0.274 C 
BRANCH  22  23
ATOM     23  C   UNL     1       0.038   7.178   7.374  1.00  0.00     0.275 C 
BRANCH  23  24
ATOM     24  O   UNL     1      -1.238   7.554   6.817  1.00  0.00    -0.458 OA
BRANCH  24  25
ATOM     25  C   UNL     1      -1.222   7.876   5.503  1.00  0.00     0.338 C 
ATOM     26  O   UNL     1      -0.258   7.887   4.756  1.00  0.00    -0.246 OA
BRANCH  25  27
ATOM     27  C   UNL     1      -2.593   8.091   5.013  1.00  0.00     0.060 A 
ATOM     28  C   UNL     1      -3.035   7.301   3.949  1.00  0.00     0.016 A 
ATOM     29  C   UNL     1      -3.402   9.109   5.519  1.00  0.00     0.016 A 
ATOM     30  C   UNL     1      -4.285   7.520   3.380  1.00  0.00     0.010 A 
ATOM     31  C   UNL     1      -4.662   9.329   4.948  1.00  0.00     0.010 A 
ATOM     32  C   UNL     1      -5.107   8.541   3.870  1.00  0.00    -0.014 A 
BRANCH  32  33
ATOM     33  C   UNL     1      -6.416   8.801   3.223  1.00  0.00     0.031 A 
ATOM     34  C   UNL     1      -6.601  10.021   2.369  1.00  0.00     0.074 A 
ATOM     35  C   UNL     1      -7.428   7.931   3.391  1.00  0.00     0.049 A 
ATOM     36  N   UNL     1      -7.690  10.480   1.806  1.00  0.00    -0.248 NA
ATOM     37  C   UNL     1      -5.402  10.835   2.115  1.00  0.00     0.031 C 
ATOM     38  C   UNL     1      -7.354   6.689   4.161  1.00  0.00     0.029 A 
ATOM     39  N   UNL     1      -8.721   7.963   2.931  1.00  0.00    -0.354 N 
ATOM     40  C   UNL     1      -7.317  11.652   1.163  1.00  0.00     0.074 A 
ATOM     41  C   UNL     1      -5.901  11.836   1.403  1.00  0.00     0.031 C 
ATOM     42  C   UNL     1      -8.551   6.081   4.128  1.00  0.00     0.029 A 
ATOM     43  C   UNL     1      -9.487   6.915   3.380  1.00  0.00     0.049 A 
ATOM     44  H   UNL     1      -9.066   8.668   2.338  1.00  0.00     0.167 HD
ATOM     45  C   UNL     1      -8.092  12.498   0.443  1.00  0.00     0.037 A 
ATOM     46  C   UNL     1     -10.804   6.675   3.235  1.00  0.00     0.037 A 
ATOM     47  C   UNL     1      -9.491  12.289   0.176  1.00  0.00     0.049 A 
ATOM     48  C   UNL     1     -11.646   7.648   2.455  1.00  0.00     0.074 A 
ATOM     49  C   UNL     1     -10.351  13.066  -0.581  1.00  0.00     0.029 A 
ATOM     50  N   UNL     1     -10.236  11.222   0.657  1.00  0.00    -0.354 N 
ATOM     51  N   UNL     1     -11.286   8.752   1.848  1.00  0.00    -0.248 NA
ATOM     52  C   UNL     1     -13.081   7.345   2.346  1.00  0.00     0.031 C 
ATOM     53  C   UNL     1     -11.625  12.493  -0.523  1.00  0.00     0.029 A 
ATOM     54  C   UNL     1     -11.550  11.335   0.234  1.00  0.00     0.049 A 
ATOM     55  H   UNL     1      -9.883  10.493   1.216  1.00  0.00     0.167 HD
ATOM     56  C   UNL     1     -12.440   9.266   1.274  1.00  0.00     0.074 A 
ATOM     57  C   UNL     1     -13.511   8.344   1.588  1.00  0.00     0.031 C 
ATOM     58  C   UNL     1     -12.600  10.403   0.554  1.00  0.00     0.037 A 
BRANCH  45  59
ATOM     59  C   UNL     1      -7.459  13.750  -0.083  1.00  0.00     0.064 A 
ATOM     60  C   UNL     1      -6.587  13.736  -1.180  1.00  0.00     0.173 A 
ATOM     61  C   UNL     1      -7.780  14.992   0.487  1.00  0.00     0.173 A 
ATOM     62  F   UNL     1      -6.239  12.573  -1.752  1.00  0.00    -0.203 F 
ATOM     63  C   UNL     1      -6.048  14.920  -1.679  1.00  0.00     0.198 A 
ATOM     64  C   UNL     1      -7.258  16.174  -0.028  1.00  0.00     0.198 A 
ATOM     65  F   UNL     1      -8.612  15.058   1.537  1.00  0.00    -0.203 F 
ATOM     66  F   UNL     1      -5.192  14.883  -2.710  1.00  0.00    -0.200 F 
ATOM     67  C   UNL     1      -6.390  16.137  -1.109  1.00  0.00     0.200 A 
ATOM     68  F   UNL     1      -7.597  17.350   0.519  1.00  0.00    -0.200 F 
ATOM     69  F   UNL     1      -5.879  17.276  -1.597  1.00  0.00    -0.200 F 
ENDBRANCH  45  59
BRANCH  46  70
ATOM     70  C   UNL     1     -11.417   5.486   3.882  1.00  0.00     0.064 A 
ATOM     71  C   UNL     1     -11.918   4.422   3.120  1.00  0.00     0.173 A 
ATOM     72  C   UNL     1     -11.528   5.399   5.278  1.00  0.00     0.173 A 
ATOM     73  F   UNL     1     -11.859   4.472   1.781  1.00  0.00    -0.203 F 
ATOM     74  C   UNL     1     -12.522   3.324   3.730  1.00  0.00     0.198 A 
ATOM     75  C   UNL     1     -12.105   4.288   5.887  1.00  0.00     0.198 A 
ATOM     76  F   UNL     1     -11.067   6.393   6.052  1.00  0.00    -0.203 F 
ATOM     77  F   UNL     1     -13.037   2.342   2.977  1.00  0.00    -0.200 F 
ATOM     78  C   UNL     1     -12.610   3.255   5.112  1.00  0.00     0.200 A 
ATOM     79  F   UNL     1     -12.178   4.221   7.223  1.00  0.00    -0.200 F 
ATOM     80  F   UNL     1     -13.190   2.198   5.697  1.00  0.00    -0.200 F 
ENDBRANCH  46  70
BRANCH  58  81
ATOM     81  C   UNL     1     -13.977  10.698   0.038  1.00  0.00     0.064 A 
ATOM     82  C   UNL     1     -14.998  11.144   0.889  1.00  0.00     0.173 A 
ATOM     83  C   UNL     1     -14.266  10.570  -1.329  1.00  0.00     0.173 A 
ATOM     84  F   UNL     1     -14.774  11.267   2.206  1.00  0.00    -0.203 F 
ATOM     85  C   UNL     1     -16.267  11.431   0.393  1.00  0.00     0.198 A 
ATOM     86  C   UNL     1     -15.528  10.883  -1.825  1.00  0.00     0.198 A 
ATOM     87  F   UNL     1     -13.321  10.152  -2.184  1.00  0.00    -0.203 F 
ATOM     88  F   UNL     1     -17.240  11.816   1.230  1.00  0.00    -0.200 F 
ATOM     89  C   UNL     1     -16.529  11.307  -0.964  1.00  0.00     0.200 A 
ATOM     90  F   UNL     1     -15.777  10.773  -3.138  1.00  0.00    -0.200 F 
ATOM     91  F   UNL     1     -17.749  11.590  -1.440  1.00  0.00    -0.200 F 
ENDBRANCH  58  81
ENDBRANCH  32  33
ENDBRANCH  25  27
ENDBRANCH  24  25
ENDBRANCH  23  24
ENDBRANCH  22  23
ENDBRANCH   1  22
TORSDOF 16
