REMARK SMILES O=C(OCCOC(=O)[C@H](c1ccccc1)C(c1ccccc1)c1ccccc1)c1ccc(-c2c3nc(c(-c4c(F)c(F)c(F)c(F)c4F)c4ccc([nH]4)c(-c4c(F)c(F)c(F)c(F)c4F)c4nc(c(-c5c(F)c(F)c(F)c(F)c5F)c5ccc2[nH]5)C=C4)C=C3)cc1
REMARK SMILES IDX 4 1 3 2 2 3 1 4 29 5 30 6 91 7 31 8 90 9 32 10 33 11 34 12
REMARK SMILES IDX 84 13 35 14 89 15 83 16 85 17 36 18 88 19 82 20 81 21 37 23
REMARK SMILES IDX 69 24 49 25 68 26 50 27 53 28 67 29 86 30 51 31 52 32 66 34
REMARK SMILES IDX 87 35 54 36 38 37 39 38 47 39 40 40 41 41 45 42 48 43 42 44
REMARK SMILES IDX 43 45 46 46 44 47 70 48 71 49 79 50 72 51 73 52 77 53 80 54
REMARK SMILES IDX 74 55 75 56 78 57 76 58 55 59 56 60 64 61 57 62 58 63 62 64
REMARK SMILES IDX 65 65 59 66 60 67 63 68 61 69 5 70 6 71 7 72 8 73 9 74 16 75
REMARK SMILES IDX 17 76 18 77 22 78 19 79 21 80 20 81 23 82 24 83 28 84 25 85
REMARK SMILES IDX 27 86 26 87 10 88 11 89 15 90 12 91 14 92 13 93
REMARK H PARENT 85 22 53 33
REMARK Flexibility Score: inf
ROOT
ATOM      1  C   UNL     1       2.378   3.359   4.114  1.00  0.00     0.275 C 
ENDROOT
BRANCH   1   2
ATOM      2  O   UNL     1       1.787   2.195   3.483  1.00  0.00    -0.458 OA
BRANCH   2   3
ATOM      3  C   UNL     1       0.785   2.036   2.583  1.00  0.00     0.338 C 
ATOM      4  O   UNL     1       0.250   0.933   2.489  1.00  0.00    -0.246 OA
BRANCH   3   5
ATOM      5  C   UNL     1       0.392   3.062   1.563  1.00  0.00     0.060 A 
ATOM      6  C   UNL     1       0.339   4.435   1.778  1.00  0.00     0.016 A 
ATOM      7  C   UNL     1      -0.009   2.593   0.291  1.00  0.00     0.016 A 
ATOM      8  C   UNL     1       0.041   5.318   0.726  1.00  0.00     0.010 A 
ATOM      9  C   UNL     1      -0.332   3.475  -0.760  1.00  0.00     0.010 A 
ATOM     10  C   UNL     1      -0.271   4.858  -0.559  1.00  0.00    -0.014 A 
BRANCH  10  11
ATOM     11  C   UNL     1      -0.730   5.853  -1.575  1.00  0.00     0.031 A 
ATOM     12  C   UNL     1      -2.128   6.339  -1.472  1.00  0.00     0.074 A 
ATOM     13  C   UNL     1       0.093   6.580  -2.358  1.00  0.00     0.049 A 
ATOM     14  N   UNL     1      -2.663   7.368  -2.065  1.00  0.00    -0.248 NA
ATOM     15  C   UNL     1      -2.973   5.691  -0.461  1.00  0.00     0.031 C 
ATOM     16  C   UNL     1       1.522   6.546  -2.221  1.00  0.00     0.029 A 
ATOM     17  N   UNL     1      -0.095   7.518  -3.350  1.00  0.00    -0.354 N 
ATOM     18  C   UNL     1      -3.868   7.561  -1.431  1.00  0.00     0.074 A 
ATOM     19  C   UNL     1      -4.007   6.515  -0.436  1.00  0.00     0.031 C 
ATOM     20  C   UNL     1       2.107   7.357  -3.113  1.00  0.00     0.029 A 
ATOM     21  C   UNL     1       1.083   7.928  -3.946  1.00  0.00     0.049 A 
ATOM     22  H   UNL     1      -0.981   7.863  -3.608  1.00  0.00     0.167 HD
ATOM     23  C   UNL     1      -4.762   8.545  -1.660  1.00  0.00     0.037 A 
ATOM     24  C   UNL     1       1.339   8.663  -5.044  1.00  0.00     0.037 A 
ATOM     25  C   UNL     1      -4.640   9.514  -2.717  1.00  0.00     0.049 A 
ATOM     26  C   UNL     1       0.198   9.450  -5.570  1.00  0.00     0.074 A 
ATOM     27  C   UNL     1      -5.578  10.431  -3.147  1.00  0.00     0.029 A 
ATOM     28  N   UNL     1      -3.525   9.666  -3.540  1.00  0.00    -0.354 N 
ATOM     29  N   UNL     1      -1.001   9.542  -5.058  1.00  0.00    -0.248 NA
ATOM     30  C   UNL     1       0.446  10.306  -6.731  1.00  0.00     0.031 C 
ATOM     31  C   UNL     1      -5.069  11.078  -4.280  1.00  0.00     0.029 A 
ATOM     32  C   UNL     1      -3.782  10.622  -4.514  1.00  0.00     0.049 A 
ATOM     33  H   UNL     1      -2.681   9.169  -3.444  1.00  0.00     0.167 HD
ATOM     34  C   UNL     1      -1.633  10.535  -5.768  1.00  0.00     0.074 A 
ATOM     35  C   UNL     1      -0.693  10.985  -6.781  1.00  0.00     0.031 C 
ATOM     36  C   UNL     1      -2.863  11.049  -5.545  1.00  0.00     0.037 A 
BRANCH  23  37
ATOM     37  C   UNL     1      -6.004   8.461  -0.837  1.00  0.00     0.064 A 
ATOM     38  C   UNL     1      -6.016   8.772   0.532  1.00  0.00     0.173 A 
ATOM     39  C   UNL     1      -7.154   7.892  -1.400  1.00  0.00     0.173 A 
ATOM     40  F   UNL     1      -4.916   9.258   1.127  1.00  0.00    -0.203 F 
ATOM     41  C   UNL     1      -7.128   8.474   1.316  1.00  0.00     0.198 A 
ATOM     42  C   UNL     1      -8.269   7.619  -0.620  1.00  0.00     0.198 A 
ATOM     43  F   UNL     1      -7.168   7.546  -2.696  1.00  0.00    -0.203 F 
ATOM     44  F   UNL     1      -7.092   8.688   2.638  1.00  0.00    -0.200 F 
ATOM     45  C   UNL     1      -8.251   7.896   0.739  1.00  0.00     0.200 A 
ATOM     46  F   UNL     1      -9.345   7.046  -1.175  1.00  0.00    -0.200 F 
ATOM     47  F   UNL     1      -9.305   7.573   1.501  1.00  0.00    -0.200 F 
ENDBRANCH  23  37
BRANCH  24  48
ATOM     48  C   UNL     1       2.691   8.727  -5.669  1.00  0.00     0.064 A 
ATOM     49  C   UNL     1       3.531   9.839  -5.539  1.00  0.00     0.173 A 
ATOM     50  C   UNL     1       3.151   7.671  -6.475  1.00  0.00     0.173 A 
ATOM     51  F   UNL     1       3.121  10.907  -4.842  1.00  0.00    -0.203 F 
ATOM     52  C   UNL     1       4.779   9.882  -6.170  1.00  0.00     0.198 A 
ATOM     53  C   UNL     1       4.416   7.692  -7.063  1.00  0.00     0.198 A 
ATOM     54  F   UNL     1       2.344   6.637  -6.745  1.00  0.00    -0.203 F 
ATOM     55  F   UNL     1       5.537  10.983  -6.074  1.00  0.00    -0.200 F 
ATOM     56  C   UNL     1       5.229   8.802  -6.915  1.00  0.00     0.200 A 
ATOM     57  F   UNL     1       4.833   6.648  -7.794  1.00  0.00    -0.200 F 
ATOM     58  F   UNL     1       6.427   8.845  -7.514  1.00  0.00    -0.200 F 
ENDBRANCH  24  48
BRANCH  36  59
ATOM     59  C   UNL     1      -3.254  12.198  -6.415  1.00  0.00     0.064 A 
ATOM     60  C   UNL     1      -3.504  12.035  -7.785  1.00  0.00     0.173 A 
ATOM     61  C   UNL     1      -3.365  13.483  -5.867  1.00  0.00     0.173 A 
ATOM     62  F   UNL     1      -3.374  10.829  -8.357  1.00  0.00    -0.203 F 
ATOM     63  C   UNL     1      -3.823  13.128  -8.582  1.00  0.00     0.198 A 
ATOM     64  C   UNL     1      -3.722  14.566  -6.660  1.00  0.00     0.198 A 
ATOM     65  F   UNL     1      -3.122  13.688  -4.563  1.00  0.00    -0.203 F 
ATOM     66  F   UNL     1      -3.991  12.964  -9.901  1.00  0.00    -0.200 F 
ATOM     67  C   UNL     1      -3.941  14.390  -8.018  1.00  0.00     0.200 A 
ATOM     68  F   UNL     1      -3.843  15.783  -6.112  1.00  0.00    -0.200 F 
ATOM     69  F   UNL     1      -4.254  15.441  -8.787  1.00  0.00    -0.200 F 
ENDBRANCH  36  59
ENDBRANCH  10  11
ENDBRANCH   3   5
ENDBRANCH   2   3
ENDBRANCH   1   2
BRANCH   1  70
ATOM     70  C   UNL     1       3.832   3.569   3.699  1.00  0.00     0.274 C 
BRANCH  70  71
ATOM     71  O   UNL     1       3.878   3.693   2.272  1.00  0.00    -0.462 OA
BRANCH  71  72
ATOM     72  C   UNL     1       4.446   2.674   1.577  1.00  0.00     0.314 C 
ATOM     73  O   UNL     1       5.104   1.812   2.119  1.00  0.00    -0.252 OA
BRANCH  72  74
ATOM     74  C   UNL     1       3.949   2.621   0.096  1.00  0.00     0.141 C 
BRANCH  74  75
ATOM     75  C   UNL     1       4.299   3.781  -0.990  1.00  0.00     0.068 C 
BRANCH  75  76
ATOM     76  C   UNL     1       3.545   3.554  -2.390  1.00  0.00    -0.039 A 
ATOM     77  C   UNL     1       3.420   4.541  -3.364  1.00  0.00     0.004 A 
ATOM     78  C   UNL     1       2.995   2.335  -2.819  1.00  0.00     0.004 A 
ATOM     79  C   UNL     1       2.549   4.408  -4.473  1.00  0.00     0.000 A 
ATOM     80  C   UNL     1       2.163   2.160  -3.938  1.00  0.00     0.000 A 
ATOM     81  C   UNL     1       1.873   3.234  -4.736  1.00  0.00     0.000 A 
ENDBRANCH  75  76
BRANCH  75  82
ATOM     82  C   UNL     1       4.176   5.260  -0.460  1.00  0.00    -0.039 A 
ATOM     83  C   UNL     1       4.883   6.330  -1.045  1.00  0.00     0.004 A 
ATOM     84  C   UNL     1       3.291   5.637   0.560  1.00  0.00     0.004 A 
ATOM     85  C   UNL     1       4.647   7.674  -0.675  1.00  0.00     0.000 A 
ATOM     86  C   UNL     1       3.108   6.960   0.998  1.00  0.00     0.000 A 
ATOM     87  C   UNL     1       3.760   7.990   0.350  1.00  0.00     0.000 A 
ENDBRANCH  75  82
ENDBRANCH  74  75
BRANCH  74  88
ATOM     88  C   UNL     1       4.382   1.227  -0.393  1.00  0.00    -0.033 A 
ATOM     89  C   UNL     1       5.707   1.009  -0.796  1.00  0.00     0.004 A 
ATOM     90  C   UNL     1       3.447   0.176  -0.499  1.00  0.00     0.004 A 
ATOM     91  C   UNL     1       6.062  -0.180  -1.420  1.00  0.00     0.000 A 
ATOM     92  C   UNL     1       3.797  -0.993  -1.177  1.00  0.00     0.000 A 
ATOM     93  C   UNL     1       5.099  -1.161  -1.648  1.00  0.00     0.000 A 
ENDBRANCH  74  88
ENDBRANCH  72  74
ENDBRANCH  71  72
ENDBRANCH  70  71
ENDBRANCH   1  70
TORSDOF 15
