REMARK SMILES O=C(OCCOC(=O)[C@@H]1[C@@H](C(=O)Nc2cccc(C(F)(F)F)c2)[C@@H]2C=C[C@H]1O2)c1ccc(-c2c3nc(c(-c4c(F)c(F)c(F)c(F)c4F)c4ccc([nH]4)c(-c4c(F)c(F)c(F)c(F)c4F)c4nc(c(-c5c(F)c(F)c(F)c(F)c5F)c5ccc2[nH]5)C=C4)C=C3)cc1
REMARK SMILES IDX 5 1 4 2 3 3 2 4 1 5 29 6 30 7 91 8 31 9 90 10 32 11 33 12
REMARK SMILES IDX 34 13 84 14 35 15 89 16 83 17 85 18 36 19 88 20 82 21 81 22
REMARK SMILES IDX 37 24 69 25 49 26 68 27 50 28 53 29 67 30 86 31 51 32 52 33
REMARK SMILES IDX 66 35 87 36 54 37 38 38 39 39 47 40 40 41 41 42 45 43 48 44
REMARK SMILES IDX 42 45 43 46 46 47 44 48 70 49 71 50 79 51 72 52 73 53 77 54
REMARK SMILES IDX 80 55 74 56 75 57 78 58 76 59 55 60 56 61 64 62 57 63 58 64
REMARK SMILES IDX 62 65 65 66 59 67 60 68 63 69 61 70 6 71 7 72 8 73 9 74
REMARK SMILES IDX 10 75 27 76 24 77 26 78 28 79 25 80 11 81 12 82 13 83 14 85
REMARK SMILES IDX 15 86 23 87 16 88 18 89 17 90 19 91 20 92 21 93 22 94
REMARK H PARENT 85 23 53 34 13 84
REMARK Flexibility Score: inf
ROOT
ATOM      1  C   UNL     1       3.686  -2.203   0.741  1.00  0.00     0.274 C 
ENDROOT
BRANCH   1   2
ATOM      2  C   UNL     1       4.319  -1.068   1.552  1.00  0.00     0.275 C 
BRANCH   2   3
ATOM      3  O   UNL     1       3.689   0.207   1.404  1.00  0.00    -0.458 OA
BRANCH   3   4
ATOM      4  C   UNL     1       3.849   1.127   0.430  1.00  0.00     0.338 C 
ATOM      5  O   UNL     1       3.229   2.184   0.521  1.00  0.00    -0.246 OA
BRANCH   4   6
ATOM      6  C   UNL     1       4.637   0.888  -0.825  1.00  0.00     0.060 A 
ATOM      7  C   UNL     1       5.679  -0.018  -1.042  1.00  0.00     0.016 A 
ATOM      8  C   UNL     1       4.232   1.662  -1.917  1.00  0.00     0.016 A 
ATOM      9  C   UNL     1       6.221  -0.219  -2.325  1.00  0.00     0.010 A 
ATOM     10  C   UNL     1       4.694   1.398  -3.205  1.00  0.00     0.010 A 
ATOM     11  C   UNL     1       5.708   0.458  -3.430  1.00  0.00    -0.014 A 
BRANCH  11  12
ATOM     12  C   UNL     1       6.237   0.279  -4.811  1.00  0.00     0.031 A 
ATOM     13  C   UNL     1       6.667   1.502  -5.581  1.00  0.00     0.074 A 
ATOM     14  C   UNL     1       6.211  -0.920  -5.431  1.00  0.00     0.049 A 
ATOM     15  N   UNL     1       6.972   1.624  -6.847  1.00  0.00    -0.248 NA
ATOM     16  C   UNL     1       6.678   2.775  -4.839  1.00  0.00     0.031 C 
ATOM     17  C   UNL     1       5.754  -2.181  -4.850  1.00  0.00     0.029 A 
ATOM     18  N   UNL     1       6.528  -1.257  -6.726  1.00  0.00    -0.354 N 
ATOM     19  C   UNL     1       7.187   2.983  -7.034  1.00  0.00     0.074 A 
ATOM     20  C   UNL     1       6.780   3.651  -5.822  1.00  0.00     0.031 C 
ATOM     21  C   UNL     1       5.772  -3.140  -5.792  1.00  0.00     0.029 A 
ATOM     22  C   UNL     1       6.262  -2.570  -7.040  1.00  0.00     0.049 A 
ATOM     23  H   UNL     1       6.910  -0.618  -7.370  1.00  0.00     0.167 HD
ATOM     24  C   UNL     1       7.797   3.615  -8.063  1.00  0.00     0.037 A 
ATOM     25  C   UNL     1       6.411  -3.237  -8.202  1.00  0.00     0.037 A 
ATOM     26  C   UNL     1       8.299   2.935  -9.220  1.00  0.00     0.049 A 
ATOM     27  C   UNL     1       7.066  -2.530  -9.361  1.00  0.00     0.074 A 
ATOM     28  C   UNL     1       9.060   3.434 -10.259  1.00  0.00     0.029 A 
ATOM     29  N   UNL     1       8.097   1.587  -9.475  1.00  0.00    -0.354 N 
ATOM     30  N   UNL     1       7.431  -1.275  -9.464  1.00  0.00    -0.248 NA
ATOM     31  C   UNL     1       7.393  -3.347 -10.538  1.00  0.00     0.031 C 
ATOM     32  C   UNL     1       9.297   2.389 -11.159  1.00  0.00     0.029 A 
ATOM     33  C   UNL     1       8.715   1.234 -10.659  1.00  0.00     0.049 A 
ATOM     34  H   UNL     1       7.588   0.972  -8.898  1.00  0.00     0.167 HD
ATOM     35  C   UNL     1       8.104  -1.172 -10.675  1.00  0.00     0.074 A 
ATOM     36  C   UNL     1       8.074  -2.486 -11.281  1.00  0.00     0.031 C 
ATOM     37  C   UNL     1       8.714  -0.092 -11.222  1.00  0.00     0.037 A 
BRANCH  24  38
ATOM     38  C   UNL     1       8.041   5.089  -7.904  1.00  0.00     0.064 A 
ATOM     39  C   UNL     1       8.885   5.577  -6.889  1.00  0.00     0.173 A 
ATOM     40  C   UNL     1       7.408   6.024  -8.732  1.00  0.00     0.173 A 
ATOM     41  F   UNL     1       9.514   4.725  -6.064  1.00  0.00    -0.203 F 
ATOM     42  C   UNL     1       9.024   6.942  -6.662  1.00  0.00     0.198 A 
ATOM     43  C   UNL     1       7.586   7.392  -8.530  1.00  0.00     0.198 A 
ATOM     44  F   UNL     1       6.606   5.616  -9.726  1.00  0.00    -0.203 F 
ATOM     45  F   UNL     1       9.754   7.375  -5.625  1.00  0.00    -0.200 F 
ATOM     46  C   UNL     1       8.377   7.849  -7.485  1.00  0.00     0.200 A 
ATOM     47  F   UNL     1       6.977   8.271  -9.337  1.00  0.00    -0.200 F 
ATOM     48  F   UNL     1       8.504   9.164  -7.262  1.00  0.00    -0.200 F 
ENDBRANCH  24  38
BRANCH  25  49
ATOM     49  C   UNL     1       6.043  -4.675  -8.303  1.00  0.00     0.064 A 
ATOM     50  C   UNL     1       7.036  -5.665  -8.351  1.00  0.00     0.173 A 
ATOM     51  C   UNL     1       4.707  -5.089  -8.396  1.00  0.00     0.173 A 
ATOM     52  F   UNL     1       8.329  -5.316  -8.278  1.00  0.00    -0.203 F 
ATOM     53  C   UNL     1       6.711  -7.007  -8.533  1.00  0.00     0.198 A 
ATOM     54  C   UNL     1       4.382  -6.436  -8.561  1.00  0.00     0.198 A 
ATOM     55  F   UNL     1       3.716  -4.186  -8.334  1.00  0.00    -0.203 F 
ATOM     56  F   UNL     1       7.685  -7.922  -8.632  1.00  0.00    -0.200 F 
ATOM     57  C   UNL     1       5.384  -7.392  -8.641  1.00  0.00     0.200 A 
ATOM     58  F   UNL     1       3.098  -6.806  -8.659  1.00  0.00    -0.200 F 
ATOM     59  F   UNL     1       5.072  -8.681  -8.834  1.00  0.00    -0.200 F 
ENDBRANCH  25  49
BRANCH  37  60
ATOM     60  C   UNL     1       9.482  -0.295 -12.493  1.00  0.00     0.064 A 
ATOM     61  C   UNL     1       8.842  -0.515 -13.720  1.00  0.00     0.173 A 
ATOM     62  C   UNL     1      10.883  -0.192 -12.489  1.00  0.00     0.173 A 
ATOM     63  F   UNL     1       7.507  -0.636 -13.772  1.00  0.00    -0.203 F 
ATOM     64  C   UNL     1       9.577  -0.641 -14.895  1.00  0.00     0.198 A 
ATOM     65  C   UNL     1      11.611  -0.284 -13.669  1.00  0.00     0.198 A 
ATOM     66  F   UNL     1      11.541   0.024 -11.340  1.00  0.00    -0.203 F 
ATOM     67  F   UNL     1       8.948  -0.892 -16.051  1.00  0.00    -0.200 F 
ATOM     68  C   UNL     1      10.959  -0.513 -14.870  1.00  0.00     0.200 A 
ATOM     69  F   UNL     1      12.944  -0.142 -13.646  1.00  0.00    -0.200 F 
ATOM     70  F   UNL     1      11.662  -0.615 -16.006  1.00  0.00    -0.200 F 
ENDBRANCH  37  60
ENDBRANCH  11  12
ENDBRANCH   4   6
ENDBRANCH   3   4
ENDBRANCH   2   3
ENDBRANCH   1   2
BRANCH   1  71
ATOM     71  O   UNL     1       3.254  -1.868  -0.599  1.00  0.00    -0.462 OA
BRANCH  71  72
ATOM     72  C   UNL     1       1.906  -1.708  -0.728  1.00  0.00     0.312 C 
ATOM     73  O   UNL     1       1.138  -1.682   0.225  1.00  0.00    -0.252 OA
BRANCH  72  74
ATOM     74  C   UNL     1       1.392  -1.706  -2.154  1.00  0.00     0.147 C 
ATOM     75  C   UNL     1       2.256  -1.167  -3.350  1.00  0.00     0.129 C 
ATOM     76  C   UNL     1       0.170  -0.769  -2.211  1.00  0.00     0.157 C 
ATOM     77  C   UNL     1       1.387   0.007  -3.806  1.00  0.00     0.155 C 
ATOM     78  C   UNL     1       0.521   0.636  -1.815  1.00  0.00     0.004 C 
ATOM     79  O   UNL     1       0.074  -0.576  -3.648  1.00  0.00    -0.365 OA
ATOM     80  C   UNL     1       1.270   1.112  -2.811  1.00  0.00     0.004 C 
BRANCH  75  81
ATOM     81  C   UNL     1       2.485  -2.310  -4.366  1.00  0.00     0.231 C 
ATOM     82  O   UNL     1       2.816  -3.425  -3.928  1.00  0.00    -0.274 OA
ATOM     83  N   UNL     1       2.446  -2.206  -5.734  1.00  0.00    -0.326 N 
ATOM     84  H   UNL     1       2.891  -2.931  -6.230  1.00  0.00     0.169 HD
BRANCH  83  85
ATOM     85  C   UNL     1       1.859  -1.209  -6.516  1.00  0.00     0.041 A 
ATOM     86  C   UNL     1       0.524  -1.369  -6.893  1.00  0.00     0.026 A 
ATOM     87  C   UNL     1       2.539  -0.020  -6.790  1.00  0.00     0.039 A 
ATOM     88  C   UNL     1      -0.177  -0.288  -7.424  1.00  0.00     0.003 A 
ATOM     89  C   UNL     1       1.816   1.097  -7.247  1.00  0.00     0.058 A 
ATOM     90  C   UNL     1       0.456   0.947  -7.573  1.00  0.00     0.013 A 
BRANCH  89  91
ATOM     91  C   UNL     1       2.426   2.478  -7.210  1.00  0.00     0.416 C 
ATOM     92  F   UNL     1       2.622   3.022  -8.438  1.00  0.00    -0.166 F 
ATOM     93  F   UNL     1       1.639   3.360  -6.527  1.00  0.00    -0.166 F 
ATOM     94  F   UNL     1       3.629   2.516  -6.568  1.00  0.00    -0.166 F 
ENDBRANCH  89  91
ENDBRANCH  83  85
ENDBRANCH  75  81
ENDBRANCH  72  74
ENDBRANCH  71  72
ENDBRANCH   1  71
TORSDOF 14
