REMARK SMILES O=C(COc1ccccc1/C=C1/SC(=S)N(c2ccc(F)c(Cl)c2)C1=O)OCCOC(=O)c1ccc(-c2c3nc(c(-c4c(F)c(F)c(F)c(F)c4F)c4ccc([nH]4)c(-c4c(F)c(F)c(F)c(F)c4F)c4nc(c(-c5c(F)c(F)c(F)c(F)c5F)c5ccc2[nH]5)C=C4)C=C3)cc1
REMARK SMILES IDX 28 1 27 2 2 3 1 4 3 5 4 6 5 7 6 8 10 9 7 10 9 11 8 12 11 13
REMARK SMILES IDX 12 14 13 15 25 16 14 17 16 18 26 19 15 20 17 21 18 22 24 23
REMARK SMILES IDX 19 24 22 25 20 26 23 27 21 28 29 29 30 30 31 31 32 32 33 33
REMARK SMILES IDX 34 34 95 35 35 36 94 37 36 38 37 39 38 40 88 41 39 42 93 43
REMARK SMILES IDX 87 44 89 45 40 46 92 47 86 48 85 49 41 51 73 52 53 53 72 54
REMARK SMILES IDX 54 55 57 56 71 57 90 58 55 59 56 60 70 62 91 63 58 64 42 65
REMARK SMILES IDX 43 66 51 67 44 68 45 69 49 70 52 71 46 72 47 73 50 74 48 75
REMARK SMILES IDX 74 76 75 77 83 78 76 79 77 80 81 81 84 82 78 83 79 84 82 85
REMARK SMILES IDX 80 86 59 87 60 88 68 89 61 90 62 91 66 92 69 93 63 94 64 95
REMARK SMILES IDX 67 96 65 97
REMARK H PARENT 89 50 57 61
REMARK Flexibility Score: inf
ROOT
ATOM      1  C   UNL     1       4.817   0.000  -0.942  1.00  0.00     0.274 C 
ENDROOT
BRANCH   1   2
ATOM      2  O   UNL     1       3.482  -0.328  -0.495  1.00  0.00    -0.460 OA
BRANCH   2   3
ATOM      3  C   UNL     1       2.548   0.608  -0.190  1.00  0.00     0.344 C 
ATOM      4  O   UNL     1       1.350   0.352  -0.278  1.00  0.00    -0.248 OA
BRANCH   3   5
ATOM      5  C   UNL     1       3.030   1.928   0.364  1.00  0.00     0.352 C 
BRANCH   5   6
ATOM      6  O   UNL     1       3.897   1.682   1.469  1.00  0.00    -0.481 OA
BRANCH   6   7
ATOM      7  C   UNL     1       3.308   2.057   2.650  1.00  0.00     0.127 A 
ATOM      8  C   UNL     1       3.699   3.300   3.159  1.00  0.00     0.047 A 
ATOM      9  C   UNL     1       2.375   1.255   3.334  1.00  0.00     0.018 A 
ATOM     10  C   UNL     1       3.120   3.790   4.326  1.00  0.00     0.004 A 
ATOM     11  C   UNL     1       1.795   1.775   4.501  1.00  0.00     0.012 A 
ATOM     12  C   UNL     1       2.161   3.032   4.992  1.00  0.00     0.001 A 
BRANCH   9  13
ATOM     13  C   UNL     1       1.861  -0.047   2.872  1.00  0.00     0.033 C 
ATOM     14  C   UNL     1       2.529  -1.163   2.540  1.00  0.00     0.081 C 
ATOM     15  S   UNL     1       1.728  -2.543   1.891  1.00  0.00    -0.054 SA
ATOM     16  C   UNL     1       3.998  -1.400   2.551  1.00  0.00     0.270 C 
ATOM     17  C   UNL     1       3.232  -3.290   1.357  1.00  0.00     0.152 C 
ATOM     18  N   UNL     1       4.315  -2.527   1.781  1.00  0.00    -0.261 N 
ATOM     19  O   UNL     1       4.778  -0.665   3.145  1.00  0.00    -0.268 OA
ATOM     20  S   UNL     1       3.199  -4.772   0.577  1.00  0.00    -0.051 S 
BRANCH  18  21
ATOM     21  C   UNL     1       5.689  -2.787   1.447  1.00  0.00     0.052 A 
ATOM     22  C   UNL     1       6.711  -2.554   2.383  1.00  0.00     0.030 A 
ATOM     23  C   UNL     1       6.067  -3.144   0.140  1.00  0.00     0.050 A 
ATOM     24  C   UNL     1       8.060  -2.643   2.027  1.00  0.00     0.043 A 
ATOM     25  C   UNL     1       7.417  -3.213  -0.222  1.00  0.00     0.078 A 
ATOM     26  C   UNL     1       8.406  -2.958   0.721  1.00  0.00     0.141 A 
ATOM     27  Cl  UNL     1       7.834  -3.534  -1.862  1.00  0.00    -0.081 Cl
ATOM     28  F   UNL     1       9.703  -2.983   0.384  1.00  0.00    -0.205 F 
ENDBRANCH  18  21
ENDBRANCH   9  13
ENDBRANCH   6   7
ENDBRANCH   5   6
ENDBRANCH   3   5
ENDBRANCH   2   3
ENDBRANCH   1   2
BRANCH   1  29
ATOM     29  C   UNL     1       4.971  -0.495  -2.382  1.00  0.00     0.275 C 
BRANCH  29  30
ATOM     30  O   UNL     1       4.358   0.484  -3.236  1.00  0.00    -0.458 OA
BRANCH  30  31
ATOM     31  C   UNL     1       3.022   0.351  -3.430  1.00  0.00     0.338 C 
ATOM     32  O   UNL     1       2.363  -0.665  -3.317  1.00  0.00    -0.246 OA
BRANCH  31  33
ATOM     33  C   UNL     1       2.465   1.723  -3.520  1.00  0.00     0.060 A 
ATOM     34  C   UNL     1       1.194   1.973  -2.984  1.00  0.00     0.016 A 
ATOM     35  C   UNL     1       3.233   2.778  -4.024  1.00  0.00     0.016 A 
ATOM     36  C   UNL     1       0.698   3.277  -2.935  1.00  0.00     0.010 A 
ATOM     37  C   UNL     1       2.734   4.075  -3.989  1.00  0.00     0.010 A 
ATOM     38  C   UNL     1       1.460   4.328  -3.457  1.00  0.00    -0.014 A 
BRANCH  38  39
ATOM     39  C   UNL     1       0.884   5.676  -3.640  1.00  0.00     0.031 A 
ATOM     40  C   UNL     1       0.252   5.987  -4.964  1.00  0.00     0.074 A 
ATOM     41  C   UNL     1       1.007   6.619  -2.691  1.00  0.00     0.049 A 
ATOM     42  N   UNL     1      -0.178   7.129  -5.432  1.00  0.00    -0.248 NA
ATOM     43  C   UNL     1       0.104   4.856  -5.897  1.00  0.00     0.031 C 
ATOM     44  C   UNL     1       1.595   6.420  -1.368  1.00  0.00     0.029 A 
ATOM     45  N   UNL     1       0.672   7.949  -2.715  1.00  0.00    -0.354 N 
ATOM     46  C   UNL     1      -0.642   6.855  -6.710  1.00  0.00     0.074 A 
ATOM     47  C   UNL     1      -0.420   5.448  -6.958  1.00  0.00     0.031 C 
ATOM     48  C   UNL     1       1.609   7.597  -0.716  1.00  0.00     0.029 A 
ATOM     49  C   UNL     1       1.060   8.633  -1.589  1.00  0.00     0.049 A 
ATOM     50  H   UNL     1       0.199   8.372  -3.467  1.00  0.00     0.167 HD
ATOM     51  C   UNL     1      -1.208   7.705  -7.596  1.00  0.00     0.037 A 
ATOM     52  C   UNL     1       1.002   9.952  -1.318  1.00  0.00     0.037 A 
ATOM     53  C   UNL     1      -1.414   9.104  -7.348  1.00  0.00     0.049 A 
ATOM     54  C   UNL     1       0.424  10.888  -2.351  1.00  0.00     0.074 A 
ATOM     55  C   UNL     1      -2.008  10.048  -8.165  1.00  0.00     0.029 A 
ATOM     56  N   UNL     1      -1.017   9.761  -6.194  1.00  0.00    -0.354 N 
ATOM     57  N   UNL     1      -0.065  10.615  -3.537  1.00  0.00    -0.248 NA
ATOM     58  C   UNL     1       0.394  12.318  -2.008  1.00  0.00     0.031 C 
ATOM     59  C   UNL     1      -1.930  11.288  -7.523  1.00  0.00     0.029 A 
ATOM     60  C   UNL     1      -1.327  11.107  -6.288  1.00  0.00     0.049 A 
ATOM     61  H   UNL     1      -0.579   9.335  -5.422  1.00  0.00     0.167 HD
ATOM     62  C   UNL     1      -0.482  11.829  -4.068  1.00  0.00     0.074 A 
ATOM     63  C   UNL     1      -0.203  12.839  -3.070  1.00  0.00     0.031 C 
ATOM     64  C   UNL     1      -1.045  12.089  -5.274  1.00  0.00     0.037 A 
BRANCH  51  65
ATOM     65  C   UNL     1      -1.624   7.144  -8.921  1.00  0.00     0.064 A 
ATOM     66  C   UNL     1      -2.749   6.316  -9.045  1.00  0.00     0.173 A 
ATOM     67  C   UNL     1      -0.906   7.461 -10.083  1.00  0.00     0.173 A 
ATOM     68  F   UNL     1      -3.454   5.968  -7.957  1.00  0.00    -0.203 F 
ATOM     69  C   UNL     1      -3.133   5.813 -10.284  1.00  0.00     0.198 A 
ATOM     70  C   UNL     1      -1.307   6.975 -11.325  1.00  0.00     0.198 A 
ATOM     71  F   UNL     1       0.180   8.244 -10.015  1.00  0.00    -0.203 F 
ATOM     72  F   UNL     1      -4.189   4.994 -10.375  1.00  0.00    -0.200 F 
ATOM     73  C   UNL     1      -2.417   6.149 -11.424  1.00  0.00     0.200 A 
ATOM     74  F   UNL     1      -0.617   7.305 -12.425  1.00  0.00    -0.200 F 
ATOM     75  F   UNL     1      -2.792   5.671 -12.618  1.00  0.00    -0.200 F 
ENDBRANCH  51  65
BRANCH  52  76
ATOM     76  C   UNL     1       1.524  10.481  -0.031  1.00  0.00     0.064 A 
ATOM     77  C   UNL     1       0.660  11.031   0.926  1.00  0.00     0.173 A 
ATOM     78  C   UNL     1       2.899  10.494   0.249  1.00  0.00     0.173 A 
ATOM     79  F   UNL     1      -0.660  11.066   0.693  1.00  0.00    -0.203 F 
ATOM     80  C   UNL     1       1.152  11.598   2.101  1.00  0.00     0.198 A 
ATOM     81  C   UNL     1       3.387  11.037   1.437  1.00  0.00     0.198 A 
ATOM     82  F   UNL     1       3.770   9.983  -0.633  1.00  0.00    -0.203 F 
ATOM     83  F   UNL     1       0.307  12.166   2.972  1.00  0.00    -0.200 F 
ATOM     84  C   UNL     1       2.514  11.598   2.357  1.00  0.00     0.200 A 
ATOM     85  F   UNL     1       4.704  11.026   1.684  1.00  0.00    -0.200 F 
ATOM     86  F   UNL     1       2.987  12.148   3.483  1.00  0.00    -0.200 F 
ENDBRANCH  52  76
BRANCH  64  87
ATOM     87  C   UNL     1      -1.420  13.511  -5.568  1.00  0.00     0.064 A 
ATOM     88  C   UNL     1      -0.449  14.479  -5.859  1.00  0.00     0.173 A 
ATOM     89  C   UNL     1      -2.769  13.895  -5.613  1.00  0.00     0.173 A 
ATOM     90  F   UNL     1       0.855  14.163  -5.814  1.00  0.00    -0.203 F 
ATOM     91  C   UNL     1      -0.814  15.786  -6.167  1.00  0.00     0.198 A 
ATOM     92  C   UNL     1      -3.131  15.195  -5.948  1.00  0.00     0.198 A 
ATOM     93  F   UNL     1      -3.735  13.002  -5.349  1.00  0.00    -0.203 F 
ATOM     94  F   UNL     1       0.132  16.706  -6.404  1.00  0.00    -0.200 F 
ATOM     95  C   UNL     1      -2.154  16.141  -6.220  1.00  0.00     0.200 A 
ATOM     96  F   UNL     1      -4.427  15.533  -6.012  1.00  0.00    -0.200 F 
ATOM     97  F   UNL     1      -2.504  17.398  -6.527  1.00  0.00    -0.200 F 
ENDBRANCH  64  87
ENDBRANCH  38  39
ENDBRANCH  31  33
ENDBRANCH  30  31
ENDBRANCH  29  30
ENDBRANCH   1  29
TORSDOF 15
