REMARK SMILES C[C@H]1CCCN(C(=O)NC[C@H]2CC[C@H](C(=O)OCCOC(=O)c3ccc(-c4c5nc(c(-c6c(F)c(F)c(F)c(F)c6F)c6ccc([nH]6)c(-c6c(F)c(F)c(F)c(F)c6F)c6nc(c(-c7c(F)c(F)c(F)c(F)c7F)c7ccc4[nH]7)C=C6)C=C5)cc3)O2)CC1
REMARK SMILES IDX 15 1 16 2 14 3 11 4 12 5 86 6 13 7 10 8 9 9 7 10 8 11 6 13
REMARK SMILES IDX 87 14 88 15 2 16 1 17 3 18 5 20 4 21 17 23 18 24 19 25 20 26
REMARK SMILES IDX 21 27 22 28 23 29 24 30 85 31 25 32 84 33 26 34 27 35 28 36
REMARK SMILES IDX 78 37 29 38 83 39 77 40 79 41 30 42 82 43 76 44 75 45 31 47
REMARK SMILES IDX 63 48 43 49 62 50 44 51 47 52 61 53 80 54 45 55 46 56 60 58
REMARK SMILES IDX 81 59 48 60 32 61 33 62 41 63 34 64 35 65 39 66 42 67 36 68
REMARK SMILES IDX 37 69 40 70 38 71 64 72 65 73 73 74 66 75 67 76 71 77 74 78
REMARK SMILES IDX 68 79 69 80 72 81 70 82 49 83 50 84 58 85 51 86 52 87 56 88
REMARK SMILES IDX 59 89 53 90 54 91 57 92 55 93
REMARK H PARENT 9 12 79 46 47 57
REMARK Flexibility Score: 80.00
ROOT
ATOM      1  C   UNL     1       3.913  -9.731  -3.073  1.00  0.00     0.335 C 
ATOM      2  O   UNL     1       4.146 -10.090  -4.222  1.00  0.00    -0.249 OA
ENDROOT
BRANCH   1   3
ATOM      3  C   UNL     1       2.571  -9.130  -2.643  1.00  0.00     0.228 C 
ATOM      4  C   UNL     1       2.038  -7.274  -1.335  1.00  0.00     0.138 C 
ATOM      5  C   UNL     1       2.221  -8.444  -0.392  1.00  0.00     0.037 C 
ATOM      6  O   UNL     1       2.606  -7.693  -2.587  1.00  0.00    -0.361 OA
ATOM      7  C   UNL     1       2.065  -9.638  -1.297  1.00  0.00     0.047 C 
BRANCH   4   8
ATOM      8  C   UNL     1       0.573  -6.818  -1.514  1.00  0.00     0.149 C 
BRANCH   8   9
ATOM      9  N   UNL     1      -0.183  -7.591  -2.495  1.00  0.00    -0.335 N 
ATOM     10  C   UNL     1      -1.227  -8.429  -2.575  1.00  0.00     0.317 C 
ATOM     11  O   UNL     1      -1.508  -8.777  -3.728  1.00  0.00    -0.249 OA
ATOM     12  H   UNL     1       0.199  -7.451  -3.392  1.00  0.00     0.165 HD
BRANCH  10  13
ATOM     13  N   UNL     1      -1.920  -8.896  -1.489  1.00  0.00    -0.325 N 
BRANCH  13  14
ATOM     14  C   UNL     1      -3.006  -9.850  -1.757  1.00  0.00     0.121 C 
BRANCH  14  15
ATOM     15  C   UNL     1      -4.389  -9.200  -1.659  1.00  0.00     0.025 C 
BRANCH  15  16
ATOM     16  C   UNL     1      -4.965  -9.063  -0.240  1.00  0.00    -0.012 C 
ATOM     17  C   UNL     1      -5.438 -10.412   0.315  1.00  0.00     0.008 C 
BRANCH  16  18
ATOM     18  C   UNL     1      -4.038  -8.339   0.747  1.00  0.00     0.005 CG0
ATOM     19  G   UNL     1      -2.670  -8.988   0.952  1.00  0.00     0.000 G0
ENDBRANCH  16  18
ENDBRANCH  15  16
ENDBRANCH  14  15
ENDBRANCH  13  14
BRANCH  13  20
ATOM     20  C   UNL     1      -1.659  -8.542  -0.103  1.00  0.00     0.121 C 
BRANCH  20  21
ATOM     21  C   UNL     1      -2.670  -8.988   0.952  1.00  0.00     0.022 CG0
ATOM     22  G   UNL     1      -4.038  -8.339   0.747  1.00  0.00     0.000 G0
ENDBRANCH  20  21
ENDBRANCH  13  20
ENDBRANCH  10  13
ENDBRANCH   8   9
ENDBRANCH   4   8
ENDBRANCH   1   3
BRANCH   1  23
ATOM     23  O   UNL     1       4.796  -9.820  -2.040  1.00  0.00    -0.460 OA
BRANCH  23  24
ATOM     24  C   UNL     1       6.068 -10.422  -2.349  1.00  0.00     0.274 C 
BRANCH  24  25
ATOM     25  C   UNL     1       6.090 -11.915  -2.009  1.00  0.00     0.275 C 
BRANCH  25  26
ATOM     26  O   UNL     1       5.253 -12.675  -2.901  1.00  0.00    -0.458 OA
BRANCH  26  27
ATOM     27  C   UNL     1       4.010 -12.943  -2.442  1.00  0.00     0.338 C 
ATOM     28  O   UNL     1       3.545 -12.665  -1.352  1.00  0.00    -0.246 OA
BRANCH  27  29
ATOM     29  C   UNL     1       3.211 -13.564  -3.508  1.00  0.00     0.060 A 
ATOM     30  C   UNL     1       2.062 -12.903  -3.956  1.00  0.00     0.016 A 
ATOM     31  C   UNL     1       3.542 -14.830  -3.991  1.00  0.00     0.016 A 
ATOM     32  C   UNL     1       1.231 -13.512  -4.895  1.00  0.00     0.010 A 
ATOM     33  C   UNL     1       2.706 -15.441  -4.927  1.00  0.00     0.010 A 
ATOM     34  C   UNL     1       1.541 -14.791  -5.372  1.00  0.00    -0.014 A 
BRANCH  34  35
ATOM     35  C   UNL     1       0.621 -15.497  -6.292  1.00  0.00     0.031 A 
ATOM     36  C   UNL     1      -0.251 -16.595  -5.763  1.00  0.00     0.074 A 
ATOM     37  C   UNL     1       0.604 -15.185  -7.599  1.00  0.00     0.049 A 
ATOM     38  N   UNL     1      -0.994 -17.453  -6.413  1.00  0.00    -0.248 NA
ATOM     39  C   UNL     1      -0.280 -16.754  -4.301  1.00  0.00     0.031 C 
ATOM     40  C   UNL     1       1.379 -14.112  -8.218  1.00  0.00     0.029 A 
ATOM     41  N   UNL     1      -0.071 -15.764  -8.643  1.00  0.00    -0.354 N 
ATOM     42  C   UNL     1      -1.556 -18.273  -5.445  1.00  0.00     0.074 A 
ATOM     43  C   UNL     1      -1.064 -17.814  -4.162  1.00  0.00     0.031 C 
ATOM     44  C   UNL     1       1.156 -14.125  -9.542  1.00  0.00     0.029 A 
ATOM     45  C   UNL     1       0.260 -15.234  -9.864  1.00  0.00     0.049 A 
ATOM     46  H   UNL     1      -0.729 -16.488  -8.528  1.00  0.00     0.167 HD
ATOM     47  C   UNL     1      -2.401 -19.317  -5.616  1.00  0.00     0.037 A 
ATOM     48  C   UNL     1      -0.087 -15.627 -11.104  1.00  0.00     0.037 A 
ATOM     49  C   UNL     1      -2.897 -19.755  -6.894  1.00  0.00     0.049 A 
ATOM     50  C   UNL     1      -0.997 -16.812 -11.276  1.00  0.00     0.074 A 
ATOM     51  C   UNL     1      -3.782 -20.781  -7.173  1.00  0.00     0.029 A 
ATOM     52  N   UNL     1      -2.545 -19.187  -8.111  1.00  0.00    -0.354 N 
ATOM     53  N   UNL     1      -1.527 -17.584 -10.359  1.00  0.00    -0.248 NA
ATOM     54  C   UNL     1      -1.352 -17.183 -12.652  1.00  0.00     0.031 C 
ATOM     55  C   UNL     1      -3.935 -20.860  -8.562  1.00  0.00     0.029 A 
ATOM     56  C   UNL     1      -3.178 -19.857  -9.145  1.00  0.00     0.049 A 
ATOM     57  H   UNL     1      -1.935 -18.422  -8.222  1.00  0.00     0.167 HD
ATOM     58  C   UNL     1      -2.292 -18.519 -11.042  1.00  0.00     0.074 A 
ATOM     59  C   UNL     1      -2.161 -18.216 -12.452  1.00  0.00     0.031 C 
ATOM     60  C   UNL     1      -3.038 -19.535 -10.543  1.00  0.00     0.037 A 
BRANCH  47  61
ATOM     61  C   UNL     1      -2.805 -20.081  -4.392  1.00  0.00     0.064 A 
ATOM     62  C   UNL     1      -3.700 -19.552  -3.450  1.00  0.00     0.173 A 
ATOM     63  C   UNL     1      -2.294 -21.367  -4.163  1.00  0.00     0.173 A 
ATOM     64  F   UNL     1      -4.204 -18.320  -3.616  1.00  0.00    -0.203 F 
ATOM     65  C   UNL     1      -4.044 -20.271  -2.308  1.00  0.00     0.198 A 
ATOM     66  C   UNL     1      -2.659 -22.093  -3.033  1.00  0.00     0.198 A 
ATOM     67  F   UNL     1      -1.437 -21.920  -5.035  1.00  0.00    -0.203 F 
ATOM     68  F   UNL     1      -4.861 -19.726  -1.396  1.00  0.00    -0.200 F 
ATOM     69  C   UNL     1      -3.526 -21.541  -2.102  1.00  0.00     0.200 A 
ATOM     70  F   UNL     1      -2.164 -23.324  -2.839  1.00  0.00    -0.200 F 
ATOM     71  F   UNL     1      -3.856 -22.230  -1.001  1.00  0.00    -0.200 F 
ENDBRANCH  47  61
BRANCH  48  72
ATOM     72  C   UNL     1       0.459 -14.896 -12.274  1.00  0.00     0.064 A 
ATOM     73  C   UNL     1      -0.350 -14.045 -13.036  1.00  0.00     0.173 A 
ATOM     74  C   UNL     1       1.812 -15.005 -12.627  1.00  0.00     0.173 A 
ATOM     75  F   UNL     1      -1.656 -13.930 -12.751  1.00  0.00    -0.203 F 
ATOM     76  C   UNL     1       0.174 -13.326 -14.108  1.00  0.00     0.198 A 
ATOM     77  C   UNL     1       2.341 -14.269 -13.685  1.00  0.00     0.198 A 
ATOM     78  F   UNL     1       2.626 -15.810 -11.929  1.00  0.00    -0.203 F 
ATOM     79  F   UNL     1      -0.625 -12.535 -14.837  1.00  0.00    -0.200 F 
ATOM     80  C   UNL     1       1.521 -13.431 -14.426  1.00  0.00     0.200 A 
ATOM     81  F   UNL     1       3.643 -14.367 -13.983  1.00  0.00    -0.200 F 
ATOM     82  F   UNL     1       2.027 -12.729 -15.448  1.00  0.00    -0.200 F 
ENDBRANCH  48  72
BRANCH  60  83
ATOM     83  C   UNL     1      -3.798 -20.378 -11.523  1.00  0.00     0.064 A 
ATOM     84  C   UNL     1      -3.160 -21.356 -12.297  1.00  0.00     0.173 A 
ATOM     85  C   UNL     1      -5.191 -20.249 -11.636  1.00  0.00     0.173 A 
ATOM     86  F   UNL     1      -1.828 -21.506 -12.232  1.00  0.00    -0.203 F 
ATOM     87  C   UNL     1      -3.889 -22.172 -13.158  1.00  0.00     0.198 A 
ATOM     88  C   UNL     1      -5.919 -21.080 -12.482  1.00  0.00     0.198 A 
ATOM     89  F   UNL     1      -5.846 -19.330 -10.911  1.00  0.00    -0.203 F 
ATOM     90  F   UNL     1      -3.257 -23.085 -13.908  1.00  0.00    -0.200 F 
ATOM     91  C   UNL     1      -5.267 -22.039 -13.244  1.00  0.00     0.200 A 
ATOM     92  F   UNL     1      -7.251 -20.958 -12.556  1.00  0.00    -0.200 F 
ATOM     93  F   UNL     1      -5.969 -22.834 -14.063  1.00  0.00    -0.200 F 
ENDBRANCH  60  83
ENDBRANCH  34  35
ENDBRANCH  27  29
ENDBRANCH  26  27
ENDBRANCH  25  26
ENDBRANCH  24  25
ENDBRANCH  23  24
ENDBRANCH   1  23
TORSDOF 14
