REMARK SMILES Cc1ccc2occ(/C=N/NC(=O)CCC(=O)Nc3ccc(C(=O)OCCOC(=O)c4ccc(-c5c6nc(c(-c7c(F)c(F)c(F)c(F)c7F)c7ccc([nH]7)c(-c7c(F)c(F)c(F)c(F)c7F)c7nc(c(-c8c(F)c(F)c(F)c(F)c8F)c8ccc5[nH]8)C=C7)C=C6)cc4)cc3)c(=O)c2c1
REMARK SMILES IDX 23 1 24 2 22 3 19 4 20 5 95 6 21 7 94 8 18 9 16 10 17 11
REMARK SMILES IDX 15 13 14 14 12 15 11 16 13 18 10 19 9 20 8 21 1 22 2 23 3 24
REMARK SMILES IDX 99 25 4 26 98 27 5 28 96 29 6 30 97 31 7 32 25 33 26 34
REMARK SMILES IDX 27 35 28 36 29 37 30 38 31 39 32 40 93 41 33 42 92 43 34 44
REMARK SMILES IDX 35 45 36 46 86 47 37 48 91 49 85 50 87 51 38 52 90 53 84 54
REMARK SMILES IDX 83 55 39 57 71 58 51 59 70 60 52 61 55 62 69 63 88 64 53 65
REMARK SMILES IDX 54 66 68 68 89 69 56 70 40 71 41 72 49 73 42 74 43 75 47 76
REMARK SMILES IDX 50 77 44 78 45 79 48 80 46 81 72 82 73 83 81 84 74 85 75 86
REMARK SMILES IDX 79 87 82 88 76 89 77 90 80 91 78 92 57 93 58 94 66 95 59 96
REMARK SMILES IDX 60 97 64 98 67 99 61 100 62 101 65 102 63 103
REMARK H PARENT 18 12 11 17 87 56 55 67
REMARK Flexibility Score: inf
ROOT
ATOM      1  C   UNL     1      10.540   2.464  -1.378  1.00  0.00     0.338 C 
ATOM      2  O   UNL     1      11.168   2.557  -2.418  1.00  0.00    -0.246 OA
ENDROOT
BRANCH   1   3
ATOM      3  C   UNL     1       9.130   2.068  -1.368  1.00  0.00     0.060 A 
ATOM      4  C   UNL     1       6.433   1.522  -1.834  1.00  0.00     0.041 A 
ATOM      5  C   UNL     1       7.364   0.480  -1.809  1.00  0.00     0.027 A 
ATOM      6  C   UNL     1       6.880   2.831  -1.665  1.00  0.00     0.027 A 
ATOM      7  C   UNL     1       8.709   0.749  -1.555  1.00  0.00     0.018 A 
ATOM      8  C   UNL     1       8.216   3.107  -1.406  1.00  0.00     0.018 A 
BRANCH   4   9
ATOM      9  N   UNL     1       5.091   1.158  -1.982  1.00  0.00    -0.326 N 
ATOM     10  C   UNL     1       3.925   1.796  -1.704  1.00  0.00     0.224 C 
ATOM     11  O   UNL     1       2.880   1.185  -1.962  1.00  0.00    -0.275 OA
ATOM     12  H   UNL     1       4.967   0.260  -2.365  1.00  0.00     0.169 HD
BRANCH  10  13
ATOM     13  C   UNL     1       3.847   3.191  -1.127  1.00  0.00     0.110 C 
BRANCH  13  14
ATOM     14  C   UNL     1       4.258   3.494   0.318  1.00  0.00     0.112 C 
BRANCH  14  15
ATOM     15  C   UNL     1       5.467   2.869   1.015  1.00  0.00     0.240 C 
ATOM     16  N   UNL     1       5.530   1.528   1.314  1.00  0.00    -0.247 N 
ATOM     17  H   UNL     1       6.309   1.229   1.837  1.00  0.00     0.193 HD
ATOM     18  O   UNL     1       6.407   3.592   1.368  1.00  0.00    -0.273 OA
BRANCH  16  19
ATOM     19  N   UNL     1       4.630   0.570   0.964  1.00  0.00    -0.180 NA
ATOM     20  C   UNL     1       3.428   0.794   1.379  1.00  0.00     0.148 C 
BRANCH  20  21
ATOM     21  C   UNL     1       2.236   0.115   0.864  1.00  0.00     0.078 A 
ATOM     22  C   UNL     1      -3.875   0.850  -0.085  1.00  0.00     0.044 C 
ATOM     23  C   UNL     1      -2.565   0.123  -0.047  1.00  0.00    -0.050 A 
ATOM     24  C   UNL     1      -2.486  -1.267  -0.212  1.00  0.00     0.007 A 
ATOM     25  C   UNL     1      -1.393   0.851   0.162  1.00  0.00     0.019 A 
ATOM     26  C   UNL     1      -1.250  -1.925  -0.164  1.00  0.00     0.048 A 
ATOM     27  C   UNL     1      -0.173   0.181   0.252  1.00  0.00     0.066 A 
ATOM     28  C   UNL     1      -0.088  -1.198   0.076  1.00  0.00     0.137 A 
ATOM     29  C   UNL     1       1.028   0.922   0.632  1.00  0.00     0.201 A 
ATOM     30  O   UNL     1       1.099  -1.889   0.157  1.00  0.00    -0.463 OA
ATOM     31  O   UNL     1       1.022   2.138   0.794  1.00  0.00    -0.288 OA
ATOM     32  C   UNL     1       2.207  -1.192   0.591  1.00  0.00     0.209 A 
ENDBRANCH  20  21
ENDBRANCH  16  19
ENDBRANCH  14  15
ENDBRANCH  13  14
ENDBRANCH  10  13
ENDBRANCH   4   9
ENDBRANCH   1   3
BRANCH   1  33
ATOM     33  O   UNL     1      10.953   2.789  -0.135  1.00  0.00    -0.458 OA
BRANCH  33  34
ATOM     34  C   UNL     1      12.282   3.336  -0.086  1.00  0.00     0.275 C 
BRANCH  34  35
ATOM     35  C   UNL     1      13.322   2.267   0.248  1.00  0.00     0.275 C 
BRANCH  35  36
ATOM     36  O   UNL     1      13.397   1.256  -0.778  1.00  0.00    -0.458 OA
BRANCH  36  37
ATOM     37  C   UNL     1      12.691   0.136  -0.514  1.00  0.00     0.338 C 
ATOM     38  O   UNL     1      12.048  -0.117   0.495  1.00  0.00    -0.246 OA
BRANCH  37  39
ATOM     39  C   UNL     1      12.679  -0.784  -1.659  1.00  0.00     0.060 A 
ATOM     40  C   UNL     1      11.681  -0.619  -2.611  1.00  0.00     0.016 A 
ATOM     41  C   UNL     1      13.415  -1.965  -1.629  1.00  0.00     0.016 A 
ATOM     42  C   UNL     1      11.278  -1.685  -3.398  1.00  0.00     0.010 A 
ATOM     43  C   UNL     1      13.117  -2.982  -2.547  1.00  0.00     0.010 A 
ATOM     44  C   UNL     1      12.004  -2.878  -3.403  1.00  0.00    -0.014 A 
BRANCH  44  45
ATOM     45  C   UNL     1      11.554  -4.012  -4.261  1.00  0.00     0.031 A 
ATOM     46  C   UNL     1      11.325  -5.372  -3.654  1.00  0.00     0.074 A 
ATOM     47  C   UNL     1      11.309  -3.822  -5.575  1.00  0.00     0.049 A 
ATOM     48  N   UNL     1      11.157  -6.528  -4.246  1.00  0.00    -0.248 NA
ATOM     49  C   UNL     1      11.298  -5.448  -2.184  1.00  0.00     0.031 C 
ATOM     50  C   UNL     1      11.412  -2.545  -6.286  1.00  0.00     0.029 A 
ATOM     51  N   UNL     1      10.912  -4.704  -6.551  1.00  0.00    -0.354 N 
ATOM     52  C   UNL     1      11.086  -7.471  -3.228  1.00  0.00     0.074 A 
ATOM     53  C   UNL     1      11.225  -6.755  -1.979  1.00  0.00     0.031 C 
ATOM     54  C   UNL     1      11.037  -2.713  -7.561  1.00  0.00     0.029 A 
ATOM     55  C   UNL     1      10.801  -4.129  -7.794  1.00  0.00     0.049 A 
ATOM     56  H   UNL     1      10.725  -5.655  -6.376  1.00  0.00     0.167 HD
ATOM     57  C   UNL     1      10.926  -8.812  -3.334  1.00  0.00     0.037 A 
ATOM     58  C   UNL     1      10.603  -4.683  -9.005  1.00  0.00     0.037 A 
ATOM     59  C   UNL     1      10.722  -9.501  -4.584  1.00  0.00     0.049 A 
ATOM     60  C   UNL     1      10.475  -6.176  -9.101  1.00  0.00     0.074 A 
ATOM     61  C   UNL     1      10.543 -10.855  -4.806  1.00  0.00     0.029 A 
ATOM     62  N   UNL     1      10.651  -8.881  -5.824  1.00  0.00    -0.354 N 
ATOM     63  N   UNL     1      10.493  -7.071  -8.144  1.00  0.00    -0.248 NA
ATOM     64  C   UNL     1      10.319  -6.737 -10.448  1.00  0.00     0.031 C 
ATOM     65  C   UNL     1      10.412 -11.060  -6.183  1.00  0.00     0.029 A 
ATOM     66  C   UNL     1      10.443  -9.827  -6.815  1.00  0.00     0.049 A 
ATOM     67  H   UNL     1      10.736  -7.912  -5.977  1.00  0.00     0.167 HD
ATOM     68  C   UNL     1      10.326  -8.298  -8.768  1.00  0.00     0.074 A 
ATOM     69  C   UNL     1      10.189  -8.029 -10.185  1.00  0.00     0.031 C 
ATOM     70  C   UNL     1      10.292  -9.537  -8.218  1.00  0.00     0.037 A 
BRANCH  57  71
ATOM     71  C   UNL     1      11.013  -9.633  -2.078  1.00  0.00     0.064 A 
ATOM     72  C   UNL     1      10.021  -9.601  -1.087  1.00  0.00     0.173 A 
ATOM     73  C   UNL     1      12.101 -10.500  -1.882  1.00  0.00     0.173 A 
ATOM     74  F   UNL     1       8.966  -8.781  -1.215  1.00  0.00    -0.203 F 
ATOM     75  C   UNL     1      10.127 -10.382   0.062  1.00  0.00     0.198 A 
ATOM     76  C   UNL     1      12.188 -11.305  -0.749  1.00  0.00     0.198 A 
ATOM     77  F   UNL     1      13.079 -10.577  -2.798  1.00  0.00    -0.203 F 
ATOM     78  F   UNL     1       9.192 -10.296   1.018  1.00  0.00    -0.200 F 
ATOM     79  C   UNL     1      11.205 -11.240   0.226  1.00  0.00     0.200 A 
ATOM     80  F   UNL     1      13.223 -12.144  -0.601  1.00  0.00    -0.200 F 
ATOM     81  F   UNL     1      11.300 -11.998   1.327  1.00  0.00    -0.200 F 
ENDBRANCH  57  71
BRANCH  58  82
ATOM     82  C   UNL     1      10.582  -3.827 -10.223  1.00  0.00     0.064 A 
ATOM     83  C   UNL     1       9.420  -3.695 -10.995  1.00  0.00     0.173 A 
ATOM     84  C   UNL     1      11.725  -3.127 -10.643  1.00  0.00     0.173 A 
ATOM     85  F   UNL     1       8.309  -4.362 -10.651  1.00  0.00    -0.203 F 
ATOM     86  C   UNL     1       9.407  -2.911 -12.147  1.00  0.00     0.198 A 
ATOM     87  C   UNL     1      11.698  -2.312 -11.771  1.00  0.00     0.198 A 
ATOM     88  F   UNL     1      12.865  -3.217  -9.942  1.00  0.00    -0.203 F 
ATOM     89  F   UNL     1       8.297  -2.845 -12.896  1.00  0.00    -0.200 F 
ATOM     90  C   UNL     1      10.542  -2.213 -12.529  1.00  0.00     0.200 A 
ATOM     91  F   UNL     1      12.793  -1.624 -12.124  1.00  0.00    -0.200 F 
ATOM     92  F   UNL     1      10.525  -1.453 -13.632  1.00  0.00    -0.200 F 
ENDBRANCH  58  82
BRANCH  70  93
ATOM     93  C   UNL     1      10.031 -10.686  -9.148  1.00  0.00     0.064 A 
ATOM     94  C   UNL     1      10.984 -11.115 -10.084  1.00  0.00     0.173 A 
ATOM     95  C   UNL     1       8.810 -11.375  -9.089  1.00  0.00     0.173 A 
ATOM     96  F   UNL     1      12.159 -10.477 -10.192  1.00  0.00    -0.203 F 
ATOM     97  C   UNL     1      10.709 -12.169 -10.951  1.00  0.00     0.198 A 
ATOM     98  C   UNL     1       8.553 -12.451  -9.932  1.00  0.00     0.198 A 
ATOM     99  F   UNL     1       7.868 -11.007  -8.207  1.00  0.00    -0.203 F 
ATOM    100  F   UNL     1      11.608 -12.521 -11.880  1.00  0.00    -0.200 F 
ATOM    101  C   UNL     1       9.497 -12.840 -10.870  1.00  0.00     0.200 A 
ATOM    102  F   UNL     1       7.388 -13.107  -9.841  1.00  0.00    -0.200 F 
ATOM    103  F   UNL     1       9.236 -13.855 -11.703  1.00  0.00    -0.200 F 
ENDBRANCH  70  93
ENDBRANCH  44  45
ENDBRANCH  37  39
ENDBRANCH  36  37
ENDBRANCH  35  36
ENDBRANCH  34  35
ENDBRANCH  33  34
ENDBRANCH   1  33
TORSDOF 17
