REMARK SMILES C=CCn1nc(C(=O)OCCOC(=O)c2ccc(-c3c4nc(c(-c5c(F)c(F)c(F)c(F)c5F)c5ccc([nH]5)c(-c5c(F)c(F)c(F)c(F)c5F)c5nc(c(-c6c(F)c(F)c(F)c(F)c6F)c6ccc3[nH]6)C=C5)C=C4)cc2)c2c1CC[C@@H]([NH+]1CCC(C(C)(C)O)CC1)C2
REMARK SMILES IDX 10 1 9 2 7 3 8 4 6 5 4 6 5 7 79 8 78 9 80 10 93 11 81 12
REMARK SMILES IDX 82 13 3 14 2 15 1 16 83 17 84 18 92 19 85 21 91 22 86 23
REMARK SMILES IDX 87 24 88 25 89 26 90 27 11 29 12 30 13 31 14 32 15 33 16 34
REMARK SMILES IDX 77 35 17 36 76 37 18 38 19 39 20 40 70 41 21 42 75 43 69 44
REMARK SMILES IDX 71 45 22 46 74 47 68 48 67 49 23 51 55 52 35 53 54 54 36 55
REMARK SMILES IDX 39 56 53 57 72 58 37 59 38 60 52 62 73 63 40 64 24 65 25 66
REMARK SMILES IDX 33 67 26 68 27 69 31 70 34 71 28 72 29 73 32 74 30 75 56 76
REMARK SMILES IDX 57 77 65 78 58 79 59 80 63 81 66 82 60 83 61 84 64 85 62 86
REMARK SMILES IDX 41 87 42 88 50 89 43 90 44 91 48 92 51 93 45 94 46 95 49 96
REMARK SMILES IDX 47 97
REMARK H PARENT 83 20 90 28 71 50 39 61
REMARK Flexibility Score: inf
ROOT
ATOM      1  C   UNL     1      -3.660   6.842   4.021  1.00  0.00     0.275 C 
ENDROOT
BRANCH   1   2
ATOM      2  O   UNL     1      -2.764   6.071   3.214  1.00  0.00    -0.457 OA
BRANCH   2   3
ATOM      3  C   UNL     1      -2.876   4.706   3.210  1.00  0.00     0.359 C 
ATOM      4  O   UNL     1      -3.549   4.072   4.021  1.00  0.00    -0.244 OA
BRANCH   3   5
ATOM      5  C   UNL     1      -2.103   4.126   2.102  1.00  0.00     0.174 A 
ATOM      6  N   UNL     1      -1.045   2.728   0.872  1.00  0.00    -0.265 N 
ATOM      7  N   UNL     1      -1.905   2.800   1.922  1.00  0.00    -0.165 NA
ATOM      8  C   UNL     1      -0.569   3.963   0.532  1.00  0.00     0.043 A 
ATOM      9  C   UNL     1      -1.450   4.860   1.078  1.00  0.00     0.014 A 
ATOM     10  C   UNL     1       0.587   4.315  -0.314  1.00  0.00     0.062 C 
ATOM     11  C   UNL     1      -1.505   6.300   0.694  1.00  0.00     0.105 C 
ATOM     12  C   UNL     1       0.658   5.838  -0.518  1.00  0.00     0.072 C 
ATOM     13  C   UNL     1      -0.698   6.592  -0.611  1.00  0.00     0.189 C 
BRANCH   6  14
ATOM     14  C   UNL     1      -0.959   1.488   0.093  1.00  0.00     0.171 C 
BRANCH  14  15
ATOM     15  C   UNL     1       0.437   1.021  -0.208  1.00  0.00    -0.011 C 
ATOM     16  C   UNL     1       0.987  -0.104   0.267  1.00  0.00     0.006 C 
ENDBRANCH  14  15
ENDBRANCH   6  14
BRANCH  13  17
ATOM     17  N   UNL     1      -1.522   6.546  -1.838  1.00  0.00    -0.332 N 
ATOM     18  C   UNL     1      -2.176   5.321  -2.260  1.00  0.00     0.262 C 
ATOM     19  C   UNL     1      -1.014   7.264  -2.997  1.00  0.00     0.262 C 
ATOM     20  H   UNL     1      -2.281   7.077  -1.409  1.00  0.00     0.348 HD
ATOM     21  C   UNL     1      -1.324   4.379  -3.110  1.00  0.00     0.068 C 
ATOM     22  C   UNL     1       0.044   6.499  -3.776  1.00  0.00     0.068 C 
ATOM     23  C   UNL     1      -0.273   5.011  -4.061  1.00  0.00     0.031 C 
BRANCH  23  24
ATOM     24  C   UNL     1       1.053   4.168  -4.202  1.00  0.00     0.062 C 
ATOM     25  C   UNL     1       0.812   2.659  -4.332  1.00  0.00     0.042 C 
ATOM     26  C   UNL     1       1.887   4.654  -5.394  1.00  0.00     0.042 C 
BRANCH  24  27
ATOM     27  O   UNL     1       1.873   4.351  -3.044  1.00  0.00    -0.390 OA
ATOM     28  H   UNL     1       1.390   4.057  -2.256  1.00  0.00     0.211 HD
ENDBRANCH  24  27
ENDBRANCH  23  24
ENDBRANCH  13  17
ENDBRANCH   3   5
ENDBRANCH   2   3
ENDBRANCH   1   2
BRANCH   1  29
ATOM     29  C   UNL     1      -4.936   7.139   3.251  1.00  0.00     0.275 C 
BRANCH  29  30
ATOM     30  O   UNL     1      -5.733   5.963   3.205  1.00  0.00    -0.458 OA
BRANCH  30  31
ATOM     31  C   UNL     1      -5.599   5.166   2.123  1.00  0.00     0.338 C 
ATOM     32  O   UNL     1      -4.856   5.326   1.172  1.00  0.00    -0.246 OA
BRANCH  31  33
ATOM     33  C   UNL     1      -6.637   4.133   2.205  1.00  0.00     0.060 A 
ATOM     34  C   UNL     1      -6.765   3.254   1.127  1.00  0.00     0.016 A 
ATOM     35  C   UNL     1      -7.623   4.248   3.196  1.00  0.00     0.016 A 
ATOM     36  C   UNL     1      -7.992   2.666   0.915  1.00  0.00     0.010 A 
ATOM     37  C   UNL     1      -8.849   3.690   2.971  1.00  0.00     0.010 A 
ATOM     38  C   UNL     1      -9.038   2.988   1.786  1.00  0.00    -0.014 A 
BRANCH  38  39
ATOM     39  C   UNL     1     -10.373   2.541   1.469  1.00  0.00     0.031 A 
ATOM     40  C   UNL     1     -10.586   1.119   1.800  1.00  0.00     0.074 A 
ATOM     41  C   UNL     1     -11.319   3.417   1.080  1.00  0.00     0.049 A 
ATOM     42  N   UNL     1     -10.796   0.141   0.986  1.00  0.00    -0.248 NA
ATOM     43  C   UNL     1     -10.363   0.704   3.196  1.00  0.00     0.031 C 
ATOM     44  C   UNL     1     -11.229   4.883   1.069  1.00  0.00     0.029 A 
ATOM     45  N   UNL     1     -12.610   3.187   0.719  1.00  0.00    -0.354 N 
ATOM     46  C   UNL     1     -10.951  -0.979   1.797  1.00  0.00     0.074 A 
ATOM     47  C   UNL     1     -10.460  -0.622   3.098  1.00  0.00     0.031 C 
ATOM     48  C   UNL     1     -12.469   5.407   0.944  1.00  0.00     0.029 A 
ATOM     49  C   UNL     1     -13.409   4.323   0.723  1.00  0.00     0.049 A 
ATOM     50  H   UNL     1     -12.948   2.295   0.476  1.00  0.00     0.167 HD
ATOM     51  C   UNL     1     -11.784  -1.985   1.420  1.00  0.00     0.037 A 
ATOM     52  C   UNL     1     -14.760   4.335   0.632  1.00  0.00     0.037 A 
ATOM     53  C   UNL     1     -12.102  -1.886   0.020  1.00  0.00     0.049 A 
ATOM     54  C   UNL     1     -15.174   3.038   0.042  1.00  0.00     0.074 A 
ATOM     55  C   UNL     1     -11.454  -2.134  -1.169  1.00  0.00     0.029 A 
ATOM     56  N   UNL     1     -13.157  -1.054  -0.250  1.00  0.00    -0.354 N 
ATOM     57  N   UNL     1     -14.874   2.670  -1.175  1.00  0.00    -0.248 NA
ATOM     58  C   UNL     1     -15.613   1.963   0.925  1.00  0.00     0.031 C 
ATOM     59  C   UNL     1     -12.051  -1.266  -2.132  1.00  0.00     0.029 A 
ATOM     60  C   UNL     1     -13.068  -0.538  -1.513  1.00  0.00     0.049 A 
ATOM     61  H   UNL     1     -13.884  -0.854   0.383  1.00  0.00     0.167 HD
ATOM     62  C   UNL     1     -14.690   1.302  -1.089  1.00  0.00     0.074 A 
ATOM     63  C   UNL     1     -15.319   0.906   0.163  1.00  0.00     0.031 C 
ATOM     64  C   UNL     1     -13.770   0.673  -1.877  1.00  0.00     0.037 A 
BRANCH  51  65
ATOM     65  C   UNL     1     -12.704  -2.715   2.373  1.00  0.00     0.064 A 
ATOM     66  C   UNL     1     -13.431  -3.823   1.898  1.00  0.00     0.173 A 
ATOM     67  C   UNL     1     -13.142  -2.188   3.610  1.00  0.00     0.173 A 
ATOM     68  F   UNL     1     -13.125  -4.383   0.718  1.00  0.00    -0.203 F 
ATOM     69  C   UNL     1     -14.546  -4.322   2.579  1.00  0.00     0.198 A 
ATOM     70  C   UNL     1     -14.217  -2.724   4.314  1.00  0.00     0.198 A 
ATOM     71  F   UNL     1     -12.635  -1.065   4.132  1.00  0.00    -0.203 F 
ATOM     72  F   UNL     1     -15.279  -5.299   2.029  1.00  0.00    -0.200 F 
ATOM     73  C   UNL     1     -14.938  -3.771   3.785  1.00  0.00     0.200 A 
ATOM     74  F   UNL     1     -14.598  -2.155   5.467  1.00  0.00    -0.200 F 
ATOM     75  F   UNL     1     -16.038  -4.210   4.411  1.00  0.00    -0.200 F 
ENDBRANCH  51  65
BRANCH  52  76
ATOM     76  C   UNL     1     -15.705   5.229   1.342  1.00  0.00     0.064 A 
ATOM     77  C   UNL     1     -17.032   5.374   0.910  1.00  0.00     0.173 A 
ATOM     78  C   UNL     1     -15.402   5.735   2.622  1.00  0.00     0.173 A 
ATOM     79  F   UNL     1     -17.411   4.879  -0.277  1.00  0.00    -0.203 F 
ATOM     80  C   UNL     1     -18.006   5.965   1.723  1.00  0.00     0.198 A 
ATOM     81  C   UNL     1     -16.373   6.328   3.429  1.00  0.00     0.198 A 
ATOM     82  F   UNL     1     -14.181   5.574   3.153  1.00  0.00    -0.203 F 
ATOM     83  F   UNL     1     -19.278   6.030   1.304  1.00  0.00    -0.200 F 
ATOM     84  C   UNL     1     -17.678   6.430   2.986  1.00  0.00     0.200 A 
ATOM     85  F   UNL     1     -16.050   6.738   4.664  1.00  0.00    -0.200 F 
ATOM     86  F   UNL     1     -18.623   6.936   3.791  1.00  0.00    -0.200 F 
ENDBRANCH  52  76
BRANCH  64  87
ATOM     87  C   UNL     1     -13.338   1.378  -3.125  1.00  0.00     0.064 A 
ATOM     88  C   UNL     1     -12.563   2.548  -3.149  1.00  0.00     0.173 A 
ATOM     89  C   UNL     1     -13.641   0.774  -4.352  1.00  0.00     0.173 A 
ATOM     90  F   UNL     1     -12.170   3.137  -2.013  1.00  0.00    -0.203 F 
ATOM     91  C   UNL     1     -12.140   3.105  -4.356  1.00  0.00     0.198 A 
ATOM     92  C   UNL     1     -13.188   1.311  -5.552  1.00  0.00     0.198 A 
ATOM     93  F   UNL     1     -14.342  -0.370  -4.382  1.00  0.00    -0.203 F 
ATOM     94  F   UNL     1     -11.412   4.231  -4.359  1.00  0.00    -0.200 F 
ATOM     95  C   UNL     1     -12.446   2.481  -5.555  1.00  0.00     0.200 A 
ATOM     96  F   UNL     1     -13.449   0.678  -6.704  1.00  0.00    -0.200 F 
ATOM     97  F   UNL     1     -12.005   2.992  -6.713  1.00  0.00    -0.200 F 
ENDBRANCH  64  87
ENDBRANCH  38  39
ENDBRANCH  31  33
ENDBRANCH  30  31
ENDBRANCH  29  30
ENDBRANCH   1  29
TORSDOF 16
