REMARK SMILES CCOc1cccc(C(=O)Nc2ccc(Cl)c(C(=O)OCCOC(=O)c3ccc(-c4c5nc(c(-c6c(F)c(F)c(F)c(F)c6F)c6ccc([nH]6)c(-c6c(F)c(F)c(F)c(F)c6F)c6nc(c(-c7c(F)c(F)c(F)c(F)c7F)c7ccc4[nH]7)C=C6)C=C5)cc3)c2)c1
REMARK SMILES IDX 21 1 20 2 18 3 19 4 17 5 12 6 13 7 89 8 14 9 15 10 16 11
REMARK SMILES IDX 11 12 9 13 10 14 8 16 4 17 5 18 90 19 6 20 7 21 3 22 2 23
REMARK SMILES IDX 1 24 22 25 23 26 24 27 25 28 26 29 27 30 88 31 28 32 87 33
REMARK SMILES IDX 29 34 30 35 31 36 81 37 32 38 86 39 80 40 82 41 33 42 85 43
REMARK SMILES IDX 79 44 78 45 34 47 66 48 46 49 65 50 47 51 50 52 64 53 83 54
REMARK SMILES IDX 48 55 49 56 63 58 84 59 51 60 35 61 36 62 44 63 37 64 38 65
REMARK SMILES IDX 42 66 45 67 39 68 40 69 43 70 41 71 67 72 68 73 76 74 69 75
REMARK SMILES IDX 70 76 74 77 77 78 71 79 72 80 75 81 73 82 52 83 53 84 61 85
REMARK SMILES IDX 54 86 55 87 59 88 62 89 56 90 57 91 60 92 58 93
REMARK H PARENT 11 15 82 46 50 57
REMARK Flexibility Score: inf
ROOT
ATOM      1  C   UNL     1      -0.383  -0.613  -3.715  1.00  0.00     0.275 C 
ENDROOT
BRANCH   1   2
ATOM      2  O   UNL     1       0.553  -1.209  -2.791  1.00  0.00    -0.458 OA
BRANCH   2   3
ATOM      3  C   UNL     1       0.421  -0.863  -1.483  1.00  0.00     0.339 C 
ATOM      4  O   UNL     1      -0.471  -0.168  -1.026  1.00  0.00    -0.246 OA
BRANCH   3   5
ATOM      5  C   UNL     1       1.525  -1.464  -0.680  1.00  0.00     0.080 A 
ATOM      6  C   UNL     1       3.917  -1.770  -0.501  1.00  0.00     0.042 A 
ATOM      7  C   UNL     1       3.780  -2.332   0.765  1.00  0.00     0.028 A 
ATOM      8  C   UNL     1       2.791  -1.518  -1.282  1.00  0.00     0.043 A 
ATOM      9  C   UNL     1       2.530  -2.327   1.364  1.00  0.00     0.023 A 
ATOM     10  C   UNL     1       1.434  -1.779   0.688  1.00  0.00     0.055 A 
ATOM     11  Cl  UNL     1       0.123  -1.370   1.724  1.00  0.00    -0.083 Cl
BRANCH   6  12
ATOM     12  N   UNL     1       5.193  -1.315  -0.846  1.00  0.00    -0.322 N 
ATOM     13  C   UNL     1       5.611  -0.153  -1.473  1.00  0.00     0.255 C 
ATOM     14  O   UNL     1       6.818  -0.045  -1.707  1.00  0.00    -0.269 OA
ATOM     15  H   UNL     1       5.923  -1.929  -0.601  1.00  0.00     0.170 HD
BRANCH  13  16
ATOM     16  C   UNL     1       4.721   1.003  -1.825  1.00  0.00     0.043 A 
ATOM     17  C   UNL     1       2.653   2.271  -1.719  1.00  0.00     0.120 A 
ATOM     18  C   UNL     1       3.059   3.066  -2.783  1.00  0.00     0.046 A 
ATOM     19  C   UNL     1       3.514   1.308  -1.186  1.00  0.00     0.060 A 
ATOM     20  C   UNL     1       4.330   2.886  -3.323  1.00  0.00     0.005 A 
ATOM     21  C   UNL     1       5.143   1.843  -2.865  1.00  0.00     0.014 A 
BRANCH  17  22
ATOM     22  O   UNL     1       1.329   2.259  -1.379  1.00  0.00    -0.494 OA
BRANCH  22  23
ATOM     23  C   UNL     1       1.002   3.027  -0.221  1.00  0.00     0.226 C 
ATOM     24  C   UNL     1       0.839   2.129   0.992  1.00  0.00     0.049 C 
ENDBRANCH  22  23
ENDBRANCH  17  22
ENDBRANCH  13  16
ENDBRANCH   6  12
ENDBRANCH   3   5
ENDBRANCH   2   3
ENDBRANCH   1   2
BRANCH   1  25
ATOM     25  C   UNL     1      -1.425  -1.629  -4.185  1.00  0.00     0.275 C 
BRANCH  25  26
ATOM     26  O   UNL     1      -2.328  -1.964  -3.114  1.00  0.00    -0.458 OA
BRANCH  26  27
ATOM     27  C   UNL     1      -2.107  -3.158  -2.516  1.00  0.00     0.338 C 
ATOM     28  O   UNL     1      -1.293  -4.008  -2.821  1.00  0.00    -0.246 OA
BRANCH  27  29
ATOM     29  C   UNL     1      -2.900  -3.231  -1.278  1.00  0.00     0.060 A 
ATOM     30  C   UNL     1      -2.348  -2.626  -0.161  1.00  0.00     0.016 A 
ATOM     31  C   UNL     1      -4.052  -3.997  -1.144  1.00  0.00     0.016 A 
ATOM     32  C   UNL     1      -2.885  -2.813   1.101  1.00  0.00     0.010 A 
ATOM     33  C   UNL     1      -4.635  -4.145   0.130  1.00  0.00     0.010 A 
ATOM     34  C   UNL     1      -4.035  -3.574   1.270  1.00  0.00    -0.014 A 
BRANCH  34  35
ATOM     35  C   UNL     1      -4.471  -3.862   2.663  1.00  0.00     0.031 A 
ATOM     36  C   UNL     1      -4.384  -5.271   3.177  1.00  0.00     0.074 A 
ATOM     37  C   UNL     1      -4.783  -2.865   3.517  1.00  0.00     0.049 A 
ATOM     38  N   UNL     1      -4.830  -5.778   4.298  1.00  0.00    -0.248 NA
ATOM     39  C   UNL     1      -3.686  -6.238   2.316  1.00  0.00     0.031 C 
ATOM     40  C   UNL     1      -4.734  -1.434   3.209  1.00  0.00     0.029 A 
ATOM     41  N   UNL     1      -5.176  -2.904   4.833  1.00  0.00    -0.354 N 
ATOM     42  C   UNL     1      -4.516  -7.130   4.250  1.00  0.00     0.074 A 
ATOM     43  C   UNL     1      -3.838  -7.365   2.994  1.00  0.00     0.031 C 
ATOM     44  C   UNL     1      -5.062  -0.735   4.307  1.00  0.00     0.029 A 
ATOM     45  C   UNL     1      -5.445  -1.665   5.363  1.00  0.00     0.049 A 
ATOM     46  H   UNL     1      -5.257  -3.740   5.347  1.00  0.00     0.167 HD
ATOM     47  C   UNL     1      -4.779  -8.085   5.173  1.00  0.00     0.037 A 
ATOM     48  C   UNL     1      -5.995  -1.321   6.544  1.00  0.00     0.037 A 
ATOM     49  C   UNL     1      -5.420  -7.830   6.437  1.00  0.00     0.049 A 
ATOM     50  C   UNL     1      -6.397  -2.413   7.500  1.00  0.00     0.074 A 
ATOM     51  C   UNL     1      -5.789  -8.732   7.418  1.00  0.00     0.029 A 
ATOM     52  N   UNL     1      -5.771  -6.569   6.900  1.00  0.00    -0.354 N 
ATOM     53  N   UNL     1      -6.217  -3.708   7.404  1.00  0.00    -0.248 NA
ATOM     54  C   UNL     1      -7.098  -1.995   8.722  1.00  0.00     0.031 C 
ATOM     55  C   UNL     1      -6.408  -8.022   8.454  1.00  0.00     0.029 A 
ATOM     56  C   UNL     1      -6.367  -6.672   8.147  1.00  0.00     0.049 A 
ATOM     57  H   UNL     1      -5.619  -5.726   6.414  1.00  0.00     0.167 HD
ATOM     58  C   UNL     1      -6.755  -4.256   8.560  1.00  0.00     0.074 A 
ATOM     59  C   UNL     1      -7.251  -3.150   9.353  1.00  0.00     0.031 C 
ATOM     60  C   UNL     1      -6.836  -5.558   8.931  1.00  0.00     0.037 A 
BRANCH  47  61
ATOM     61  C   UNL     1      -4.441  -9.502   4.812  1.00  0.00     0.064 A 
ATOM     62  C   UNL     1      -3.119  -9.964   4.739  1.00  0.00     0.173 A 
ATOM     63  C   UNL     1      -5.471 -10.417   4.536  1.00  0.00     0.173 A 
ATOM     64  F   UNL     1      -2.098  -9.126   4.971  1.00  0.00    -0.203 F 
ATOM     65  C   UNL     1      -2.840 -11.279   4.373  1.00  0.00     0.198 A 
ATOM     66  C   UNL     1      -5.189 -11.738   4.204  1.00  0.00     0.198 A 
ATOM     67  F   UNL     1      -6.754 -10.028   4.592  1.00  0.00    -0.203 F 
ATOM     68  F   UNL     1      -1.567 -11.684   4.254  1.00  0.00    -0.200 F 
ATOM     69  C   UNL     1      -3.874 -12.166   4.113  1.00  0.00     0.200 A 
ATOM     70  F   UNL     1      -6.191 -12.595   3.964  1.00  0.00    -0.200 F 
ATOM     71  F   UNL     1      -3.603 -13.431   3.764  1.00  0.00    -0.200 F 
ENDBRANCH  47  61
BRANCH  48  72
ATOM     72  C   UNL     1      -6.282   0.107   6.857  1.00  0.00     0.064 A 
ATOM     73  C   UNL     1      -5.678   0.753   7.944  1.00  0.00     0.173 A 
ATOM     74  C   UNL     1      -7.213   0.841   6.103  1.00  0.00     0.173 A 
ATOM     75  F   UNL     1      -4.806   0.090   8.718  1.00  0.00    -0.203 F 
ATOM     76  C   UNL     1      -6.011   2.065   8.280  1.00  0.00     0.198 A 
ATOM     77  C   UNL     1      -7.516   2.164   6.416  1.00  0.00     0.198 A 
ATOM     78  F   UNL     1      -7.833   0.272   5.059  1.00  0.00    -0.203 F 
ATOM     79  F   UNL     1      -5.468   2.635   9.364  1.00  0.00    -0.200 F 
ATOM     80  C   UNL     1      -6.925   2.772   7.512  1.00  0.00     0.200 A 
ATOM     81  F   UNL     1      -8.390   2.845   5.662  1.00  0.00    -0.200 F 
ATOM     82  F   UNL     1      -7.247   4.031   7.838  1.00  0.00    -0.200 F 
ENDBRANCH  48  72
BRANCH  60  83
ATOM     83  C   UNL     1      -7.428  -5.850  10.280  1.00  0.00     0.064 A 
ATOM     84  C   UNL     1      -8.794  -5.675  10.546  1.00  0.00     0.173 A 
ATOM     85  C   UNL     1      -6.614  -6.335  11.316  1.00  0.00     0.173 A 
ATOM     86  F   UNL     1      -9.612  -5.199   9.595  1.00  0.00    -0.203 F 
ATOM     87  C   UNL     1      -9.316  -5.941  11.809  1.00  0.00     0.198 A 
ATOM     88  C   UNL     1      -7.147  -6.634  12.567  1.00  0.00     0.198 A 
ATOM     89  F   UNL     1      -5.302  -6.528  11.113  1.00  0.00    -0.203 F 
ATOM     90  F   UNL     1     -10.612  -5.707  12.059  1.00  0.00    -0.200 F 
ATOM     91  C   UNL     1      -8.494  -6.426  12.816  1.00  0.00     0.200 A 
ATOM     92  F   UNL     1      -6.354  -7.118  13.532  1.00  0.00    -0.200 F 
ATOM     93  F   UNL     1      -9.000  -6.685  14.029  1.00  0.00    -0.200 F 
ENDBRANCH  60  83
ENDBRANCH  34  35
ENDBRANCH  27  29
ENDBRANCH  26  27
ENDBRANCH  25  26
ENDBRANCH   1  25
TORSDOF 15
