REMARK SMILES O=C(COc1ccnc(NCc2ccc(Br)cc2)n1)OCCOC(=O)c1ccc(-c2c3nc(c(-c4c(F)c(F)c(F)c(F)c4F)c4ccc([nH]4)c(-c4c(F)c(F)c(F)c(F)c4F)c4nc(c(-c5c(F)c(F)c(F)c(F)c5F)c5ccc2[nH]5)C=C4)C=C3)cc1
REMARK SMILES IDX 20 1 2 2 1 3 3 4 4 5 5 6 6 7 19 8 7 9 9 10 8 11 10 12 11 14
REMARK SMILES IDX 12 15 13 16 18 17 14 18 17 19 15 20 16 21 21 22 22 23 23 24
REMARK SMILES IDX 24 25 25 26 26 27 27 28 88 29 28 30 87 31 29 32 30 33 31 34
REMARK SMILES IDX 81 35 32 36 86 37 80 38 82 39 33 40 85 41 79 42 78 43 34 45
REMARK SMILES IDX 66 46 46 47 65 48 47 49 50 50 64 51 83 52 48 53 49 54 63 56
REMARK SMILES IDX 84 57 51 58 35 59 36 60 44 61 37 62 38 63 42 64 45 65 39 66
REMARK SMILES IDX 40 67 43 68 41 69 67 70 68 71 76 72 69 73 70 74 74 75 77 76
REMARK SMILES IDX 71 77 72 78 75 79 73 80 52 81 53 82 61 83 54 84 55 85 59 86
REMARK SMILES IDX 62 87 56 88 57 89 60 90 58 91
REMARK H PARENT 10 13 82 44 50 55
REMARK Flexibility Score: inf
ROOT
ATOM      1  O   UNL     1       2.965   0.372   1.100  1.00  0.00    -0.460 OA
ENDROOT
BRANCH   1   2
ATOM      2  C   UNL     1       2.359   0.453  -0.109  1.00  0.00     0.344 C 
ATOM      3  O   UNL     1       1.135   0.542  -0.193  1.00  0.00    -0.248 OA
BRANCH   2   4
ATOM      4  C   UNL     1       3.231   0.519  -1.349  1.00  0.00     0.353 C 
BRANCH   4   5
ATOM      5  O   UNL     1       3.939   1.753  -1.386  1.00  0.00    -0.466 OA
BRANCH   5   6
ATOM      6  C   UNL     1       3.297   2.618  -2.234  1.00  0.00     0.218 A 
ATOM      7  C   UNL     1       2.149   3.256  -1.829  1.00  0.00     0.088 A 
ATOM      8  N   UNL     1       3.882   2.777  -3.430  1.00  0.00    -0.177 NA
ATOM      9  C   UNL     1       1.581   4.060  -2.776  1.00  0.00     0.121 A 
ATOM     10  C   UNL     1       3.276   3.622  -4.263  1.00  0.00     0.226 A 
ATOM     11  N   UNL     1       2.125   4.256  -3.987  1.00  0.00    -0.221 NA
BRANCH  10  12
ATOM     12  N   UNL     1       3.808   3.933  -5.473  1.00  0.00    -0.350 N 
ATOM     13  H   UNL     1       3.447   4.726  -5.933  1.00  0.00     0.164 HD
BRANCH  12  14
ATOM     14  C   UNL     1       4.853   3.204  -6.143  1.00  0.00     0.152 C 
BRANCH  14  15
ATOM     15  C   UNL     1       4.290   2.713  -7.459  1.00  0.00    -0.029 A 
ATOM     16  C   UNL     1       4.232   1.347  -7.746  1.00  0.00     0.007 A 
ATOM     17  C   UNL     1       3.689   3.625  -8.346  1.00  0.00     0.007 A 
ATOM     18  C   UNL     1       3.452   0.905  -8.811  1.00  0.00     0.016 A 
ATOM     19  C   UNL     1       2.864   3.175  -9.368  1.00  0.00     0.016 A 
ATOM     20  C   UNL     1       2.696   1.812  -9.548  1.00  0.00     0.017 A 
ATOM     21  Br  UNL     1       1.308   1.229 -10.682  1.00  0.00    -0.051 Br
ENDBRANCH  14  15
ENDBRANCH  12  14
ENDBRANCH  10  12
ENDBRANCH   5   6
ENDBRANCH   4   5
ENDBRANCH   2   4
ENDBRANCH   1   2
BRANCH   1  22
ATOM     22  C   UNL     1       4.335  -0.047   1.278  1.00  0.00     0.274 C 
BRANCH  22  23
ATOM     23  C   UNL     1       4.412  -1.564   1.463  1.00  0.00     0.275 C 
BRANCH  23  24
ATOM     24  O   UNL     1       4.046  -2.238   0.242  1.00  0.00    -0.458 OA
BRANCH  24  25
ATOM     25  C   UNL     1       2.765  -2.686   0.171  1.00  0.00     0.338 C 
ATOM     26  O   UNL     1       1.925  -2.638   1.044  1.00  0.00    -0.246 OA
BRANCH  25  27
ATOM     27  C   UNL     1       2.482  -3.108  -1.220  1.00  0.00     0.060 A 
ATOM     28  C   UNL     1       1.267  -2.728  -1.807  1.00  0.00     0.016 A 
ATOM     29  C   UNL     1       3.393  -3.889  -1.935  1.00  0.00     0.016 A 
ATOM     30  C   UNL     1       0.946  -3.158  -3.100  1.00  0.00     0.010 A 
ATOM     31  C   UNL     1       3.067  -4.324  -3.223  1.00  0.00     0.010 A 
ATOM     32  C   UNL     1       1.830  -3.985  -3.804  1.00  0.00    -0.014 A 
BRANCH  32  33
ATOM     33  C   UNL     1       1.435  -4.643  -5.076  1.00  0.00     0.031 A 
ATOM     34  C   UNL     1       0.957  -6.065  -5.038  1.00  0.00     0.074 A 
ATOM     35  C   UNL     1       1.538  -4.023  -6.264  1.00  0.00     0.049 A 
ATOM     36  N   UNL     1       0.696  -6.879  -6.029  1.00  0.00    -0.248 NA
ATOM     37  C   UNL     1       0.732  -6.641  -3.704  1.00  0.00     0.031 C 
ATOM     38  C   UNL     1       1.881  -2.620  -6.457  1.00  0.00     0.029 A 
ATOM     39  N   UNL     1       1.381  -4.514  -7.541  1.00  0.00    -0.354 N 
ATOM     40  C   UNL     1       0.264  -8.058  -5.442  1.00  0.00     0.074 A 
ATOM     41  C   UNL     1       0.338  -7.869  -4.007  1.00  0.00     0.031 C 
ATOM     42  C   UNL     1       1.963  -2.384  -7.777  1.00  0.00     0.029 A 
ATOM     43  C   UNL     1       1.760  -3.623  -8.514  1.00  0.00     0.049 A 
ATOM     44  H   UNL     1       1.032  -5.414  -7.737  1.00  0.00     0.167 HD
ATOM     45  C   UNL     1      -0.171  -9.190  -6.042  1.00  0.00     0.037 A 
ATOM     46  C   UNL     1       1.972  -3.800  -9.834  1.00  0.00     0.037 A 
ATOM     47  C   UNL     1      -0.252  -9.389  -7.464  1.00  0.00     0.049 A 
ATOM     48  C   UNL     1       1.639  -5.124 -10.467  1.00  0.00     0.074 A 
ATOM     49  C   UNL     1      -0.747 -10.480  -8.158  1.00  0.00     0.029 A 
ATOM     50  N   UNL     1       0.195  -8.483  -8.412  1.00  0.00    -0.354 N 
ATOM     51  N   UNL     1       1.157  -6.206  -9.912  1.00  0.00    -0.248 NA
ATOM     52  C   UNL     1       1.846  -5.238 -11.920  1.00  0.00     0.031 C 
ATOM     53  C   UNL     1      -0.546 -10.260  -9.525  1.00  0.00     0.029 A 
ATOM     54  C   UNL     1       0.034  -9.013  -9.683  1.00  0.00     0.049 A 
ATOM     55  H   UNL     1       0.571  -7.596  -8.213  1.00  0.00     0.167 HD
ATOM     56  C   UNL     1       0.945  -7.101 -10.950  1.00  0.00     0.074 A 
ATOM     57  C   UNL     1       1.361  -6.444 -12.169  1.00  0.00     0.031 C 
ATOM     58  C   UNL     1       0.431  -8.352 -10.896  1.00  0.00     0.037 A 
BRANCH  45  59
ATOM     59  C   UNL     1      -0.570 -10.321  -5.147  1.00  0.00     0.064 A 
ATOM     60  C   UNL     1      -1.760 -10.288  -4.405  1.00  0.00     0.173 A 
ATOM     61  C   UNL     1       0.246 -11.455  -5.041  1.00  0.00     0.173 A 
ATOM     62  F   UNL     1      -2.563  -9.216  -4.464  1.00  0.00    -0.203 F 
ATOM     63  C   UNL     1      -2.103 -11.342  -3.563  1.00  0.00     0.198 A 
ATOM     64  C   UNL     1      -0.112 -12.517  -4.218  1.00  0.00     0.198 A 
ATOM     65  F   UNL     1       1.393 -11.530  -5.733  1.00  0.00    -0.203 F 
ATOM     66  F   UNL     1      -3.218 -11.270  -2.824  1.00  0.00    -0.200 F 
ATOM     67  C   UNL     1      -1.281 -12.456  -3.474  1.00  0.00     0.200 A 
ATOM     68  F   UNL     1       0.679 -13.596  -4.136  1.00  0.00    -0.200 F 
ATOM     69  F   UNL     1      -1.611 -13.469  -2.660  1.00  0.00    -0.200 F 
ENDBRANCH  45  59
BRANCH  46  70
ATOM     70  C   UNL     1       2.606  -2.745 -10.670  1.00  0.00     0.064 A 
ATOM     71  C   UNL     1       1.902  -2.102 -11.697  1.00  0.00     0.173 A 
ATOM     72  C   UNL     1       3.977  -2.470 -10.550  1.00  0.00     0.173 A 
ATOM     73  F   UNL     1       0.598  -2.357 -11.873  1.00  0.00    -0.203 F 
ATOM     74  C   UNL     1       2.550  -1.245 -12.587  1.00  0.00     0.198 A 
ATOM     75  C   UNL     1       4.614  -1.579 -11.413  1.00  0.00     0.198 A 
ATOM     76  F   UNL     1       4.703  -3.079  -9.601  1.00  0.00    -0.203 F 
ATOM     77  F   UNL     1       1.861  -0.677 -13.587  1.00  0.00    -0.200 F 
ATOM     78  C   UNL     1       3.901  -0.970 -12.434  1.00  0.00     0.200 A 
ATOM     79  F   UNL     1       5.920  -1.323 -11.263  1.00  0.00    -0.200 F 
ATOM     80  F   UNL     1       4.514  -0.123 -13.271  1.00  0.00    -0.200 F 
ENDBRANCH  46  70
BRANCH  58  81
ATOM     81  C   UNL     1       0.227  -9.063 -12.199  1.00  0.00     0.064 A 
ATOM     82  C   UNL     1       1.303  -9.571 -12.941  1.00  0.00     0.173 A 
ATOM     83  C   UNL     1      -1.068  -9.239 -12.710  1.00  0.00     0.173 A 
ATOM     84  F   UNL     1       2.561  -9.400 -12.508  1.00  0.00    -0.203 F 
ATOM     85  C   UNL     1       1.091 -10.212 -14.158  1.00  0.00     0.198 A 
ATOM     86  C   UNL     1      -1.277  -9.905 -13.914  1.00  0.00     0.198 A 
ATOM     87  F   UNL     1      -2.129  -8.765 -12.041  1.00  0.00    -0.203 F 
ATOM     88  F   UNL     1       2.137 -10.646 -14.875  1.00  0.00    -0.200 F 
ATOM     89  C   UNL     1      -0.198 -10.385 -14.640  1.00  0.00     0.200 A 
ATOM     90  F   UNL     1      -2.524 -10.076 -14.375  1.00  0.00    -0.200 F 
ATOM     91  F   UNL     1      -0.399 -11.006 -15.810  1.00  0.00    -0.200 F 
ENDBRANCH  58  81
ENDBRANCH  32  33
ENDBRANCH  25  27
ENDBRANCH  24  25
ENDBRANCH  23  24
ENDBRANCH  22  23
ENDBRANCH   1  22
TORSDOF 16
