REMARK SMILES CN1C=C/C(=C\C=C/C=N\c2ccc(C(=O)OCCOC(=O)c3ccc(-c4c5nc(c(-c6c(F)c(F)c(F)c(F)c6F)c6ccc([nH]6)c(-c6c(F)c(F)c(F)c(F)c6F)c6nc(c(-c7c(F)c(F)c(F)c(F)c7F)c7ccc4[nH]7)C=C6)C=C5)cc3)cc2)c2ccccc21
REMARK SMILES IDX 18 1 17 2 15 3 16 4 14 5 11 6 12 7 87 8 13 9 86 10 10 11
REMARK SMILES IDX 9 12 8 13 7 14 6 15 1 16 2 17 3 18 93 19 4 20 88 21 92 22
REMARK SMILES IDX 5 23 89 24 91 25 90 26 19 27 20 28 21 29 22 30 23 31 24 32
REMARK SMILES IDX 85 33 25 34 84 35 26 36 27 37 28 38 78 39 29 40 83 41 77 42
REMARK SMILES IDX 79 43 30 44 82 45 76 46 75 47 31 49 63 50 43 51 62 52 44 53
REMARK SMILES IDX 47 54 61 55 80 56 45 57 46 58 60 60 81 61 48 62 32 63 33 64
REMARK SMILES IDX 41 65 34 66 35 67 39 68 42 69 36 70 37 71 40 72 38 73 64 74
REMARK SMILES IDX 65 75 73 76 66 77 67 78 71 79 74 80 68 81 69 82 72 83 70 84
REMARK SMILES IDX 49 85 50 86 58 87 51 88 52 89 56 90 59 91 53 92 54 93 57 94
REMARK SMILES IDX 55 95
REMARK H PARENT 79 48 47 59
REMARK Flexibility Score: inf
ROOT
ATOM      1  C   UNL     1      -3.305   1.625  15.020  1.00  0.00     0.275 C 
ENDROOT
BRANCH   1   2
ATOM      2  O   UNL     1      -2.943   0.577  14.099  1.00  0.00    -0.458 OA
BRANCH   2   3
ATOM      3  C   UNL     1      -3.881   0.221  13.188  1.00  0.00     0.338 C 
ATOM      4  O   UNL     1      -5.013   0.667  13.107  1.00  0.00    -0.246 OA
BRANCH   3   5
ATOM      5  C   UNL     1      -3.312  -0.721  12.185  1.00  0.00     0.060 A 
ATOM      6  C   UNL     1      -2.226  -2.299  10.121  1.00  0.00     0.063 A 
ATOM      7  C   UNL     1      -3.471  -1.686   9.959  1.00  0.00     0.029 A 
ATOM      8  C   UNL     1      -1.565  -2.174  11.347  1.00  0.00     0.029 A 
ATOM      9  C   UNL     1      -4.014  -0.908  10.985  1.00  0.00     0.018 A 
ATOM     10  C   UNL     1      -2.095  -1.383  12.374  1.00  0.00     0.018 A 
BRANCH   6  11
ATOM     11  N   UNL     1      -1.677  -3.114   9.127  1.00  0.00    -0.257 NA
ATOM     12  C   UNL     1      -1.266  -2.631   7.997  1.00  0.00     0.111 C 
BRANCH  12  13
ATOM     13  C   UNL     1      -1.245  -1.225   7.506  1.00  0.00     0.020 C 
ATOM     14  C   UNL     1      -0.914  -0.835   6.262  1.00  0.00     0.002 C 
BRANCH  14  15
ATOM     15  C   UNL     1      -0.500  -1.673   5.146  1.00  0.00     0.009 C 
ATOM     16  C   UNL     1       0.962  -0.039  -0.093  1.00  0.00     0.149 C 
ATOM     17  N   UNL     1       0.552  -0.486   1.237  1.00  0.00    -0.351 N 
ATOM     18  C   UNL     1       0.067   0.400   2.181  1.00  0.00     0.086 C 
ATOM     19  C   UNL     1       0.652  -1.871   1.557  1.00  0.00     0.048 A 
ATOM     20  C   UNL     1      -0.305   0.077   3.426  1.00  0.00     0.026 C 
ATOM     21  C   UNL     1       0.266  -2.335   2.855  1.00  0.00     0.005 A 
ATOM     22  C   UNL     1       1.121  -2.817   0.620  1.00  0.00     0.027 A 
ATOM     23  C   UNL     1      -0.205  -1.310   3.875  1.00  0.00    -0.015 C 
ATOM     24  C   UNL     1       0.346  -3.716   3.129  1.00  0.00     0.011 A 
ATOM     25  C   UNL     1       1.202  -4.176   0.925  1.00  0.00     0.002 A 
ATOM     26  C   UNL     1       0.811  -4.625   2.176  1.00  0.00     0.001 A 
ENDBRANCH  14  15
ENDBRANCH  12  13
ENDBRANCH   6  11
ENDBRANCH   3   5
ENDBRANCH   2   3
ENDBRANCH   1   2
BRANCH   1  27
ATOM     27  C   UNL     1      -2.627   2.944  14.639  1.00  0.00     0.275 C 
BRANCH  27  28
ATOM     28  O   UNL     1      -3.219   3.509  13.453  1.00  0.00    -0.458 OA
BRANCH  28  29
ATOM     29  C   UNL     1      -2.553   3.278  12.299  1.00  0.00     0.338 C 
ATOM     30  O   UNL     1      -1.495   2.689  12.149  1.00  0.00    -0.246 OA
BRANCH  29  31
ATOM     31  C   UNL     1      -3.376   3.748  11.177  1.00  0.00     0.060 A 
ATOM     32  C   UNL     1      -3.454   5.099  10.841  1.00  0.00     0.016 A 
ATOM     33  C   UNL     1      -4.037   2.791  10.409  1.00  0.00     0.016 A 
ATOM     34  C   UNL     1      -4.226   5.485   9.738  1.00  0.00     0.010 A 
ATOM     35  C   UNL     1      -4.785   3.171   9.298  1.00  0.00     0.010 A 
ATOM     36  C   UNL     1      -4.898   4.524   8.957  1.00  0.00    -0.014 A 
BRANCH  36  37
ATOM     37  C   UNL     1      -5.700   4.915   7.769  1.00  0.00     0.031 A 
ATOM     38  C   UNL     1      -7.193   4.731   7.754  1.00  0.00     0.074 A 
ATOM     39  C   UNL     1      -5.073   5.389   6.675  1.00  0.00     0.049 A 
ATOM     40  N   UNL     1      -8.052   5.007   6.803  1.00  0.00    -0.248 NA
ATOM     41  C   UNL     1      -7.801   4.136   8.954  1.00  0.00     0.031 C 
ATOM     42  C   UNL     1      -3.626   5.551   6.538  1.00  0.00     0.029 A 
ATOM     43  N   UNL     1      -5.573   5.824   5.472  1.00  0.00    -0.354 N 
ATOM     44  C   UNL     1      -9.294   4.619   7.288  1.00  0.00     0.074 A 
ATOM     45  C   UNL     1      -9.073   4.037   8.595  1.00  0.00     0.031 C 
ATOM     46  C   UNL     1      -3.357   6.090   5.338  1.00  0.00     0.029 A 
ATOM     47  C   UNL     1      -4.608   6.287   4.612  1.00  0.00     0.049 A 
ATOM     48  H   UNL     1      -6.532   5.806   5.249  1.00  0.00     0.167 HD
ATOM     49  C   UNL     1     -10.510   4.760   6.708  1.00  0.00     0.037 A 
ATOM     50  C   UNL     1      -4.721   6.822   3.381  1.00  0.00     0.037 A 
ATOM     51  C   UNL     1     -10.732   5.361   5.418  1.00  0.00     0.049 A 
ATOM     52  C   UNL     1      -6.084   6.986   2.768  1.00  0.00     0.074 A 
ATOM     53  C   UNL     1     -11.933   5.592   4.769  1.00  0.00     0.029 A 
ATOM     54  N   UNL     1      -9.730   5.830   4.582  1.00  0.00    -0.354 N 
ATOM     55  N   UNL     1      -7.256   6.672   3.262  1.00  0.00    -0.248 NA
ATOM     56  C   UNL     1      -6.140   7.587   1.427  1.00  0.00     0.031 C 
ATOM     57  C   UNL     1     -11.656   6.171   3.527  1.00  0.00     0.029 A 
ATOM     58  C   UNL     1     -10.285   6.342   3.420  1.00  0.00     0.049 A 
ATOM     59  H   UNL     1      -8.767   5.803   4.784  1.00  0.00     0.167 HD
ATOM     60  C   UNL     1      -8.188   7.055   2.308  1.00  0.00     0.074 A 
ATOM     61  C   UNL     1      -7.447   7.641   1.210  1.00  0.00     0.031 C 
ATOM     62  C   UNL     1      -9.537   6.929   2.338  1.00  0.00     0.037 A 
BRANCH  49  63
ATOM     63  C   UNL     1     -11.711   4.286   7.476  1.00  0.00     0.064 A 
ATOM     64  C   UNL     1     -12.168   4.974   8.610  1.00  0.00     0.173 A 
ATOM     65  C   UNL     1     -12.457   3.182   7.034  1.00  0.00     0.173 A 
ATOM     66  F   UNL     1     -11.488   6.032   9.076  1.00  0.00    -0.203 F 
ATOM     67  C   UNL     1     -13.315   4.564   9.284  1.00  0.00     0.198 A 
ATOM     68  C   UNL     1     -13.619   2.792   7.694  1.00  0.00     0.198 A 
ATOM     69  F   UNL     1     -12.071   2.496   5.948  1.00  0.00    -0.203 F 
ATOM     70  F   UNL     1     -13.712   5.218  10.384  1.00  0.00    -0.200 F 
ATOM     71  C   UNL     1     -14.044   3.480   8.821  1.00  0.00     0.200 A 
ATOM     72  F   UNL     1     -14.333   1.755   7.236  1.00  0.00    -0.200 F 
ATOM     73  F   UNL     1     -15.159   3.098   9.461  1.00  0.00    -0.200 F 
ENDBRANCH  49  63
BRANCH  50  74
ATOM     74  C   UNL     1      -3.505   7.302   2.676  1.00  0.00     0.064 A 
ATOM     75  C   UNL     1      -3.268   8.675   2.521  1.00  0.00     0.173 A 
ATOM     76  C   UNL     1      -2.548   6.412   2.170  1.00  0.00     0.173 A 
ATOM     77  F   UNL     1      -4.164   9.564   2.973  1.00  0.00    -0.203 F 
ATOM     78  C   UNL     1      -2.123   9.140   1.877  1.00  0.00     0.198 A 
ATOM     79  C   UNL     1      -1.392   6.878   1.547  1.00  0.00     0.198 A 
ATOM     80  F   UNL     1      -2.726   5.089   2.299  1.00  0.00    -0.203 F 
ATOM     81  F   UNL     1      -1.937  10.457   1.714  1.00  0.00    -0.200 F 
ATOM     82  C   UNL     1      -1.183   8.241   1.397  1.00  0.00     0.200 A 
ATOM     83  F   UNL     1      -0.478   6.007   1.097  1.00  0.00    -0.200 F 
ATOM     84  F   UNL     1      -0.077   8.688   0.787  1.00  0.00    -0.200 F 
ENDBRANCH  50  74
BRANCH  62  85
ATOM     85  C   UNL     1     -10.309   7.451   1.163  1.00  0.00     0.064 A 
ATOM     86  C   UNL     1     -10.311   6.782  -0.069  1.00  0.00     0.173 A 
ATOM     87  C   UNL     1     -11.104   8.601   1.288  1.00  0.00     0.173 A 
ATOM     88  F   UNL     1      -9.557   5.686  -0.242  1.00  0.00    -0.203 F 
ATOM     89  C   UNL     1     -11.067   7.254  -1.139  1.00  0.00     0.198 A 
ATOM     90  C   UNL     1     -11.879   9.055   0.225  1.00  0.00     0.198 A 
ATOM     91  F   UNL     1     -11.142   9.274   2.449  1.00  0.00    -0.203 F 
ATOM     92  F   UNL     1     -11.025   6.619  -2.318  1.00  0.00    -0.200 F 
ATOM     93  C   UNL     1     -11.856   8.385  -0.988  1.00  0.00     0.200 A 
ATOM     94  F   UNL     1     -12.651  10.140   0.376  1.00  0.00    -0.200 F 
ATOM     95  F   UNL     1     -12.592   8.831  -2.016  1.00  0.00    -0.200 F 
ENDBRANCH  62  85
ENDBRANCH  36  37
ENDBRANCH  29  31
ENDBRANCH  28  29
ENDBRANCH  27  28
ENDBRANCH   1  27
TORSDOF 14
