REMARK SMILES Cc1cccc(N2C(=O)/C(=C/c3ccc(C(=O)OCCOC(=O)c4ccc(-c5c6nc(c(-c7c(F)c(F)c(F)c(F)c7F)c7ccc([nH]7)c(-c7c(F)c(F)c(F)c(F)c7F)c7nc(c(-c8c(F)c(F)c(F)c(F)c8F)c8ccc5[nH]8)C=C7)C=C6)cc4)cc3)c3ccccc3C2=O)c1
REMARK SMILES IDX 19 1 18 2 16 3 17 4 15 5 12 6 13 7 88 8 14 9 87 10 11 11
REMARK SMILES IDX 7 12 8 13 95 14 9 15 10 16 94 17 96 18 89 19 93 20 90 21
REMARK SMILES IDX 92 22 91 23 6 24 1 25 2 26 3 27 97 28 4 29 5 30 20 31 21 32
REMARK SMILES IDX 22 33 23 34 24 35 25 36 86 37 26 38 85 39 27 40 28 41 29 42
REMARK SMILES IDX 79 43 30 44 84 45 78 46 80 47 31 48 83 49 77 50 76 51 32 53
REMARK SMILES IDX 64 54 44 55 63 56 45 57 48 58 62 59 81 60 46 61 47 62 61 64
REMARK SMILES IDX 82 65 49 66 33 67 34 68 42 69 35 70 36 71 40 72 43 73 37 74
REMARK SMILES IDX 38 75 41 76 39 77 65 78 66 79 74 80 67 81 68 82 72 83 75 84
REMARK SMILES IDX 69 85 70 86 73 87 71 88 50 89 51 90 59 91 52 92 53 93 57 94
REMARK SMILES IDX 60 95 54 96 55 97 58 98 56 99
REMARK H PARENT 80 52 48 63
REMARK Flexibility Score: inf
ROOT
ATOM      1  C   UNL     1      -4.755  12.493   1.596  1.00  0.00     0.275 C 
ENDROOT
BRANCH   1   2
ATOM      2  O   UNL     1      -3.901  11.460   1.093  1.00  0.00    -0.458 OA
BRANCH   2   3
ATOM      3  C   UNL     1      -4.612  10.380   0.670  1.00  0.00     0.338 C 
ATOM      4  O   UNL     1      -5.817  10.236   0.827  1.00  0.00    -0.246 OA
BRANCH   3   5
ATOM      5  C   UNL     1      -3.778   9.345   0.008  1.00  0.00     0.060 A 
ATOM      6  C   UNL     1      -2.297   7.118  -0.766  1.00  0.00    -0.025 A 
ATOM      7  C   UNL     1      -1.649   8.337  -0.546  1.00  0.00     0.009 A 
ATOM      8  C   UNL     1      -3.693   7.071  -0.823  1.00  0.00     0.009 A 
ATOM      9  C   UNL     1      -2.392   9.454  -0.150  1.00  0.00     0.016 A 
ATOM     10  C   UNL     1      -4.429   8.174  -0.405  1.00  0.00     0.016 A 
BRANCH   6  11
ATOM     11  C   UNL     1      -1.531   5.868  -0.685  1.00  0.00     0.022 C 
ATOM     12  N   UNL     1      -1.673   2.481   0.439  1.00  0.00    -0.242 N 
ATOM     13  C   UNL     1      -0.962   3.652   0.097  1.00  0.00     0.265 C 
ATOM     14  C   UNL     1      -3.030   2.548   0.834  1.00  0.00     0.265 C 
ATOM     15  O   UNL     1       0.165   3.731  -0.391  1.00  0.00    -0.268 OA
ATOM     16  C   UNL     1      -1.730   4.926   0.270  1.00  0.00     0.049 C 
ATOM     17  C   UNL     1      -3.475   3.792   1.507  1.00  0.00     0.048 A 
ATOM     18  O   UNL     1      -3.897   1.689   0.696  1.00  0.00    -0.268 OA
ATOM     19  C   UNL     1      -2.751   4.962   1.323  1.00  0.00    -0.000 A 
ATOM     20  C   UNL     1      -4.617   3.786   2.324  1.00  0.00     0.014 A 
ATOM     21  C   UNL     1      -3.087   6.093   2.082  1.00  0.00     0.010 A 
ATOM     22  C   UNL     1      -5.006   4.946   2.993  1.00  0.00     0.001 A 
ATOM     23  C   UNL     1      -4.227   6.094   2.890  1.00  0.00     0.001 A 
BRANCH  12  24
ATOM     24  C   UNL     1      -1.029   1.179   0.258  1.00  0.00     0.053 A 
ATOM     25  C   UNL     1       2.524  -0.252  -0.029  1.00  0.00     0.044 C 
ATOM     26  C   UNL     1       1.026  -0.182   0.034  1.00  0.00    -0.049 A 
ATOM     27  C   UNL     1       0.266  -1.343  -0.072  1.00  0.00     0.003 A 
ATOM     28  C   UNL     1       0.375   1.052   0.220  1.00  0.00     0.030 A 
ATOM     29  C   UNL     1      -1.117  -1.263  -0.005  1.00  0.00     0.002 A 
ATOM     30  C   UNL     1      -1.751  -0.023   0.155  1.00  0.00     0.027 A 
ENDBRANCH  12  24
ENDBRANCH   6  11
ENDBRANCH   3   5
ENDBRANCH   2   3
ENDBRANCH   1   2
BRANCH   1  31
ATOM     31  C   UNL     1      -4.080  13.865   1.736  1.00  0.00     0.275 C 
BRANCH  31  32
ATOM     32  O   UNL     1      -3.043  14.321   0.819  1.00  0.00    -0.458 OA
BRANCH  32  33
ATOM     33  C   UNL     1      -2.570  13.666  -0.264  1.00  0.00     0.338 C 
ATOM     34  O   UNL     1      -1.373  13.513  -0.476  1.00  0.00    -0.246 OA
BRANCH  33  35
ATOM     35  C   UNL     1      -3.582  13.193  -1.221  1.00  0.00     0.060 A 
ATOM     36  C   UNL     1      -3.285  12.101  -2.057  1.00  0.00     0.016 A 
ATOM     37  C   UNL     1      -4.859  13.741  -1.175  1.00  0.00     0.016 A 
ATOM     38  C   UNL     1      -4.303  11.478  -2.768  1.00  0.00     0.010 A 
ATOM     39  C   UNL     1      -5.884  13.042  -1.750  1.00  0.00     0.010 A 
ATOM     40  C   UNL     1      -5.599  11.948  -2.584  1.00  0.00    -0.014 A 
BRANCH  40  41
ATOM     41  C   UNL     1      -6.713  11.605  -3.446  1.00  0.00     0.031 A 
ATOM     42  C   UNL     1      -7.535  10.407  -3.236  1.00  0.00     0.074 A 
ATOM     43  C   UNL     1      -7.005  12.636  -4.269  1.00  0.00     0.049 A 
ATOM     44  N   UNL     1      -8.229   9.840  -4.159  1.00  0.00    -0.248 NA
ATOM     45  C   UNL     1      -7.622   9.698  -1.964  1.00  0.00     0.031 C 
ATOM     46  C   UNL     1      -8.219  12.980  -4.977  1.00  0.00     0.029 A 
ATOM     47  N   UNL     1      -6.095  13.639  -4.654  1.00  0.00    -0.354 N 
ATOM     48  C   UNL     1      -9.114   8.982  -3.529  1.00  0.00     0.074 A 
ATOM     49  C   UNL     1      -8.568   8.782  -2.212  1.00  0.00     0.031 C 
ATOM     50  C   UNL     1      -7.918  13.895  -5.921  1.00  0.00     0.029 A 
ATOM     51  C   UNL     1      -6.466  14.045  -5.936  1.00  0.00     0.049 A 
ATOM     52  H   UNL     1      -5.343  13.986  -4.123  1.00  0.00     0.167 HD
ATOM     53  C   UNL     1     -10.325   8.750  -4.119  1.00  0.00     0.037 A 
ATOM     54  C   UNL     1      -5.636  13.720  -6.971  1.00  0.00     0.037 A 
ATOM     55  C   UNL     1     -10.412   9.550  -5.335  1.00  0.00     0.049 A 
ATOM     56  C   UNL     1      -6.325  12.743  -7.885  1.00  0.00     0.074 A 
ATOM     57  C   UNL     1     -10.966  10.801  -5.554  1.00  0.00     0.029 A 
ATOM     58  N   UNL     1      -9.563   9.290  -6.400  1.00  0.00    -0.354 N 
ATOM     59  N   UNL     1      -7.130  11.800  -7.475  1.00  0.00    -0.248 NA
ATOM     60  C   UNL     1      -6.249  12.849  -9.335  1.00  0.00     0.031 C 
ATOM     61  C   UNL     1     -10.417  11.311  -6.753  1.00  0.00     0.029 A 
ATOM     62  C   UNL     1      -9.525  10.376  -7.250  1.00  0.00     0.049 A 
ATOM     63  H   UNL     1      -9.062   8.453  -6.531  1.00  0.00     0.167 HD
ATOM     64  C   UNL     1      -7.744  11.246  -8.569  1.00  0.00     0.074 A 
ATOM     65  C   UNL     1      -7.137  11.913  -9.707  1.00  0.00     0.031 C 
ATOM     66  C   UNL     1      -8.755  10.333  -8.476  1.00  0.00     0.037 A 
BRANCH  53  67
ATOM     67  C   UNL     1     -11.561   8.131  -3.490  1.00  0.00     0.064 A 
ATOM     68  C   UNL     1     -12.845   8.419  -4.021  1.00  0.00     0.173 A 
ATOM     69  C   UNL     1     -11.572   7.268  -2.380  1.00  0.00     0.173 A 
ATOM     70  F   UNL     1     -13.002   9.143  -5.136  1.00  0.00    -0.203 F 
ATOM     71  C   UNL     1     -14.030   7.969  -3.436  1.00  0.00     0.198 A 
ATOM     72  C   UNL     1     -12.765   6.826  -1.785  1.00  0.00     0.198 A 
ATOM     73  F   UNL     1     -10.439   6.783  -1.861  1.00  0.00    -0.203 F 
ATOM     74  F   UNL     1     -15.208   8.306  -3.981  1.00  0.00    -0.200 F 
ATOM     75  C   UNL     1     -13.992   7.187  -2.305  1.00  0.00     0.200 A 
ATOM     76  F   UNL     1     -12.715   6.038  -0.701  1.00  0.00    -0.200 F 
ATOM     77  F   UNL     1     -15.129   6.763  -1.736  1.00  0.00    -0.200 F 
ENDBRANCH  53  67
BRANCH  54  78
ATOM     78  C   UNL     1      -4.189  13.687  -6.573  1.00  0.00     0.064 A 
ATOM     79  C   UNL     1      -3.624  14.869  -6.042  1.00  0.00     0.173 A 
ATOM     80  C   UNL     1      -3.487  12.495  -6.349  1.00  0.00     0.173 A 
ATOM     81  F   UNL     1      -4.247  16.046  -6.221  1.00  0.00    -0.203 F 
ATOM     82  C   UNL     1      -2.496  14.843  -5.222  1.00  0.00     0.198 A 
ATOM     83  C   UNL     1      -2.339  12.476  -5.544  1.00  0.00     0.198 A 
ATOM     84  F   UNL     1      -3.951  11.331  -6.821  1.00  0.00    -0.203 F 
ATOM     85  F   UNL     1      -2.072  15.969  -4.630  1.00  0.00    -0.200 F 
ATOM     86  C   UNL     1      -1.867  13.641  -4.955  1.00  0.00     0.200 A 
ATOM     87  F   UNL     1      -1.738  11.310  -5.264  1.00  0.00    -0.200 F 
ATOM     88  F   UNL     1      -0.838  13.597  -4.097  1.00  0.00    -0.200 F 
ENDBRANCH  54  78
BRANCH  66  89
ATOM     89  C   UNL     1      -9.223   9.412  -9.575  1.00  0.00     0.064 A 
ATOM     90  C   UNL     1      -8.437   9.073 -10.686  1.00  0.00     0.173 A 
ATOM     91  C   UNL     1     -10.441   8.693  -9.453  1.00  0.00     0.173 A 
ATOM     92  F   UNL     1      -7.202   9.565 -10.848  1.00  0.00    -0.203 F 
ATOM     93  C   UNL     1      -8.871   8.159 -11.645  1.00  0.00     0.198 A 
ATOM     94  C   UNL     1     -10.832   7.722 -10.369  1.00  0.00     0.198 A 
ATOM     95  F   UNL     1     -11.279   8.876  -8.422  1.00  0.00    -0.203 F 
ATOM     96  F   UNL     1      -8.108   7.922 -12.721  1.00  0.00    -0.200 F 
ATOM     97  C   UNL     1     -10.060   7.474 -11.481  1.00  0.00     0.200 A 
ATOM     98  F   UNL     1     -11.951   7.016 -10.151  1.00  0.00    -0.200 F 
ATOM     99  F   UNL     1     -10.446   6.560 -12.380  1.00  0.00    -0.200 F 
ENDBRANCH  66  89
ENDBRANCH  40  41
ENDBRANCH  33  35
ENDBRANCH  32  33
ENDBRANCH  31  32
ENDBRANCH   1  31
TORSDOF 13
