REMARK SMILES NS(=O)(=O)c1ccc(-n2nc(C(=O)OCCOC(=O)c3ccc(-c4c5nc(c(-c6c(F)c(F)c(F)c(F)c6F)c6ccc([nH]6)c(-c6c(F)c(F)c(F)c(F)c6F)c6nc(c(-c7c(F)c(F)c(F)c(F)c7F)c7ccc4[nH]7)C=C6)C=C5)cc3)cc2-c2cc3ccccc3s2)cc1
REMARK SMILES IDX 15 1 14 2 12 3 13 4 11 5 9 6 10 7 84 8 83 9 8 10 5 11 6 12
REMARK SMILES IDX 95 13 7 14 94 15 2 16 3 17 4 18 1 19 85 22 86 23 93 24 87 25
REMARK SMILES IDX 92 26 88 27 91 28 89 29 90 30 16 31 17 32 18 33 19 34 20 35
REMARK SMILES IDX 21 36 82 37 22 38 81 39 23 40 24 41 25 42 75 43 26 44 80 45
REMARK SMILES IDX 74 46 76 47 27 48 79 49 73 50 72 51 28 53 60 54 40 55 59 56
REMARK SMILES IDX 41 57 44 58 58 59 77 60 42 61 43 62 57 64 78 65 45 66 29 67
REMARK SMILES IDX 30 68 38 69 31 70 32 71 36 72 39 73 33 74 34 75 37 76 35 77
REMARK SMILES IDX 61 78 62 79 70 80 63 81 64 82 68 83 71 84 65 85 66 86 69 87
REMARK SMILES IDX 67 88 46 89 47 90 55 91 48 92 49 93 53 94 56 95 50 96 51 97
REMARK SMILES IDX 54 98 52 99
REMARK H PARENT 1 20 1 21 76 52 44 63
REMARK Flexibility Score: inf
ROOT
ATOM      1  C   UNL     1       4.659 -11.273  -3.676  1.00  0.00     0.275 C 
ENDROOT
BRANCH   1   2
ATOM      2  O   UNL     1       3.717 -10.231  -3.366  1.00  0.00    -0.457 OA
BRANCH   2   3
ATOM      3  C   UNL     1       3.996  -9.399  -2.304  1.00  0.00     0.358 C 
ATOM      4  O   UNL     1       4.850  -9.632  -1.457  1.00  0.00    -0.244 OA
BRANCH   3   5
ATOM      5  C   UNL     1       3.157  -8.190  -2.353  1.00  0.00     0.171 A 
ATOM      6  N   UNL     1       1.951  -6.563  -1.687  1.00  0.00    -0.231 N 
ATOM      7  N   UNL     1       3.140  -7.191  -1.446  1.00  0.00    -0.160 NA
ATOM      8  C   UNL     1       1.259  -7.174  -2.706  1.00  0.00     0.085 A 
ATOM      9  C   UNL     1       2.209  -7.931  -3.361  1.00  0.00     0.068 A 
BRANCH   6  10
ATOM     10  C   UNL     1       1.612  -5.367  -1.031  1.00  0.00     0.065 A 
ATOM     11  C   UNL     1       0.928  -2.956   0.155  1.00  0.00     0.082 A 
ATOM     12  C   UNL     1       0.108  -4.078   0.336  1.00  0.00     0.024 A 
ATOM     13  C   UNL     1       2.085  -3.030  -0.627  1.00  0.00     0.024 A 
ATOM     14  C   UNL     1       0.441  -5.288  -0.276  1.00  0.00     0.030 A 
ATOM     15  C   UNL     1       2.443  -4.250  -1.203  1.00  0.00     0.030 A 
BRANCH  11  16
ATOM     16  S   UNL     1       0.453  -1.440   0.932  1.00  0.00     0.238 S 
ATOM     17  O   UNL     1       1.151  -1.345   2.201  1.00  0.00    -0.207 OA
ATOM     18  O   UNL     1      -0.970  -1.284   0.811  1.00  0.00    -0.207 OA
BRANCH  16  19
ATOM     19  N   UNL     1       1.113  -0.240  -0.043  1.00  0.00    -0.225 NA
ATOM     20  H   UNL     1       0.881   0.676   0.342  1.00  0.00     0.137 HD
ATOM     21  H   UNL     1       0.732  -0.319  -0.985  1.00  0.00     0.137 HD
ENDBRANCH  16  19
ENDBRANCH  11  16
ENDBRANCH   6  10
BRANCH   8  22
ATOM     22  C   UNL     1      -0.157  -7.282  -2.949  1.00  0.00     0.054 A 
ATOM     23  C   UNL     1      -0.801  -7.033  -4.157  1.00  0.00     0.031 A 
ATOM     24  S   UNL     1      -0.874  -8.794  -2.405  1.00  0.00    -0.134 S 
ATOM     25  C   UNL     1      -0.768  -8.288  -4.900  1.00  0.00    -0.007 A 
ATOM     26  C   UNL     1      -0.608  -9.375  -4.026  1.00  0.00     0.035 A 
ATOM     27  C   UNL     1      -0.696  -8.536  -6.288  1.00  0.00     0.009 A 
ATOM     28  C   UNL     1      -0.239 -10.654  -4.470  1.00  0.00     0.019 A 
ATOM     29  C   UNL     1      -0.292  -9.799  -6.739  1.00  0.00     0.001 A 
ATOM     30  C   UNL     1      -0.029 -10.829  -5.840  1.00  0.00     0.001 A 
ENDBRANCH   8  22
ENDBRANCH   3   5
ENDBRANCH   2   3
ENDBRANCH   1   2
BRANCH   1  31
ATOM     31  C   UNL     1       5.754 -10.754  -4.600  1.00  0.00     0.275 C 
BRANCH  31  32
ATOM     32  O   UNL     1       6.546  -9.800  -3.904  1.00  0.00    -0.458 OA
BRANCH  32  33
ATOM     33  C   UNL     1       6.131  -8.519  -4.006  1.00  0.00     0.338 C 
ATOM     34  O   UNL     1       5.156  -8.109  -4.614  1.00  0.00    -0.246 OA
BRANCH  33  35
ATOM     35  C   UNL     1       7.131  -7.646  -3.391  1.00  0.00     0.060 A 
ATOM     36  C   UNL     1       6.902  -6.274  -3.518  1.00  0.00     0.016 A 
ATOM     37  C   UNL     1       8.400  -8.182  -3.139  1.00  0.00     0.016 A 
ATOM     38  C   UNL     1       7.994  -5.470  -3.724  1.00  0.00     0.010 A 
ATOM     39  C   UNL     1       9.485  -7.387  -3.375  1.00  0.00     0.010 A 
ATOM     40  C   UNL     1       9.255  -6.073  -3.773  1.00  0.00    -0.014 A 
BRANCH  40  41
ATOM     41  C   UNL     1      10.377  -5.271  -4.186  1.00  0.00     0.031 A 
ATOM     42  C   UNL     1      10.810  -4.337  -3.129  1.00  0.00     0.074 A 
ATOM     43  C   UNL     1      10.998  -5.480  -5.361  1.00  0.00     0.049 A 
ATOM     44  N   UNL     1      10.772  -3.047  -3.149  1.00  0.00    -0.248 NA
ATOM     45  C   UNL     1      11.144  -4.915  -1.816  1.00  0.00     0.031 C 
ATOM     46  C   UNL     1      10.796  -6.562  -6.329  1.00  0.00     0.029 A 
ATOM     47  N   UNL     1      12.040  -4.791  -5.891  1.00  0.00    -0.354 N 
ATOM     48  C   UNL     1      11.265  -2.651  -1.911  1.00  0.00     0.074 A 
ATOM     49  C   UNL     1      11.278  -3.819  -1.074  1.00  0.00     0.031 C 
ATOM     50  C   UNL     1      11.833  -6.582  -7.199  1.00  0.00     0.029 A 
ATOM     51  C   UNL     1      12.693  -5.444  -6.926  1.00  0.00     0.049 A 
ATOM     52  H   UNL     1      12.310  -3.901  -5.567  1.00  0.00     0.167 HD
ATOM     53  C   UNL     1      11.892  -1.455  -1.766  1.00  0.00     0.037 A 
ATOM     54  C   UNL     1      13.910  -5.098  -7.418  1.00  0.00     0.037 A 
ATOM     55  C   UNL     1      11.537  -0.547  -2.825  1.00  0.00     0.049 A 
ATOM     56  C   UNL     1      14.161  -3.688  -7.007  1.00  0.00     0.074 A 
ATOM     57  C   UNL     1      10.349   0.016  -3.252  1.00  0.00     0.029 A 
ATOM     58  N   UNL     1      12.415  -0.397  -3.871  1.00  0.00    -0.354 N 
ATOM     59  N   UNL     1      13.473  -2.672  -7.456  1.00  0.00    -0.248 NA
ATOM     60  C   UNL     1      14.833  -3.471  -5.732  1.00  0.00     0.031 C 
ATOM     61  C   UNL     1      10.434   0.029  -4.675  1.00  0.00     0.029 A 
ATOM     62  C   UNL     1      11.689  -0.467  -5.033  1.00  0.00     0.049 A 
ATOM     63  H   UNL     1      13.388  -0.263  -3.799  1.00  0.00     0.167 HD
ATOM     64  C   UNL     1      13.283  -1.853  -6.350  1.00  0.00     0.074 A 
ATOM     65  C   UNL     1      14.193  -2.369  -5.330  1.00  0.00     0.031 C 
ATOM     66  C   UNL     1      12.200  -1.026  -6.262  1.00  0.00     0.037 A 
BRANCH  53  67
ATOM     67  C   UNL     1      13.114  -1.272  -0.903  1.00  0.00     0.064 A 
ATOM     68  C   UNL     1      13.617   0.026  -0.707  1.00  0.00     0.173 A 
ATOM     69  C   UNL     1      13.974  -2.325  -0.513  1.00  0.00     0.173 A 
ATOM     70  F   UNL     1      12.894   1.099  -1.061  1.00  0.00    -0.203 F 
ATOM     71  C   UNL     1      14.913   0.248  -0.235  1.00  0.00     0.198 A 
ATOM     72  C   UNL     1      15.242  -2.098   0.012  1.00  0.00     0.198 A 
ATOM     73  F   UNL     1      13.682  -3.613  -0.728  1.00  0.00    -0.203 F 
ATOM     74  F   UNL     1      15.397   1.496  -0.191  1.00  0.00    -0.200 F 
ATOM     75  C   UNL     1      15.726  -0.814   0.118  1.00  0.00     0.200 A 
ATOM     76  F   UNL     1      16.019  -3.144   0.329  1.00  0.00    -0.200 F 
ATOM     77  F   UNL     1      16.989  -0.606   0.508  1.00  0.00    -0.200 F 
ENDBRANCH  53  67
BRANCH  54  78
ATOM     78  C   UNL     1      14.998  -6.010  -7.848  1.00  0.00     0.064 A 
ATOM     79  C   UNL     1      16.088  -5.539  -8.598  1.00  0.00     0.173 A 
ATOM     80  C   UNL     1      15.130  -7.303  -7.302  1.00  0.00     0.173 A 
ATOM     81  F   UNL     1      16.068  -4.299  -9.108  1.00  0.00    -0.203 F 
ATOM     82  C   UNL     1      17.243  -6.309  -8.778  1.00  0.00     0.198 A 
ATOM     83  C   UNL     1      16.279  -8.073  -7.488  1.00  0.00     0.198 A 
ATOM     84  F   UNL     1      14.186  -7.811  -6.497  1.00  0.00    -0.203 F 
ATOM     85  F   UNL     1      18.286  -5.804  -9.453  1.00  0.00    -0.200 F 
ATOM     86  C   UNL     1      17.341  -7.572  -8.216  1.00  0.00     0.200 A 
ATOM     87  F   UNL     1      16.374  -9.276  -6.905  1.00  0.00    -0.200 F 
ATOM     88  F   UNL     1      18.468  -8.286  -8.341  1.00  0.00    -0.200 F 
ENDBRANCH  54  78
BRANCH  66  89
ATOM     89  C   UNL     1      11.337  -0.870  -7.484  1.00  0.00     0.064 A 
ATOM     90  C   UNL     1      10.581  -1.915  -8.045  1.00  0.00     0.173 A 
ATOM     91  C   UNL     1      11.140   0.415  -8.003  1.00  0.00     0.173 A 
ATOM     92  F   UNL     1      10.636  -3.152  -7.538  1.00  0.00    -0.203 F 
ATOM     93  C   UNL     1       9.698  -1.686  -9.100  1.00  0.00     0.198 A 
ATOM     94  C   UNL     1      10.233   0.648  -9.033  1.00  0.00     0.198 A 
ATOM     95  F   UNL     1      11.790   1.461  -7.468  1.00  0.00    -0.203 F 
ATOM     96  F   UNL     1       8.991  -2.701  -9.619  1.00  0.00    -0.200 F 
ATOM     97  C   UNL     1       9.519  -0.403  -9.587  1.00  0.00     0.200 A 
ATOM     98  F   UNL     1      10.025   1.899  -9.466  1.00  0.00    -0.200 F 
ATOM     99  F   UNL     1       8.637  -0.172 -10.569  1.00  0.00    -0.200 F 
ENDBRANCH  66  89
ENDBRANCH  40  41
ENDBRANCH  33  35
ENDBRANCH  32  33
ENDBRANCH  31  32
ENDBRANCH   1  31
TORSDOF 15
