REMARK SMILES CC(C)(O)CC[C@@H](C(=O)OCCOC(=O)c1ccc(-c2c3nc(c(-c4c(F)c(F)c(F)c(F)c4F)c4ccc([nH]4)c(-c4c(F)c(F)c(F)c(F)c4F)c4nc(c(-c5c(F)c(F)c(F)c(F)c5F)c5ccc2[nH]5)C=C4)C=C3)cc1)[C@@H]1CCS(=O)(=O)C1
REMARK SMILES IDX 11 1 10 2 8 3 9 4 7 5 6 6 5 7 2 8 1 9 3 10 4 11 79 13 80 14
REMARK SMILES IDX 85 15 81 16 82 17 83 18 84 19 12 20 13 21 14 22 15 23 16 24
REMARK SMILES IDX 17 25 78 26 18 27 77 28 19 29 20 30 21 31 71 32 22 33 76 34
REMARK SMILES IDX 70 35 72 36 23 37 75 38 69 39 68 40 24 42 56 43 36 44 55 45
REMARK SMILES IDX 37 46 40 47 54 48 73 49 38 50 39 51 53 53 74 54 41 55 25 56
REMARK SMILES IDX 26 57 34 58 27 59 28 60 32 61 35 62 29 63 30 64 33 65 31 66
REMARK SMILES IDX 57 67 58 68 66 69 59 70 60 71 64 72 67 73 61 74 62 75 65 76
REMARK SMILES IDX 63 77 42 78 43 79 51 80 44 81 45 82 49 83 52 84 46 85 47 86
REMARK SMILES IDX 50 87 48 88
REMARK H PARENT 4 12 72 41 40 52
REMARK Flexibility Score: inf
ROOT
ATOM      1  C   UNL     1       4.486   1.644  -0.338  1.00  0.00     0.274 C 
ENDROOT
BRANCH   1   2
ATOM      2  O   UNL     1       3.083   1.958  -0.469  1.00  0.00    -0.462 OA
BRANCH   2   3
ATOM      3  C   UNL     1       2.264   1.783   0.606  1.00  0.00     0.309 C 
ATOM      4  O   UNL     1       2.618   1.313   1.678  1.00  0.00    -0.252 OA
BRANCH   3   5
ATOM      5  C   UNL     1       0.830   2.321   0.332  1.00  0.00     0.103 C 
BRANCH   5   6
ATOM      6  C   UNL     1       0.390   2.087  -1.135  1.00  0.00     0.018 C 
BRANCH   6   7
ATOM      7  C   UNL     1       0.797   0.806  -1.885  1.00  0.00     0.035 C 
BRANCH   7   8
ATOM      8  C   UNL     1       0.354  -0.564  -1.361  1.00  0.00     0.059 C 
ATOM      9  C   UNL     1       0.896  -0.940   0.015  1.00  0.00     0.042 C 
ATOM     10  C   UNL     1       0.820  -1.624  -2.369  1.00  0.00     0.042 C 
BRANCH   8  11
ATOM     11  O   UNL     1      -1.069  -0.560  -1.302  1.00  0.00    -0.390 OA
ATOM     12  H   UNL     1      -1.382  -1.417  -0.973  1.00  0.00     0.211 HD
ENDBRANCH   8  11
ENDBRANCH   7   8
ENDBRANCH   6   7
ENDBRANCH   5   6
BRANCH   5  13
ATOM     13  C   UNL     1       0.586   3.858   0.837  1.00  0.00     0.019 C 
ATOM     14  C   UNL     1       0.238   5.120  -0.580  1.00  0.00     0.021 C 
ATOM     15  C   UNL     1       1.955   4.371   2.066  1.00  0.00     0.141 C 
ATOM     16  C   UNL     1       1.668   6.529  -0.747  1.00  0.00     0.137 C 
ATOM     17  S   UNL     1       3.201   6.062   1.272  1.00  0.00     0.150 S 
ATOM     18  O   UNL     1       4.502   5.408   1.081  1.00  0.00    -0.229 OA
ATOM     19  O   UNL     1       3.308   7.013   2.378  1.00  0.00    -0.229 OA
ENDBRANCH   5  13
ENDBRANCH   3   5
ENDBRANCH   2   3
ENDBRANCH   1   2
BRANCH   1  20
ATOM     20  C   UNL     1       5.283   2.443  -1.385  1.00  0.00     0.275 C 
BRANCH  20  21
ATOM     21  O   UNL     1       5.114   3.854  -1.148  1.00  0.00    -0.458 OA
BRANCH  21  22
ATOM     22  C   UNL     1       4.203   4.496  -1.909  1.00  0.00     0.338 C 
ATOM     23  O   UNL     1       3.680   4.119  -2.943  1.00  0.00    -0.246 OA
BRANCH  22  24
ATOM     24  C   UNL     1       3.573   5.515  -1.063  1.00  0.00     0.060 A 
ATOM     25  C   UNL     1       2.268   4.923  -0.114  1.00  0.00     0.016 A 
ATOM     26  C   UNL     1       3.878   7.131  -0.956  1.00  0.00     0.016 A 
ATOM     27  C   UNL     1       1.174   6.148   0.992  1.00  0.00     0.010 A 
ATOM     28  C   UNL     1       2.965   8.222  -0.003  1.00  0.00     0.010 A 
ATOM     29  C   UNL     1       1.599   7.841   0.964  1.00  0.00    -0.014 A 
BRANCH  29  30
ATOM     30  C   UNL     1       0.814   8.916   1.641  1.00  0.00     0.031 A 
ATOM     31  C   UNL     1       0.360  10.135   0.859  1.00  0.00     0.074 A 
ATOM     32  C   UNL     1       0.549   8.848   2.963  1.00  0.00     0.049 A 
ATOM     33  N   UNL     1      -0.254  11.215   1.282  1.00  0.00    -0.248 NA
ATOM     34  C   UNL     1       0.610  10.145  -0.593  1.00  0.00     0.031 C 
ATOM     35  C   UNL     1       0.908   7.749   3.853  1.00  0.00     0.029 A 
ATOM     36  N   UNL     1      -0.039   9.757   3.815  1.00  0.00    -0.354 N 
ATOM     37  C   UNL     1      -0.474  12.003   0.156  1.00  0.00     0.074 A 
ATOM     38  C   UNL     1       0.126  11.319  -0.962  1.00  0.00     0.031 C 
ATOM     39  C   UNL     1       0.613   8.062   5.120  1.00  0.00     0.029 A 
ATOM     40  C   UNL     1       0.037   9.393   5.142  1.00  0.00     0.049 A 
ATOM     41  H   UNL     1      -0.471  10.586   3.506  1.00  0.00     0.167 HD
ATOM     42  C   UNL     1      -1.140  13.178   0.050  1.00  0.00     0.037 A 
ATOM     43  C   UNL     1      -0.289  10.054   6.267  1.00  0.00     0.037 A 
ATOM     44  C   UNL     1      -1.704  13.884   1.170  1.00  0.00     0.049 A 
ATOM     45  C   UNL     1      -0.935  11.399   6.138  1.00  0.00     0.074 A 
ATOM     46  C   UNL     1      -2.403  15.078   1.177  1.00  0.00     0.029 A 
ATOM     47  N   UNL     1      -1.613  13.464   2.489  1.00  0.00    -0.354 N 
ATOM     48  N   UNL     1      -1.196  12.089   5.054  1.00  0.00    -0.248 NA
ATOM     49  C   UNL     1      -1.372  12.040   7.383  1.00  0.00     0.031 C 
ATOM     50  C   UNL     1      -2.679  15.413   2.506  1.00  0.00     0.029 A 
ATOM     51  C   UNL     1      -2.219  14.391   3.321  1.00  0.00     0.049 A 
ATOM     52  H   UNL     1      -1.181  12.632   2.789  1.00  0.00     0.167 HD
ATOM     53  C   UNL     1      -1.863  13.226   5.482  1.00  0.00     0.074 A 
ATOM     54  C   UNL     1      -1.991  13.115   6.921  1.00  0.00     0.031 C 
ATOM     55  C   UNL     1      -2.328  14.268   4.752  1.00  0.00     0.037 A 
BRANCH  42  56
ATOM     56  C   UNL     1      -1.295  13.776  -1.323  1.00  0.00     0.064 A 
ATOM     57  C   UNL     1      -2.111  13.177  -2.297  1.00  0.00     0.173 A 
ATOM     58  C   UNL     1      -0.659  14.981  -1.660  1.00  0.00     0.173 A 
ATOM     59  F   UNL     1      -2.731  12.015  -2.036  1.00  0.00    -0.203 F 
ATOM     60  C   UNL     1      -2.266  13.747  -3.558  1.00  0.00     0.198 A 
ATOM     61  C   UNL     1      -0.841  15.565  -2.912  1.00  0.00     0.198 A 
ATOM     62  F   UNL     1       0.133  15.600  -0.771  1.00  0.00    -0.203 F 
ATOM     63  F   UNL     1      -3.012  13.129  -4.485  1.00  0.00    -0.200 F 
ATOM     64  C   UNL     1      -1.639  14.945  -3.862  1.00  0.00     0.200 A 
ATOM     65  F   UNL     1      -0.244  16.730  -3.200  1.00  0.00    -0.200 F 
ATOM     66  F   UNL     1      -1.796  15.499  -5.072  1.00  0.00    -0.200 F 
ENDBRANCH  42  56
BRANCH  43  67
ATOM     67  C   UNL     1      -0.035   9.444   7.602  1.00  0.00     0.064 A 
ATOM     68  C   UNL     1      -1.094   9.052   8.433  1.00  0.00     0.173 A 
ATOM     69  C   UNL     1       1.270   9.255   8.084  1.00  0.00     0.173 A 
ATOM     70  F   UNL     1      -2.361   9.217   8.024  1.00  0.00    -0.203 F 
ATOM     71  C   UNL     1      -0.861   8.541   9.709  1.00  0.00     0.198 A 
ATOM     72  C   UNL     1       1.503   8.708   9.345  1.00  0.00     0.198 A 
ATOM     73  F   UNL     1       2.323   9.597   7.327  1.00  0.00    -0.203 F 
ATOM     74  F   UNL     1      -1.896   8.242  10.506  1.00  0.00    -0.200 F 
ATOM     75  C   UNL     1       0.437   8.367  10.163  1.00  0.00     0.200 A 
ATOM     76  F   UNL     1       2.759   8.520   9.773  1.00  0.00    -0.200 F 
ATOM     77  F   UNL     1       0.659   7.880  11.391  1.00  0.00    -0.200 F 
ENDBRANCH  43  67
BRANCH  55  78
ATOM     78  C   UNL     1      -3.047  15.348   5.505  1.00  0.00     0.064 A 
ATOM     79  C   UNL     1      -2.383  16.177   6.422  1.00  0.00     0.173 A 
ATOM     80  C   UNL     1      -4.423  15.546   5.316  1.00  0.00     0.173 A 
ATOM     81  F   UNL     1      -1.070  16.018   6.649  1.00  0.00    -0.203 F 
ATOM     82  C   UNL     1      -3.082  17.123   7.165  1.00  0.00     0.198 A 
ATOM     83  C   UNL     1      -5.109  16.525   6.025  1.00  0.00     0.198 A 
ATOM     84  F   UNL     1      -5.104  14.787   4.443  1.00  0.00    -0.203 F 
ATOM     85  F   UNL     1      -2.444  17.840   8.099  1.00  0.00    -0.200 F 
ATOM     86  C   UNL     1      -4.442  17.300   6.962  1.00  0.00     0.200 A 
ATOM     87  F   UNL     1      -6.419  16.710   5.812  1.00  0.00    -0.200 F 
ATOM     88  F   UNL     1      -5.114  18.210   7.680  1.00  0.00    -0.200 F 
ENDBRANCH  55  78
ENDBRANCH  29  30
ENDBRANCH  22  24
ENDBRANCH  21  22
ENDBRANCH  20  21
ENDBRANCH   1  20
TORSDOF 16
