REMARK SMILES Cc1cc(C)n([C@@H](C(=O)OCCOC(=O)c2ccc(-c3c4nc(c(-c5c(F)c(F)c(F)c(F)c5F)c5ccc([nH]5)c(-c5c(F)c(F)c(F)c(F)c5F)c5nc(c(-c6c(F)c(F)c(F)c(F)c6F)c6ccc3[nH]6)C=C5)C=C4)cc2)C(C)C)n1
REMARK SMILES IDX 12 1 11 2 10 3 8 4 9 5 7 6 6 7 1 8 2 9 3 10 82 11 4 12 5 13
REMARK SMILES IDX 79 14 80 15 81 16 13 17 14 18 15 19 16 20 17 21 78 22 18 23
REMARK SMILES IDX 77 24 19 25 20 26 21 27 71 28 22 29 76 30 70 31 72 32 23 33
REMARK SMILES IDX 75 34 69 35 68 36 24 38 56 39 36 40 55 41 37 42 40 43 54 44
REMARK SMILES IDX 73 45 38 46 39 47 53 49 74 50 41 51 25 52 26 53 34 54 27 55
REMARK SMILES IDX 28 56 32 57 35 58 29 59 30 60 33 61 31 62 57 63 58 64 66 65
REMARK SMILES IDX 59 66 60 67 64 68 67 69 61 70 62 71 65 72 63 73 42 74 43 75
REMARK SMILES IDX 51 76 44 77 45 78 49 79 52 80 46 81 47 82 50 83 48 84
REMARK H PARENT 72 37 40 48
REMARK Flexibility Score: inf
ROOT
ATOM      1  C   UNL     1      -4.302  -1.940   4.556  1.00  0.00     0.275 C 
ENDROOT
BRANCH   1   2
ATOM      2  C   UNL     1      -4.107  -0.450   4.264  1.00  0.00     0.274 C 
BRANCH   2   3
ATOM      3  O   UNL     1      -2.747  -0.203   3.838  1.00  0.00    -0.460 OA
BRANCH   3   4
ATOM      4  C   UNL     1      -1.997   0.609   4.641  1.00  0.00     0.331 C 
ATOM      5  O   UNL     1      -2.491   1.302   5.532  1.00  0.00    -0.250 OA
BRANCH   4   6
ATOM      6  C   UNL     1      -0.487   0.565   4.370  1.00  0.00     0.219 C 
BRANCH   6   7
ATOM      7  N   UNL     1      -0.117  -0.138   3.122  1.00  0.00    -0.255 N 
ATOM      8  C   UNL     1       0.857   0.436  -0.254  1.00  0.00     0.069 C 
ATOM      9  C   UNL     1       0.501  -0.116   1.070  1.00  0.00     0.060 A 
ATOM     10  C   UNL     1       0.680  -1.430   1.515  1.00  0.00     0.048 A 
ATOM     11  N   UNL     1      -0.005   0.662   2.025  1.00  0.00    -0.177 NA
ATOM     12  C   UNL     1       0.320  -1.428   2.848  1.00  0.00     0.037 A 
ATOM     13  C   UNL     1       0.431  -2.595   3.755  1.00  0.00     0.066 C 
ENDBRANCH   6   7
BRANCH   6  14
ATOM     14  C   UNL     1       0.455   0.265   5.582  1.00  0.00     0.019 C 
ATOM     15  C   UNL     1       1.880   0.755   5.284  1.00  0.00     0.010 C 
ATOM     16  C   UNL     1       0.007   0.860   6.923  1.00  0.00     0.010 C 
ENDBRANCH   6  14
ENDBRANCH   4   6
ENDBRANCH   3   4
ENDBRANCH   2   3
ENDBRANCH   1   2
BRANCH   1  17
ATOM     17  O   UNL     1      -3.948  -2.369   5.886  1.00  0.00    -0.458 OA
BRANCH  17  18
ATOM     18  C   UNL     1      -2.631  -2.343   6.171  1.00  0.00     0.338 C 
ATOM     19  O   UNL     1      -1.807  -1.550   5.773  1.00  0.00    -0.246 OA
BRANCH  18  20
ATOM     20  C   UNL     1      -2.147  -3.595   6.741  1.00  0.00     0.060 A 
ATOM     21  C   UNL     1      -0.749  -3.728   6.773  1.00  0.00     0.016 A 
ATOM     22  C   UNL     1      -2.998  -4.685   6.890  1.00  0.00     0.016 A 
ATOM     23  C   UNL     1      -0.197  -4.980   6.708  1.00  0.00     0.010 A 
ATOM     24  C   UNL     1      -2.438  -5.942   6.909  1.00  0.00     0.010 A 
ATOM     25  C   UNL     1      -1.054  -6.077   6.727  1.00  0.00    -0.014 A 
BRANCH  25  26
ATOM     26  C   UNL     1      -0.436  -7.391   6.728  1.00  0.00     0.031 A 
ATOM     27  C   UNL     1       0.448  -7.630   7.910  1.00  0.00     0.074 A 
ATOM     28  C   UNL     1      -0.822  -8.323   5.838  1.00  0.00     0.049 A 
ATOM     29  N   UNL     1       1.626  -8.162   7.961  1.00  0.00    -0.248 NA
ATOM     30  C   UNL     1      -0.012  -7.079   9.204  1.00  0.00     0.031 C 
ATOM     31  C   UNL     1      -1.881  -8.218   4.827  1.00  0.00     0.029 A 
ATOM     32  N   UNL     1      -0.473  -9.631   5.771  1.00  0.00    -0.354 N 
ATOM     33  C   UNL     1       1.984  -8.155   9.311  1.00  0.00     0.074 A 
ATOM     34  C   UNL     1       1.018  -7.346   9.999  1.00  0.00     0.031 C 
ATOM     35  C   UNL     1      -2.278  -9.461   4.480  1.00  0.00     0.029 A 
ATOM     36  C   UNL     1      -1.426 -10.424   5.155  1.00  0.00     0.049 A 
ATOM     37  H   UNL     1       0.376  -9.982   6.126  1.00  0.00     0.167 HD
ATOM     38  C   UNL     1       2.919  -9.001   9.817  1.00  0.00     0.037 A 
ATOM     39  C   UNL     1      -1.575 -11.760   5.322  1.00  0.00     0.037 A 
ATOM     40  C   UNL     1       3.820  -9.466   8.802  1.00  0.00     0.049 A 
ATOM     41  C   UNL     1      -0.324 -12.278   5.938  1.00  0.00     0.074 A 
ATOM     42  C   UNL     1       4.727  -8.847   7.964  1.00  0.00     0.029 A 
ATOM     43  N   UNL     1       3.635 -10.723   8.283  1.00  0.00    -0.354 N 
ATOM     44  N   UNL     1       0.831 -12.306   5.331  1.00  0.00    -0.248 NA
ATOM     45  C   UNL     1      -0.263 -12.341   7.393  1.00  0.00     0.031 C 
ATOM     46  C   UNL     1       4.653  -9.572   6.739  1.00  0.00     0.029 A 
ATOM     47  C   UNL     1       3.735 -10.606   6.921  1.00  0.00     0.049 A 
ATOM     48  H   UNL     1       3.463 -11.548   8.791  1.00  0.00     0.167 HD
ATOM     49  C   UNL     1       1.759 -11.982   6.312  1.00  0.00     0.074 A 
ATOM     50  C   UNL     1       1.038 -12.096   7.576  1.00  0.00     0.031 C 
ATOM     51  C   UNL     1       2.939 -11.373   5.995  1.00  0.00     0.037 A 
BRANCH  38  52
ATOM     52  C   UNL     1       2.784  -9.669  11.162  1.00  0.00     0.064 A 
ATOM     53  C   UNL     1       3.864 -10.413  11.673  1.00  0.00     0.173 A 
ATOM     54  C   UNL     1       1.547  -9.860  11.819  1.00  0.00     0.173 A 
ATOM     55  F   UNL     1       5.081 -10.321  11.116  1.00  0.00    -0.203 F 
ATOM     56  C   UNL     1       3.696 -11.339  12.706  1.00  0.00     0.198 A 
ATOM     57  C   UNL     1       1.396 -10.742  12.885  1.00  0.00     0.198 A 
ATOM     58  F   UNL     1       0.413  -9.293  11.389  1.00  0.00    -0.203 F 
ATOM     59  F   UNL     1       4.721 -12.119  13.071  1.00  0.00    -0.200 F 
ATOM     60  C   UNL     1       2.461 -11.508  13.305  1.00  0.00     0.200 A 
ATOM     61  F   UNL     1       0.186 -10.901  13.440  1.00  0.00    -0.200 F 
ATOM     62  F   UNL     1       2.282 -12.442  14.248  1.00  0.00    -0.200 F 
ENDBRANCH  38  52
BRANCH  39  63
ATOM     63  C   UNL     1      -2.854 -12.508   5.338  1.00  0.00     0.064 A 
ATOM     64  C   UNL     1      -2.888 -13.893   5.126  1.00  0.00     0.173 A 
ATOM     65  C   UNL     1      -4.053 -11.913   5.785  1.00  0.00     0.173 A 
ATOM     66  F   UNL     1      -1.775 -14.543   4.757  1.00  0.00    -0.203 F 
ATOM     67  C   UNL     1      -4.052 -14.638   5.344  1.00  0.00     0.198 A 
ATOM     68  C   UNL     1      -5.217 -12.653   5.988  1.00  0.00     0.198 A 
ATOM     69  F   UNL     1      -4.098 -10.615   6.118  1.00  0.00    -0.203 F 
ATOM     70  F   UNL     1      -4.035 -15.968   5.178  1.00  0.00    -0.200 F 
ATOM     71  C   UNL     1      -5.215 -14.018   5.776  1.00  0.00     0.200 A 
ATOM     72  F   UNL     1      -6.322 -12.044   6.440  1.00  0.00    -0.200 F 
ATOM     73  F   UNL     1      -6.317 -14.738   6.026  1.00  0.00    -0.200 F 
ENDBRANCH  39  63
BRANCH  51  74
ATOM     74  C   UNL     1       3.297 -11.255   4.541  1.00  0.00     0.064 A 
ATOM     75  C   UNL     1       2.555 -10.493   3.622  1.00  0.00     0.173 A 
ATOM     76  C   UNL     1       4.511 -11.793   4.099  1.00  0.00     0.173 A 
ATOM     77  F   UNL     1       1.448  -9.846   4.000  1.00  0.00    -0.203 F 
ATOM     78  C   UNL     1       2.982 -10.323   2.307  1.00  0.00     0.198 A 
ATOM     79  C   UNL     1       4.955 -11.590   2.795  1.00  0.00     0.198 A 
ATOM     80  F   UNL     1       5.295 -12.471   4.951  1.00  0.00    -0.203 F 
ATOM     81  F   UNL     1       2.247  -9.598   1.451  1.00  0.00    -0.200 F 
ATOM     82  C   UNL     1       4.186 -10.866   1.897  1.00  0.00     0.200 A 
ATOM     83  F   UNL     1       6.148 -12.069   2.417  1.00  0.00    -0.200 F 
ATOM     84  F   UNL     1       4.621 -10.666   0.645  1.00  0.00    -0.200 F 
ENDBRANCH  51  74
ENDBRANCH  25  26
ENDBRANCH  18  20
ENDBRANCH  17  18
ENDBRANCH   1  17
TORSDOF 13
