REMARK SMILES O=C(CC1(CC(=O)OCCOC(=O)c2ccc(-c3c4nc(c(-c5c(F)c(F)c(F)c(F)c5F)c5ccc([nH]5)c(-c5c(F)c(F)c(F)c(F)c5F)c5nc(c(-c6c(F)c(F)c(F)c(F)c6F)c6ccc3[nH]6)C=C5)C=C4)cc2)CCCCC1)Nc1ccc(F)cc1F
REMARK SMILES IDX 9 1 8 2 6 3 7 4 5 5 4 6 77 7 81 8 78 9 80 10 79 11 3 12 2 13
REMARK SMILES IDX 1 14 82 15 83 17 84 18 89 19 85 20 88 21 90 22 86 23 87 24
REMARK SMILES IDX 10 25 11 26 12 27 13 28 14 29 15 30 76 31 16 32 75 33 17 34
REMARK SMILES IDX 18 35 19 36 69 37 20 38 74 39 68 40 70 41 21 42 73 43 67 44
REMARK SMILES IDX 66 45 22 47 54 48 34 49 53 50 35 51 38 52 52 53 71 54 36 55
REMARK SMILES IDX 37 56 51 58 72 59 39 60 23 61 24 62 32 63 25 64 26 65 30 66
REMARK SMILES IDX 33 67 27 68 28 69 31 70 29 71 55 72 56 73 64 74 57 75 58 76
REMARK SMILES IDX 62 77 65 78 59 79 60 80 63 81 61 82 40 83 41 84 49 85 42 86
REMARK SMILES IDX 43 87 47 88 50 89 44 90 45 91 48 92 46 93
REMARK H PARENT 82 16 70 46 38 57
REMARK Flexibility Score: inf
ROOT
ATOM      1  C   UNL     1       0.602  -3.986  -1.939  1.00  0.00     0.274 C 
ENDROOT
BRANCH   1   2
ATOM      2  O   UNL     1       1.816  -3.296  -1.576  1.00  0.00    -0.462 OA
BRANCH   2   3
ATOM      3  C   UNL     1       2.155  -2.249  -2.356  1.00  0.00     0.306 C 
ATOM      4  O   UNL     1       1.470  -1.823  -3.282  1.00  0.00    -0.252 OA
BRANCH   3   5
ATOM      5  C   UNL     1       3.540  -1.681  -2.107  1.00  0.00     0.130 C 
BRANCH   5   6
ATOM      6  C   UNL     1       4.298  -1.804  -0.752  1.00  0.00    -0.011 C 
ATOM      7  C   UNL     1       5.750  -1.234  -0.904  1.00  0.00     0.008 C 
ATOM      8  C   UNL     1       4.499  -3.297  -0.336  1.00  0.00     0.008 C 
ATOM      9  C   UNL     1       6.632  -2.015  -1.885  1.00  0.00     0.001 C 
ATOM     10  C   UNL     1       5.305  -4.108  -1.349  1.00  0.00     0.001 C 
ATOM     11  C   UNL     1       6.687  -3.503  -1.564  1.00  0.00     0.000 C 
BRANCH   6  12
ATOM     12  C   UNL     1       3.571  -1.094   0.436  1.00  0.00     0.108 C 
BRANCH  12  13
ATOM     13  C   UNL     1       3.087   0.370   0.438  1.00  0.00     0.225 C 
ATOM     14  O   UNL     1       2.259   0.714   1.278  1.00  0.00    -0.275 OA
ATOM     15  N   UNL     1       3.620   1.207  -0.512  1.00  0.00    -0.324 N 
ATOM     16  H   UNL     1       4.253   0.792  -1.141  1.00  0.00     0.170 HD
BRANCH  15  17
ATOM     17  C   UNL     1       3.376   2.588  -0.705  1.00  0.00     0.077 A 
ATOM     18  C   UNL     1       3.703   3.084  -1.980  1.00  0.00     0.032 A 
ATOM     19  C   UNL     1       2.844   3.482   0.237  1.00  0.00     0.149 A 
ATOM     20  C   UNL     1       3.449   4.415  -2.318  1.00  0.00     0.041 A 
ATOM     21  C   UNL     1       2.617   4.819  -0.092  1.00  0.00     0.080 A 
ATOM     22  F   UNL     1       2.594   3.121   1.501  1.00  0.00    -0.205 F 
ATOM     23  C   UNL     1       2.901   5.269  -1.371  1.00  0.00     0.126 A 
ATOM     24  F   UNL     1       2.663   6.544  -1.697  1.00  0.00    -0.207 F 
ENDBRANCH  15  17
ENDBRANCH  12  13
ENDBRANCH   6  12
ENDBRANCH   5   6
ENDBRANCH   3   5
ENDBRANCH   2   3
ENDBRANCH   1   2
BRANCH   1  25
ATOM     25  C   UNL     1      -0.589  -3.541  -1.092  1.00  0.00     0.275 C 
BRANCH  25  26
ATOM     26  O   UNL     1      -0.871  -2.146  -1.300  1.00  0.00    -0.458 OA
BRANCH  26  27
ATOM     27  C   UNL     1      -0.481  -1.331  -0.295  1.00  0.00     0.338 C 
ATOM     28  O   UNL     1       0.033  -1.662   0.763  1.00  0.00    -0.246 OA
BRANCH  27  29
ATOM     29  C   UNL     1      -0.734   0.066  -0.667  1.00  0.00     0.060 A 
ATOM     30  C   UNL     1       0.170   0.723  -1.499  1.00  0.00     0.016 A 
ATOM     31  C   UNL     1      -1.804   0.761  -0.101  1.00  0.00     0.016 A 
ATOM     32  C   UNL     1       0.040   2.091  -1.716  1.00  0.00     0.010 A 
ATOM     33  C   UNL     1      -1.960   2.128  -0.366  1.00  0.00     0.010 A 
ATOM     34  C   UNL     1      -1.018   2.816  -1.147  1.00  0.00    -0.014 A 
BRANCH  34  35
ATOM     35  C   UNL     1      -1.082   4.290  -1.355  1.00  0.00     0.031 A 
ATOM     36  C   UNL     1      -0.918   5.241  -0.199  1.00  0.00     0.074 A 
ATOM     37  C   UNL     1      -1.188   4.784  -2.604  1.00  0.00     0.049 A 
ATOM     38  N   UNL     1      -0.906   6.553  -0.207  1.00  0.00    -0.248 NA
ATOM     39  C   UNL     1      -0.715   4.652   1.133  1.00  0.00     0.031 C 
ATOM     40  C   UNL     1      -1.303   3.980  -3.820  1.00  0.00     0.029 A 
ATOM     41  N   UNL     1      -1.194   6.080  -3.062  1.00  0.00    -0.354 N 
ATOM     42  C   UNL     1      -0.666   6.941   1.103  1.00  0.00     0.074 A 
ATOM     43  C   UNL     1      -0.596   5.731   1.895  1.00  0.00     0.031 C 
ATOM     44  C   UNL     1      -1.327   4.794  -4.885  1.00  0.00     0.029 A 
ATOM     45  C   UNL     1      -1.307   6.180  -4.426  1.00  0.00     0.049 A 
ATOM     46  H   UNL     1      -1.123   6.862  -2.467  1.00  0.00     0.167 HD
ATOM     47  C   UNL     1      -0.481   8.188   1.598  1.00  0.00     0.037 A 
ATOM     48  C   UNL     1      -1.418   7.260  -5.223  1.00  0.00     0.037 A 
ATOM     49  C   UNL     1      -0.562   9.403   0.830  1.00  0.00     0.049 A 
ATOM     50  C   UNL     1      -1.419   8.633  -4.616  1.00  0.00     0.074 A 
ATOM     51  C   UNL     1      -0.401  10.710   1.259  1.00  0.00     0.029 A 
ATOM     52  N   UNL     1      -0.838   9.461  -0.527  1.00  0.00    -0.354 N 
ATOM     53  N   UNL     1      -1.205   8.986  -3.373  1.00  0.00    -0.248 NA
ATOM     54  C   UNL     1      -1.704   9.757  -5.519  1.00  0.00     0.031 C 
ATOM     55  C   UNL     1      -0.632  11.561   0.172  1.00  0.00     0.029 A 
ATOM     56  C   UNL     1      -0.903  10.784  -0.941  1.00  0.00     0.049 A 
ATOM     57  H   UNL     1      -0.970   8.680  -1.111  1.00  0.00     0.167 HD
ATOM     58  C   UNL     1      -1.327  10.368  -3.343  1.00  0.00     0.074 A 
ATOM     59  C   UNL     1      -1.612  10.794  -4.697  1.00  0.00     0.031 C 
ATOM     60  C   UNL     1      -1.215  11.204  -2.282  1.00  0.00     0.037 A 
BRANCH  47  61
ATOM     61  C   UNL     1      -0.166   8.307   3.058  1.00  0.00     0.064 A 
ATOM     62  C   UNL     1       1.120   8.026   3.545  1.00  0.00     0.173 A 
ATOM     63  C   UNL     1      -1.134   8.756   3.966  1.00  0.00     0.173 A 
ATOM     64  F   UNL     1       2.075   7.586   2.713  1.00  0.00    -0.203 F 
ATOM     65  C   UNL     1       1.420   8.183   4.896  1.00  0.00     0.198 A 
ATOM     66  C   UNL     1      -0.825   8.926   5.313  1.00  0.00     0.198 A 
ATOM     67  F   UNL     1      -2.375   9.043   3.544  1.00  0.00    -0.203 F 
ATOM     68  F   UNL     1       2.649   7.893   5.346  1.00  0.00    -0.200 F 
ATOM     69  C   UNL     1       0.450   8.637   5.777  1.00  0.00     0.200 A 
ATOM     70  F   UNL     1      -1.760   9.374   6.162  1.00  0.00    -0.200 F 
ATOM     71  F   UNL     1       0.743   8.797   7.075  1.00  0.00    -0.200 F 
ENDBRANCH  47  61
BRANCH  48  72
ATOM     72  C   UNL     1      -1.594   7.075  -6.687  1.00  0.00     0.064 A 
ATOM     73  C   UNL     1      -0.597   7.457  -7.592  1.00  0.00     0.173 A 
ATOM     74  C   UNL     1      -2.762   6.495  -7.206  1.00  0.00     0.173 A 
ATOM     75  F   UNL     1       0.524   8.043  -7.147  1.00  0.00    -0.203 F 
ATOM     76  C   UNL     1      -0.759   7.261  -8.962  1.00  0.00     0.198 A 
ATOM     77  C   UNL     1      -2.910   6.272  -8.571  1.00  0.00     0.198 A 
ATOM     78  F   UNL     1      -3.751   6.121  -6.380  1.00  0.00    -0.203 F 
ATOM     79  F   UNL     1       0.197   7.660  -9.812  1.00  0.00    -0.200 F 
ATOM     80  C   UNL     1      -1.910   6.658  -9.449  1.00  0.00     0.200 A 
ATOM     81  F   UNL     1      -4.019   5.678  -9.034  1.00  0.00    -0.200 F 
ATOM     82  F   UNL     1      -2.057   6.454 -10.765  1.00  0.00    -0.200 F 
ENDBRANCH  48  72
BRANCH  60  83
ATOM     83  C   UNL     1      -1.421  12.667  -2.539  1.00  0.00     0.064 A 
ATOM     84  C   UNL     1      -2.703  13.188  -2.772  1.00  0.00     0.173 A 
ATOM     85  C   UNL     1      -0.340  13.560  -2.529  1.00  0.00     0.173 A 
ATOM     86  F   UNL     1      -3.767  12.371  -2.811  1.00  0.00    -0.203 F 
ATOM     87  C   UNL     1      -2.892  14.548  -3.005  1.00  0.00     0.198 A 
ATOM     88  C   UNL     1      -0.535  14.923  -2.739  1.00  0.00     0.198 A 
ATOM     89  F   UNL     1       0.905  13.113  -2.309  1.00  0.00    -0.203 F 
ATOM     90  F   UNL     1      -4.119  15.017  -3.267  1.00  0.00    -0.200 F 
ATOM     91  C   UNL     1      -1.809  15.414  -2.982  1.00  0.00     0.200 A 
ATOM     92  F   UNL     1       0.510  15.761  -2.709  1.00  0.00    -0.200 F 
ATOM     93  F   UNL     1      -1.993  16.723  -3.205  1.00  0.00    -0.200 F 
ENDBRANCH  60  83
ENDBRANCH  34  35
ENDBRANCH  27  29
ENDBRANCH  26  27
ENDBRANCH  25  26
ENDBRANCH   1  25
TORSDOF 15
