REMARK SMILES O=C(OCCOC(=O)C1(CCc2ccc3c(c2)CCO3)CCCCCC1)c1ccc(-c2c3nc(c(-c4c(F)c(F)c(F)c(F)c4F)c4ccc([nH]4)c(-c4c(F)c(F)c(F)c(F)c4F)c4nc(c(-c5c(F)c(F)c(F)c(F)c5F)c5ccc2[nH]5)C=C4)C=C3)cc1
REMARK SMILES IDX 5 1 4 2 3 3 2 4 1 5 27 6 28 7 89 8 29 9 88 10 30 11 31 12
REMARK SMILES IDX 32 13 82 14 33 15 87 16 81 17 83 18 34 19 86 20 80 21 79 22
REMARK SMILES IDX 35 24 67 25 47 26 66 27 48 28 51 29 65 30 84 31 49 32 50 33
REMARK SMILES IDX 64 35 85 36 52 37 36 38 37 39 45 40 38 41 39 42 43 43 46 44
REMARK SMILES IDX 40 45 41 46 44 47 42 48 68 49 69 50 77 51 70 52 71 53 75 54
REMARK SMILES IDX 78 55 72 56 73 57 76 58 74 59 53 60 54 61 62 62 55 63 56 64
REMARK SMILES IDX 60 65 63 66 57 67 58 68 61 69 59 70 6 71 7 72 8 73 9 74
REMARK SMILES IDX 10 75 11 76 12 77 13 78 17 79 14 80 16 81 15 82 18 83 20 84
REMARK SMILES IDX 19 85 21 86 22 87 23 88 26 90 25 91 24 92
REMARK H PARENT 83 23 51 34
REMARK Flexibility Score: 100.00
ROOT
ATOM      1  C   UNL     1       3.936   0.595  -1.721  1.00  0.00     0.274 C 
ENDROOT
BRANCH   1   2
ATOM      2  C   UNL     1       4.282  -0.785  -1.140  1.00  0.00     0.275 C 
BRANCH   2   3
ATOM      3  O   UNL     1       3.474  -1.335  -0.094  1.00  0.00    -0.458 OA
BRANCH   3   4
ATOM      4  C   UNL     1       3.641  -1.127   1.232  1.00  0.00     0.338 C 
ATOM      5  O   UNL     1       3.108  -1.843   2.074  1.00  0.00    -0.246 OA
BRANCH   4   6
ATOM      6  C   UNL     1       4.352   0.090   1.679  1.00  0.00     0.060 A 
ATOM      7  C   UNL     1       5.655   0.427   1.298  1.00  0.00     0.016 A 
ATOM      8  C   UNL     1       3.657   0.919   2.558  1.00  0.00     0.016 A 
ATOM      9  C   UNL     1       6.219   1.645   1.686  1.00  0.00     0.010 A 
ATOM     10  C   UNL     1       4.229   2.118   2.966  1.00  0.00     0.010 A 
ATOM     11  C   UNL     1       5.507   2.505   2.521  1.00  0.00    -0.014 A 
BRANCH  11  12
ATOM     12  C   UNL     1       6.140   3.717   3.097  1.00  0.00     0.031 A 
ATOM     13  C   UNL     1       6.401   3.720   4.577  1.00  0.00     0.074 A 
ATOM     14  C   UNL     1       6.411   4.813   2.360  1.00  0.00     0.049 A 
ATOM     15  N   UNL     1       6.879   4.671   5.336  1.00  0.00    -0.248 NA
ATOM     16  C   UNL     1       6.044   2.490   5.306  1.00  0.00     0.031 C 
ATOM     17  C   UNL     1       6.186   4.965   0.922  1.00  0.00     0.029 A 
ATOM     18  N   UNL     1       6.884   6.044   2.747  1.00  0.00    -0.354 N 
ATOM     19  C   UNL     1       6.918   4.126   6.610  1.00  0.00     0.074 A 
ATOM     20  C   UNL     1       6.234   2.856   6.560  1.00  0.00     0.031 C 
ATOM     21  C   UNL     1       6.420   6.244   0.571  1.00  0.00     0.029 A 
ATOM     22  C   UNL     1       6.855   6.987   1.748  1.00  0.00     0.049 A 
ATOM     23  H   UNL     1       7.212   6.233   3.656  1.00  0.00     0.167 HD
ATOM     24  C   UNL     1       7.585   4.573   7.698  1.00  0.00     0.037 A 
ATOM     25  C   UNL     1       7.151   8.300   1.790  1.00  0.00     0.037 A 
ATOM     26  C   UNL     1       8.295   5.815   7.733  1.00  0.00     0.049 A 
ATOM     27  C   UNL     1       7.759   8.861   3.050  1.00  0.00     0.074 A 
ATOM     28  C   UNL     1       9.095   6.336   8.730  1.00  0.00     0.029 A 
ATOM     29  N   UNL     1       8.277   6.742   6.699  1.00  0.00    -0.354 N 
ATOM     30  N   UNL     1       7.963   8.271   4.202  1.00  0.00    -0.248 NA
ATOM     31  C   UNL     1       8.250  10.245   2.990  1.00  0.00     0.031 C 
ATOM     32  C   UNL     1       9.542   7.595   8.309  1.00  0.00     0.029 A 
ATOM     33  C   UNL     1       9.045   7.840   7.037  1.00  0.00     0.049 A 
ATOM     34  H   UNL     1       7.789   6.632   5.851  1.00  0.00     0.167 HD
ATOM     35  C   UNL     1       8.702   9.167   4.963  1.00  0.00     0.074 A 
ATOM     36  C   UNL     1       8.859  10.363   4.162  1.00  0.00     0.031 C 
ATOM     37  C   UNL     1       9.240   8.993   6.196  1.00  0.00     0.037 A 
BRANCH  24  38
ATOM     38  C   UNL     1       7.627   3.637   8.869  1.00  0.00     0.064 A 
ATOM     39  C   UNL     1       8.302   2.406   8.773  1.00  0.00     0.173 A 
ATOM     40  C   UNL     1       6.912   3.905  10.041  1.00  0.00     0.173 A 
ATOM     41  F   UNL     1       8.985   2.095   7.660  1.00  0.00    -0.203 F 
ATOM     42  C   UNL     1       8.192   1.447   9.775  1.00  0.00     0.198 A 
ATOM     43  C   UNL     1       6.836   2.957  11.059  1.00  0.00     0.198 A 
ATOM     44  F   UNL     1       6.255   5.065  10.184  1.00  0.00    -0.203 F 
ATOM     45  F   UNL     1       8.754   0.242   9.610  1.00  0.00    -0.200 F 
ATOM     46  C   UNL     1       7.456   1.722  10.916  1.00  0.00     0.200 A 
ATOM     47  F   UNL     1       6.130   3.222  12.167  1.00  0.00    -0.200 F 
ATOM     48  F   UNL     1       7.325   0.789  11.868  1.00  0.00    -0.200 F 
ENDBRANCH  24  38
BRANCH  25  49
ATOM     49  C   UNL     1       6.967   9.164   0.595  1.00  0.00     0.064 A 
ATOM     50  C   UNL     1       8.061   9.574  -0.179  1.00  0.00     0.173 A 
ATOM     51  C   UNL     1       5.700   9.651   0.242  1.00  0.00     0.173 A 
ATOM     52  F   UNL     1       9.295   9.151   0.133  1.00  0.00    -0.203 F 
ATOM     53  C   UNL     1       7.902  10.466  -1.239  1.00  0.00     0.198 A 
ATOM     54  C   UNL     1       5.539  10.532  -0.828  1.00  0.00     0.198 A 
ATOM     55  F   UNL     1       4.620   9.288   0.949  1.00  0.00    -0.203 F 
ATOM     56  F   UNL     1       8.973  10.882  -1.928  1.00  0.00    -0.200 F 
ATOM     57  C   UNL     1       6.642  10.947  -1.561  1.00  0.00     0.200 A 
ATOM     58  F   UNL     1       4.321  10.995  -1.138  1.00  0.00    -0.200 F 
ATOM     59  F   UNL     1       6.493  11.819  -2.567  1.00  0.00    -0.200 F 
ENDBRANCH  25  49
BRANCH  37  60
ATOM     60  C   UNL     1      10.166  10.057   6.702  1.00  0.00     0.064 A 
ATOM     61  C   UNL     1       9.704  11.298   7.155  1.00  0.00     0.173 A 
ATOM     62  C   UNL     1      11.542   9.789   6.789  1.00  0.00     0.173 A 
ATOM     63  F   UNL     1       8.402  11.605   7.071  1.00  0.00    -0.203 F 
ATOM     64  C   UNL     1      10.590  12.241   7.668  1.00  0.00     0.198 A 
ATOM     65  C   UNL     1      12.419  10.722   7.331  1.00  0.00     0.198 A 
ATOM     66  F   UNL     1      12.031   8.613   6.368  1.00  0.00    -0.203 F 
ATOM     67  F   UNL     1      10.135  13.438   8.062  1.00  0.00    -0.200 F 
ATOM     68  C   UNL     1      11.943  11.948   7.767  1.00  0.00     0.200 A 
ATOM     69  F   UNL     1      13.723  10.430   7.438  1.00  0.00    -0.200 F 
ATOM     70  F   UNL     1      12.790  12.852   8.279  1.00  0.00    -0.200 F 
ENDBRANCH  37  60
ENDBRANCH  11  12
ENDBRANCH   4   6
ENDBRANCH   3   4
ENDBRANCH   2   3
ENDBRANCH   1   2
BRANCH   1  71
ATOM     71  O   UNL     1       3.570   1.728  -0.911  1.00  0.00    -0.462 OA
BRANCH  71  72
ATOM     72  C   UNL     1       2.281   1.735  -0.470  1.00  0.00     0.312 C 
ATOM     73  O   UNL     1       1.701   0.716  -0.113  1.00  0.00    -0.252 OA
BRANCH  72  74
ATOM     74  C   UNL     1       1.612   3.134  -0.401  1.00  0.00     0.068 C 
BRANCH  74  75
ATOM     75  C   UNL     1       0.091   2.925  -0.761  1.00  0.00     0.023 C 
BRANCH  75  76
ATOM     76  C   UNL     1      -0.311   2.653  -2.224  1.00  0.00     0.036 C 
BRANCH  76  77
ATOM     77  C   UNL     1       0.152   1.345  -2.814  1.00  0.00    -0.047 A 
ATOM     78  C   UNL     1      -0.262   0.120  -2.243  1.00  0.00     0.007 A 
ATOM     79  C   UNL     1       1.022   1.332  -3.917  1.00  0.00     0.011 A 
ATOM     80  C   UNL     1       0.240  -1.100  -2.704  1.00  0.00     0.047 A 
ATOM     81  C   UNL     1       1.494   0.111  -4.375  1.00  0.00    -0.002 A 
ATOM     82  C   UNL     1       1.120  -1.075  -3.763  1.00  0.00     0.122 A 
ATOM     83  C   UNL     1       2.540  -0.172  -5.382  1.00  0.00     0.081 C 
ATOM     84  O   UNL     1       1.765  -2.178  -4.255  1.00  0.00    -0.493 OA
ATOM     85  C   UNL     1       2.413  -1.695  -5.452  1.00  0.00     0.234 C 
ENDBRANCH  76  77
ENDBRANCH  75  76
ENDBRANCH  74  75
BRANCH  74  86
ATOM     86  C   UNL     1       1.626   3.583   1.093  1.00  0.00     0.019 C 
BRANCH  86  87
ATOM     87  C   UNL     1       2.737   4.540   1.514  1.00  0.00     0.001 C 
BRANCH  87  88
ATOM     88  C   UNL     1       2.437   6.009   1.257  1.00  0.00     0.000 CG0
ATOM     89  G   UNL     1       2.564   6.443  -0.195  1.00  0.00     0.000 G0
ENDBRANCH  87  88
ENDBRANCH  86  87
ENDBRANCH  74  86
BRANCH  74  90
ATOM     90  C   UNL     1       2.280   4.168  -1.342  1.00  0.00     0.019 C 
BRANCH  90  91
ATOM     91  C   UNL     1       1.765   5.608  -1.192  1.00  0.00     0.001 C 
BRANCH  91  92
ATOM     92  C   UNL     1       2.564   6.443  -0.195  1.00  0.00     0.000 CG0
ATOM     93  G   UNL     1       2.437   6.009   1.257  1.00  0.00     0.000 G0
ENDBRANCH  91  92
ENDBRANCH  90  91
ENDBRANCH  74  90
ENDBRANCH  72  74
ENDBRANCH  71  72
ENDBRANCH   1  71
TORSDOF 14
