REMARK SMILES Cc1cc2[nH]c(C(=O)OCCOC(=O)c3ccc(-c4c5nc(c(-c6c(F)c(F)c(F)c(F)c6F)c6ccc([nH]6)c(-c6c(F)c(F)c(F)c(F)c6F)c6nc(c(-c7c(F)c(F)c(F)c(F)c7F)c7ccc4[nH]7)C=C6)C=C5)cc3)c(C=O)c2s1
REMARK SMILES IDX 11 1 10 2 9 3 7 4 8 5 6 6 1 7 2 8 3 9 82 10 4 11 81 12 5 13
REMARK SMILES IDX 78 14 79 16 80 17 12 18 13 19 14 20 15 21 16 22 77 23 17 24
REMARK SMILES IDX 76 25 18 26 19 27 20 28 70 29 21 30 75 31 69 32 71 33 22 34
REMARK SMILES IDX 74 35 68 36 67 37 23 39 55 40 35 41 54 42 36 43 39 44 53 45
REMARK SMILES IDX 72 46 37 47 38 48 52 50 73 51 40 52 24 53 25 54 33 55 26 56
REMARK SMILES IDX 27 57 31 58 34 59 28 60 29 61 32 62 30 63 56 64 57 65 65 66
REMARK SMILES IDX 58 67 59 68 63 69 66 70 60 71 61 72 64 73 62 74 41 75 42 76
REMARK SMILES IDX 50 77 43 78 44 79 48 80 51 81 45 82 46 83 49 84 47 85
REMARK H PARENT 5 15 71 38 39 49
REMARK Flexibility Score: inf
ROOT
ATOM      1  C   UNL     1       0.326   6.862  -7.042  1.00  0.00     0.275 C 
ENDROOT
BRANCH   1   2
ATOM      2  C   UNL     1      -0.816   7.029  -6.058  1.00  0.00     0.275 C 
BRANCH   2   3
ATOM      3  O   UNL     1      -0.673   6.093  -4.986  1.00  0.00    -0.457 OA
BRANCH   3   4
ATOM      4  C   UNL     1      -1.194   4.851  -5.124  1.00  0.00     0.355 C 
ATOM      5  O   UNL     1      -1.935   4.489  -6.017  1.00  0.00    -0.244 OA
BRANCH   4   6
ATOM      6  C   UNL     1      -0.656   3.975  -4.097  1.00  0.00     0.137 A 
ATOM      7  C   UNL     1       0.757  -0.376  -0.381  1.00  0.00     0.056 C 
ATOM      8  C   UNL     1       0.495   0.739  -1.337  1.00  0.00     0.004 A 
ATOM      9  C   UNL     1      -0.166   0.691  -2.551  1.00  0.00     0.041 A 
ATOM     10  S   UNL     1       1.070   2.306  -0.926  1.00  0.00    -0.138 S 
ATOM     11  C   UNL     1      -0.281   2.000  -3.094  1.00  0.00     0.058 A 
ATOM     12  C   UNL     1       0.323   2.959  -2.344  1.00  0.00     0.064 A 
ATOM     13  N   UNL     1      -0.847   2.605  -4.186  1.00  0.00    -0.348 N 
ATOM     14  C   UNL     1       0.134   4.221  -2.978  1.00  0.00     0.065 A 
ATOM     15  H   UNL     1      -1.314   2.141  -4.918  1.00  0.00     0.167 HD
BRANCH  14  16
ATOM     16  C   UNL     1       0.705   5.430  -2.421  1.00  0.00     0.264 C 
ATOM     17  O   UNL     1       0.514   6.578  -2.810  1.00  0.00    -0.298 OA
ENDBRANCH  14  16
ENDBRANCH   4   6
ENDBRANCH   3   4
ENDBRANCH   2   3
ENDBRANCH   1   2
BRANCH   1  18
ATOM     18  O   UNL     1       0.102   5.698  -7.832  1.00  0.00    -0.458 OA
BRANCH  18  19
ATOM     19  C   UNL     1       0.766   4.585  -7.458  1.00  0.00     0.338 C 
ATOM     20  O   UNL     1       1.320   4.354  -6.397  1.00  0.00    -0.246 OA
BRANCH  19  21
ATOM     21  C   UNL     1       0.948   3.760  -8.651  1.00  0.00     0.060 A 
ATOM     22  C   UNL     1       1.516   2.493  -8.491  1.00  0.00     0.016 A 
ATOM     23  C   UNL     1       0.865   4.392  -9.900  1.00  0.00     0.016 A 
ATOM     24  C   UNL     1       2.180   1.940  -9.565  1.00  0.00     0.010 A 
ATOM     25  C   UNL     1       1.550   3.860 -10.953  1.00  0.00     0.010 A 
ATOM     26  C   UNL     1       2.264   2.685 -10.747  1.00  0.00    -0.014 A 
BRANCH  26  27
ATOM     27  C   UNL     1       3.006   2.161 -11.866  1.00  0.00     0.031 A 
ATOM     28  C   UNL     1       2.271   1.074 -12.549  1.00  0.00     0.074 A 
ATOM     29  C   UNL     1       4.129   2.755 -12.309  1.00  0.00     0.049 A 
ATOM     30  N   UNL     1       2.595  -0.174 -12.604  1.00  0.00    -0.248 NA
ATOM     31  C   UNL     1       0.911   1.363 -13.044  1.00  0.00     0.031 C 
ATOM     32  C   UNL     1       4.754   3.998 -11.849  1.00  0.00     0.029 A 
ATOM     33  N   UNL     1       4.903   2.403 -13.369  1.00  0.00    -0.354 N 
ATOM     34  C   UNL     1       1.582  -0.783 -13.334  1.00  0.00     0.074 A 
ATOM     35  C   UNL     1       0.485   0.143 -13.369  1.00  0.00     0.031 C 
ATOM     36  C   UNL     1       5.665   4.408 -12.763  1.00  0.00     0.029 A 
ATOM     37  C   UNL     1       5.775   3.400 -13.802  1.00  0.00     0.049 A 
ATOM     38  H   UNL     1       4.852   1.517 -13.795  1.00  0.00     0.167 HD
ATOM     39  C   UNL     1       1.847  -1.871 -14.105  1.00  0.00     0.037 A 
ATOM     40  C   UNL     1       6.441   3.382 -14.986  1.00  0.00     0.037 A 
ATOM     41  C   UNL     1       3.080  -2.500 -13.701  1.00  0.00     0.049 A 
ATOM     42  C   UNL     1       6.440   1.967 -15.458  1.00  0.00     0.074 A 
ATOM     43  C   UNL     1       3.530  -3.054 -12.517  1.00  0.00     0.029 A 
ATOM     44  N   UNL     1       4.208  -2.240 -14.443  1.00  0.00    -0.354 N 
ATOM     45  N   UNL     1       7.100   1.012 -14.860  1.00  0.00    -0.248 NA
ATOM     46  C   UNL     1       5.306   1.534 -16.266  1.00  0.00     0.031 C 
ATOM     47  C   UNL     1       4.888  -2.634 -12.406  1.00  0.00     0.029 A 
ATOM     48  C   UNL     1       5.216  -1.930 -13.564  1.00  0.00     0.049 A 
ATOM     49  H   UNL     1       4.279  -2.271 -15.424  1.00  0.00     0.167 HD
ATOM     50  C   UNL     1       6.231  -0.068 -14.858  1.00  0.00     0.074 A 
ATOM     51  C   UNL     1       5.158   0.297 -15.782  1.00  0.00     0.031 C 
ATOM     52  C   UNL     1       6.290  -1.020 -13.881  1.00  0.00     0.037 A 
BRANCH  39  53
ATOM     53  C   UNL     1       1.213  -2.106 -15.452  1.00  0.00     0.064 A 
ATOM     54  C   UNL     1       1.449  -3.329 -16.107  1.00  0.00     0.173 A 
ATOM     55  C   UNL     1       0.637  -1.090 -16.249  1.00  0.00     0.173 A 
ATOM     56  F   UNL     1       2.014  -4.355 -15.453  1.00  0.00    -0.203 F 
ATOM     57  C   UNL     1       1.198  -3.492 -17.471  1.00  0.00     0.198 A 
ATOM     58  C   UNL     1       0.334  -1.277 -17.594  1.00  0.00     0.198 A 
ATOM     59  F   UNL     1       0.449   0.157 -15.803  1.00  0.00    -0.203 F 
ATOM     60  F   UNL     1       1.560  -4.630 -18.080  1.00  0.00    -0.200 F 
ATOM     61  C   UNL     1       0.645  -2.465 -18.215  1.00  0.00     0.200 A 
ATOM     62  F   UNL     1      -0.183  -0.260 -18.299  1.00  0.00    -0.200 F 
ATOM     63  F   UNL     1       0.461  -2.600 -19.534  1.00  0.00    -0.200 F 
ENDBRANCH  39  53
BRANCH  40  64
ATOM     64  C   UNL     1       6.758   4.511 -15.899  1.00  0.00     0.064 A 
ATOM     65  C   UNL     1       7.637   4.333 -16.983  1.00  0.00     0.173 A 
ATOM     66  C   UNL     1       5.989   5.690 -15.911  1.00  0.00     0.173 A 
ATOM     67  F   UNL     1       8.381   3.221 -17.073  1.00  0.00    -0.203 F 
ATOM     68  C   UNL     1       7.709   5.257 -18.033  1.00  0.00     0.198 A 
ATOM     69  C   UNL     1       6.066   6.613 -16.956  1.00  0.00     0.198 A 
ATOM     70  F   UNL     1       5.074   5.926 -14.960  1.00  0.00    -0.203 F 
ATOM     71  F   UNL     1       8.507   5.016 -19.083  1.00  0.00    -0.200 F 
ATOM     72  C   UNL     1       6.912   6.389 -18.025  1.00  0.00     0.200 A 
ATOM     73  F   UNL     1       5.263   7.687 -16.953  1.00  0.00    -0.200 F 
ATOM     74  F   UNL     1       6.927   7.237 -19.062  1.00  0.00    -0.200 F 
ENDBRANCH  40  64
BRANCH  52  75
ATOM     75  C   UNL     1       7.454  -0.983 -12.930  1.00  0.00     0.064 A 
ATOM     76  C   UNL     1       7.724   0.082 -12.051  1.00  0.00     0.173 A 
ATOM     77  C   UNL     1       8.236  -2.138 -12.796  1.00  0.00     0.173 A 
ATOM     78  F   UNL     1       6.957   1.179 -12.041  1.00  0.00    -0.203 F 
ATOM     79  C   UNL     1       8.758   0.008 -11.117  1.00  0.00     0.198 A 
ATOM     80  C   UNL     1       9.242  -2.224 -11.838  1.00  0.00     0.198 A 
ATOM     81  F   UNL     1       7.987  -3.208 -13.566  1.00  0.00    -0.203 F 
ATOM     82  F   UNL     1       9.001   1.043 -10.299  1.00  0.00    -0.200 F 
ATOM     83  C   UNL     1       9.511  -1.148 -11.007  1.00  0.00     0.200 A 
ATOM     84  F   UNL     1       9.931  -3.365 -11.700  1.00  0.00    -0.200 F 
ATOM     85  F   UNL     1      10.477  -1.238 -10.083  1.00  0.00    -0.200 F 
ENDBRANCH  52  75
ENDBRANCH  26  27
ENDBRANCH  19  21
ENDBRANCH  18  19
ENDBRANCH   1  18
TORSDOF 12
