REMARK SMILES Cc1nc(Nc2ccc(F)cc2)nc(OCC(=O)OCCOC(=O)c2ccc(-c3c4nc(c(-c5c(F)c(F)c(F)c(F)c5F)c5ccc([nH]5)c(-c5c(F)c(F)c(F)c(F)c5F)c5nc(c(-c6c(F)c(F)c(F)c(F)c6F)c6ccc3[nH]6)C=C5)C=C4)cc2)c1CCO
REMARK SMILES IDX 19 1 17 2 18 3 16 4 15 5 14 6 1 7 2 8 3 9 88 10 4 11 13 12
REMARK SMILES IDX 89 13 90 14 91 15 5 17 6 19 7 20 12 21 8 22 11 23 9 24 10 25
REMARK SMILES IDX 20 26 21 27 22 28 23 29 24 30 25 31 26 32 87 33 27 34 86 35
REMARK SMILES IDX 28 36 29 37 30 38 80 39 31 40 85 41 79 42 81 43 32 44 84 45
REMARK SMILES IDX 78 46 77 47 33 49 65 50 45 51 64 52 46 53 49 54 63 55 82 56
REMARK SMILES IDX 47 57 48 58 62 60 83 61 50 62 34 63 35 64 43 65 36 66 37 67
REMARK SMILES IDX 41 68 44 69 38 70 39 71 42 72 40 73 66 74 67 75 75 76 68 77
REMARK SMILES IDX 69 78 73 79 76 80 70 81 71 82 74 83 72 84 51 85 52 86 60 87
REMARK SMILES IDX 53 88 54 89 58 90 61 91 55 92 56 93 59 94 57 95
REMARK H PARENT 91 16 5 18 81 48 49 59
REMARK Flexibility Score: inf
ROOT
ATOM      1  O   UNL     1       1.127  -2.950   2.627  1.00  0.00    -0.460 OA
ENDROOT
BRANCH   1   2
ATOM      2  C   UNL     1       1.180  -3.632   1.454  1.00  0.00     0.344 C 
ATOM      3  O   UNL     1       0.526  -4.640   1.203  1.00  0.00    -0.248 OA
BRANCH   2   4
ATOM      4  C   UNL     1       2.262  -3.108   0.498  1.00  0.00     0.353 C 
BRANCH   4   5
ATOM      5  O   UNL     1       2.545  -1.788   0.104  1.00  0.00    -0.465 OA
BRANCH   5   6
ATOM      6  C   UNL     1       1.576  -0.840   0.049  1.00  0.00     0.222 A 
ATOM      7  C   UNL     1      -1.922   0.228  -0.819  1.00  0.00     0.067 C 
ATOM      8  C   UNL     1      -0.498   0.135  -0.368  1.00  0.00     0.050 A 
ATOM      9  N   UNL     1      -0.038   1.301   0.108  1.00  0.00    -0.218 NA
ATOM     10  C   UNL     1       0.323  -0.978  -0.527  1.00  0.00     0.038 A 
ATOM     11  C   UNL     1       1.253   1.406   0.413  1.00  0.00     0.230 A 
ATOM     12  N   UNL     1       2.067   0.352   0.448  1.00  0.00    -0.177 NA
BRANCH  10  13
ATOM     13  C   UNL     1      -0.088  -2.134  -1.397  1.00  0.00     0.071 C 
BRANCH  13  14
ATOM     14  C   UNL     1       0.591  -2.163  -2.768  1.00  0.00     0.161 C 
BRANCH  14  15
ATOM     15  O   UNL     1       1.940  -2.592  -2.681  1.00  0.00    -0.396 OA
ATOM     16  H   UNL     1       2.440  -1.975  -2.123  1.00  0.00     0.210 HD
ENDBRANCH  14  15
ENDBRANCH  13  14
ENDBRANCH  10  13
BRANCH  11  17
ATOM     17  N   UNL     1       1.812   2.680   0.526  1.00  0.00    -0.324 N 
ATOM     18  H   UNL     1       2.770   2.735   0.745  1.00  0.00     0.170 HD
BRANCH  17  19
ATOM     19  C   UNL     1       1.122   3.889   0.355  1.00  0.00     0.041 A 
ATOM     20  C   UNL     1       0.020   4.197   1.169  1.00  0.00     0.029 A 
ATOM     21  C   UNL     1       1.410   4.728  -0.731  1.00  0.00     0.029 A 
ATOM     22  C   UNL     1      -0.763   5.325   0.923  1.00  0.00     0.041 A 
ATOM     23  C   UNL     1       0.613   5.847  -0.993  1.00  0.00     0.041 A 
ATOM     24  C   UNL     1      -0.464   6.136  -0.163  1.00  0.00     0.123 A 
ATOM     25  F   UNL     1      -1.236   7.199  -0.424  1.00  0.00    -0.207 F 
ENDBRANCH  17  19
ENDBRANCH  11  17
ENDBRANCH   5   6
ENDBRANCH   4   5
ENDBRANCH   2   4
ENDBRANCH   1   2
BRANCH   1  26
ATOM     26  C   UNL     1       0.364  -3.594   3.673  1.00  0.00     0.274 C 
BRANCH  26  27
ATOM     27  C   UNL     1      -1.074  -3.084   3.735  1.00  0.00     0.275 C 
BRANCH  27  28
ATOM     28  O   UNL     1      -1.780  -3.447   2.535  1.00  0.00    -0.458 OA
BRANCH  28  29
ATOM     29  C   UNL     1      -2.685  -2.539   2.102  1.00  0.00     0.338 C 
ATOM     30  O   UNL     1      -2.973  -1.487   2.649  1.00  0.00    -0.246 OA
BRANCH  29  31
ATOM     31  C   UNL     1      -3.289  -2.950   0.808  1.00  0.00     0.060 A 
ATOM     32  C   UNL     1      -2.648  -3.825  -0.070  1.00  0.00     0.016 A 
ATOM     33  C   UNL     1      -4.472  -2.319   0.403  1.00  0.00     0.016 A 
ATOM     34  C   UNL     1      -3.119  -3.967  -1.382  1.00  0.00     0.010 A 
ATOM     35  C   UNL     1      -4.983  -2.526  -0.883  1.00  0.00     0.010 A 
ATOM     36  C   UNL     1      -4.291  -3.319  -1.810  1.00  0.00    -0.014 A 
BRANCH  36  37
ATOM     37  C   UNL     1      -4.805  -3.459  -3.205  1.00  0.00     0.031 A 
ATOM     38  C   UNL     1      -5.047  -2.248  -4.075  1.00  0.00     0.074 A 
ATOM     39  C   UNL     1      -5.084  -4.678  -3.706  1.00  0.00     0.049 A 
ATOM     40  N   UNL     1      -5.707  -2.153  -5.204  1.00  0.00    -0.248 NA
ATOM     41  C   UNL     1      -4.468  -0.976  -3.620  1.00  0.00     0.031 C 
ATOM     42  C   UNL     1      -4.855  -5.949  -3.020  1.00  0.00     0.029 A 
ATOM     43  N   UNL     1      -5.630  -5.046  -4.913  1.00  0.00    -0.354 N 
ATOM     44  C   UNL     1      -5.661  -0.812  -5.566  1.00  0.00     0.074 A 
ATOM     45  C   UNL     1      -4.897  -0.127  -4.545  1.00  0.00     0.031 C 
ATOM     46  C   UNL     1      -5.223  -6.955  -3.824  1.00  0.00     0.029 A 
ATOM     47  C   UNL     1      -5.814  -6.401  -5.037  1.00  0.00     0.049 A 
ATOM     48  H   UNL     1      -5.865  -4.402  -5.619  1.00  0.00     0.167 HD
ATOM     49  C   UNL     1      -6.212  -0.209  -6.647  1.00  0.00     0.037 A 
ATOM     50  C   UNL     1      -6.444  -7.124  -5.981  1.00  0.00     0.037 A 
ATOM     51  C   UNL     1      -6.937  -0.892  -7.687  1.00  0.00     0.049 A 
ATOM     52  C   UNL     1      -7.117  -6.431  -7.127  1.00  0.00     0.074 A 
ATOM     53  C   UNL     1      -7.523  -0.360  -8.824  1.00  0.00     0.029 A 
ATOM     54  N   UNL     1      -7.164  -2.258  -7.726  1.00  0.00    -0.354 N 
ATOM     55  N   UNL     1      -7.159  -5.152  -7.404  1.00  0.00    -0.248 NA
ATOM     56  C   UNL     1      -7.862  -7.279  -8.068  1.00  0.00     0.031 C 
ATOM     57  C   UNL     1      -8.130  -1.400  -9.536  1.00  0.00     0.029 A 
ATOM     58  C   UNL     1      -7.892  -2.584  -8.860  1.00  0.00     0.049 A 
ATOM     59  H   UNL     1      -6.854  -2.902  -7.049  1.00  0.00     0.167 HD
ATOM     60  C   UNL     1      -7.941  -5.038  -8.545  1.00  0.00     0.074 A 
ATOM     61  C   UNL     1      -8.335  -6.380  -8.921  1.00  0.00     0.031 C 
ATOM     62  C   UNL     1      -8.301  -3.917  -9.213  1.00  0.00     0.037 A 
BRANCH  49  63
ATOM     63  C   UNL     1      -6.082   1.280  -6.775  1.00  0.00     0.064 A 
ATOM     64  C   UNL     1      -7.196   2.106  -6.552  1.00  0.00     0.173 A 
ATOM     65  C   UNL     1      -4.902   1.878  -7.238  1.00  0.00     0.173 A 
ATOM     66  F   UNL     1      -8.350   1.578  -6.118  1.00  0.00    -0.203 F 
ATOM     67  C   UNL     1      -7.139   3.473  -6.810  1.00  0.00     0.198 A 
ATOM     68  C   UNL     1      -4.844   3.250  -7.478  1.00  0.00     0.198 A 
ATOM     69  F   UNL     1      -3.810   1.132  -7.459  1.00  0.00    -0.203 F 
ATOM     70  F   UNL     1      -8.227   4.234  -6.627  1.00  0.00    -0.200 F 
ATOM     71  C   UNL     1      -5.964   4.043  -7.275  1.00  0.00     0.200 A 
ATOM     72  F   UNL     1      -3.705   3.803  -7.917  1.00  0.00    -0.200 F 
ATOM     73  F   UNL     1      -5.913   5.357  -7.533  1.00  0.00    -0.200 F 
ENDBRANCH  49  63
BRANCH  50  74
ATOM     74  C   UNL     1      -6.512  -8.597  -5.825  1.00  0.00     0.064 A 
ATOM     75  C   UNL     1      -7.300  -9.182  -4.822  1.00  0.00     0.173 A 
ATOM     76  C   UNL     1      -5.729  -9.440  -6.622  1.00  0.00     0.173 A 
ATOM     77  F   UNL     1      -8.064  -8.412  -4.034  1.00  0.00    -0.203 F 
ATOM     78  C   UNL     1      -7.267 -10.555  -4.594  1.00  0.00     0.198 A 
ATOM     79  C   UNL     1      -5.717 -10.816  -6.410  1.00  0.00     0.198 A 
ATOM     80  F   UNL     1      -4.981  -8.923  -7.608  1.00  0.00    -0.203 F 
ATOM     81  F   UNL     1      -7.985 -11.083  -3.594  1.00  0.00    -0.200 F 
ATOM     82  C   UNL     1      -6.474 -11.370  -5.387  1.00  0.00     0.200 A 
ATOM     83  F   UNL     1      -4.966 -11.605  -7.189  1.00  0.00    -0.200 F 
ATOM     84  F   UNL     1      -6.437 -12.691  -5.163  1.00  0.00    -0.200 F 
ENDBRANCH  50  74
BRANCH  62  85
ATOM     85  C   UNL     1      -9.172  -4.087 -10.419  1.00  0.00     0.064 A 
ATOM     86  C   UNL     1      -8.639  -3.962 -11.710  1.00  0.00     0.173 A 
ATOM     87  C   UNL     1     -10.547  -4.332 -10.291  1.00  0.00     0.173 A 
ATOM     88  F   UNL     1      -7.331  -3.723 -11.880  1.00  0.00    -0.203 F 
ATOM     89  C   UNL     1      -9.455  -4.071 -12.832  1.00  0.00     0.198 A 
ATOM     90  C   UNL     1     -11.356  -4.459 -11.417  1.00  0.00     0.198 A 
ATOM     91  F   UNL     1     -11.097  -4.473  -9.076  1.00  0.00    -0.203 F 
ATOM     92  F   UNL     1      -8.928  -3.934 -14.057  1.00  0.00    -0.200 F 
ATOM     93  C   UNL     1     -10.811  -4.324 -12.685  1.00  0.00     0.200 A 
ATOM     94  F   UNL     1     -12.662  -4.724 -11.274  1.00  0.00    -0.200 F 
ATOM     95  F   UNL     1     -11.592  -4.443 -13.767  1.00  0.00    -0.200 F 
ENDBRANCH  62  85
ENDBRANCH  36  37
ENDBRANCH  29  31
ENDBRANCH  28  29
ENDBRANCH  27  28
ENDBRANCH  26  27
ENDBRANCH   1  26
TORSDOF 18
