REMARK SMILES Cc1nc(C)n(CC[C@H]2CCC[C@@]2([NH2+]C(C)C)C(=O)OCCOC(=O)c2ccc(-c3c4nc(c(-c5c(F)c(F)c(F)c(F)c5F)c5ccc([nH]5)c(-c5c(F)c(F)c(F)c(F)c5F)c5nc(c(-c6c(F)c(F)c(F)c(F)c6F)c6ccc3[nH]6)C=C5)C=C4)cc2)n1
REMARK SMILES IDX 21 1 20 2 18 3 19 4 13 5 9 6 10 7 11 8 12 9 8 10 7 11 6 12
REMARK SMILES IDX 1 13 2 14 3 15 89 16 4 17 5 18 14 19 15 22 16 23 17 24 22 25
REMARK SMILES IDX 23 26 24 27 25 28 26 29 27 30 88 31 28 32 87 33 29 34 30 35
REMARK SMILES IDX 31 36 81 37 32 38 86 39 80 40 82 41 33 42 85 43 79 44 78 45
REMARK SMILES IDX 34 47 66 48 46 49 65 50 47 51 50 52 64 53 83 54 48 55 49 56
REMARK SMILES IDX 63 58 84 59 51 60 35 61 36 62 44 63 37 64 38 65 42 66 45 67
REMARK SMILES IDX 39 68 40 69 43 70 41 71 67 72 68 73 76 74 69 75 70 76 74 77
REMARK SMILES IDX 77 78 71 79 72 80 75 81 73 82 52 83 53 84 61 85 54 86 55 87
REMARK SMILES IDX 59 88 62 89 56 90 57 91 60 92 58 93
REMARK H PARENT 14 20 14 21 82 46 50 57
REMARK Flexibility Score: inf
ROOT
ATOM      1  C   UNL     1      -2.740  -8.560   4.915  1.00  0.00     0.274 C 
ENDROOT
BRANCH   1   2
ATOM      2  O   UNL     1      -2.633  -7.741   3.717  1.00  0.00    -0.457 OA
BRANCH   2   3
ATOM      3  C   UNL     1      -2.601  -8.331   2.489  1.00  0.00     0.368 C 
ATOM      4  O   UNL     1      -2.444  -9.549   2.396  1.00  0.00    -0.245 OA
BRANCH   3   5
ATOM      5  C   UNL     1      -3.175  -7.357   1.282  1.00  0.00     0.197 C 
ATOM      6  C   UNL     1      -2.604  -6.080   0.409  1.00  0.00     0.064 C 
ATOM      7  C   UNL     1      -2.672  -6.480  -1.075  1.00  0.00     0.011 C 
ATOM      8  C   UNL     1      -2.526  -7.970  -1.081  1.00  0.00     0.008 C 
ATOM      9  C   UNL     1      -3.371  -8.410   0.099  1.00  0.00     0.081 C 
BRANCH   6  10
ATOM     10  C   UNL     1      -1.499  -4.987   0.615  1.00  0.00     0.034 C 
BRANCH  10  11
ATOM     11  C   UNL     1       0.001  -5.251   0.421  1.00  0.00     0.147 C 
BRANCH  11  12
ATOM     12  N   UNL     1       0.382  -6.562   0.839  1.00  0.00    -0.250 N 
ATOM     13  C   UNL     1       1.332  -9.866   0.204  1.00  0.00     0.092 C 
ATOM     14  C   UNL     1       0.894  -8.559   0.741  1.00  0.00     0.147 A 
ATOM     15  N   UNL     1       0.359  -8.380   2.001  1.00  0.00    -0.217 NA
ATOM     16  N   UNL     1       0.953  -7.438   0.012  1.00  0.00    -0.156 NA
ATOM     17  C   UNL     1       0.079  -7.094   2.046  1.00  0.00     0.124 A 
ATOM     18  C   UNL     1      -0.458  -6.243   3.151  1.00  0.00     0.089 C 
ENDBRANCH  11  12
ENDBRANCH  10  11
ENDBRANCH   6  10
BRANCH   5  19
ATOM     19  N   UNL     1      -4.588  -7.041   1.718  1.00  0.00    -0.330 N 
ATOM     20  H   UNL     1      -4.897  -7.834   2.279  1.00  0.00     0.347 HD
ATOM     21  H   UNL     1      -5.049  -6.854   0.827  1.00  0.00     0.347 HD
BRANCH  19  22
ATOM     22  C   UNL     1      -4.913  -5.837   2.492  1.00  0.00     0.176 C 
ATOM     23  C   UNL     1      -6.438  -5.706   2.404  1.00  0.00     0.075 C 
ATOM     24  C   UNL     1      -4.536  -5.804   3.973  1.00  0.00     0.075 C 
ENDBRANCH  19  22
ENDBRANCH   5  19
ENDBRANCH   3   5
ENDBRANCH   2   3
ENDBRANCH   1   2
BRANCH   1  25
ATOM     25  C   UNL     1      -1.502  -9.353   5.326  1.00  0.00     0.275 C 
BRANCH  25  26
ATOM     26  O   UNL     1      -0.358  -8.504   5.511  1.00  0.00    -0.458 OA
BRANCH  26  27
ATOM     27  C   UNL     1       0.784  -9.115   5.128  1.00  0.00     0.338 C 
ATOM     28  O   UNL     1       0.902 -10.271   4.742  1.00  0.00    -0.246 OA
BRANCH  27  29
ATOM     29  C   UNL     1       1.984  -8.264   5.286  1.00  0.00     0.060 A 
ATOM     30  C   UNL     1       2.309  -7.446   4.211  1.00  0.00     0.016 A 
ATOM     31  C   UNL     1       3.006  -8.901   5.972  1.00  0.00     0.016 A 
ATOM     32  C   UNL     1       3.472  -7.647   3.511  1.00  0.00     0.010 A 
ATOM     33  C   UNL     1       4.256  -8.959   5.383  1.00  0.00     0.010 A 
ATOM     34  C   UNL     1       4.428  -8.466   4.081  1.00  0.00    -0.014 A 
BRANCH  34  35
ATOM     35  C   UNL     1       5.659  -8.682   3.326  1.00  0.00     0.031 A 
ATOM     36  C   UNL     1       6.377  -7.425   2.923  1.00  0.00     0.074 A 
ATOM     37  C   UNL     1       6.130  -9.942   3.218  1.00  0.00     0.049 A 
ATOM     38  N   UNL     1       7.079  -7.174   1.861  1.00  0.00    -0.248 NA
ATOM     39  C   UNL     1       6.197  -6.241   3.798  1.00  0.00     0.031 C 
ATOM     40  C   UNL     1       5.516 -11.167   3.751  1.00  0.00     0.029 A 
ATOM     41  N   UNL     1       7.345 -10.384   2.804  1.00  0.00    -0.354 N 
ATOM     42  C   UNL     1       7.559  -5.873   2.026  1.00  0.00     0.074 A 
ATOM     43  C   UNL     1       6.862  -5.298   3.140  1.00  0.00     0.031 C 
ATOM     44  C   UNL     1       6.476 -12.095   3.936  1.00  0.00     0.029 A 
ATOM     45  C   UNL     1       7.726 -11.567   3.424  1.00  0.00     0.049 A 
ATOM     46  H   UNL     1       7.897  -9.916   2.136  1.00  0.00     0.167 HD
ATOM     47  C   UNL     1       8.684  -5.425   1.409  1.00  0.00     0.037 A 
ATOM     48  C   UNL     1       8.996 -11.993   3.634  1.00  0.00     0.037 A 
ATOM     49  C   UNL     1       8.937  -6.117   0.181  1.00  0.00     0.049 A 
ATOM     50  C   UNL     1       9.887 -11.188   2.762  1.00  0.00     0.074 A 
ATOM     51  C   UNL     1       8.244  -6.241  -1.008  1.00  0.00     0.029 A 
ATOM     52  N   UNL     1       9.891  -7.101   0.157  1.00  0.00    -0.354 N 
ATOM     53  N   UNL     1       9.903 -11.265   1.460  1.00  0.00    -0.248 NA
ATOM     54  C   UNL     1      10.451  -9.966   3.321  1.00  0.00     0.031 C 
ATOM     55  C   UNL     1       8.488  -7.575  -1.442  1.00  0.00     0.029 A 
ATOM     56  C   UNL     1       9.347  -8.165  -0.517  1.00  0.00     0.049 A 
ATOM     57  H   UNL     1      10.793  -7.053   0.548  1.00  0.00     0.167 HD
ATOM     58  C   UNL     1      10.086  -9.959   1.030  1.00  0.00     0.074 A 
ATOM     59  C   UNL     1      10.501  -9.217   2.217  1.00  0.00     0.031 C 
ATOM     60  C   UNL     1       9.609  -9.542  -0.178  1.00  0.00     0.037 A 
BRANCH  47  61
ATOM     61  C   UNL     1       9.713  -4.590   2.127  1.00  0.00     0.064 A 
ATOM     62  C   UNL     1      10.751  -3.978   1.406  1.00  0.00     0.173 A 
ATOM     63  C   UNL     1       9.869  -4.598   3.534  1.00  0.00     0.173 A 
ATOM     64  F   UNL     1      10.726  -3.949   0.065  1.00  0.00    -0.203 F 
ATOM     65  C   UNL     1      11.880  -3.454   2.044  1.00  0.00     0.198 A 
ATOM     66  C   UNL     1      10.966  -4.024   4.170  1.00  0.00     0.198 A 
ATOM     67  F   UNL     1       9.025  -5.252   4.342  1.00  0.00    -0.203 F 
ATOM     68  F   UNL     1      12.897  -2.979   1.312  1.00  0.00    -0.200 F 
ATOM     69  C   UNL     1      11.986  -3.477   3.424  1.00  0.00     0.200 A 
ATOM     70  F   UNL     1      11.055  -4.077   5.506  1.00  0.00    -0.200 F 
ATOM     71  F   UNL     1      13.088  -3.021   4.033  1.00  0.00    -0.200 F 
ENDBRANCH  47  61
BRANCH  48  72
ATOM     72  C   UNL     1       9.497 -12.764   4.799  1.00  0.00     0.064 A 
ATOM     73  C   UNL     1      10.720 -13.448   4.736  1.00  0.00     0.173 A 
ATOM     74  C   UNL     1       8.906 -12.658   6.076  1.00  0.00     0.173 A 
ATOM     75  F   UNL     1      11.378 -13.542   3.572  1.00  0.00    -0.203 F 
ATOM     76  C   UNL     1      11.315 -13.993   5.880  1.00  0.00     0.198 A 
ATOM     77  C   UNL     1       9.491 -13.217   7.212  1.00  0.00     0.198 A 
ATOM     78  F   UNL     1       7.795 -11.933   6.267  1.00  0.00    -0.203 F 
ATOM     79  F   UNL     1      12.510 -14.592   5.789  1.00  0.00    -0.200 F 
ATOM     80  C   UNL     1      10.701 -13.876   7.116  1.00  0.00     0.200 A 
ATOM     81  F   UNL     1       8.903 -13.063   8.407  1.00  0.00    -0.200 F 
ATOM     82  F   UNL     1      11.293 -14.358   8.218  1.00  0.00    -0.200 F 
ENDBRANCH  48  72
BRANCH  60  83
ATOM     83  C   UNL     1       9.072 -10.587  -1.116  1.00  0.00     0.064 A 
ATOM     84  C   UNL     1       7.951 -11.386  -0.830  1.00  0.00     0.173 A 
ATOM     85  C   UNL     1       9.613 -10.678  -2.404  1.00  0.00     0.173 A 
ATOM     86  F   UNL     1       7.305 -11.274   0.335  1.00  0.00    -0.203 F 
ATOM     87  C   UNL     1       7.433 -12.275  -1.770  1.00  0.00     0.198 A 
ATOM     88  C   UNL     1       9.069 -11.538  -3.355  1.00  0.00     0.198 A 
ATOM     89  F   UNL     1      10.643  -9.893  -2.757  1.00  0.00    -0.203 F 
ATOM     90  F   UNL     1       6.372 -13.037  -1.462  1.00  0.00    -0.200 F 
ATOM     91  C   UNL     1       7.989 -12.344  -3.034  1.00  0.00     0.200 A 
ATOM     92  F   UNL     1       9.577 -11.563  -4.595  1.00  0.00    -0.200 F 
ATOM     93  F   UNL     1       7.466 -13.167  -3.955  1.00  0.00    -0.200 F 
ENDBRANCH  60  83
ENDBRANCH  34  35
ENDBRANCH  27  29
ENDBRANCH  26  27
ENDBRANCH  25  26
ENDBRANCH   1  25
TORSDOF 16
