REMARK SMILES COc1ccc(-n2c(=S)[nH]cc(CC(=O)OCCOC(=O)c3ccc(-c4c5nc(c(-c6c(F)c(F)c(F)c(F)c6F)c6ccc([nH]6)c(-c6c(F)c(F)c(F)c(F)c6F)c6nc(c(-c7c(F)c(F)c(F)c(F)c7F)c7ccc4[nH]7)C=C6)C=C5)cc3)c2=O)cc1Cl
REMARK SMILES IDX 17 1 16 2 14 3 15 4 13 5 12 6 7 7 8 8 85 9 9 10 10 11 86 12
REMARK SMILES IDX 11 13 6 15 3 16 4 17 88 18 5 19 87 20 89 21 2 22 1 23 18 24
REMARK SMILES IDX 19 25 20 26 21 27 22 28 23 29 84 30 24 31 83 32 25 33 26 34
REMARK SMILES IDX 27 35 77 36 28 37 82 38 76 39 78 40 29 41 81 42 75 43 74 44
REMARK SMILES IDX 30 46 62 47 42 48 61 49 43 50 46 51 60 52 79 53 44 54 45 55
REMARK SMILES IDX 59 57 80 58 47 59 31 60 32 61 40 62 33 63 34 64 38 65 41 66
REMARK SMILES IDX 35 67 36 68 39 69 37 70 63 71 64 72 72 73 65 74 66 75 70 76
REMARK SMILES IDX 73 77 67 78 68 79 71 80 69 81 48 82 49 83 57 84 50 85 51 86
REMARK SMILES IDX 55 87 58 88 52 89 53 90 56 91 54 92
REMARK H PARENT 10 14 78 45 46 56
REMARK Flexibility Score: inf
ROOT
ATOM      1  C   UNL     1       4.153   6.980  -7.457  1.00  0.00     0.274 C 
ENDROOT
BRANCH   1   2
ATOM      2  O   UNL     1       3.183   5.949  -7.185  1.00  0.00    -0.462 OA
BRANCH   2   3
ATOM      3  C   UNL     1       1.914   6.194  -7.603  1.00  0.00     0.310 C 
ATOM      4  O   UNL     1       1.546   7.222  -8.161  1.00  0.00    -0.252 OA
BRANCH   3   5
ATOM      5  C   UNL     1       0.952   5.058  -7.306  1.00  0.00     0.165 C 
BRANCH   5   6
ATOM      6  C   UNL     1       1.581   3.699  -7.183  1.00  0.00     0.045 A 
ATOM      7  N   UNL     1       1.981   1.698  -5.803  1.00  0.00    -0.253 N 
ATOM      8  C   UNL     1       2.698   1.103  -6.852  1.00  0.00     0.184 A 
ATOM      9  C   UNL     1       1.435   2.986  -5.885  1.00  0.00     0.262 A 
ATOM     10  S   UNL     1       3.389  -0.427  -6.913  1.00  0.00    -0.040 S 
ATOM     11  N   UNL     1       2.789   1.850  -8.000  1.00  0.00    -0.338 N 
ATOM     12  O   UNL     1       0.857   3.563  -4.963  1.00  0.00    -0.269 OA
ATOM     13  C   UNL     1       2.234   3.078  -8.168  1.00  0.00     0.095 A 
ATOM     14  H   UNL     1       3.293   1.468  -8.755  1.00  0.00     0.168 HD
BRANCH   7  15
ATOM     15  C   UNL     1       1.734   0.994  -4.583  1.00  0.00     0.053 A 
ATOM     16  C   UNL     1       1.189  -0.324  -2.179  1.00  0.00     0.137 A 
ATOM     17  C   UNL     1       0.139   0.044  -3.021  1.00  0.00     0.050 A 
ATOM     18  C   UNL     1       2.513  -0.061  -2.547  1.00  0.00     0.085 A 
ATOM     19  C   UNL     1       0.410   0.719  -4.210  1.00  0.00     0.031 A 
ATOM     20  C   UNL     1       2.786   0.603  -3.746  1.00  0.00     0.051 A 
ATOM     21  Cl  UNL     1       3.843  -0.538  -1.557  1.00  0.00    -0.080 Cl
BRANCH  16  22
ATOM     22  O   UNL     1       0.862  -0.999  -1.033  1.00  0.00    -0.495 OA
ATOM     23  C   UNL     1       0.804  -0.102   0.077  1.00  0.00     0.278 C 
ENDBRANCH  16  22
ENDBRANCH   7  15
ENDBRANCH   5   6
ENDBRANCH   3   5
ENDBRANCH   2   3
ENDBRANCH   1   2
BRANCH   1  24
ATOM     24  C   UNL     1       4.934   6.674  -8.734  1.00  0.00     0.275 C 
BRANCH  24  25
ATOM     25  O   UNL     1       4.061   6.720  -9.878  1.00  0.00    -0.458 OA
BRANCH  25  26
ATOM     26  C   UNL     1       3.877   5.554 -10.534  1.00  0.00     0.338 C 
ATOM     27  O   UNL     1       4.382   4.471 -10.304  1.00  0.00    -0.246 OA
BRANCH  26  28
ATOM     28  C   UNL     1       2.869   5.756 -11.582  1.00  0.00     0.060 A 
ATOM     29  C   UNL     1       3.276   6.022 -12.888  1.00  0.00     0.016 A 
ATOM     30  C   UNL     1       1.516   5.593 -11.274  1.00  0.00     0.016 A 
ATOM     31  C   UNL     1       2.310   6.157 -13.887  1.00  0.00     0.010 A 
ATOM     32  C   UNL     1       0.556   5.690 -12.279  1.00  0.00     0.010 A 
ATOM     33  C   UNL     1       0.944   5.988 -13.591  1.00  0.00    -0.014 A 
BRANCH  33  34
ATOM     34  C   UNL     1      -0.070   6.104 -14.666  1.00  0.00     0.031 A 
ATOM     35  C   UNL     1      -0.989   7.290 -14.726  1.00  0.00     0.074 A 
ATOM     36  C   UNL     1      -0.161   5.128 -15.589  1.00  0.00     0.049 A 
ATOM     37  N   UNL     1      -1.859   7.609 -15.651  1.00  0.00    -0.248 NA
ATOM     38  C   UNL     1      -0.938   8.233 -13.599  1.00  0.00     0.031 C 
ATOM     39  C   UNL     1       0.627   3.895 -15.590  1.00  0.00     0.029 A 
ATOM     40  N   UNL     1      -0.949   5.023 -16.707  1.00  0.00    -0.354 N 
ATOM     41  C   UNL     1      -2.447   8.791 -15.225  1.00  0.00     0.074 A 
ATOM     42  C   UNL     1      -1.877   9.109 -13.934  1.00  0.00     0.031 C 
ATOM     43  C   UNL     1       0.304   3.171 -16.674  1.00  0.00     0.029 A 
ATOM     44  C   UNL     1      -0.716   3.884 -17.437  1.00  0.00     0.049 A 
ATOM     45  H   UNL     1      -1.617   5.700 -16.962  1.00  0.00     0.167 HD
ATOM     46  C   UNL     1      -3.360   9.555 -15.870  1.00  0.00     0.037 A 
ATOM     47  C   UNL     1      -1.253   3.470 -18.601  1.00  0.00     0.037 A 
ATOM     48  C   UNL     1      -3.911   9.245 -17.163  1.00  0.00     0.049 A 
ATOM     49  C   UNL     1      -2.248   4.350 -19.306  1.00  0.00     0.074 A 
ATOM     50  C   UNL     1      -4.783   9.997 -17.930  1.00  0.00     0.029 A 
ATOM     51  N   UNL     1      -3.648   8.085 -17.875  1.00  0.00    -0.354 N 
ATOM     52  N   UNL     1      -2.716   5.520 -18.946  1.00  0.00    -0.248 NA
ATOM     53  C   UNL     1      -2.779   3.860 -20.587  1.00  0.00     0.031 C 
ATOM     54  C   UNL     1      -5.080   9.274 -19.089  1.00  0.00     0.029 A 
ATOM     55  C   UNL     1      -4.360   8.091 -19.063  1.00  0.00     0.049 A 
ATOM     56  H   UNL     1      -3.044   7.365 -17.581  1.00  0.00     0.167 HD
ATOM     57  C   UNL     1      -3.580   5.914 -19.958  1.00  0.00     0.074 A 
ATOM     58  C   UNL     1      -3.558   4.867 -20.958  1.00  0.00     0.031 C 
ATOM     59  C   UNL     1      -4.328   7.040 -20.047  1.00  0.00     0.037 A 
BRANCH  46  60
ATOM     60  C   UNL     1      -3.808  10.825 -15.210  1.00  0.00     0.064 A 
ATOM     61  C   UNL     1      -2.973  11.951 -15.162  1.00  0.00     0.173 A 
ATOM     62  C   UNL     1      -5.114  10.950 -14.714  1.00  0.00     0.173 A 
ATOM     63  F   UNL     1      -1.714  11.878 -15.619  1.00  0.00    -0.203 F 
ATOM     64  C   UNL     1      -3.428  13.156 -14.635  1.00  0.00     0.198 A 
ATOM     65  C   UNL     1      -5.572  12.164 -14.207  1.00  0.00     0.198 A 
ATOM     66  F   UNL     1      -5.952   9.904 -14.744  1.00  0.00    -0.203 F 
ATOM     67  F   UNL     1      -2.608  14.215 -14.584  1.00  0.00    -0.200 F 
ATOM     68  C   UNL     1      -4.730  13.265 -14.168  1.00  0.00     0.200 A 
ATOM     69  F   UNL     1      -6.834  12.271 -13.768  1.00  0.00    -0.200 F 
ATOM     70  F   UNL     1      -5.173  14.432 -13.683  1.00  0.00    -0.200 F 
ENDBRANCH  46  60
BRANCH  47  71
ATOM     71  C   UNL     1      -0.818   2.180 -19.193  1.00  0.00     0.064 A 
ATOM     72  C   UNL     1      -0.012   2.149 -20.339  1.00  0.00     0.173 A 
ATOM     73  C   UNL     1      -1.187   0.956 -18.618  1.00  0.00     0.173 A 
ATOM     74  F   UNL     1       0.351   3.295 -20.933  1.00  0.00    -0.203 F 
ATOM     75  C   UNL     1       0.398   0.940 -20.896  1.00  0.00     0.198 A 
ATOM     76  C   UNL     1      -0.757  -0.252 -19.163  1.00  0.00     0.198 A 
ATOM     77  F   UNL     1      -1.953   0.935 -17.518  1.00  0.00    -0.203 F 
ATOM     78  F   UNL     1       1.140   0.936 -22.012  1.00  0.00    -0.200 F 
ATOM     79  C   UNL     1       0.030  -0.260 -20.304  1.00  0.00     0.200 A 
ATOM     80  F   UNL     1      -1.104  -1.408 -18.580  1.00  0.00    -0.200 F 
ATOM     81  F   UNL     1       0.430  -1.422 -20.837  1.00  0.00    -0.200 F 
ENDBRANCH  47  71
BRANCH  59  82
ATOM     82  C   UNL     1      -5.185   7.207 -21.266  1.00  0.00     0.064 A 
ATOM     83  C   UNL     1      -6.365   6.469 -21.432  1.00  0.00     0.173 A 
ATOM     84  C   UNL     1      -4.862   8.165 -22.239  1.00  0.00     0.173 A 
ATOM     85  F   UNL     1      -6.708   5.534 -20.534  1.00  0.00    -0.203 F 
ATOM     86  C   UNL     1      -7.186   6.674 -22.537  1.00  0.00     0.198 A 
ATOM     87  C   UNL     1      -5.698   8.385 -23.330  1.00  0.00     0.198 A 
ATOM     88  F   UNL     1      -3.748   8.902 -22.120  1.00  0.00    -0.203 F 
ATOM     89  F   UNL     1      -8.294   5.936 -22.693  1.00  0.00    -0.200 F 
ATOM     90  C   UNL     1      -6.857   7.637 -23.480  1.00  0.00     0.200 A 
ATOM     91  F   UNL     1      -5.387   9.325 -24.233  1.00  0.00    -0.200 F 
ATOM     92  F   UNL     1      -7.656   7.843 -24.535  1.00  0.00    -0.200 F 
ENDBRANCH  59  82
ENDBRANCH  33  34
ENDBRANCH  26  28
ENDBRANCH  25  26
ENDBRANCH  24  25
ENDBRANCH   1  24
TORSDOF 14
