REMARK SMILES O=C(OCCOC(=O)c1cc(-c2ccoc2)nc2c(F)cccc12)c1ccc(-c2c3nc(c(-c4c(F)c(F)c(F)c(F)c4F)c4ccc([nH]4)c(-c4c(F)c(F)c(F)c(F)c4F)c4nc(c(-c5c(F)c(F)c(F)c(F)c5F)c5ccc2[nH]5)C=C4)C=C3)cc1
REMARK SMILES IDX 4 1 3 2 2 3 1 4 25 5 26 6 87 7 27 8 86 9 28 10 29 11 30 12
REMARK SMILES IDX 80 13 31 14 85 15 79 16 81 17 32 18 84 19 78 20 77 21 33 23
REMARK SMILES IDX 65 24 45 25 64 26 46 27 49 28 63 29 82 30 47 31 48 32 62 34
REMARK SMILES IDX 83 35 50 36 34 37 35 38 43 39 36 40 37 41 41 42 44 43 38 44
REMARK SMILES IDX 39 45 42 46 40 47 66 48 67 49 75 50 68 51 69 52 73 53 76 54
REMARK SMILES IDX 70 55 71 56 74 57 72 58 51 59 52 60 60 61 53 62 54 63 58 64
REMARK SMILES IDX 61 65 55 66 56 67 59 68 57 69 5 70 6 71 7 72 8 73 9 74 10 75
REMARK SMILES IDX 24 76 11 77 18 78 23 79 17 80 19 81 22 82 20 83 21 84 12 85
REMARK SMILES IDX 13 86 16 87 14 88 15 89
REMARK H PARENT 81 22 49 33
REMARK Flexibility Score: inf
ROOT
ATOM      1  C   UNL     1       4.400  -1.301   0.458  1.00  0.00     0.275 C 
ENDROOT
BRANCH   1   2
ATOM      2  O   UNL     1       3.316  -0.550   1.024  1.00  0.00    -0.458 OA
BRANCH   2   3
ATOM      3  C   UNL     1       2.993   0.755   0.905  1.00  0.00     0.338 C 
ATOM      4  O   UNL     1       2.026   1.169   1.545  1.00  0.00    -0.246 OA
BRANCH   3   5
ATOM      5  C   UNL     1       3.662   1.730  -0.025  1.00  0.00     0.060 A 
ATOM      6  C   UNL     1       4.886   1.584  -0.684  1.00  0.00     0.016 A 
ATOM      7  C   UNL     1       2.940   2.911  -0.275  1.00  0.00     0.016 A 
ATOM      8  C   UNL     1       5.350   2.542  -1.595  1.00  0.00     0.010 A 
ATOM      9  C   UNL     1       3.378   3.861  -1.200  1.00  0.00     0.010 A 
ATOM     10  C   UNL     1       4.602   3.688  -1.853  1.00  0.00    -0.014 A 
BRANCH  10  11
ATOM     11  C   UNL     1       5.180   4.817  -2.612  1.00  0.00     0.031 A 
ATOM     12  C   UNL     1       5.658   6.000  -1.835  1.00  0.00     0.074 A 
ATOM     13  C   UNL     1       5.296   4.802  -3.950  1.00  0.00     0.049 A 
ATOM     14  N   UNL     1       6.134   7.136  -2.268  1.00  0.00    -0.248 NA
ATOM     15  C   UNL     1       5.626   5.871  -0.369  1.00  0.00     0.031 C 
ATOM     16  C   UNL     1       5.013   3.656  -4.800  1.00  0.00     0.029 A 
ATOM     17  N   UNL     1       5.656   5.792  -4.831  1.00  0.00    -0.354 N 
ATOM     18  C   UNL     1       6.489   7.840  -1.130  1.00  0.00     0.074 A 
ATOM     19  C   UNL     1       6.098   7.044   0.012  1.00  0.00     0.031 C 
ATOM     20  C   UNL     1       5.116   4.030  -6.086  1.00  0.00     0.029 A 
ATOM     21  C   UNL     1       5.449   5.444  -6.143  1.00  0.00     0.049 A 
ATOM     22  H   UNL     1       6.025   6.660  -4.550  1.00  0.00     0.167 HD
ATOM     23  C   UNL     1       7.125   9.030  -1.051  1.00  0.00     0.037 A 
ATOM     24  C   UNL     1       5.490   6.187  -7.264  1.00  0.00     0.037 A 
ATOM     25  C   UNL     1       7.466   9.824  -2.198  1.00  0.00     0.049 A 
ATOM     26  C   UNL     1       5.996   7.593  -7.159  1.00  0.00     0.074 A 
ATOM     27  C   UNL     1       8.093  11.054  -2.242  1.00  0.00     0.029 A 
ATOM     28  N   UNL     1       7.175   9.471  -3.511  1.00  0.00    -0.354 N 
ATOM     29  N   UNL     1       6.363   8.249  -6.086  1.00  0.00    -0.248 NA
ATOM     30  C   UNL     1       6.159   8.340  -8.411  1.00  0.00     0.031 C 
ATOM     31  C   UNL     1       8.122  11.475  -3.577  1.00  0.00     0.029 A 
ATOM     32  C   UNL     1       7.576  10.478  -4.372  1.00  0.00     0.049 A 
ATOM     33  H   UNL     1       6.745   8.629  -3.788  1.00  0.00     0.167 HD
ATOM     34  C   UNL     1       6.871   9.457  -6.532  1.00  0.00     0.074 A 
ATOM     35  C   UNL     1       6.731   9.456  -7.976  1.00  0.00     0.031 C 
ATOM     36  C   UNL     1       7.437  10.454  -5.809  1.00  0.00     0.037 A 
BRANCH  23  37
ATOM     37  C   UNL     1       7.426   9.525   0.330  1.00  0.00     0.064 A 
ATOM     38  C   UNL     1       8.354   8.873   1.160  1.00  0.00     0.173 A 
ATOM     39  C   UNL     1       6.707  10.601   0.866  1.00  0.00     0.173 A 
ATOM     40  F   UNL     1       9.045   7.817   0.704  1.00  0.00    -0.203 F 
ATOM     41  C   UNL     1       8.505   9.245   2.493  1.00  0.00     0.198 A 
ATOM     42  C   UNL     1       6.886  10.991   2.190  1.00  0.00     0.198 A 
ATOM     43  F   UNL     1       5.804  11.252   0.117  1.00  0.00    -0.203 F 
ATOM     44  F   UNL     1       9.326   8.547   3.292  1.00  0.00    -0.200 F 
ATOM     45  C   UNL     1       7.771  10.302   3.007  1.00  0.00     0.200 A 
ATOM     46  F   UNL     1       6.178  12.015   2.685  1.00  0.00    -0.200 F 
ATOM     47  F   UNL     1       7.898  10.643   4.297  1.00  0.00    -0.200 F 
ENDBRANCH  23  37
BRANCH  24  48
ATOM     48  C   UNL     1       5.062   5.597  -8.559  1.00  0.00     0.064 A 
ATOM     49  C   UNL     1       5.992   5.214  -9.533  1.00  0.00     0.173 A 
ATOM     50  C   UNL     1       3.702   5.372  -8.831  1.00  0.00     0.173 A 
ATOM     51  F   UNL     1       7.300   5.422  -9.326  1.00  0.00    -0.203 F 
ATOM     52  C   UNL     1       5.581   4.631 -10.731  1.00  0.00     0.198 A 
ATOM     53  C   UNL     1       3.293   4.773 -10.023  1.00  0.00     0.198 A 
ATOM     54  F   UNL     1       2.772   5.729  -7.935  1.00  0.00    -0.203 F 
ATOM     55  F   UNL     1       6.491   4.290 -11.654  1.00  0.00    -0.200 F 
ATOM     56  C   UNL     1       4.234   4.405 -10.972  1.00  0.00     0.200 A 
ATOM     57  F   UNL     1       1.992   4.551 -10.252  1.00  0.00    -0.200 F 
ATOM     58  F   UNL     1       3.844   3.833 -12.120  1.00  0.00    -0.200 F 
ENDBRANCH  24  48
BRANCH  36  59
ATOM     59  C   UNL     1       8.020  11.604  -6.571  1.00  0.00     0.064 A 
ATOM     60  C   UNL     1       7.216  12.566  -7.195  1.00  0.00     0.173 A 
ATOM     61  C   UNL     1       9.413  11.776  -6.610  1.00  0.00     0.173 A 
ATOM     62  F   UNL     1       5.882  12.432  -7.201  1.00  0.00    -0.203 F 
ATOM     63  C   UNL     1       7.788  13.658  -7.842  1.00  0.00     0.198 A 
ATOM     64  C   UNL     1       9.978  12.885  -7.229  1.00  0.00     0.198 A 
ATOM     65  F   UNL     1      10.222  10.880  -6.026  1.00  0.00    -0.203 F 
ATOM     66  F   UNL     1       7.005  14.549  -8.466  1.00  0.00    -0.200 F 
ATOM     67  C   UNL     1       9.166  13.823  -7.847  1.00  0.00     0.200 A 
ATOM     68  F   UNL     1      11.308  13.050  -7.219  1.00  0.00    -0.200 F 
ATOM     69  F   UNL     1       9.712  14.886  -8.453  1.00  0.00    -0.200 F 
ENDBRANCH  36  59
ENDBRANCH  10  11
ENDBRANCH   3   5
ENDBRANCH   2   3
ENDBRANCH   1   2
BRANCH   1  70
ATOM     70  C   UNL     1       4.126  -1.797  -0.964  1.00  0.00     0.275 C 
BRANCH  70  71
ATOM     71  O   UNL     1       3.679  -0.756  -1.852  1.00  0.00    -0.458 OA
BRANCH  71  72
ATOM     72  C   UNL     1       2.339  -0.695  -2.065  1.00  0.00     0.339 C 
ATOM     73  O   UNL     1       1.495  -1.420  -1.572  1.00  0.00    -0.246 OA
BRANCH  72  74
ATOM     74  C   UNL     1       1.989   0.460  -2.925  1.00  0.00     0.071 A 
ATOM     75  C   UNL     1       0.993   1.312  -2.432  1.00  0.00     0.045 A 
ATOM     76  C   UNL     1       2.548   0.655  -4.212  1.00  0.00     0.018 A 
ATOM     77  C   UNL     1       0.585   2.361  -3.229  1.00  0.00     0.075 A 
ATOM     78  C   UNL     1       1.991   1.702  -4.974  1.00  0.00     0.107 A 
ATOM     79  C   UNL     1       3.595  -0.124  -4.780  1.00  0.00     0.011 A 
ATOM     80  N   UNL     1       1.048   2.531  -4.485  1.00  0.00    -0.245 NA
ATOM     81  C   UNL     1       2.447   1.873  -6.282  1.00  0.00     0.149 A 
ATOM     82  C   UNL     1       4.059   0.106  -6.074  1.00  0.00     0.004 A 
ATOM     83  F   UNL     1       1.939   2.854  -7.047  1.00  0.00    -0.205 F 
ATOM     84  C   UNL     1       3.458   1.090  -6.839  1.00  0.00     0.041 A 
BRANCH  77  85
ATOM     85  C   UNL     1      -0.380   3.354  -2.798  1.00  0.00     0.038 A 
ATOM     86  C   UNL     1      -1.464   3.927  -3.521  1.00  0.00     0.052 A 
ATOM     87  C   UNL     1      -0.354   4.027  -1.594  1.00  0.00     0.205 A 
ATOM     88  C   UNL     1      -2.026   4.878  -2.703  1.00  0.00     0.195 A 
ATOM     89  O   UNL     1      -1.352   4.947  -1.528  1.00  0.00    -0.472 OA
ENDBRANCH  77  85
ENDBRANCH  72  74
ENDBRANCH  71  72
ENDBRANCH  70  71
ENDBRANCH   1  70
TORSDOF 12
