REMARK SMILES O=C(CCN1C(=O)/C(=C\c2ccc(-c3cccc(Cl)c3)o2)SC1=S)OCCOC(=O)c1ccc(-c2c3nc(c(-c4c(F)c(F)c(F)c(F)c4F)c4ccc([nH]4)c(-c4c(F)c(F)c(F)c(F)c4F)c4nc(c(-c5c(F)c(F)c(F)c(F)c5F)c5ccc2[nH]5)C=C4)C=C3)cc1
REMARK SMILES IDX 26 1 25 2 2 3 1 4 3 5 4 6 5 7 6 8 23 9 7 10 8 11 22 12 24 13
REMARK SMILES IDX 9 14 10 15 11 16 21 17 12 18 13 19 14 20 15 21 20 22 16 23
REMARK SMILES IDX 18 24 17 25 19 26 27 27 28 28 29 29 30 30 31 31 32 32 93 33
REMARK SMILES IDX 33 34 92 35 34 36 35 37 36 38 86 39 37 40 91 41 85 42 87 43
REMARK SMILES IDX 38 44 90 45 84 46 83 47 39 49 71 50 51 51 70 52 52 53 55 54
REMARK SMILES IDX 69 55 88 56 53 57 54 58 68 60 89 61 56 62 40 63 41 64 49 65
REMARK SMILES IDX 42 66 43 67 47 68 50 69 44 70 45 71 48 72 46 73 72 74 73 75
REMARK SMILES IDX 81 76 74 77 75 78 79 79 82 80 76 81 77 82 80 83 78 84 57 85
REMARK SMILES IDX 58 86 66 87 59 88 60 89 64 90 67 91 61 92 62 93 65 94 63 95
REMARK H PARENT 87 48 55 59
REMARK Flexibility Score: inf
ROOT
ATOM      1  C   UNL     1       4.347  -1.205  -0.660  1.00  0.00     0.274 C 
ENDROOT
BRANCH   1   2
ATOM      2  O   UNL     1       3.005  -1.095  -0.133  1.00  0.00    -0.462 OA
BRANCH   2   3
ATOM      3  C   UNL     1       2.462  -0.019   0.479  1.00  0.00     0.307 C 
ATOM      4  O   UNL     1       1.278  -0.018   0.810  1.00  0.00    -0.252 OA
BRANCH   3   5
ATOM      5  C   UNL     1       3.327   1.169   0.798  1.00  0.00     0.144 C 
BRANCH   5   6
ATOM      6  C   UNL     1       3.796   1.132   2.251  1.00  0.00     0.139 C 
BRANCH   6   7
ATOM      7  N   UNL     1       4.906   0.194   2.451  1.00  0.00    -0.292 N 
ATOM      8  C   UNL     1       6.172   0.603   2.069  1.00  0.00     0.266 C 
ATOM      9  C   UNL     1       4.792  -1.099   2.915  1.00  0.00     0.148 C 
ATOM     10  O   UNL     1       6.424   1.670   1.528  1.00  0.00    -0.268 OA
ATOM     11  C   UNL     1       7.160  -0.488   2.296  1.00  0.00     0.084 C 
ATOM     12  S   UNL     1       6.320  -1.946   2.667  1.00  0.00    -0.054 SA
ATOM     13  S   UNL     1       3.468  -1.836   3.603  1.00  0.00    -0.052 S 
ATOM     14  C   UNL     1       8.495  -0.381   2.301  1.00  0.00     0.068 C 
BRANCH  14  15
ATOM     15  C   UNL     1       9.140   0.882   2.392  1.00  0.00     0.128 A 
ATOM     16  C   UNL     1       8.906   1.878   3.336  1.00  0.00     0.051 A 
ATOM     17  O   UNL     1      10.190   1.292   1.596  1.00  0.00    -0.457 OA
ATOM     18  C   UNL     1       9.819   2.920   3.104  1.00  0.00     0.051 A 
ATOM     19  C   UNL     1      10.582   2.522   2.033  1.00  0.00     0.134 A 
BRANCH  19  20
ATOM     20  C   UNL     1      11.699   3.156   1.363  1.00  0.00     0.019 A 
ATOM     21  C   UNL     1      12.826   3.524   2.113  1.00  0.00     0.012 A 
ATOM     22  C   UNL     1      11.622   3.520   0.015  1.00  0.00     0.032 A 
ATOM     23  C   UNL     1      13.857   4.263   1.533  1.00  0.00     0.002 A 
ATOM     24  C   UNL     1      12.650   4.271  -0.556  1.00  0.00     0.041 A 
ATOM     25  C   UNL     1      13.763   4.647   0.198  1.00  0.00     0.020 A 
ATOM     26  Cl  UNL     1      12.530   4.776  -2.197  1.00  0.00    -0.084 Cl
ENDBRANCH  19  20
ENDBRANCH  14  15
ENDBRANCH   6   7
ENDBRANCH   5   6
ENDBRANCH   3   5
ENDBRANCH   2   3
ENDBRANCH   1   2
BRANCH   1  27
ATOM     27  C   UNL     1       4.396  -0.928  -2.160  1.00  0.00     0.275 C 
BRANCH  27  28
ATOM     28  O   UNL     1       3.991   0.426  -2.412  1.00  0.00    -0.458 OA
BRANCH  28  29
ATOM     29  C   UNL     1       2.684   0.575  -2.744  1.00  0.00     0.338 C 
ATOM     30  O   UNL     1       1.877  -0.305  -2.966  1.00  0.00    -0.246 OA
BRANCH  29  31
ATOM     31  C   UNL     1       2.325   2.002  -2.623  1.00  0.00     0.060 A 
ATOM     32  C   UNL     1       1.092   2.320  -2.039  1.00  0.00     0.016 A 
ATOM     33  C   UNL     1       3.175   3.012  -3.081  1.00  0.00     0.016 A 
ATOM     34  C   UNL     1       0.688   3.651  -1.950  1.00  0.00     0.010 A 
ATOM     35  C   UNL     1       2.768   4.344  -2.993  1.00  0.00     0.010 A 
ATOM     36  C   UNL     1       1.510   4.666  -2.456  1.00  0.00    -0.014 A 
BRANCH  36  37
ATOM     37  C   UNL     1       0.999   6.051  -2.560  1.00  0.00     0.031 A 
ATOM     38  C   UNL     1       0.447   6.520  -3.877  1.00  0.00     0.074 A 
ATOM     39  C   UNL     1       1.031   6.878  -1.501  1.00  0.00     0.049 A 
ATOM     40  N   UNL     1      -0.016   7.696  -4.212  1.00  0.00    -0.248 NA
ATOM     41  C   UNL     1       0.420   5.528  -4.965  1.00  0.00     0.031 C 
ATOM     42  C   UNL     1       1.525   6.528  -0.171  1.00  0.00     0.029 A 
ATOM     43  N   UNL     1       0.649   8.191  -1.386  1.00  0.00    -0.354 N 
ATOM     44  C   UNL     1      -0.391   7.586  -5.545  1.00  0.00     0.074 A 
ATOM     45  C   UNL     1      -0.070   6.241  -5.968  1.00  0.00     0.031 C 
ATOM     46  C   UNL     1       1.430   7.607   0.626  1.00  0.00     0.029 A 
ATOM     47  C   UNL     1       0.894   8.727  -0.146  1.00  0.00     0.049 A 
ATOM     48  H   UNL     1       0.238   8.699  -2.122  1.00  0.00     0.167 HD
ATOM     49  C   UNL     1      -0.964   8.521  -6.338  1.00  0.00     0.037 A 
ATOM     50  C   UNL     1       0.720   9.986   0.302  1.00  0.00     0.037 A 
ATOM     51  C   UNL     1      -1.279   9.859  -5.914  1.00  0.00     0.049 A 
ATOM     52  C   UNL     1       0.141  11.025  -0.624  1.00  0.00     0.074 A 
ATOM     53  C   UNL     1      -1.885  10.872  -6.636  1.00  0.00     0.029 A 
ATOM     54  N   UNL     1      -1.002  10.372  -4.656  1.00  0.00    -0.354 N 
ATOM     55  N   UNL     1      -0.259  10.900  -1.866  1.00  0.00    -0.248 NA
ATOM     56  C   UNL     1      -0.015  12.383  -0.081  1.00  0.00     0.031 C 
ATOM     57  C   UNL     1      -1.927  12.015  -5.831  1.00  0.00     0.029 A 
ATOM     58  C   UNL     1      -1.399  11.698  -4.590  1.00  0.00     0.049 A 
ATOM     59  H   UNL     1      -0.586   9.869  -3.919  1.00  0.00     0.167 HD
ATOM     60  C   UNL     1      -0.743  12.147  -2.241  1.00  0.00     0.074 A 
ATOM     61  C   UNL     1      -0.599  13.013  -1.090  1.00  0.00     0.031 C 
ATOM     62  C   UNL     1      -1.260  12.541  -3.431  1.00  0.00     0.037 A 
BRANCH  49  63
ATOM     63  C   UNL     1      -1.273   8.135  -7.754  1.00  0.00     0.064 A 
ATOM     64  C   UNL     1      -2.320   7.255  -8.064  1.00  0.00     0.173 A 
ATOM     65  C   UNL     1      -0.545   8.691  -8.816  1.00  0.00     0.173 A 
ATOM     66  F   UNL     1      -3.037   6.686  -7.083  1.00  0.00    -0.203 F 
ATOM     67  C   UNL     1      -2.615   6.931  -9.386  1.00  0.00     0.198 A 
ATOM     68  C   UNL     1      -0.860   8.386 -10.137  1.00  0.00     0.198 A 
ATOM     69  F   UNL     1       0.465   9.540  -8.573  1.00  0.00    -0.203 F 
ATOM     70  F   UNL     1      -3.595   6.058  -9.658  1.00  0.00    -0.200 F 
ATOM     71  C   UNL     1      -1.890   7.503 -10.421  1.00  0.00     0.200 A 
ATOM     72  F   UNL     1      -0.166   8.949 -11.137  1.00  0.00    -0.200 F 
ATOM     73  F   UNL     1      -2.183   7.199 -11.693  1.00  0.00    -0.200 F 
ENDBRANCH  49  63
BRANCH  50  74
ATOM     74  C   UNL     1       1.105  10.345   1.693  1.00  0.00     0.064 A 
ATOM     75  C   UNL     1       0.138  10.702   2.643  1.00  0.00     0.173 A 
ATOM     76  C   UNL     1       2.451  10.378   2.088  1.00  0.00     0.173 A 
ATOM     77  F   UNL     1      -1.160  10.711   2.305  1.00  0.00    -0.203 F 
ATOM     78  C   UNL     1       0.503  11.106   3.925  1.00  0.00     0.198 A 
ATOM     79  C   UNL     1       2.813  10.753   3.381  1.00  0.00     0.198 A 
ATOM     80  F   UNL     1       3.416  10.047   1.218  1.00  0.00    -0.203 F 
ATOM     81  F   UNL     1      -0.438  11.499   4.795  1.00  0.00    -0.200 F 
ATOM     82  C   UNL     1       1.840  11.128   4.294  1.00  0.00     0.200 A 
ATOM     83  F   UNL     1       4.104  10.762   3.736  1.00  0.00    -0.200 F 
ATOM     84  F   UNL     1       2.191  11.521   5.526  1.00  0.00    -0.200 F 
ENDBRANCH  50  74
BRANCH  62  85
ATOM     85  C   UNL     1      -1.748  13.957  -3.538  1.00  0.00     0.064 A 
ATOM     86  C   UNL     1      -0.860  15.042  -3.580  1.00  0.00     0.173 A 
ATOM     87  C   UNL     1      -3.121  14.228  -3.649  1.00  0.00     0.173 A 
ATOM     88  F   UNL     1       0.461  14.838  -3.464  1.00  0.00    -0.203 F 
ATOM     89  C   UNL     1      -1.330  16.347  -3.702  1.00  0.00     0.198 A 
ATOM     90  C   UNL     1      -3.585  15.531  -3.802  1.00  0.00     0.198 A 
ATOM     91  F   UNL     1      -4.012  13.226  -3.623  1.00  0.00    -0.203 F 
ATOM     92  F   UNL     1      -0.466  17.372  -3.692  1.00  0.00    -0.200 F 
ATOM     93  C   UNL     1      -2.690  16.590  -3.821  1.00  0.00     0.200 A 
ATOM     94  F   UNL     1      -4.899  15.762  -3.933  1.00  0.00    -0.200 F 
ATOM     95  F   UNL     1      -3.140  17.846  -3.948  1.00  0.00    -0.200 F 
ENDBRANCH  62  85
ENDBRANCH  36  37
ENDBRANCH  29  31
ENDBRANCH  28  29
ENDBRANCH  27  28
ENDBRANCH   1  27
TORSDOF 15
