REMARK SMILES Cc1ccc2nc(C(=O)OCCOC(=O)c3ccc(-c4c5nc(c(-c6c(F)c(F)c(F)c(F)c6F)c6ccc([nH]6)c(-c6c(F)c(F)c(F)c(F)c6F)c6nc(c(-c7c(F)c(F)c(F)c(F)c7F)c7ccc4[nH]7)C=C6)C=C5)cc3)cc(N3CCOCC3)c2c1
REMARK SMILES IDX 12 1 11 2 10 3 8 4 9 5 7 6 1 7 2 8 3 9 88 10 4 11 87 12 5 13
REMARK SMILES IDX 80 14 6 15 79 16 81 17 82 18 86 19 83 20 85 21 84 22 13 23
REMARK SMILES IDX 14 24 15 25 16 26 17 27 78 28 18 29 77 30 19 31 20 32 21 33
REMARK SMILES IDX 71 34 22 35 76 36 70 37 72 38 23 39 75 40 69 41 68 42 24 44
REMARK SMILES IDX 56 45 36 46 55 47 37 48 40 49 54 50 73 51 38 52 39 53 53 55
REMARK SMILES IDX 74 56 41 57 25 58 26 59 34 60 27 61 28 62 32 63 35 64 29 65
REMARK SMILES IDX 30 66 33 67 31 68 57 69 58 70 66 71 59 72 60 73 64 74 67 75
REMARK SMILES IDX 61 76 62 77 65 78 63 79 42 80 43 81 51 82 44 83 45 84 49 85
REMARK SMILES IDX 52 86 46 87 47 88 50 89 48 90
REMARK H PARENT 72 43 40 54
REMARK Flexibility Score: inf
ROOT
ATOM      1  C   UNL     1      -6.574   1.395   1.029  1.00  0.00     0.275 C 
ENDROOT
BRANCH   1   2
ATOM      2  C   UNL     1      -6.305   0.462  -0.156  1.00  0.00     0.275 C 
BRANCH   2   3
ATOM      3  O   UNL     1      -4.994  -0.138  -0.082  1.00  0.00    -0.457 OA
BRANCH   3   4
ATOM      4  C   UNL     1      -4.042   0.463  -0.844  1.00  0.00     0.357 C 
ATOM      5  O   UNL     1      -4.229   1.411  -1.595  1.00  0.00    -0.244 OA
BRANCH   4   6
ATOM      6  C   UNL     1      -2.688  -0.117  -0.584  1.00  0.00     0.151 A 
ATOM      7  C   UNL     1       3.722  -0.717   0.014  1.00  0.00     0.044 C 
ATOM      8  C   UNL     1       2.283  -0.323  -0.121  1.00  0.00    -0.050 A 
ATOM      9  C   UNL     1       1.919   1.002  -0.328  1.00  0.00     0.005 A 
ATOM     10  C   UNL     1       1.275  -1.296  -0.074  1.00  0.00     0.016 A 
ATOM     11  C   UNL     1       0.575   1.328  -0.510  1.00  0.00     0.029 A 
ATOM     12  C   UNL     1      -0.102  -0.970  -0.193  1.00  0.00     0.024 A 
ATOM     13  C   UNL     1      -0.427   0.370  -0.462  1.00  0.00     0.073 A 
ATOM     14  C   UNL     1      -1.175  -1.911  -0.099  1.00  0.00     0.049 A 
ATOM     15  N   UNL     1      -1.676   0.778  -0.686  1.00  0.00    -0.241 NA
ATOM     16  C   UNL     1      -2.487  -1.453  -0.289  1.00  0.00     0.062 A 
BRANCH  14  17
ATOM     17  N   UNL     1      -0.926  -3.256   0.154  1.00  0.00    -0.366 N 
ATOM     18  C   UNL     1      -0.377  -3.658   1.462  1.00  0.00     0.145 C 
ATOM     19  C   UNL     1      -1.706  -4.313  -0.505  1.00  0.00     0.145 C 
ATOM     20  C   UNL     1       0.444  -4.946   1.276  1.00  0.00     0.181 C 
ATOM     21  C   UNL     1      -0.840  -5.580  -0.606  1.00  0.00     0.181 C 
ATOM     22  O   UNL     1      -0.347  -5.991   0.682  1.00  0.00    -0.378 OA
ENDBRANCH  14  17
ENDBRANCH   4   6
ENDBRANCH   3   4
ENDBRANCH   2   3
ENDBRANCH   1   2
BRANCH   1  23
ATOM     23  O   UNL     1      -5.728   2.561   0.990  1.00  0.00    -0.458 OA
BRANCH  23  24
ATOM     24  C   UNL     1      -4.690   2.551   1.858  1.00  0.00     0.338 C 
ATOM     25  O   UNL     1      -4.414   1.692   2.677  1.00  0.00    -0.246 OA
BRANCH  24  26
ATOM     26  C   UNL     1      -3.836   3.726   1.627  1.00  0.00     0.060 A 
ATOM     27  C   UNL     1      -2.716   3.560   0.820  1.00  0.00     0.016 A 
ATOM     28  C   UNL     1      -4.041   4.930   2.299  1.00  0.00     0.016 A 
ATOM     29  C   UNL     1      -1.765   4.566   0.710  1.00  0.00     0.010 A 
ATOM     30  C   UNL     1      -3.106   5.966   2.152  1.00  0.00     0.010 A 
ATOM     31  C   UNL     1      -1.946   5.782   1.375  1.00  0.00    -0.014 A 
BRANCH  31  32
ATOM     32  C   UNL     1      -0.883   6.818   1.291  1.00  0.00     0.031 A 
ATOM     33  C   UNL     1      -0.080   7.176   2.510  1.00  0.00     0.074 A 
ATOM     34  C   UNL     1      -0.584   7.385   0.106  1.00  0.00     0.049 A 
ATOM     35  N   UNL     1       0.829   8.107   2.662  1.00  0.00    -0.248 NA
ATOM     36  C   UNL     1      -0.332   6.381   3.721  1.00  0.00     0.031 C 
ATOM     37  C   UNL     1      -1.235   7.075  -1.167  1.00  0.00     0.029 A 
ATOM     38  N   UNL     1       0.357   8.330  -0.223  1.00  0.00    -0.354 N 
ATOM     39  C   UNL     1       1.224   8.038   3.991  1.00  0.00     0.074 A 
ATOM     40  C   UNL     1       0.457   6.975   4.606  1.00  0.00     0.031 C 
ATOM     41  C   UNL     1      -0.655   7.791  -2.142  1.00  0.00     0.029 A 
ATOM     42  C   UNL     1       0.360   8.660  -1.556  1.00  0.00     0.049 A 
ATOM     43  H   UNL     1       0.971   8.731   0.434  1.00  0.00     0.167 HD
ATOM     44  C   UNL     1       2.143   8.794   4.638  1.00  0.00     0.037 A 
ATOM     45  C   UNL     1       1.078   9.582  -2.226  1.00  0.00     0.037 A 
ATOM     46  C   UNL     1       2.938   9.820   4.016  1.00  0.00     0.049 A 
ATOM     47  C   UNL     1       2.060  10.438  -1.476  1.00  0.00     0.074 A 
ATOM     48  C   UNL     1       3.898  10.636   4.589  1.00  0.00     0.029 A 
ATOM     49  N   UNL     1       2.873  10.162   2.673  1.00  0.00    -0.354 N 
ATOM     50  N   UNL     1       2.388  10.402  -0.208  1.00  0.00    -0.248 NA
ATOM     51  C   UNL     1       2.759  11.475  -2.248  1.00  0.00     0.031 C 
ATOM     52  C   UNL     1       4.391  11.495   3.600  1.00  0.00     0.029 A 
ATOM     53  C   UNL     1       3.766  11.188   2.403  1.00  0.00     0.049 A 
ATOM     54  H   UNL     1       2.281   9.739   2.011  1.00  0.00     0.167 HD
ATOM     55  C   UNL     1       3.332  11.403  -0.030  1.00  0.00     0.074 A 
ATOM     56  C   UNL     1       3.544  12.015  -1.326  1.00  0.00     0.031 C 
ATOM     57  C   UNL     1       3.962  11.786   1.107  1.00  0.00     0.037 A 
BRANCH  44  58
ATOM     58  C   UNL     1       2.311   8.566   6.111  1.00  0.00     0.064 A 
ATOM     59  C   UNL     1       2.973   7.438   6.617  1.00  0.00     0.173 A 
ATOM     60  C   UNL     1       1.823   9.509   7.029  1.00  0.00     0.173 A 
ATOM     61  F   UNL     1       3.444   6.501   5.781  1.00  0.00    -0.203 F 
ATOM     62  C   UNL     1       3.119   7.251   7.989  1.00  0.00     0.198 A 
ATOM     63  C   UNL     1       1.993   9.331   8.399  1.00  0.00     0.198 A 
ATOM     64  F   UNL     1       1.186  10.608   6.595  1.00  0.00    -0.203 F 
ATOM     65  F   UNL     1       3.719   6.146   8.453  1.00  0.00    -0.200 F 
ATOM     66  C   UNL     1       2.635   8.200   8.878  1.00  0.00     0.200 A 
ATOM     67  F   UNL     1       1.532  10.254   9.255  1.00  0.00    -0.200 F 
ATOM     68  F   UNL     1       2.780   8.020  10.198  1.00  0.00    -0.200 F 
ENDBRANCH  44  58
BRANCH  45  69
ATOM     69  C   UNL     1       0.866   9.764  -3.685  1.00  0.00     0.064 A 
ATOM     70  C   UNL     1       1.854   9.400  -4.609  1.00  0.00     0.173 A 
ATOM     71  C   UNL     1      -0.330  10.301  -4.184  1.00  0.00     0.173 A 
ATOM     72  F   UNL     1       3.026   8.911  -4.179  1.00  0.00    -0.203 F 
ATOM     73  C   UNL     1       1.655   9.572  -5.978  1.00  0.00     0.198 A 
ATOM     74  C   UNL     1      -0.539  10.446  -5.553  1.00  0.00     0.198 A 
ATOM     75  F   UNL     1      -1.304  10.671  -3.339  1.00  0.00    -0.203 F 
ATOM     76  F   UNL     1       2.630   9.252  -6.840  1.00  0.00    -0.200 F 
ATOM     77  C   UNL     1       0.456  10.086  -6.449  1.00  0.00     0.200 A 
ATOM     78  F   UNL     1      -1.702  10.935  -6.003  1.00  0.00    -0.200 F 
ATOM     79  F   UNL     1       0.263  10.244  -7.765  1.00  0.00    -0.200 F 
ENDBRANCH  45  69
BRANCH  57  80
ATOM     80  C   UNL     1       4.950  12.908   0.996  1.00  0.00     0.064 A 
ATOM     81  C   UNL     1       4.531  14.237   0.844  1.00  0.00     0.173 A 
ATOM     82  C   UNL     1       6.327  12.655   1.076  1.00  0.00     0.173 A 
ATOM     83  F   UNL     1       3.225  14.526   0.746  1.00  0.00    -0.203 F 
ATOM     84  C   UNL     1       5.458  15.272   0.754  1.00  0.00     0.198 A 
ATOM     85  C   UNL     1       7.250  13.695   1.009  1.00  0.00     0.198 A 
ATOM     86  F   UNL     1       6.777  11.400   1.225  1.00  0.00    -0.203 F 
ATOM     87  F   UNL     1       5.038  16.531   0.568  1.00  0.00    -0.200 F 
ATOM     88  C   UNL     1       6.816  15.001   0.843  1.00  0.00     0.200 A 
ATOM     89  F   UNL     1       8.561  13.432   1.103  1.00  0.00    -0.200 F 
ATOM     90  F   UNL     1       7.706  15.999   0.759  1.00  0.00    -0.200 F 
ENDBRANCH  57  80
ENDBRANCH  31  32
ENDBRANCH  24  26
ENDBRANCH  23  24
ENDBRANCH   1  23
TORSDOF 12
