REMARK SMILES CN(C(=O)CCCCC(=O)OCCOC(=O)c1ccc(-c2c3nc(c(-c4c(F)c(F)c(F)c(F)c4F)c4ccc([nH]4)c(-c4c(F)c(F)c(F)c(F)c4F)c4nc(c(-c5c(F)c(F)c(F)c(F)c5F)c5ccc2[nH]5)C=C4)C=C3)cc1)C1CC[NH+](C)CC1
REMARK SMILES IDX 9 1 10 2 8 3 7 4 6 5 5 6 3 7 4 8 2 9 1 10 80 11 84 12 83 13
REMARK SMILES IDX 82 14 85 15 81 17 86 18 11 19 12 20 13 21 14 22 15 23 16 24
REMARK SMILES IDX 17 25 18 26 79 27 19 28 78 29 20 30 21 31 22 32 72 33 23 34
REMARK SMILES IDX 77 35 71 36 73 37 24 38 76 39 70 40 69 41 25 43 57 44 37 45
REMARK SMILES IDX 56 46 38 47 41 48 55 49 74 50 39 51 40 52 54 54 75 55 42 56
REMARK SMILES IDX 26 57 27 58 35 59 28 60 29 61 33 62 36 63 30 64 31 65 34 66
REMARK SMILES IDX 32 67 58 68 59 69 67 70 60 71 61 72 65 73 68 74 62 75 63 76
REMARK SMILES IDX 66 77 64 78 43 79 44 80 52 81 45 82 46 83 50 84 53 85 47 86
REMARK SMILES IDX 48 87 51 88 49 89
REMARK H PARENT 83 16 73 42 41 53
REMARK Flexibility Score: inf
ROOT
ATOM      1  C   UNL     1       8.167   0.338   0.429  1.00  0.00     0.305 C 
ATOM      2  O   UNL     1       8.842   1.104  -0.251  1.00  0.00    -0.252 OA
ENDROOT
BRANCH   1   3
ATOM      3  C   UNL     1       6.700   0.144   0.160  1.00  0.00     0.123 C 
BRANCH   3   4
ATOM      4  C   UNL     1       6.024  -1.105   0.722  1.00  0.00     0.012 C 
BRANCH   4   5
ATOM      5  C   UNL     1       5.396  -0.919   2.103  1.00  0.00     0.010 C 
BRANCH   5   6
ATOM      6  C   UNL     1       4.431   0.259   2.260  1.00  0.00     0.100 C 
BRANCH   6   7
ATOM      7  C   UNL     1       3.018   0.002   1.755  1.00  0.00     0.222 C 
ATOM      8  O   UNL     1       2.195  -0.410   2.576  1.00  0.00    -0.275 OA
BRANCH   7   9
ATOM      9  N   UNL     1       2.693   0.243   0.422  1.00  0.00    -0.342 N 
ATOM     10  C   UNL     1       3.573   0.901  -0.534  1.00  0.00     0.147 C 
BRANCH   9  11
ATOM     11  C   UNL     1       1.304   0.067  -0.053  1.00  0.00     0.095 C 
ATOM     12  C   UNL     1      -2.968  -0.169  -0.239  1.00  0.00     0.332 C 
ATOM     13  N   UNL     1      -1.581  -0.102   0.213  1.00  0.00    -0.337 N 
ATOM     14  C   UNL     1      -0.957   1.151  -0.218  1.00  0.00     0.264 C 
ATOM     15  C   UNL     1      -0.818  -1.273  -0.240  1.00  0.00     0.264 C 
ATOM     16  H   UNL     1      -1.577  -0.116   1.233  1.00  0.00     0.347 HD
ATOM     17  C   UNL     1       0.452   1.274   0.347  1.00  0.00     0.086 C 
ATOM     18  C   UNL     1       0.610  -1.251   0.314  1.00  0.00     0.086 C 
ENDBRANCH   9  11
ENDBRANCH   7   9
ENDBRANCH   6   7
ENDBRANCH   5   6
ENDBRANCH   4   5
ENDBRANCH   3   4
ENDBRANCH   1   3
BRANCH   1  19
ATOM     19  O   UNL     1       8.620  -0.375   1.485  1.00  0.00    -0.462 OA
BRANCH  19  20
ATOM     20  C   UNL     1      10.034  -0.285   1.721  1.00  0.00     0.274 C 
BRANCH  20  21
ATOM     21  C   UNL     1      10.780  -1.428   1.028  1.00  0.00     0.275 C 
BRANCH  21  22
ATOM     22  O   UNL     1      10.679  -1.347  -0.409  1.00  0.00    -0.458 OA
BRANCH  22  23
ATOM     23  C   UNL     1       9.755  -2.154  -0.974  1.00  0.00     0.338 C 
ATOM     24  O   UNL     1       9.010  -2.945  -0.411  1.00  0.00    -0.246 OA
BRANCH  23  25
ATOM     25  C   UNL     1       9.675  -1.905  -2.419  1.00  0.00     0.060 A 
ATOM     26  C   UNL     1       8.650  -1.090  -2.901  1.00  0.00     0.016 A 
ATOM     27  C   UNL     1      10.510  -2.580  -3.307  1.00  0.00     0.016 A 
ATOM     28  C   UNL     1       8.429  -0.965  -4.268  1.00  0.00     0.010 A 
ATOM     29  C   UNL     1      10.314  -2.424  -4.684  1.00  0.00     0.010 A 
ATOM     30  C   UNL     1       9.261  -1.628  -5.175  1.00  0.00    -0.014 A 
BRANCH  30  31
ATOM     31  C   UNL     1       9.007  -1.521  -6.634  1.00  0.00     0.031 A 
ATOM     32  C   UNL     1       8.572  -2.732  -7.408  1.00  0.00     0.074 A 
ATOM     33  C   UNL     1       9.152  -0.339  -7.261  1.00  0.00     0.049 A 
ATOM     34  N   UNL     1       8.474  -2.897  -8.703  1.00  0.00    -0.248 NA
ATOM     35  C   UNL     1       8.199  -3.916  -6.620  1.00  0.00     0.031 C 
ATOM     36  C   UNL     1       9.499   0.926  -6.614  1.00  0.00     0.029 A 
ATOM     37  N   UNL     1       9.028  -0.011  -8.588  1.00  0.00    -0.354 N 
ATOM     38  C   UNL     1       8.075  -4.214  -8.886  1.00  0.00     0.074 A 
ATOM     39  C   UNL     1       7.944  -4.804  -7.570  1.00  0.00     0.031 C 
ATOM     40  C   UNL     1       9.552   1.894  -7.542  1.00  0.00     0.029 A 
ATOM     41  C   UNL     1       9.315   1.305  -8.855  1.00  0.00     0.049 A 
ATOM     42  H   UNL     1       8.760  -0.657  -9.281  1.00  0.00     0.167 HD
ATOM     43  C   UNL     1       7.845  -4.869 -10.049  1.00  0.00     0.037 A 
ATOM     44  C   UNL     1       9.419   1.953 -10.031  1.00  0.00     0.037 A 
ATOM     45  C   UNL     1       7.944  -4.266 -11.353  1.00  0.00     0.049 A 
ATOM     46  C   UNL     1       9.213   1.192 -11.310  1.00  0.00     0.074 A 
ATOM     47  C   UNL     1       7.737  -4.846 -12.593  1.00  0.00     0.029 A 
ATOM     48  N   UNL     1       8.267  -2.937 -11.583  1.00  0.00    -0.354 N 
ATOM     49  N   UNL     1       8.899  -0.069 -11.480  1.00  0.00    -0.248 NA
ATOM     50  C   UNL     1       9.396   1.940 -12.562  1.00  0.00     0.031 C 
ATOM     51  C   UNL     1       7.963  -3.874 -13.574  1.00  0.00     0.029 A 
ATOM     52  C   UNL     1       8.274  -2.680 -12.944  1.00  0.00     0.049 A 
ATOM     53  H   UNL     1       8.463  -2.274 -10.882  1.00  0.00     0.167 HD
ATOM     54  C   UNL     1       8.833  -0.264 -12.852  1.00  0.00     0.074 A 
ATOM     55  C   UNL     1       9.124   1.013 -13.470  1.00  0.00     0.031 C 
ATOM     56  C   UNL     1       8.561  -1.400 -13.539  1.00  0.00     0.037 A 
BRANCH  43  57
ATOM     57  C   UNL     1       7.500  -6.326  -9.967  1.00  0.00     0.064 A 
ATOM     58  C   UNL     1       6.238  -6.764  -9.541  1.00  0.00     0.173 A 
ATOM     59  C   UNL     1       8.439  -7.296 -10.351  1.00  0.00     0.173 A 
ATOM     60  F   UNL     1       5.312  -5.877  -9.148  1.00  0.00    -0.203 F 
ATOM     61  C   UNL     1       5.936  -8.123  -9.482  1.00  0.00     0.198 A 
ATOM     62  C   UNL     1       8.125  -8.651 -10.314  1.00  0.00     0.198 A 
ATOM     63  F   UNL     1       9.659  -6.927 -10.769  1.00  0.00    -0.203 F 
ATOM     64  F   UNL     1       4.738  -8.522  -9.034  1.00  0.00    -0.200 F 
ATOM     65  C   UNL     1       6.877  -9.064  -9.875  1.00  0.00     0.200 A 
ATOM     66  F   UNL     1       9.032  -9.559 -10.702  1.00  0.00    -0.200 F 
ATOM     67  F   UNL     1       6.582 -10.371  -9.822  1.00  0.00    -0.200 F 
ENDBRANCH  43  57
BRANCH  44  68
ATOM     68  C   UNL     1       9.774   3.395 -10.049  1.00  0.00     0.064 A 
ATOM     69  C   UNL     1       8.835   4.362 -10.430  1.00  0.00     0.173 A 
ATOM     70  C   UNL     1      11.055   3.835  -9.681  1.00  0.00     0.173 A 
ATOM     71  F   UNL     1       7.607   3.986 -10.816  1.00  0.00    -0.203 F 
ATOM     72  C   UNL     1       9.165   5.715 -10.449  1.00  0.00     0.198 A 
ATOM     73  C   UNL     1      11.375   5.191  -9.675  1.00  0.00     0.198 A 
ATOM     74  F   UNL     1      11.990   2.948  -9.312  1.00  0.00    -0.203 F 
ATOM     75  F   UNL     1       8.259   6.617 -10.851  1.00  0.00    -0.200 F 
ATOM     76  C   UNL     1      10.431   6.129 -10.064  1.00  0.00     0.200 A 
ATOM     77  F   UNL     1      12.596   5.587  -9.291  1.00  0.00    -0.200 F 
ATOM     78  F   UNL     1      10.745   7.432 -10.073  1.00  0.00    -0.200 F 
ENDBRANCH  44  68
BRANCH  56  79
ATOM     79  C   UNL     1       8.534  -1.303 -15.034  1.00  0.00     0.064 A 
ATOM     80  C   UNL     1       9.716  -1.210 -15.782  1.00  0.00     0.173 A 
ATOM     81  C   UNL     1       7.314  -1.335 -15.725  1.00  0.00     0.173 A 
ATOM     82  F   UNL     1      10.905  -1.159 -15.163  1.00  0.00    -0.203 F 
ATOM     83  C   UNL     1       9.676  -1.133 -17.172  1.00  0.00     0.198 A 
ATOM     84  C   UNL     1       7.280  -1.280 -17.116  1.00  0.00     0.198 A 
ATOM     85  F   UNL     1       6.158  -1.426 -15.052  1.00  0.00    -0.203 F 
ATOM     86  F   UNL     1      10.815  -1.005 -17.867  1.00  0.00    -0.200 F 
ATOM     87  C   UNL     1       8.459  -1.174 -17.837  1.00  0.00     0.200 A 
ATOM     88  F   UNL     1       6.104  -1.328 -17.757  1.00  0.00    -0.200 F 
ATOM     89  F   UNL     1       8.423  -1.102 -19.175  1.00  0.00    -0.200 F 
ENDBRANCH  56  79
ENDBRANCH  30  31
ENDBRANCH  23  25
ENDBRANCH  22  23
ENDBRANCH  21  22
ENDBRANCH  20  21
ENDBRANCH  19  20
ENDBRANCH   1  19
TORSDOF 17
