REMARK SMILES O=C(OCCOC(=O)c1cc(-c2ccn(C(F)F)c(=O)c2)ccc1O)c1ccc(-c2c3nc(c(-c4c(F)c(F)c(F)c(F)c4F)c4ccc([nH]4)c(-c4c(F)c(F)c(F)c(F)c4F)c4nc(c(-c5c(F)c(F)c(F)c(F)c5F)c5ccc2[nH]5)C=C4)C=C3)cc1
REMARK SMILES IDX 4 1 3 2 2 3 1 4 26 5 27 6 88 7 28 8 87 9 29 10 30 11 31 12
REMARK SMILES IDX 81 13 32 14 86 15 80 16 82 17 33 18 85 19 79 20 78 21 34 23
REMARK SMILES IDX 66 24 46 25 65 26 47 27 50 28 64 29 83 30 48 31 49 32 63 34
REMARK SMILES IDX 84 35 51 36 35 37 36 38 44 39 37 40 38 41 42 42 45 43 39 44
REMARK SMILES IDX 40 45 43 46 41 47 67 48 68 49 76 50 69 51 70 52 74 53 77 54
REMARK SMILES IDX 71 55 72 56 75 57 73 58 52 59 53 60 61 61 54 62 55 63 59 64
REMARK SMILES IDX 62 65 56 66 57 67 60 68 58 69 5 70 6 71 7 72 8 73 9 74 10 75
REMARK SMILES IDX 24 76 11 77 23 78 22 79 25 80 12 82 13 83 21 84 14 85 19 86
REMARK SMILES IDX 15 87 20 88 16 89 17 90 18 91
REMARK H PARENT 82 22 50 33 25 81
REMARK Flexibility Score: inf
ROOT
ATOM      1  C   UNL     1       4.281  -1.266   0.890  1.00  0.00     0.275 C 
ENDROOT
BRANCH   1   2
ATOM      2  O   UNL     1       3.490  -0.122   1.235  1.00  0.00    -0.458 OA
BRANCH   2   3
ATOM      3  C   UNL     1       3.515   1.118   0.696  1.00  0.00     0.338 C 
ATOM      4  O   UNL     1       2.961   2.039   1.292  1.00  0.00    -0.246 OA
BRANCH   3   5
ATOM      5  C   UNL     1       4.007   1.385  -0.691  1.00  0.00     0.060 A 
ATOM      6  C   UNL     1       3.263   2.326  -1.411  1.00  0.00     0.016 A 
ATOM      7  C   UNL     1       5.117   0.822  -1.322  1.00  0.00     0.016 A 
ATOM      8  C   UNL     1       3.525   2.595  -2.756  1.00  0.00     0.010 A 
ATOM      9  C   UNL     1       5.416   1.123  -2.663  1.00  0.00     0.010 A 
ATOM     10  C   UNL     1       4.610   1.994  -3.401  1.00  0.00    -0.014 A 
BRANCH  10  11
ATOM     11  C   UNL     1       4.978   2.415  -4.778  1.00  0.00     0.031 A 
ATOM     12  C   UNL     1       4.889   1.491  -5.958  1.00  0.00     0.074 A 
ATOM     13  C   UNL     1       5.380   3.686  -4.961  1.00  0.00     0.049 A 
ATOM     14  N   UNL     1       4.991   1.772  -7.234  1.00  0.00    -0.248 NA
ATOM     15  C   UNL     1       4.618   0.076  -5.686  1.00  0.00     0.031 C 
ATOM     16  C   UNL     1       5.498   4.689  -3.902  1.00  0.00     0.029 A 
ATOM     17  N   UNL     1       5.763   4.350  -6.096  1.00  0.00    -0.354 N 
ATOM     18  C   UNL     1       4.676   0.600  -7.909  1.00  0.00     0.074 A 
ATOM     19  C   UNL     1       4.457  -0.418  -6.907  1.00  0.00     0.031 C 
ATOM     20  C   UNL     1       5.907   5.845  -4.438  1.00  0.00     0.029 A 
ATOM     21  C   UNL     1       6.144   5.646  -5.862  1.00  0.00     0.049 A 
ATOM     22  H   UNL     1       5.763   3.938  -6.990  1.00  0.00     0.167 HD
ATOM     23  C   UNL     1       4.572   0.397  -9.244  1.00  0.00     0.037 A 
ATOM     24  C   UNL     1       6.665   6.564  -6.695  1.00  0.00     0.037 A 
ATOM     25  C   UNL     1       5.012   1.346 -10.235  1.00  0.00     0.049 A 
ATOM     26  C   UNL     1       6.844   6.212  -8.139  1.00  0.00     0.074 A 
ATOM     27  C   UNL     1       5.071   1.202 -11.610  1.00  0.00     0.029 A 
ATOM     28  N   UNL     1       5.550   2.592  -9.941  1.00  0.00    -0.354 N 
ATOM     29  N   UNL     1       6.458   5.133  -8.777  1.00  0.00    -0.248 NA
ATOM     30  C   UNL     1       7.542   7.193  -8.976  1.00  0.00     0.031 C 
ATOM     31  C   UNL     1       5.734   2.319 -12.135  1.00  0.00     0.029 A 
ATOM     32  C   UNL     1       6.022   3.191 -11.097  1.00  0.00     0.049 A 
ATOM     33  H   UNL     1       5.589   2.991  -9.042  1.00  0.00     0.167 HD
ATOM     34  C   UNL     1       6.854   5.307 -10.094  1.00  0.00     0.074 A 
ATOM     35  C   UNL     1       7.499   6.605 -10.164  1.00  0.00     0.031 C 
ATOM     36  C   UNL     1       6.693   4.468 -11.147  1.00  0.00     0.037 A 
BRANCH  23  37
ATOM     37  C   UNL     1       4.005  -0.915  -9.703  1.00  0.00     0.064 A 
ATOM     38  C   UNL     1       2.627  -1.173  -9.608  1.00  0.00     0.173 A 
ATOM     39  C   UNL     1       4.817  -1.900 -10.279  1.00  0.00     0.173 A 
ATOM     40  F   UNL     1       1.806  -0.267  -9.056  1.00  0.00    -0.203 F 
ATOM     41  C   UNL     1       2.088  -2.373 -10.069  1.00  0.00     0.198 A 
ATOM     42  C   UNL     1       4.273  -3.093 -10.751  1.00  0.00     0.198 A 
ATOM     43  F   UNL     1       6.139  -1.704 -10.391  1.00  0.00    -0.203 F 
ATOM     44  F   UNL     1       0.773  -2.605  -9.953  1.00  0.00    -0.200 F 
ATOM     45  C   UNL     1       2.910  -3.330 -10.644  1.00  0.00     0.200 A 
ATOM     46  F   UNL     1       5.069  -4.016 -11.309  1.00  0.00    -0.200 F 
ATOM     47  F   UNL     1       2.391  -4.482 -11.091  1.00  0.00    -0.200 F 
ENDBRANCH  23  37
BRANCH  24  48
ATOM     48  C   UNL     1       7.062   7.882  -6.140  1.00  0.00     0.064 A 
ATOM     49  C   UNL     1       6.333   9.038  -6.437  1.00  0.00     0.173 A 
ATOM     50  C   UNL     1       8.115   7.987  -5.216  1.00  0.00     0.173 A 
ATOM     51  F   UNL     1       5.334   8.989  -7.330  1.00  0.00    -0.203 F 
ATOM     52  C   UNL     1       6.625  10.248  -5.811  1.00  0.00     0.198 A 
ATOM     53  C   UNL     1       8.387   9.190  -4.570  1.00  0.00     0.198 A 
ATOM     54  F   UNL     1       8.842   6.905  -4.899  1.00  0.00    -0.203 F 
ATOM     55  F   UNL     1       5.916  11.344  -6.113  1.00  0.00    -0.200 F 
ATOM     56  C   UNL     1       7.640  10.319  -4.866  1.00  0.00     0.200 A 
ATOM     57  F   UNL     1       9.354   9.247  -3.645  1.00  0.00    -0.200 F 
ATOM     58  F   UNL     1       7.896  11.475  -4.239  1.00  0.00    -0.200 F 
ENDBRANCH  24  48
BRANCH  36  59
ATOM     59  C   UNL     1       7.238   4.923 -12.468  1.00  0.00     0.064 A 
ATOM     60  C   UNL     1       8.619   4.978 -12.709  1.00  0.00     0.173 A 
ATOM     61  C   UNL     1       6.373   5.279 -13.513  1.00  0.00     0.173 A 
ATOM     62  F   UNL     1       9.487   4.662 -11.736  1.00  0.00    -0.203 F 
ATOM     63  C   UNL     1       9.114   5.398 -13.940  1.00  0.00     0.198 A 
ATOM     64  C   UNL     1       6.871   5.668 -14.753  1.00  0.00     0.198 A 
ATOM     65  F   UNL     1       5.044   5.237 -13.336  1.00  0.00    -0.203 F 
ATOM     66  F   UNL     1      10.437   5.491 -14.132  1.00  0.00    -0.200 F 
ATOM     67  C   UNL     1       8.240   5.736 -14.963  1.00  0.00     0.200 A 
ATOM     68  F   UNL     1       6.025   5.980 -15.745  1.00  0.00    -0.200 F 
ATOM     69  F   UNL     1       8.718   6.134 -16.150  1.00  0.00    -0.200 F 
ENDBRANCH  36  59
ENDBRANCH  10  11
ENDBRANCH   3   5
ENDBRANCH   2   3
ENDBRANCH   1   2
BRANCH   1  70
ATOM     70  C   UNL     1       3.640  -2.199  -0.141  1.00  0.00     0.275 C 
BRANCH  70  71
ATOM     71  O   UNL     1       3.080  -1.527  -1.283  1.00  0.00    -0.458 OA
BRANCH  71  72
ATOM     72  C   UNL     1       1.756  -1.202  -1.179  1.00  0.00     0.342 C 
ATOM     73  O   UNL     1       1.025  -1.440  -0.243  1.00  0.00    -0.246 OA
BRANCH  72  74
ATOM     74  C   UNL     1       1.345  -0.434  -2.379  1.00  0.00     0.102 A 
ATOM     75  C   UNL     1       0.521   0.695  -2.193  1.00  0.00     0.028 A 
ATOM     76  C   UNL     1       1.762  -0.784  -3.667  1.00  0.00     0.130 A 
ATOM     77  C   UNL     1       0.172   1.510  -3.283  1.00  0.00    -0.017 A 
ATOM     78  C   UNL     1       1.369  -0.014  -4.758  1.00  0.00     0.048 A 
ATOM     79  C   UNL     1       0.605   1.137  -4.565  1.00  0.00     0.012 A 
BRANCH  76  80
ATOM     80  O   UNL     1       2.566  -1.856  -3.944  1.00  0.00    -0.507 OA
ATOM     81  H   UNL     1       2.863  -2.411  -3.250  1.00  0.00     0.293 HD
ENDBRANCH  76  80
BRANCH  77  82
ATOM     82  C   UNL     1      -0.588   2.775  -3.140  1.00  0.00    -0.011 A 
ATOM     83  C   UNL     1      -1.799   3.049  -3.894  1.00  0.00     0.027 A 
ATOM     84  C   UNL     1      -0.091   3.760  -2.372  1.00  0.00     0.080 A 
ATOM     85  C   UNL     1      -2.380   4.255  -3.850  1.00  0.00     0.095 A 
ATOM     86  C   UNL     1      -0.711   5.112  -2.320  1.00  0.00     0.255 A 
ATOM     87  N   UNL     1      -1.853   5.275  -3.080  1.00  0.00    -0.258 N 
ATOM     88  O   UNL     1      -0.166   5.978  -1.643  1.00  0.00    -0.269 OA
BRANCH  87  89
ATOM     89  C   UNL     1      -2.459   6.581  -3.069  1.00  0.00     0.451 C 
ATOM     90  F   UNL     1      -2.767   6.969  -1.808  1.00  0.00    -0.185 F 
ATOM     91  F   UNL     1      -1.622   7.506  -3.600  1.00  0.00    -0.185 F 
ENDBRANCH  87  89
ENDBRANCH  77  82
ENDBRANCH  72  74
ENDBRANCH  71  72
ENDBRANCH  70  71
ENDBRANCH   1  70
TORSDOF 14
