REMARK SMILES C=C(c1ccccc1)[C@@H](C(=O)OCCOC(=O)c1ccc(-c2c3nc(c(-c4c(F)c(F)c(F)c(F)c4F)c4ccc([nH]4)c(-c4c(F)c(F)c(F)c(F)c4F)c4nc(c(-c5c(F)c(F)c(F)c(F)c5F)c5ccc2[nH]5)C=C4)C=C3)cc1)S(C)(=O)=O
REMARK SMILES IDX 13 1 12 2 10 3 11 4 9 5 2 6 1 7 3 8 4 9 8 10 5 11 7 12 6 13
REMARK SMILES IDX 81 14 82 15 83 16 84 17 14 18 15 19 16 20 17 21 18 22 19 23
REMARK SMILES IDX 80 24 20 25 79 26 21 27 22 28 23 29 73 30 24 31 78 32 72 33
REMARK SMILES IDX 74 34 25 35 77 36 71 37 70 38 26 40 58 41 38 42 57 43 39 44
REMARK SMILES IDX 42 45 56 46 75 47 40 48 41 49 55 51 76 52 43 53 27 54 28 55
REMARK SMILES IDX 36 56 29 57 30 58 34 59 37 60 31 61 32 62 35 63 33 64 59 65
REMARK SMILES IDX 60 66 68 67 61 68 62 69 66 70 69 71 63 72 64 73 67 74 65 75
REMARK SMILES IDX 44 76 45 77 53 78 46 79 47 80 51 81 54 82 48 83 49 84 52 85
REMARK SMILES IDX 50 86
REMARK H PARENT 74 39 42 50
REMARK Flexibility Score: inf
ROOT
ATOM      1  C   UNL     1       2.023   1.408  -3.809  1.00  0.00     0.274 C 
ENDROOT
BRANCH   1   2
ATOM      2  O   UNL     1       1.257   0.580  -2.904  1.00  0.00    -0.461 OA
BRANCH   2   3
ATOM      3  C   UNL     1       1.436  -0.772  -3.002  1.00  0.00     0.329 C 
ATOM      4  O   UNL     1       2.163  -1.286  -3.844  1.00  0.00    -0.250 OA
BRANCH   3   5
ATOM      5  C   UNL     1       0.535  -1.560  -2.061  1.00  0.00     0.247 C 
BRANCH   5   6
ATOM      6  C   UNL     1      -0.151  -0.743  -0.968  1.00  0.00    -0.019 C 
ATOM      7  C   UNL     1       0.503  -0.116   0.031  1.00  0.00     0.015 C 
BRANCH   6   8
ATOM      8  C   UNL     1      -1.629  -0.604  -1.045  1.00  0.00    -0.021 A 
ATOM      9  C   UNL     1      -2.458  -1.692  -1.355  1.00  0.00     0.008 A 
ATOM     10  C   UNL     1      -2.237   0.645  -0.837  1.00  0.00     0.008 A 
ATOM     11  C   UNL     1      -3.845  -1.543  -1.438  1.00  0.00     0.001 A 
ATOM     12  C   UNL     1      -3.624   0.794  -0.914  1.00  0.00     0.001 A 
ATOM     13  C   UNL     1      -4.428  -0.301  -1.214  1.00  0.00     0.000 A 
ENDBRANCH   6   8
ENDBRANCH   5   6
BRANCH   5  14
ATOM     14  S   UNL     1       1.465  -2.938  -1.350  1.00  0.00     0.165 S 
ATOM     15  C   UNL     1       0.239  -3.969  -0.590  1.00  0.00     0.159 C 
ATOM     16  O   UNL     1       2.031  -3.752  -2.411  1.00  0.00    -0.228 OA
ATOM     17  O   UNL     1       2.317  -2.474  -0.271  1.00  0.00    -0.228 OA
ENDBRANCH   5  14
ENDBRANCH   3   5
ENDBRANCH   2   3
ENDBRANCH   1   2
BRANCH   1  18
ATOM     18  C   UNL     1       3.225   2.015  -3.087  1.00  0.00     0.275 C 
BRANCH  18  19
ATOM     19  O   UNL     1       4.087   0.948  -2.667  1.00  0.00    -0.458 OA
BRANCH  19  20
ATOM     20  C   UNL     1       4.741   1.121  -1.494  1.00  0.00     0.338 C 
ATOM     21  O   UNL     1       4.778   2.139  -0.825  1.00  0.00    -0.246 OA
BRANCH  20  22
ATOM     22  C   UNL     1       5.391  -0.153  -1.101  1.00  0.00     0.060 A 
ATOM     23  C   UNL     1       4.865  -1.373  -1.519  1.00  0.00     0.016 A 
ATOM     24  C   UNL     1       6.482  -0.146  -0.230  1.00  0.00     0.016 A 
ATOM     25  C   UNL     1       5.351  -2.570  -0.996  1.00  0.00     0.010 A 
ATOM     26  C   UNL     1       7.039  -1.357   0.208  1.00  0.00     0.010 A 
ATOM     27  C   UNL     1       6.459  -2.589  -0.142  1.00  0.00    -0.014 A 
BRANCH  27  28
ATOM     28  C   UNL     1       6.965  -3.886   0.403  1.00  0.00     0.031 A 
ATOM     29  C   UNL     1       7.111  -4.088   1.889  1.00  0.00     0.074 A 
ATOM     30  C   UNL     1       7.265  -4.911  -0.422  1.00  0.00     0.049 A 
ATOM     31  N   UNL     1       7.719  -5.051   2.540  1.00  0.00    -0.248 NA
ATOM     32  C   UNL     1       6.513  -3.066   2.762  1.00  0.00     0.031 C 
ATOM     33  C   UNL     1       7.129  -4.900  -1.879  1.00  0.00     0.029 A 
ATOM     34  N   UNL     1       7.726  -6.178  -0.148  1.00  0.00    -0.354 N 
ATOM     35  C   UNL     1       7.652  -4.705   3.884  1.00  0.00     0.074 A 
ATOM     36  C   UNL     1       6.928  -3.454   3.961  1.00  0.00     0.031 C 
ATOM     37  C   UNL     1       7.425  -6.115  -2.361  1.00  0.00     0.029 A 
ATOM     38  C   UNL     1       7.876  -6.963  -1.265  1.00  0.00     0.049 A 
ATOM     39  H   UNL     1       7.930  -6.491   0.763  1.00  0.00     0.167 HD
ATOM     40  C   UNL     1       8.157  -5.368   4.953  1.00  0.00     0.037 A 
ATOM     41  C   UNL     1       8.360  -8.211  -1.406  1.00  0.00     0.037 A 
ATOM     42  C   UNL     1       8.788  -6.661   4.890  1.00  0.00     0.049 A 
ATOM     43  C   UNL     1       8.890  -8.937  -0.205  1.00  0.00     0.074 A 
ATOM     44  C   UNL     1       9.310  -7.420   5.925  1.00  0.00     0.029 A 
ATOM     45  N   UNL     1       8.952  -7.404   3.731  1.00  0.00    -0.354 N 
ATOM     46  N   UNL     1       8.924  -8.552   1.046  1.00  0.00    -0.248 NA
ATOM     47  C   UNL     1       9.485 -10.261  -0.442  1.00  0.00     0.031 C 
ATOM     48  C   UNL     1       9.808  -8.613   5.389  1.00  0.00     0.029 A 
ATOM     49  C   UNL     1       9.567  -8.612   4.025  1.00  0.00     0.049 A 
ATOM     50  H   UNL     1       8.672  -7.117   2.832  1.00  0.00     0.167 HD
ATOM     51  C   UNL     1       9.552  -9.573   1.742  1.00  0.00     0.074 A 
ATOM     52  C   UNL     1       9.849 -10.615   0.782  1.00  0.00     0.031 C 
ATOM     53  C   UNL     1       9.870  -9.633   3.058  1.00  0.00     0.037 A 
BRANCH  40  54
ATOM     54  C   UNL     1       8.085  -4.691   6.290  1.00  0.00     0.064 A 
ATOM     55  C   UNL     1       6.892  -4.598   7.018  1.00  0.00     0.173 A 
ATOM     56  C   UNL     1       9.254  -4.174   6.873  1.00  0.00     0.173 A 
ATOM     57  F   UNL     1       5.747  -5.067   6.500  1.00  0.00    -0.203 F 
ATOM     58  C   UNL     1       6.866  -3.995   8.274  1.00  0.00     0.198 A 
ATOM     59  C   UNL     1       9.229  -3.595   8.138  1.00  0.00     0.198 A 
ATOM     60  F   UNL     1      10.424  -4.245   6.221  1.00  0.00    -0.203 F 
ATOM     61  F   UNL     1       5.708  -3.885   8.939  1.00  0.00    -0.200 F 
ATOM     62  C   UNL     1       8.035  -3.501   8.836  1.00  0.00     0.200 A 
ATOM     63  F   UNL     1      10.362  -3.131   8.685  1.00  0.00    -0.200 F 
ATOM     64  F   UNL     1       8.009  -2.932  10.049  1.00  0.00    -0.200 F 
ENDBRANCH  40  54
BRANCH  41  65
ATOM     65  C   UNL     1       8.409  -8.833  -2.755  1.00  0.00     0.064 A 
ATOM     66  C   UNL     1       7.573  -9.909  -3.080  1.00  0.00     0.173 A 
ATOM     67  C   UNL     1       9.279  -8.357  -3.747  1.00  0.00     0.173 A 
ATOM     68  F   UNL     1       6.749 -10.422  -2.154  1.00  0.00    -0.203 F 
ATOM     69  C   UNL     1       7.605 -10.485  -4.348  1.00  0.00     0.198 A 
ATOM     70  C   UNL     1       9.288  -8.913  -5.023  1.00  0.00     0.198 A 
ATOM     71  F   UNL     1      10.104  -7.334  -3.481  1.00  0.00    -0.203 F 
ATOM     72  F   UNL     1       6.822 -11.537  -4.625  1.00  0.00    -0.200 F 
ATOM     73  C   UNL     1       8.455  -9.980  -5.321  1.00  0.00     0.200 A 
ATOM     74  F   UNL     1      10.103  -8.415  -5.962  1.00  0.00    -0.200 F 
ATOM     75  F   UNL     1       8.477 -10.527  -6.545  1.00  0.00    -0.200 F 
ENDBRANCH  41  65
BRANCH  53  76
ATOM     76  C   UNL     1      10.579 -10.867   3.526  1.00  0.00     0.064 A 
ATOM     77  C   UNL     1      11.934 -11.082   3.234  1.00  0.00     0.173 A 
ATOM     78  C   UNL     1       9.903 -11.839   4.276  1.00  0.00     0.173 A 
ATOM     79  F   UNL     1      12.617 -10.188   2.504  1.00  0.00    -0.203 F 
ATOM     80  C   UNL     1      12.580 -12.241   3.654  1.00  0.00     0.198 A 
ATOM     81  C   UNL     1      10.558 -12.987   4.713  1.00  0.00     0.198 A 
ATOM     82  F   UNL     1       8.607 -11.677   4.583  1.00  0.00    -0.203 F 
ATOM     83  F   UNL     1      13.862 -12.449   3.323  1.00  0.00    -0.200 F 
ATOM     84  C   UNL     1      11.893 -13.191   4.395  1.00  0.00     0.200 A 
ATOM     85  F   UNL     1       9.895 -13.902   5.434  1.00  0.00    -0.200 F 
ATOM     86  F   UNL     1      12.514 -14.309   4.794  1.00  0.00    -0.200 F 
ENDBRANCH  53  76
ENDBRANCH  27  28
ENDBRANCH  20  22
ENDBRANCH  19  20
ENDBRANCH  18  19
ENDBRANCH   1  18
TORSDOF 14
