REMARK SMILES Cc1cc(Nc2nc3c(c(OCC(=O)OCCOC(=O)c4ccc(-c5c6nc(c(-c7c(F)c(F)c(F)c(F)c7F)c7ccc([nH]7)c(-c7c(F)c(F)c(F)c(F)c7F)c7nc(c(-c8c(F)c(F)c(F)c(F)c8F)c8ccc5[nH]8)C=C7)C=C6)cc4)n2)CCCC3)ccc1Br
REMARK SMILES IDX 16 1 15 2 13 3 14 4 12 5 11 6 10 7 6 8 7 9 84 10 8 11 9 12
REMARK SMILES IDX 88 13 85 14 87 15 86 16 5 17 4 19 1 20 2 21 3 22 91 23 90 24
REMARK SMILES IDX 92 25 89 26 17 27 18 28 19 29 20 30 21 31 22 32 83 33 23 34
REMARK SMILES IDX 82 35 24 36 25 37 26 38 76 39 27 40 81 41 75 42 77 43 28 44
REMARK SMILES IDX 80 45 74 46 73 47 29 49 61 50 41 51 60 52 42 53 45 54 59 55
REMARK SMILES IDX 78 56 43 57 44 58 58 60 79 61 46 62 30 63 31 64 39 65 32 66
REMARK SMILES IDX 33 67 37 68 40 69 34 70 35 71 38 72 36 73 62 74 63 75 71 76
REMARK SMILES IDX 64 77 65 78 69 79 72 80 66 81 67 82 70 83 68 84 47 85 48 86
REMARK SMILES IDX 56 87 49 88 50 89 54 90 57 91 51 92 52 93 55 94 53 95
REMARK H PARENT 5 18 77 48 45 59
REMARK Flexibility Score: inf
ROOT
ATOM      1  C   UNL     1      10.206   0.301  -1.570  1.00  0.00     0.274 C 
ENDROOT
BRANCH   1   2
ATOM      2  O   UNL     1       9.488   1.547  -1.626  1.00  0.00    -0.460 OA
BRANCH   2   3
ATOM      3  C   UNL     1       8.895   1.837  -2.816  1.00  0.00     0.344 C 
ATOM      4  O   UNL     1       9.052   1.201  -3.854  1.00  0.00    -0.248 OA
BRANCH   3   5
ATOM      5  C   UNL     1       7.982   3.049  -2.734  1.00  0.00     0.353 C 
BRANCH   5   6
ATOM      6  O   UNL     1       7.996   3.742  -1.502  1.00  0.00    -0.465 OA
BRANCH   6   7
ATOM      7  C   UNL     1       6.917   3.514  -0.667  1.00  0.00     0.222 A 
ATOM      8  C   UNL     1       5.181   2.242   0.101  1.00  0.00     0.230 A 
ATOM      9  N   UNL     1       4.891   3.149   1.045  1.00  0.00    -0.217 NA
ATOM     10  N   UNL     1       6.213   2.367  -0.757  1.00  0.00    -0.177 NA
ATOM     11  C   UNL     1       5.668   4.240   1.153  1.00  0.00     0.053 A 
ATOM     12  C   UNL     1       6.688   4.505   0.268  1.00  0.00     0.036 A 
ATOM     13  C   UNL     1       5.340   5.172   2.287  1.00  0.00     0.057 C 
ATOM     14  C   UNL     1       7.526   5.746   0.344  1.00  0.00     0.043 C 
ATOM     15  C   UNL     1       6.463   6.168   2.573  1.00  0.00     0.007 C 
ATOM     16  C   UNL     1       6.934   6.807   1.273  1.00  0.00     0.005 C 
BRANCH   8  17
ATOM     17  N   UNL     1       4.396   1.093   0.015  1.00  0.00    -0.324 N 
ATOM     18  H   UNL     1       4.862   0.316  -0.370  1.00  0.00     0.170 HD
BRANCH  17  19
ATOM     19  C   UNL     1       3.065   0.841   0.378  1.00  0.00     0.041 A 
ATOM     20  C   UNL     1       0.781  -2.223   0.518  1.00  0.00     0.045 C 
ATOM     21  C   UNL     1       1.240  -0.797   0.646  1.00  0.00    -0.035 A 
ATOM     22  C   UNL     1       2.588  -0.481   0.381  1.00  0.00     0.030 A 
ATOM     23  C   UNL     1       0.364   0.247   0.965  1.00  0.00     0.021 A 
ATOM     24  C   UNL     1       0.826   1.562   1.011  1.00  0.00     0.018 A 
ATOM     25  Br  UNL     1      -1.476  -0.048   1.319  1.00  0.00    -0.051 Br
ATOM     26  C   UNL     1       2.162   1.852   0.716  1.00  0.00     0.027 A 
ENDBRANCH  17  19
ENDBRANCH   8  17
ENDBRANCH   6   7
ENDBRANCH   5   6
ENDBRANCH   3   5
ENDBRANCH   2   3
ENDBRANCH   1   2
BRANCH   1  27
ATOM     27  C   UNL     1       9.286  -0.786  -1.020  1.00  0.00     0.275 C 
BRANCH  27  28
ATOM     28  O   UNL     1       8.163  -0.943  -1.905  1.00  0.00    -0.458 OA
BRANCH  28  29
ATOM     29  C   UNL     1       6.989  -1.222  -1.301  1.00  0.00     0.338 C 
ATOM     30  O   UNL     1       6.804  -1.458  -0.118  1.00  0.00    -0.246 OA
BRANCH  29  31
ATOM     31  C   UNL     1       5.871  -1.180  -2.266  1.00  0.00     0.060 A 
ATOM     32  C   UNL     1       5.794  -0.198  -3.258  1.00  0.00     0.016 A 
ATOM     33  C   UNL     1       4.796  -2.049  -2.063  1.00  0.00     0.016 A 
ATOM     34  C   UNL     1       4.632  -0.056  -4.018  1.00  0.00     0.010 A 
ATOM     35  C   UNL     1       3.645  -1.928  -2.841  1.00  0.00     0.010 A 
ATOM     36  C   UNL     1       3.551  -0.923  -3.815  1.00  0.00    -0.014 A 
BRANCH  36  37
ATOM     37  C   UNL     1       2.345  -0.862  -4.669  1.00  0.00     0.031 A 
ATOM     38  C   UNL     1       1.051  -0.327  -4.140  1.00  0.00     0.074 A 
ATOM     39  C   UNL     1       2.411  -1.372  -5.910  1.00  0.00     0.049 A 
ATOM     40  N   UNL     1      -0.160  -0.468  -4.616  1.00  0.00    -0.248 NA
ATOM     41  C   UNL     1       1.127   0.468  -2.910  1.00  0.00     0.031 C 
ATOM     42  C   UNL     1       3.628  -1.871  -6.550  1.00  0.00     0.029 A 
ATOM     43  N   UNL     1       1.429  -1.575  -6.843  1.00  0.00    -0.354 N 
ATOM     44  C   UNL     1      -0.998   0.169  -3.710  1.00  0.00     0.074 A 
ATOM     45  C   UNL     1      -0.154   0.724  -2.675  1.00  0.00     0.031 C 
ATOM     46  C   UNL     1       3.320  -2.330  -7.772  1.00  0.00     0.029 A 
ATOM     47  C   UNL     1       1.878  -2.215  -7.970  1.00  0.00     0.049 A 
ATOM     48  H   UNL     1       0.495  -1.290  -6.718  1.00  0.00     0.167 HD
ATOM     49  C   UNL     1      -2.349   0.263  -3.746  1.00  0.00     0.037 A 
ATOM     50  C   UNL     1       1.196  -2.695  -9.025  1.00  0.00     0.037 A 
ATOM     51  C   UNL     1      -3.163  -0.239  -4.824  1.00  0.00     0.049 A 
ATOM     52  C   UNL     1      -0.298  -2.561  -9.054  1.00  0.00     0.074 A 
ATOM     53  C   UNL     1      -4.540  -0.192  -4.964  1.00  0.00     0.029 A 
ATOM     54  N   UNL     1      -2.667  -0.856  -5.963  1.00  0.00    -0.354 N 
ATOM     55  N   UNL     1      -1.097  -2.042  -8.154  1.00  0.00    -0.248 NA
ATOM     56  C   UNL     1      -0.988  -3.091 -10.237  1.00  0.00     0.031 C 
ATOM     57  C   UNL     1      -4.878  -0.799  -6.177  1.00  0.00     0.029 A 
ATOM     58  C   UNL     1      -3.710  -1.189  -6.811  1.00  0.00     0.049 A 
ATOM     59  H   UNL     1      -1.715  -1.031  -6.142  1.00  0.00     0.167 HD
ATOM     60  C   UNL     1      -2.380  -2.176  -8.661  1.00  0.00     0.074 A 
ATOM     61  C   UNL     1      -2.254  -2.809  -9.958  1.00  0.00     0.031 C 
ATOM     62  C   UNL     1      -3.558  -1.816  -8.098  1.00  0.00     0.037 A 
BRANCH  49  63
ATOM     63  C   UNL     1      -3.052   0.902  -2.584  1.00  0.00     0.064 A 
ATOM     64  C   UNL     1      -3.042   2.288  -2.380  1.00  0.00     0.173 A 
ATOM     65  C   UNL     1      -3.835   0.117  -1.721  1.00  0.00     0.173 A 
ATOM     66  F   UNL     1      -2.310   3.082  -3.175  1.00  0.00    -0.203 F 
ATOM     67  C   UNL     1      -3.783   2.865  -1.351  1.00  0.00     0.198 A 
ATOM     68  C   UNL     1      -4.596   0.700  -0.711  1.00  0.00     0.198 A 
ATOM     69  F   UNL     1      -3.886  -1.214  -1.877  1.00  0.00    -0.203 F 
ATOM     70  F   UNL     1      -3.746   4.192  -1.164  1.00  0.00    -0.200 F 
ATOM     71  C   UNL     1      -4.567   2.073  -0.525  1.00  0.00     0.200 A 
ATOM     72  F   UNL     1      -5.367  -0.066   0.074  1.00  0.00    -0.200 F 
ATOM     73  F   UNL     1      -5.300   2.635   0.447  1.00  0.00    -0.200 F 
ENDBRANCH  49  63
BRANCH  50  74
ATOM     74  C   UNL     1       1.937  -3.355 -10.126  1.00  0.00     0.064 A 
ATOM     75  C   UNL     1       2.111  -2.708 -11.354  1.00  0.00     0.173 A 
ATOM     76  C   UNL     1       2.529  -4.615  -9.955  1.00  0.00     0.173 A 
ATOM     77  F   UNL     1       1.548  -1.509 -11.565  1.00  0.00    -0.203 F 
ATOM     78  C   UNL     1       2.851  -3.297 -12.376  1.00  0.00     0.198 A 
ATOM     79  C   UNL     1       3.288  -5.193 -10.969  1.00  0.00     0.198 A 
ATOM     80  F   UNL     1       2.394  -5.268  -8.791  1.00  0.00    -0.203 F 
ATOM     81  F   UNL     1       2.986  -2.667 -13.551  1.00  0.00    -0.200 F 
ATOM     82  C   UNL     1       3.446  -4.535 -12.179  1.00  0.00     0.200 A 
ATOM     83  F   UNL     1       3.875  -6.381 -10.769  1.00  0.00    -0.200 F 
ATOM     84  F   UNL     1       4.172  -5.093 -13.157  1.00  0.00    -0.200 F 
ENDBRANCH  50  74
BRANCH  62  85
ATOM     85  C   UNL     1      -4.804  -2.079  -8.887  1.00  0.00     0.064 A 
ATOM     86  C   UNL     1      -5.349  -3.367  -8.976  1.00  0.00     0.173 A 
ATOM     87  C   UNL     1      -5.489  -1.024  -9.506  1.00  0.00     0.173 A 
ATOM     88  F   UNL     1      -4.720  -4.407  -8.409  1.00  0.00    -0.203 F 
ATOM     89  C   UNL     1      -6.534  -3.592  -9.670  1.00  0.00     0.198 A 
ATOM     90  C   UNL     1      -6.684  -1.250 -10.183  1.00  0.00     0.198 A 
ATOM     91  F   UNL     1      -5.006   0.226  -9.442  1.00  0.00    -0.203 F 
ATOM     92  F   UNL     1      -7.026  -4.835  -9.768  1.00  0.00    -0.200 F 
ATOM     93  C   UNL     1      -7.204  -2.533 -10.267  1.00  0.00     0.200 A 
ATOM     94  F   UNL     1      -7.334  -0.225 -10.752  1.00  0.00    -0.200 F 
ATOM     95  F   UNL     1      -8.349  -2.750 -10.927  1.00  0.00    -0.200 F 
ENDBRANCH  62  85
ENDBRANCH  36  37
ENDBRANCH  29  31
ENDBRANCH  28  29
ENDBRANCH  27  28
ENDBRANCH   1  27
TORSDOF 15
