REMARK SMILES COc1ccc(CC(=O)OCCOC(=O)c2ccc(-c3c4nc(c(-c5c(F)c(F)c(F)c(F)c5F)c5ccc([nH]5)c(-c5c(F)c(F)c(F)c(F)c5F)c5nc(c(-c6c(F)c(F)c(F)c(F)c6F)c6ccc3[nH]6)C=C5)C=C4)cc2)cc1S(=O)(=O)Nc1ccccc1Br
REMARK SMILES IDX 11 1 10 2 8 3 9 4 7 5 6 6 3 7 4 8 80 9 5 10 79 11 2 12 1 13
REMARK SMILES IDX 81 14 82 15 83 16 84 17 85 19 86 20 90 21 87 22 89 23 91 24
REMARK SMILES IDX 88 25 12 26 13 27 14 28 15 29 16 30 17 31 78 32 18 33 77 34
REMARK SMILES IDX 19 35 20 36 21 37 71 38 22 39 76 40 70 41 72 42 23 43 75 44
REMARK SMILES IDX 69 45 68 46 24 48 56 49 36 50 55 51 37 52 40 53 54 54 73 55
REMARK SMILES IDX 38 56 39 57 53 59 74 60 41 61 25 62 26 63 34 64 27 65 28 66
REMARK SMILES IDX 32 67 35 68 29 69 30 70 33 71 31 72 57 73 58 74 66 75 59 76
REMARK SMILES IDX 60 77 64 78 67 79 61 80 62 81 65 82 63 83 42 84 43 85 51 86
REMARK SMILES IDX 44 87 45 88 49 89 52 90 46 91 47 92 50 93 48 94
REMARK H PARENT 84 18 72 47 40 58
REMARK Flexibility Score: inf
ROOT
ATOM      1  C   UNL     1       2.620   8.150  -1.207  1.00  0.00     0.274 C 
ENDROOT
BRANCH   1   2
ATOM      2  O   UNL     1       2.696   6.918  -0.463  1.00  0.00    -0.462 OA
BRANCH   2   3
ATOM      3  C   UNL     1       2.779   7.057   0.885  1.00  0.00     0.310 C 
ATOM      4  O   UNL     1       2.757   8.130   1.482  1.00  0.00    -0.252 OA
BRANCH   3   5
ATOM      5  C   UNL     1       3.021   5.757   1.601  1.00  0.00     0.158 C 
BRANCH   5   6
ATOM      6  C   UNL     1       2.241   4.535   1.169  1.00  0.00    -0.035 A 
ATOM      7  C   UNL     1       0.884   2.085   0.914  1.00  0.00     0.139 A 
ATOM      8  C   UNL     1       0.175   3.269   1.139  1.00  0.00     0.048 A 
ATOM      9  C   UNL     1       2.252   2.134   0.659  1.00  0.00     0.129 A 
ATOM     10  C   UNL     1       0.849   4.483   1.276  1.00  0.00     0.008 A 
ATOM     11  C   UNL     1       2.927   3.362   0.810  1.00  0.00     0.030 A 
BRANCH   7  12
ATOM     12  O   UNL     1       0.160   0.931   0.892  1.00  0.00    -0.495 OA
ATOM     13  C   UNL     1      -0.032   0.395   2.201  1.00  0.00     0.278 C 
ENDBRANCH   7  12
BRANCH   9  14
ATOM     14  S   UNL     1       3.237   0.683   0.377  1.00  0.00     0.265 S 
ATOM     15  O   UNL     1       4.599   1.129   0.144  1.00  0.00    -0.201 OA
ATOM     16  O   UNL     1       2.994  -0.245   1.463  1.00  0.00    -0.201 OA
BRANCH  14  17
ATOM     17  N   UNL     1       2.806  -0.116  -1.058  1.00  0.00    -0.278 N 
ATOM     18  H   UNL     1       3.508  -0.494  -1.635  1.00  0.00     0.180 HD
BRANCH  17  19
ATOM     19  C   UNL     1       1.427  -0.243  -1.436  1.00  0.00     0.063 A 
ATOM     20  C   UNL     1       0.674  -1.329  -0.969  1.00  0.00     0.028 A 
ATOM     21  C   UNL     1       0.822   0.709  -2.270  1.00  0.00     0.042 A 
ATOM     22  C   UNL     1      -0.672  -1.457  -1.331  1.00  0.00     0.002 A 
ATOM     23  C   UNL     1      -0.523   0.578  -2.627  1.00  0.00     0.018 A 
ATOM     24  Br  UNL     1       1.794   2.175  -2.989  1.00  0.00    -0.049 Br
ATOM     25  C   UNL     1      -1.268  -0.504  -2.156  1.00  0.00     0.001 A 
ENDBRANCH  17  19
ENDBRANCH  14  17
ENDBRANCH   9  14
ENDBRANCH   5   6
ENDBRANCH   3   5
ENDBRANCH   2   3
ENDBRANCH   1   2
BRANCH   1  26
ATOM     26  C   UNL     1       1.174   8.532  -1.509  1.00  0.00     0.275 C 
BRANCH  26  27
ATOM     27  O   UNL     1       0.457   8.790  -0.288  1.00  0.00    -0.458 OA
BRANCH  27  28
ATOM     28  C   UNL     1      -0.592   7.980  -0.044  1.00  0.00     0.338 C 
ATOM     29  O   UNL     1      -1.035   7.085  -0.752  1.00  0.00    -0.246 OA
BRANCH  28  30
ATOM     30  C   UNL     1      -1.188   8.309   1.256  1.00  0.00     0.060 A 
ATOM     31  C   UNL     1      -0.567   7.889   2.434  1.00  0.00     0.016 A 
ATOM     32  C   UNL     1      -2.447   8.909   1.293  1.00  0.00     0.016 A 
ATOM     33  C   UNL     1      -1.236   8.005   3.650  1.00  0.00     0.010 A 
ATOM     34  C   UNL     1      -3.087   9.087   2.521  1.00  0.00     0.010 A 
ATOM     35  C   UNL     1      -2.502   8.607   3.706  1.00  0.00    -0.014 A 
BRANCH  35  36
ATOM     36  C   UNL     1      -3.227   8.721   4.996  1.00  0.00     0.031 A 
ATOM     37  C   UNL     1      -4.508   7.965   5.214  1.00  0.00     0.074 A 
ATOM     38  C   UNL     1      -2.748   9.525   5.964  1.00  0.00     0.049 A 
ATOM     39  N   UNL     1      -5.357   8.041   6.208  1.00  0.00    -0.248 NA
ATOM     40  C   UNL     1      -4.891   7.001   4.170  1.00  0.00     0.031 C 
ATOM     41  C   UNL     1      -1.507  10.295   5.884  1.00  0.00     0.029 A 
ATOM     42  N   UNL     1      -3.257   9.837   7.199  1.00  0.00    -0.354 N 
ATOM     43  C   UNL     1      -6.389   7.167   5.894  1.00  0.00     0.074 A 
ATOM     44  C   UNL     1      -6.066   6.574   4.613  1.00  0.00     0.031 C 
ATOM     45  C   UNL     1      -1.351  10.992   7.020  1.00  0.00     0.029 A 
ATOM     46  C   UNL     1      -2.505  10.760   7.882  1.00  0.00     0.049 A 
ATOM     47  H   UNL     1      -4.082   9.438   7.561  1.00  0.00     0.167 HD
ATOM     48  C   UNL     1      -7.503   6.886   6.611  1.00  0.00     0.037 A 
ATOM     49  C   UNL     1      -2.737  11.379   9.055  1.00  0.00     0.037 A 
ATOM     50  C   UNL     1      -7.805   7.449   7.902  1.00  0.00     0.049 A 
ATOM     51  C   UNL     1      -3.991  11.064   9.820  1.00  0.00     0.074 A 
ATOM     52  C   UNL     1      -8.889   7.192   8.723  1.00  0.00     0.029 A 
ATOM     53  N   UNL     1      -7.017   8.380   8.560  1.00  0.00    -0.354 N 
ATOM     54  N   UNL     1      -4.960  10.235   9.515  1.00  0.00    -0.248 NA
ATOM     55  C   UNL     1      -4.187  11.776  11.091  1.00  0.00     0.031 C 
ATOM     56  C   UNL     1      -8.775   7.995   9.864  1.00  0.00     0.029 A 
ATOM     57  C   UNL     1      -7.600   8.722   9.770  1.00  0.00     0.049 A 
ATOM     58  H   UNL     1      -6.169   8.745   8.218  1.00  0.00     0.167 HD
ATOM     59  C   UNL     1      -5.871  10.314  10.559  1.00  0.00     0.074 A 
ATOM     60  C   UNL     1      -5.332  11.259  11.515  1.00  0.00     0.031 C 
ATOM     61  C   UNL     1      -7.050   9.663  10.710  1.00  0.00     0.037 A 
BRANCH  48  62
ATOM     62  C   UNL     1      -8.499   5.939   6.009  1.00  0.00     0.064 A 
ATOM     63  C   UNL     1      -8.264   4.558   5.953  1.00  0.00     0.173 A 
ATOM     64  C   UNL     1      -9.728   6.418   5.530  1.00  0.00     0.173 A 
ATOM     65  F   UNL     1      -7.099   4.053   6.387  1.00  0.00    -0.203 F 
ATOM     66  C   UNL     1      -9.218   3.692   5.423  1.00  0.00     0.198 A 
ATOM     67  C   UNL     1     -10.688   5.547   5.023  1.00  0.00     0.198 A 
ATOM     68  F   UNL     1     -10.002   7.731   5.566  1.00  0.00    -0.203 F 
ATOM     69  F   UNL     1      -8.960   2.379   5.348  1.00  0.00    -0.200 F 
ATOM     70  C   UNL     1     -10.431   4.186   4.966  1.00  0.00     0.200 A 
ATOM     71  F   UNL     1     -11.863   6.025   4.590  1.00  0.00    -0.200 F 
ATOM     72  F   UNL     1     -11.350   3.349   4.465  1.00  0.00    -0.200 F 
ENDBRANCH  48  62
BRANCH  49  73
ATOM     73  C   UNL     1      -1.767  12.381   9.561  1.00  0.00     0.064 A 
ATOM     74  C   UNL     1      -0.963  12.108  10.675  1.00  0.00     0.173 A 
ATOM     75  C   UNL     1      -1.621  13.629   8.937  1.00  0.00     0.173 A 
ATOM     76  F   UNL     1      -1.086  10.938  11.318  1.00  0.00    -0.203 F 
ATOM     77  C   UNL     1      -0.057  13.051  11.154  1.00  0.00     0.198 A 
ATOM     78  C   UNL     1      -0.696  14.561   9.400  1.00  0.00     0.198 A 
ATOM     79  F   UNL     1      -2.369  13.936   7.866  1.00  0.00    -0.203 F 
ATOM     80  F   UNL     1       0.674  12.781  12.244  1.00  0.00    -0.200 F 
ATOM     81  C   UNL     1       0.081  14.274  10.512  1.00  0.00     0.200 A 
ATOM     82  F   UNL     1      -0.558  15.736   8.771  1.00  0.00    -0.200 F 
ATOM     83  F   UNL     1       0.957  15.178  10.971  1.00  0.00    -0.200 F 
ENDBRANCH  49  73
BRANCH  61  84
ATOM     84  C   UNL     1      -7.823   9.934  11.966  1.00  0.00     0.064 A 
ATOM     85  C   UNL     1      -8.522  11.135  12.150  1.00  0.00     0.173 A 
ATOM     86  C   UNL     1      -7.888   8.969  12.982  1.00  0.00     0.173 A 
ATOM     87  F   UNL     1      -8.475  12.094  11.213  1.00  0.00    -0.203 F 
ATOM     88  C   UNL     1      -9.242  11.369  13.318  1.00  0.00     0.198 A 
ATOM     89  C   UNL     1      -8.629   9.197  14.138  1.00  0.00     0.198 A 
ATOM     90  F   UNL     1      -7.239   7.802  12.849  1.00  0.00    -0.203 F 
ATOM     91  F   UNL     1      -9.869  12.541  13.493  1.00  0.00    -0.200 F 
ATOM     92  C   UNL     1      -9.300  10.399  14.308  1.00  0.00     0.200 A 
ATOM     93  F   UNL     1      -8.691   8.255  15.089  1.00  0.00    -0.200 F 
ATOM     94  F   UNL     1      -9.996  10.625  15.430  1.00  0.00    -0.200 F 
ENDBRANCH  61  84
ENDBRANCH  35  36
ENDBRANCH  28  30
ENDBRANCH  27  28
ENDBRANCH  26  27
ENDBRANCH   1  26
TORSDOF 16
