REMARK SMILES Cc1nsc(N(C)C(=O)[C@@H]2CCC[C@H]2C[NH3+])c1C(=O)OCCOC(=O)c1ccc(-c2c3nc(c(-c4c(F)c(F)c(F)c(F)c4F)c4ccc([nH]4)c(-c4c(F)c(F)c(F)c(F)c4F)c4nc(c(-c5c(F)c(F)c(F)c(F)c5F)c5ccc2[nH]5)C=C4)C=C3)cc1
REMARK SMILES IDX 20 1 18 2 19 3 17 4 1 5 2 6 3 7 4 8 5 9 6 10 7 11 8 12 9 13
REMARK SMILES IDX 10 14 11 15 14 16 12 17 13 18 15 19 16 20 21 24 22 25 23 26
REMARK SMILES IDX 24 27 25 28 26 29 27 30 88 31 28 32 87 33 29 34 30 35 31 36
REMARK SMILES IDX 81 37 32 38 86 39 80 40 82 41 33 42 85 43 79 44 78 45 34 47
REMARK SMILES IDX 66 48 46 49 65 50 47 51 50 52 64 53 83 54 48 55 49 56 63 58
REMARK SMILES IDX 84 59 51 60 35 61 36 62 44 63 37 64 38 65 42 66 45 67 39 68
REMARK SMILES IDX 40 69 43 70 41 71 67 72 68 73 76 74 69 75 70 76 74 77 77 78
REMARK SMILES IDX 71 79 72 80 75 81 73 82 52 83 53 84 61 85 54 86 55 87 59 88
REMARK SMILES IDX 62 89 56 90 57 91 60 92 58 93
REMARK H PARENT 16 21 16 22 16 23 82 46 50 57
REMARK Flexibility Score: inf
ROOT
ATOM      1  O   UNL     1       2.537   1.404  -1.147  1.00  0.00    -0.458 OA
ENDROOT
BRANCH   1   2
ATOM      2  C   UNL     1       2.677   2.337  -0.164  1.00  0.00     0.343 C 
ATOM      3  O   UNL     1       3.712   2.961   0.054  1.00  0.00    -0.246 OA
BRANCH   2   4
ATOM      4  C   UNL     1       1.458   2.466   0.618  1.00  0.00     0.117 A 
ATOM      5  C   UNL     1       0.745  -0.077   0.451  1.00  0.00     0.069 C 
ATOM      6  C   UNL     1       0.589   1.333   0.924  1.00  0.00     0.068 A 
ATOM      7  N   UNL     1      -0.445   1.582   1.720  1.00  0.00    -0.195 NA
ATOM      8  S   UNL     1      -0.470   3.175   2.070  1.00  0.00    -0.017 S 
ATOM      9  C   UNL     1       0.937   3.639   1.179  1.00  0.00     0.133 A 
BRANCH   9  10
ATOM     10  N   UNL     1       1.254   5.042   1.148  1.00  0.00    -0.305 N 
ATOM     11  C   UNL     1       0.675   5.940   2.146  1.00  0.00     0.154 C 
BRANCH  10  12
ATOM     12  C   UNL     1       1.899   5.549   0.004  1.00  0.00     0.231 C 
ATOM     13  O   UNL     1       2.011   4.837  -1.002  1.00  0.00    -0.274 OA
BRANCH  12  14
ATOM     14  C   UNL     1       2.535   6.994  -0.103  1.00  0.00     0.088 C 
ATOM     15  C   UNL     1       1.996   8.124   0.778  1.00  0.00     0.014 C 
ATOM     16  C   UNL     1       2.346   7.610  -1.531  1.00  0.00     0.056 C 
ATOM     17  C   UNL     1       2.325   9.444   0.115  1.00  0.00     0.001 C 
ATOM     18  C   UNL     1       2.479   9.139  -1.353  1.00  0.00     0.010 C 
BRANCH  16  19
ATOM     19  C   UNL     1       3.316   7.226  -2.671  1.00  0.00     0.263 C 
BRANCH  19  20
ATOM     20  N   UNL     1       3.561   5.825  -2.938  1.00  0.00    -0.357 N 
ATOM     21  H   UNL     1       4.032   5.404  -2.137  1.00  0.00     0.344 HD
ATOM     22  H   UNL     1       4.150   5.734  -3.765  1.00  0.00     0.344 HD
ATOM     23  H   UNL     1       2.673   5.349  -3.099  1.00  0.00     0.344 HD
ENDBRANCH  19  20
ENDBRANCH  16  19
ENDBRANCH  12  14
ENDBRANCH  10  12
ENDBRANCH   9  10
ENDBRANCH   2   4
ENDBRANCH   1   2
BRANCH   1  24
ATOM     24  C   UNL     1       3.301   1.593  -2.342  1.00  0.00     0.275 C 
BRANCH  24  25
ATOM     25  C   UNL     1       2.311   1.871  -3.458  1.00  0.00     0.275 C 
BRANCH  25  26
ATOM     26  O   UNL     1       1.647   3.098  -3.184  1.00  0.00    -0.458 OA
BRANCH  26  27
ATOM     27  C   UNL     1       0.373   3.105  -2.726  1.00  0.00     0.338 C 
ATOM     28  O   UNL     1      -0.269   2.186  -2.261  1.00  0.00    -0.246 OA
BRANCH  27  29
ATOM     29  C   UNL     1      -0.139   4.451  -3.052  1.00  0.00     0.060 A 
ATOM     30  C   UNL     1      -1.294   4.980  -2.470  1.00  0.00     0.016 A 
ATOM     31  C   UNL     1       0.548   5.156  -4.051  1.00  0.00     0.016 A 
ATOM     32  C   UNL     1      -1.807   6.167  -2.986  1.00  0.00     0.010 A 
ATOM     33  C   UNL     1       0.117   6.375  -4.471  1.00  0.00     0.010 A 
ATOM     34  C   UNL     1      -1.122   6.804  -4.032  1.00  0.00    -0.014 A 
BRANCH  34  35
ATOM     35  C   UNL     1      -1.703   7.881  -4.801  1.00  0.00     0.031 A 
ATOM     36  C   UNL     1      -1.844   9.179  -4.113  1.00  0.00     0.074 A 
ATOM     37  C   UNL     1      -1.868   7.757  -6.135  1.00  0.00     0.049 A 
ATOM     38  N   UNL     1      -2.936   9.747  -3.731  1.00  0.00    -0.248 NA
ATOM     39  C   UNL     1      -0.627   9.888  -3.707  1.00  0.00     0.031 C 
ATOM     40  C   UNL     1      -1.466   6.670  -7.040  1.00  0.00     0.029 A 
ATOM     41  N   UNL     1      -2.394   8.671  -6.984  1.00  0.00    -0.354 N 
ATOM     42  C   UNL     1      -2.571  10.972  -3.179  1.00  0.00     0.074 A 
ATOM     43  C   UNL     1      -1.137  10.930  -3.044  1.00  0.00     0.031 C 
ATOM     44  C   UNL     1      -1.580   7.082  -8.323  1.00  0.00     0.029 A 
ATOM     45  C   UNL     1      -2.231   8.378  -8.327  1.00  0.00     0.049 A 
ATOM     46  H   UNL     1      -2.856   9.481  -6.670  1.00  0.00     0.167 HD
ATOM     47  C   UNL     1      -3.478  11.983  -3.064  1.00  0.00     0.037 A 
ATOM     48  C   UNL     1      -2.603   9.172  -9.358  1.00  0.00     0.037 A 
ATOM     49  C   UNL     1      -4.818  11.490  -3.287  1.00  0.00     0.049 A 
ATOM     50  C   UNL     1      -3.646  10.096  -8.829  1.00  0.00     0.074 A 
ATOM     51  C   UNL     1      -5.623  10.567  -2.646  1.00  0.00     0.029 A 
ATOM     52  N   UNL     1      -5.367  11.646  -4.538  1.00  0.00    -0.354 N 
ATOM     53  N   UNL     1      -4.820   9.690  -8.421  1.00  0.00    -0.248 NA
ATOM     54  C   UNL     1      -3.203  11.370  -8.279  1.00  0.00     0.031 C 
ATOM     55  C   UNL     1      -6.262   9.847  -3.700  1.00  0.00     0.029 A 
ATOM     56  C   UNL     1      -5.875  10.426  -4.911  1.00  0.00     0.049 A 
ATOM     57  H   UNL     1      -5.392  12.476  -5.067  1.00  0.00     0.167 HD
ATOM     58  C   UNL     1      -5.076  10.425  -7.270  1.00  0.00     0.074 A 
ATOM     59  C   UNL     1      -4.077  11.493  -7.274  1.00  0.00     0.031 C 
ATOM     60  C   UNL     1      -5.873   9.936  -6.272  1.00  0.00     0.037 A 
BRANCH  47  61
ATOM     61  C   UNL     1      -3.174  13.462  -3.070  1.00  0.00     0.064 A 
ATOM     62  C   UNL     1      -4.229  14.374  -2.847  1.00  0.00     0.173 A 
ATOM     63  C   UNL     1      -1.980  14.030  -3.558  1.00  0.00     0.173 A 
ATOM     64  F   UNL     1      -5.410  13.954  -2.369  1.00  0.00    -0.203 F 
ATOM     65  C   UNL     1      -4.129  15.725  -3.190  1.00  0.00     0.198 A 
ATOM     66  C   UNL     1      -1.867  15.390  -3.851  1.00  0.00     0.198 A 
ATOM     67  F   UNL     1      -0.912  13.290  -3.872  1.00  0.00    -0.203 F 
ATOM     68  F   UNL     1      -5.202  16.519  -3.083  1.00  0.00    -0.200 F 
ATOM     69  C   UNL     1      -2.951  16.229  -3.704  1.00  0.00     0.200 A 
ATOM     70  F   UNL     1      -0.717  15.861  -4.354  1.00  0.00    -0.200 F 
ATOM     71  F   UNL     1      -2.871  17.507  -4.098  1.00  0.00    -0.200 F 
ENDBRANCH  47  61
BRANCH  48  72
ATOM     72  C   UNL     1      -1.873   9.391 -10.626  1.00  0.00     0.064 A 
ATOM     73  C   UNL     1      -2.497   9.987 -11.732  1.00  0.00     0.173 A 
ATOM     74  C   UNL     1      -0.469   9.264 -10.690  1.00  0.00     0.173 A 
ATOM     75  F   UNL     1      -3.823  10.182 -11.730  1.00  0.00    -0.203 F 
ATOM     76  C   UNL     1      -1.759  10.450 -12.827  1.00  0.00     0.198 A 
ATOM     77  C   UNL     1       0.265   9.724 -11.784  1.00  0.00     0.198 A 
ATOM     78  F   UNL     1       0.225   8.776  -9.652  1.00  0.00    -0.203 F 
ATOM     79  F   UNL     1      -2.383  11.066 -13.841  1.00  0.00    -0.200 F 
ATOM     80  C   UNL     1      -0.378  10.329 -12.847  1.00  0.00     0.200 A 
ATOM     81  F   UNL     1       1.603   9.633 -11.772  1.00  0.00    -0.200 F 
ATOM     82  F   UNL     1       0.333  10.830 -13.866  1.00  0.00    -0.200 F 
ENDBRANCH  48  72
BRANCH  60  83
ATOM     83  C   UNL     1      -6.625   8.654  -6.527  1.00  0.00     0.064 A 
ATOM     84  C   UNL     1      -6.005   7.413  -6.756  1.00  0.00     0.173 A 
ATOM     85  C   UNL     1      -8.016   8.646  -6.361  1.00  0.00     0.173 A 
ATOM     86  F   UNL     1      -4.676   7.309  -6.821  1.00  0.00    -0.203 F 
ATOM     87  C   UNL     1      -6.741   6.233  -6.856  1.00  0.00     0.198 A 
ATOM     88  C   UNL     1      -8.747   7.461  -6.426  1.00  0.00     0.198 A 
ATOM     89  F   UNL     1      -8.664   9.786  -6.075  1.00  0.00    -0.203 F 
ATOM     90  F   UNL     1      -6.114   5.067  -7.078  1.00  0.00    -0.200 F 
ATOM     91  C   UNL     1      -8.112   6.257  -6.683  1.00  0.00     0.200 A 
ATOM     92  F   UNL     1     -10.069   7.483  -6.205  1.00  0.00    -0.200 F 
ATOM     93  F   UNL     1      -8.817   5.118  -6.734  1.00  0.00    -0.200 F 
ENDBRANCH  60  83
ENDBRANCH  34  35
ENDBRANCH  27  29
ENDBRANCH  26  27
ENDBRANCH  25  26
ENDBRANCH  24  25
ENDBRANCH   1  24
TORSDOF 16
