REMARK SMILES O=C(OCCOC(=O)c1ccc(N2C(=O)/C(=C/C3=c4ccccc4=NC3)SC2=S)cc1O)c1ccc(-c2c3nc(c(-c4c(F)c(F)c(F)c(F)c4F)c4ccc([nH]4)c(-c4c(F)c(F)c(F)c(F)c4F)c4nc(c(-c5c(F)c(F)c(F)c(F)c5F)c5ccc2[nH]5)C=C4)C=C3)cc1
REMARK SMILES IDX 4 1 3 2 2 3 1 4 33 5 34 6 95 7 35 8 94 9 36 10 37 11 38 12
REMARK SMILES IDX 88 13 39 14 93 15 87 16 89 17 40 18 92 19 86 20 85 21 41 23
REMARK SMILES IDX 73 24 53 25 72 26 54 27 57 28 71 29 90 30 55 31 56 32 70 34
REMARK SMILES IDX 91 35 58 36 42 37 43 38 51 39 44 40 45 41 49 42 52 43 46 44
REMARK SMILES IDX 47 45 50 46 48 47 74 48 75 49 83 50 76 51 77 52 81 53 84 54
REMARK SMILES IDX 78 55 79 56 82 57 80 58 59 59 60 60 68 61 61 62 62 63 66 64
REMARK SMILES IDX 69 65 63 66 64 67 67 68 65 69 5 70 6 71 7 72 8 73 9 74 10 75
REMARK SMILES IDX 31 76 11 77 30 78 12 79 32 80 13 82 14 83 28 84 15 85 16 86
REMARK SMILES IDX 27 87 29 88 17 89 18 90 19 91 26 92 20 93 24 94 25 95 21 96
REMARK SMILES IDX 23 97 22 98
REMARK H PARENT 89 22 57 33 32 81
REMARK Flexibility Score: inf
ROOT
ATOM      1  C   UNL     1       4.171  -1.282   0.095  1.00  0.00     0.275 C 
ENDROOT
BRANCH   1   2
ATOM      2  O   UNL     1       3.325  -0.426   0.881  1.00  0.00    -0.458 OA
BRANCH   2   3
ATOM      3  C   UNL     1       3.401   0.919   1.022  1.00  0.00     0.338 C 
ATOM      4  O   UNL     1       2.883   1.466   1.992  1.00  0.00    -0.246 OA
BRANCH   3   5
ATOM      5  C   UNL     1       3.896   1.786  -0.084  1.00  0.00     0.060 A 
ATOM      6  C   UNL     1       3.111   2.906  -0.384  1.00  0.00     0.016 A 
ATOM      7  C   UNL     1       5.083   1.602  -0.798  1.00  0.00     0.016 A 
ATOM      8  C   UNL     1       3.436   3.742  -1.453  1.00  0.00     0.010 A 
ATOM      9  C   UNL     1       5.415   2.446  -1.867  1.00  0.00     0.010 A 
ATOM     10  C   UNL     1       4.581   3.508  -2.224  1.00  0.00    -0.014 A 
BRANCH  10  11
ATOM     11  C   UNL     1       4.974   4.467  -3.285  1.00  0.00     0.031 A 
ATOM     12  C   UNL     1       4.941   4.120  -4.743  1.00  0.00     0.074 A 
ATOM     13  C   UNL     1       5.379   5.693  -2.909  1.00  0.00     0.049 A 
ATOM     14  N   UNL     1       5.063   4.912  -5.780  1.00  0.00    -0.248 NA
ATOM     15  C   UNL     1       4.706   2.717  -5.094  1.00  0.00     0.031 C 
ATOM     16  C   UNL     1       5.469   6.158  -1.526  1.00  0.00     0.029 A 
ATOM     17  N   UNL     1       5.808   6.758  -3.655  1.00  0.00    -0.354 N 
ATOM     18  C   UNL     1       4.798   4.125  -6.893  1.00  0.00     0.074 A 
ATOM     19  C   UNL     1       4.582   2.778  -6.415  1.00  0.00     0.031 C 
ATOM     20  C   UNL     1       5.937   7.413  -1.519  1.00  0.00     0.029 A 
ATOM     21  C   UNL     1       6.218   7.819  -2.892  1.00  0.00     0.049 A 
ATOM     22  H   UNL     1       5.820   6.761  -4.639  1.00  0.00     0.167 HD
ATOM     23  C   UNL     1       4.730   4.500  -8.192  1.00  0.00     0.037 A 
ATOM     24  C   UNL     1       6.793   8.978  -3.254  1.00  0.00     0.037 A 
ATOM     25  C   UNL     1       5.166   5.780  -8.683  1.00  0.00     0.049 A 
ATOM     26  C   UNL     1       7.000   9.266  -4.708  1.00  0.00     0.074 A 
ATOM     27  C   UNL     1       5.210   6.244  -9.986  1.00  0.00     0.029 A 
ATOM     28  N   UNL     1       5.719   6.772  -7.888  1.00  0.00    -0.354 N 
ATOM     29  N   UNL     1       6.609   8.571  -5.748  1.00  0.00    -0.248 NA
ATOM     30  C   UNL     1       7.731  10.493  -5.039  1.00  0.00     0.031 C 
ATOM     31  C   UNL     1       5.878   7.477  -9.986  1.00  0.00     0.029 A 
ATOM     32  C   UNL     1       6.193   7.808  -8.677  1.00  0.00     0.049 A 
ATOM     33  H   UNL     1       5.769   6.745  -6.905  1.00  0.00     0.167 HD
ATOM     34  C   UNL     1       7.040   9.276  -6.862  1.00  0.00     0.074 A 
ATOM     35  C   UNL     1       7.706  10.465  -6.366  1.00  0.00     0.031 C 
ATOM     36  C   UNL     1       6.892   8.965  -8.175  1.00  0.00     0.037 A 
BRANCH  23  37
ATOM     37  C   UNL     1       4.182   3.501  -9.166  1.00  0.00     0.064 A 
ATOM     38  C   UNL     1       2.800   3.261  -9.229  1.00  0.00     0.173 A 
ATOM     39  C   UNL     1       5.008   2.814 -10.063  1.00  0.00     0.173 A 
ATOM     40  F   UNL     1       1.974   3.901  -8.389  1.00  0.00    -0.203 F 
ATOM     41  C   UNL     1       2.267   2.358 -10.145  1.00  0.00     0.198 A 
ATOM     42  C   UNL     1       4.471   1.919 -10.988  1.00  0.00     0.198 A 
ATOM     43  F   UNL     1       6.334   3.010 -10.045  1.00  0.00    -0.203 F 
ATOM     44  F   UNL     1       0.946   2.130 -10.175  1.00  0.00    -0.200 F 
ATOM     45  C   UNL     1       3.103   1.689 -11.026  1.00  0.00     0.200 A 
ATOM     46  F   UNL     1       5.279   1.276 -11.842  1.00  0.00    -0.200 F 
ATOM     47  F   UNL     1       2.593   0.819 -11.909  1.00  0.00    -0.200 F 
ENDBRANCH  23  37
BRANCH  24  48
ATOM     48  C   UNL     1       7.213   9.917  -2.189  1.00  0.00     0.064 A 
ATOM     49  C   UNL     1       6.489  11.088  -1.938  1.00  0.00     0.173 A 
ATOM     50  C   UNL     1       8.271   9.596  -1.323  1.00  0.00     0.173 A 
ATOM     51  F   UNL     1       5.480  11.437  -2.750  1.00  0.00    -0.203 F 
ATOM     52  C   UNL     1       6.794  11.893  -0.844  1.00  0.00     0.198 A 
ATOM     53  C   UNL     1       8.559  10.389  -0.217  1.00  0.00     0.198 A 
ATOM     54  F   UNL     1       8.987   8.479  -1.524  1.00  0.00    -0.203 F 
ATOM     55  F   UNL     1       6.085  13.008  -0.620  1.00  0.00    -0.200 F 
ATOM     56  C   UNL     1       7.817  11.536   0.024  1.00  0.00     0.200 A 
ATOM     57  F   UNL     1       9.533  10.028   0.629  1.00  0.00    -0.200 F 
ATOM     58  F   UNL     1       8.082  12.292   1.098  1.00  0.00    -0.200 F 
ENDBRANCH  24  48
BRANCH  36  59
ATOM     59  C   UNL     1       7.488   9.918  -9.166  1.00  0.00     0.064 A 
ATOM     60  C   UNL     1       8.877  10.020  -9.334  1.00  0.00     0.173 A 
ATOM     61  C   UNL     1       6.668  10.730  -9.963  1.00  0.00     0.173 A 
ATOM     62  F   UNL     1       9.704   9.278  -8.582  1.00  0.00    -0.203 F 
ATOM     63  C   UNL     1       9.424  10.922 -10.242  1.00  0.00     0.198 A 
ATOM     64  C   UNL     1       7.217  11.609 -10.892  1.00  0.00     0.198 A 
ATOM     65  F   UNL     1       5.333  10.668  -9.843  1.00  0.00    -0.203 F 
ATOM     66  F   UNL     1      10.755  11.043 -10.345  1.00  0.00    -0.200 F 
ATOM     67  C   UNL     1       8.594  11.711 -11.024  1.00  0.00     0.200 A 
ATOM     68  F   UNL     1       6.413  12.364 -11.654  1.00  0.00    -0.200 F 
ATOM     69  F   UNL     1       9.121  12.581 -11.896  1.00  0.00    -0.200 F 
ENDBRANCH  36  59
ENDBRANCH  10  11
ENDBRANCH   3   5
ENDBRANCH   2   3
ENDBRANCH   1   2
BRANCH   1  70
ATOM     70  C   UNL     1       3.595  -1.674  -1.268  1.00  0.00     0.275 C 
BRANCH  70  71
ATOM     71  O   UNL     1       3.061  -0.572  -2.022  1.00  0.00    -0.458 OA
BRANCH  71  72
ATOM     72  C   UNL     1       1.728  -0.348  -1.849  1.00  0.00     0.342 C 
ATOM     73  O   UNL     1       0.968  -0.996  -1.150  1.00  0.00    -0.246 OA
BRANCH  72  74
ATOM     74  C   UNL     1       1.333   0.875  -2.579  1.00  0.00     0.101 A 
ATOM     75  C   UNL     1       0.512   1.794  -1.912  1.00  0.00     0.022 A 
ATOM     76  C   UNL     1       1.765   1.166  -3.873  1.00  0.00     0.132 A 
ATOM     77  C   UNL     1       0.207   3.033  -2.498  1.00  0.00     0.028 A 
ATOM     78  C   UNL     1       1.400   2.371  -4.483  1.00  0.00     0.073 A 
ATOM     79  C   UNL     1       0.645   3.334  -3.794  1.00  0.00     0.054 A 
BRANCH  76  80
ATOM     80  O   UNL     1       2.565   0.333  -4.609  1.00  0.00    -0.507 OA
ATOM     81  H   UNL     1       2.841  -0.488  -4.252  1.00  0.00     0.293 HD
ENDBRANCH  76  80
BRANCH  79  82
ATOM     82  N   UNL     1       0.355   4.597  -4.400  1.00  0.00    -0.261 N 
ATOM     83  C   UNL     1       0.585   5.790  -3.712  1.00  0.00     0.270 C 
ATOM     84  C   UNL     1      -0.206   4.721  -5.665  1.00  0.00     0.152 C 
ATOM     85  O   UNL     1       0.999   5.922  -2.566  1.00  0.00    -0.268 OA
ATOM     86  C   UNL     1       0.209   6.961  -4.563  1.00  0.00     0.081 C 
ATOM     87  S   UNL     1      -0.294   6.418  -6.112  1.00  0.00    -0.054 SA
ATOM     88  S   UNL     1      -0.885   3.546  -6.645  1.00  0.00    -0.051 S 
ATOM     89  C   UNL     1       0.244   8.231  -4.125  1.00  0.00     0.027 C 
BRANCH  89  90
ATOM     90  C   UNL     1      -0.326   9.382  -4.798  1.00  0.00    -0.016 C 
ATOM     91  C   UNL     1       0.248  10.542  -5.117  1.00  0.00     0.005 A 
ATOM     92  C   UNL     1      -1.795   9.419  -5.136  1.00  0.00     0.179 C 
ATOM     93  C   UNL     1       1.554  11.115  -5.011  1.00  0.00     0.011 A 
ATOM     94  C   UNL     1      -0.873  11.307  -5.700  1.00  0.00     0.065 A 
ATOM     95  N   UNL     1      -2.046  10.752  -5.729  1.00  0.00    -0.280 NA
ATOM     96  C   UNL     1       1.755  12.361  -5.475  1.00  0.00     0.001 A 
ATOM     97  C   UNL     1      -0.570  12.663  -6.202  1.00  0.00     0.028 A 
ATOM     98  C   UNL     1       0.682  13.133  -6.083  1.00  0.00     0.002 A 
ENDBRANCH  89  90
ENDBRANCH  79  82
ENDBRANCH  72  74
ENDBRANCH  71  72
ENDBRANCH  70  71
ENDBRANCH   1  70
TORSDOF 14
