REMARK SMILES CCc1c(C(=O)NCC(=O)OCCOC(=O)c2ccc(-c3c4nc(c(-c5c(F)c(F)c(F)c(F)c5F)c5ccc([nH]5)c(-c5c(F)c(F)c(F)c(F)c5F)c5nc(c(-c6c(F)c(F)c(F)c(F)c6F)c6ccc3[nH]6)C=C5)C=C4)cc2)nnn1-c1ccc(C)cc1
REMARK SMILES IDX 12 1 11 2 9 3 10 4 8 5 7 6 5 7 6 8 4 10 3 11 82 12 80 13
REMARK SMILES IDX 81 14 2 15 1 16 83 17 84 18 89 19 85 20 88 21 86 22 87 23
REMARK SMILES IDX 13 24 14 25 15 26 16 27 17 28 18 29 79 30 19 31 78 32 20 33
REMARK SMILES IDX 21 34 22 35 72 36 23 37 77 38 71 39 73 40 24 41 76 42 70 43
REMARK SMILES IDX 69 44 25 46 57 47 37 48 56 49 38 50 41 51 55 52 74 53 39 54
REMARK SMILES IDX 40 55 54 57 75 58 42 59 26 60 27 61 35 62 28 63 29 64 33 65
REMARK SMILES IDX 36 66 30 67 31 68 34 69 32 70 58 71 59 72 67 73 60 74 61 75
REMARK SMILES IDX 65 76 68 77 62 78 63 79 66 80 64 81 43 82 44 83 52 84 45 85
REMARK SMILES IDX 46 86 50 87 53 88 47 89 48 90 51 91 49 92
REMARK H PARENT 7 9 73 45 41 56
REMARK Flexibility Score: inf
ROOT
ATOM      1  C   UNL     1       4.365   1.305   0.133  1.00  0.00     0.274 C 
ENDROOT
BRANCH   1   2
ATOM      2  O   UNL     1       3.768   0.719  -1.037  1.00  0.00    -0.461 OA
BRANCH   2   3
ATOM      3  C   UNL     1       2.776   1.428  -1.648  1.00  0.00     0.325 C 
ATOM      4  O   UNL     1       2.217   2.407  -1.167  1.00  0.00    -0.250 OA
BRANCH   3   5
ATOM      5  C   UNL     1       2.490   0.918  -3.063  1.00  0.00     0.239 C 
BRANCH   5   6
ATOM      6  N   UNL     1       3.231  -0.260  -3.436  1.00  0.00    -0.340 N 
ATOM      7  C   UNL     1       3.061  -1.600  -3.258  1.00  0.00     0.274 C 
ATOM      8  O   UNL     1       3.947  -2.278  -3.791  1.00  0.00    -0.267 OA
ATOM      9  H   UNL     1       4.052  -0.047  -3.935  1.00  0.00     0.164 HD
BRANCH   7  10
ATOM     10  C   UNL     1       1.974  -2.263  -2.518  1.00  0.00     0.174 A 
ATOM     11  C   UNL     1       0.871  -1.906  -1.730  1.00  0.00     0.077 A 
ATOM     12  N   UNL     1       0.330  -3.139  -1.349  1.00  0.00    -0.217 N 
ATOM     13  N   UNL     1       2.070  -3.649  -2.487  1.00  0.00    -0.124 NA
ATOM     14  N   UNL     1       1.142  -4.144  -1.698  1.00  0.00    -0.061 NA
BRANCH  11  15
ATOM     15  C   UNL     1       0.316  -0.648  -1.144  1.00  0.00     0.055 C 
ATOM     16  C   UNL     1       0.829  -0.401   0.269  1.00  0.00     0.011 C 
ENDBRANCH  11  15
BRANCH  12  17
ATOM     17  C   UNL     1      -0.802  -3.385  -0.542  1.00  0.00     0.067 A 
ATOM     18  C   UNL     1      -0.658  -4.174   0.602  1.00  0.00     0.029 A 
ATOM     19  C   UNL     1      -2.027  -2.782  -0.843  1.00  0.00     0.029 A 
ATOM     20  C   UNL     1      -1.717  -4.260   1.506  1.00  0.00     0.005 A 
ATOM     21  C   UNL     1      -3.087  -2.891   0.054  1.00  0.00     0.005 A 
ATOM     22  C   UNL     1      -2.928  -3.599   1.250  1.00  0.00    -0.051 A 
ATOM     23  C   UNL     1      -4.034  -3.647   2.262  1.00  0.00     0.044 C 
ENDBRANCH  12  17
ENDBRANCH   7  10
ENDBRANCH   5   6
ENDBRANCH   3   5
ENDBRANCH   2   3
ENDBRANCH   1   2
BRANCH   1  24
ATOM     24  C   UNL     1       5.611   2.102  -0.244  1.00  0.00     0.275 C 
BRANCH  24  25
ATOM     25  O   UNL     1       5.282   3.249  -1.034  1.00  0.00    -0.458 OA
BRANCH  25  26
ATOM     26  C   UNL     1       5.252   3.039  -2.370  1.00  0.00     0.338 C 
ATOM     27  O   UNL     1       5.343   1.976  -2.957  1.00  0.00    -0.246 OA
BRANCH  26  28
ATOM     28  C   UNL     1       5.136   4.321  -3.073  1.00  0.00     0.060 A 
ATOM     29  C   UNL     1       4.786   4.290  -4.428  1.00  0.00     0.016 A 
ATOM     30  C   UNL     1       5.553   5.503  -2.451  1.00  0.00     0.016 A 
ATOM     31  C   UNL     1       4.985   5.421  -5.196  1.00  0.00     0.010 A 
ATOM     32  C   UNL     1       5.753   6.631  -3.219  1.00  0.00     0.010 A 
ATOM     33  C   UNL     1       5.533   6.558  -4.595  1.00  0.00    -0.014 A 
BRANCH  33  34
ATOM     34  C   UNL     1       5.889   7.677  -5.451  1.00  0.00     0.031 A 
ATOM     35  C   UNL     1       4.754   8.451  -5.995  1.00  0.00     0.074 A 
ATOM     36  C   UNL     1       7.171   8.044  -5.644  1.00  0.00     0.049 A 
ATOM     37  N   UNL     1       4.482   8.687  -7.236  1.00  0.00    -0.248 NA
ATOM     38  C   UNL     1       3.765   8.984  -5.046  1.00  0.00     0.031 C 
ATOM     39  C   UNL     1       8.348   7.522  -4.942  1.00  0.00     0.029 A 
ATOM     40  N   UNL     1       7.686   9.033  -6.435  1.00  0.00    -0.354 N 
ATOM     41  C   UNL     1       3.390   9.546  -7.224  1.00  0.00     0.074 A 
ATOM     42  C   UNL     1       2.915   9.603  -5.865  1.00  0.00     0.031 C 
ATOM     43  C   UNL     1       9.401   8.330  -5.181  1.00  0.00     0.029 A 
ATOM     44  C   UNL     1       9.009   9.333  -6.158  1.00  0.00     0.049 A 
ATOM     45  H   UNL     1       7.166   9.488  -7.136  1.00  0.00     0.167 HD
ATOM     46  C   UNL     1       3.117  10.343  -8.289  1.00  0.00     0.037 A 
ATOM     47  C   UNL     1       9.747  10.348  -6.662  1.00  0.00     0.037 A 
ATOM     48  C   UNL     1       3.802   9.921  -9.478  1.00  0.00     0.049 A 
ATOM     49  C   UNL     1       9.151  10.779  -7.945  1.00  0.00     0.074 A 
ATOM     50  C   UNL     1       3.592   9.009 -10.488  1.00  0.00     0.029 A 
ATOM     51  N   UNL     1       5.103  10.332  -9.562  1.00  0.00    -0.354 N 
ATOM     52  N   UNL     1       9.140  10.039  -9.019  1.00  0.00    -0.248 NA
ATOM     53  C   UNL     1       8.291  11.958  -7.990  1.00  0.00     0.031 C 
ATOM     54  C   UNL     1       4.859   8.788 -11.106  1.00  0.00     0.029 A 
ATOM     55  C   UNL     1       5.809   9.565 -10.452  1.00  0.00     0.049 A 
ATOM     56  H   UNL     1       5.484  11.082  -9.050  1.00  0.00     0.167 HD
ATOM     57  C   UNL     1       7.989  10.418  -9.677  1.00  0.00     0.074 A 
ATOM     58  C   UNL     1       7.618  11.707  -9.116  1.00  0.00     0.031 C 
ATOM     59  C   UNL     1       7.247   9.507 -10.364  1.00  0.00     0.037 A 
BRANCH  46  60
ATOM     60  C   UNL     1       2.592  11.749  -8.168  1.00  0.00     0.064 A 
ATOM     61  C   UNL     1       2.101  12.408  -9.311  1.00  0.00     0.173 A 
ATOM     62  C   UNL     1       2.859  12.570  -7.050  1.00  0.00     0.173 A 
ATOM     63  F   UNL     1       1.848  11.722 -10.436  1.00  0.00    -0.203 F 
ATOM     64  C   UNL     1       1.937  13.795  -9.345  1.00  0.00     0.198 A 
ATOM     65  C   UNL     1       2.644  13.946  -7.071  1.00  0.00     0.198 A 
ATOM     66  F   UNL     1       3.444  12.088  -5.946  1.00  0.00    -0.203 F 
ATOM     67  F   UNL     1       1.571  14.395 -10.486  1.00  0.00    -0.200 F 
ATOM     68  C   UNL     1       2.209  14.562  -8.226  1.00  0.00     0.200 A 
ATOM     69  F   UNL     1       2.939  14.677  -5.987  1.00  0.00    -0.200 F 
ATOM     70  F   UNL     1       2.102  15.897  -8.274  1.00  0.00    -0.200 F 
ENDBRANCH  46  60
BRANCH  47  71
ATOM     71  C   UNL     1      10.873  11.056  -6.022  1.00  0.00     0.064 A 
ATOM     72  C   UNL     1      11.834  11.741  -6.779  1.00  0.00     0.173 A 
ATOM     73  C   UNL     1      10.891  11.272  -4.631  1.00  0.00     0.173 A 
ATOM     74  F   UNL     1      11.855  11.621  -8.114  1.00  0.00    -0.203 F 
ATOM     75  C   UNL     1      12.751  12.608  -6.178  1.00  0.00     0.198 A 
ATOM     76  C   UNL     1      11.812  12.129  -4.031  1.00  0.00     0.198 A 
ATOM     77  F   UNL     1       9.958  10.723  -3.839  1.00  0.00    -0.203 F 
ATOM     78  F   UNL     1      13.620  13.291  -6.937  1.00  0.00    -0.200 F 
ATOM     79  C   UNL     1      12.735  12.807  -4.807  1.00  0.00     0.200 A 
ATOM     80  F   UNL     1      11.764  12.336  -2.708  1.00  0.00    -0.200 F 
ATOM     81  F   UNL     1      13.578  13.679  -4.238  1.00  0.00    -0.200 F 
ENDBRANCH  47  71
BRANCH  59  82
ATOM     82  C   UNL     1       7.954   8.282 -10.844  1.00  0.00     0.064 A 
ATOM     83  C   UNL     1       8.422   7.271  -9.992  1.00  0.00     0.173 A 
ATOM     84  C   UNL     1       8.130   8.110 -12.222  1.00  0.00     0.173 A 
ATOM     85  F   UNL     1       8.219   7.337  -8.670  1.00  0.00    -0.203 F 
ATOM     86  C   UNL     1       9.087   6.157 -10.501  1.00  0.00     0.198 A 
ATOM     87  C   UNL     1       8.764   6.981 -12.729  1.00  0.00     0.198 A 
ATOM     88  F   UNL     1       7.660   9.030 -13.080  1.00  0.00    -0.203 F 
ATOM     89  F   UNL     1       9.552   5.213  -9.668  1.00  0.00    -0.200 F 
ATOM     90  C   UNL     1       9.254   6.012 -11.869  1.00  0.00     0.200 A 
ATOM     91  F   UNL     1       8.890   6.827 -14.055  1.00  0.00    -0.200 F 
ATOM     92  F   UNL     1       9.873   4.929 -12.360  1.00  0.00    -0.200 F 
ENDBRANCH  59  82
ENDBRANCH  33  34
ENDBRANCH  26  28
ENDBRANCH  25  26
ENDBRANCH  24  25
ENDBRANCH   1  24
TORSDOF 15
