REMARK SMILES O=C(OCCOC(=O)c1cccc2nc(Cl)c(Cl)nc12)c1ccc(-c2c3nc(c(-c4c(F)c(F)c(F)c(F)c4F)c4ccc([nH]4)c(-c4c(F)c(F)c(F)c(F)c4F)c4nc(c(-c5c(F)c(F)c(F)c(F)c5F)c5ccc2[nH]5)C=C4)C=C3)cc1
REMARK SMILES IDX 4 1 3 2 2 3 1 4 21 5 22 6 83 7 23 8 82 9 24 10 25 11 26 12
REMARK SMILES IDX 76 13 27 14 81 15 75 16 77 17 28 18 80 19 74 20 73 21 29 23
REMARK SMILES IDX 61 24 41 25 60 26 42 27 45 28 59 29 78 30 43 31 44 32 58 34
REMARK SMILES IDX 79 35 46 36 30 37 31 38 39 39 32 40 33 41 37 42 40 43 34 44
REMARK SMILES IDX 35 45 38 46 36 47 62 48 63 49 71 50 64 51 65 52 69 53 72 54
REMARK SMILES IDX 66 55 67 56 70 57 68 58 47 59 48 60 56 61 49 62 50 63 54 64
REMARK SMILES IDX 57 65 51 66 52 67 55 68 53 69 5 70 6 71 7 72 8 73 9 74 10 75
REMARK SMILES IDX 20 76 11 77 13 78 19 79 12 80 14 81 17 82 15 83 18 84 16 85
REMARK H PARENT 77 22 45 33
REMARK Flexibility Score: inf
ROOT
ATOM      1  C   UNL     1       4.318  -1.321  -0.066  1.00  0.00     0.275 C 
ENDROOT
BRANCH   1   2
ATOM      2  O   UNL     1       3.364  -0.793   0.871  1.00  0.00    -0.458 OA
BRANCH   2   3
ATOM      3  C   UNL     1       3.357   0.438   1.440  1.00  0.00     0.338 C 
ATOM      4  O   UNL     1       2.767   0.626   2.501  1.00  0.00    -0.246 OA
BRANCH   3   5
ATOM      5  C   UNL     1       3.873   1.633   0.711  1.00  0.00     0.060 A 
ATOM      6  C   UNL     1       3.075   2.786   0.765  1.00  0.00     0.016 A 
ATOM      7  C   UNL     1       5.079   1.700   0.013  1.00  0.00     0.016 A 
ATOM      8  C   UNL     1       3.397   3.921   0.018  1.00  0.00     0.010 A 
ATOM      9  C   UNL     1       5.420   2.841  -0.719  1.00  0.00     0.010 A 
ATOM     10  C   UNL     1       4.571   3.951  -0.746  1.00  0.00    -0.014 A 
BRANCH  10  11
ATOM     11  C   UNL     1       5.021   5.200  -1.399  1.00  0.00     0.031 A 
ATOM     12  C   UNL     1       5.098   5.353  -2.888  1.00  0.00     0.074 A 
ATOM     13  C   UNL     1       5.440   6.195  -0.599  1.00  0.00     0.049 A 
ATOM     14  N   UNL     1       5.308   6.437  -3.593  1.00  0.00    -0.248 NA
ATOM     15  C   UNL     1       4.896   4.147  -3.702  1.00  0.00     0.031 C 
ATOM     16  C   UNL     1       5.465   6.139   0.864  1.00  0.00     0.029 A 
ATOM     17  N   UNL     1       5.955   7.426  -0.899  1.00  0.00    -0.354 N 
ATOM     18  C   UNL     1       5.143   6.067  -4.920  1.00  0.00     0.074 A 
ATOM     19  C   UNL     1       4.899   4.642  -4.934  1.00  0.00     0.031 C 
ATOM     20  C   UNL     1       5.983   7.280   1.335  1.00  0.00     0.029 A 
ATOM     21  C   UNL     1       6.357   8.126   0.208  1.00  0.00     0.049 A 
ATOM     22  H   UNL     1       6.029   7.773  -1.817  1.00  0.00     0.167 HD
ATOM     23  C   UNL     1       5.189   6.852  -6.022  1.00  0.00     0.037 A 
ATOM     24  C   UNL     1       6.985   9.309   0.302  1.00  0.00     0.037 A 
ATOM     25  C   UNL     1       5.680   8.207  -6.013  1.00  0.00     0.049 A 
ATOM     26  C   UNL     1       7.269  10.074  -0.954  1.00  0.00     0.074 A 
ATOM     27  C   UNL     1       5.860   9.074  -7.075  1.00  0.00     0.029 A 
ATOM     28  N   UNL     1       6.160   8.857  -4.882  1.00  0.00    -0.354 N 
ATOM     29  N   UNL     1       6.949   9.778  -2.191  1.00  0.00    -0.248 NA
ATOM     30  C   UNL     1       7.995  11.338  -0.802  1.00  0.00     0.031 C 
ATOM     31  C   UNL     1       6.551  10.198  -6.604  1.00  0.00     0.029 A 
ATOM     32  C   UNL     1       6.724  10.072  -5.234  1.00  0.00     0.049 A 
ATOM     33  H   UNL     1       6.107   8.504  -3.964  1.00  0.00     0.167 HD
ATOM     34  C   UNL     1       7.424  10.823  -2.969  1.00  0.00     0.074 A 
ATOM     35  C   UNL     1       8.030  11.773  -2.054  1.00  0.00     0.031 C 
ATOM     36  C   UNL     1       7.364  10.983  -4.315  1.00  0.00     0.037 A 
BRANCH  23  37
ATOM     37  C   UNL     1       4.742   6.250  -7.323  1.00  0.00     0.064 A 
ATOM     38  C   UNL     1       3.382   5.993  -7.567  1.00  0.00     0.173 A 
ATOM     39  C   UNL     1       5.654   5.968  -8.350  1.00  0.00     0.173 A 
ATOM     40  F   UNL     1       2.469   6.224  -6.612  1.00  0.00    -0.203 F 
ATOM     41  C   UNL     1       2.956   5.472  -8.788  1.00  0.00     0.198 A 
ATOM     42  C   UNL     1       5.222   5.461  -9.575  1.00  0.00     0.198 A 
ATOM     43  F   UNL     1       6.964   6.186  -8.168  1.00  0.00    -0.203 F 
ATOM     44  F   UNL     1       1.656   5.211  -8.987  1.00  0.00    -0.200 F 
ATOM     45  C   UNL     1       3.875   5.212  -9.793  1.00  0.00     0.200 A 
ATOM     46  F   UNL     1       6.112   5.209 -10.545  1.00  0.00    -0.200 F 
ATOM     47  F   UNL     1       3.465   4.710 -10.966  1.00  0.00    -0.200 F 
ENDBRANCH  23  37
BRANCH  24  48
ATOM     48  C   UNL     1       7.351   9.814   1.647  1.00  0.00     0.064 A 
ATOM     49  C   UNL     1       6.662  10.889   2.218  1.00  0.00     0.173 A 
ATOM     50  C   UNL     1       8.320   9.164   2.429  1.00  0.00     0.173 A 
ATOM     51  F   UNL     1       5.736  11.546   1.504  1.00  0.00    -0.203 F 
ATOM     52  C   UNL     1       6.918  11.289   3.527  1.00  0.00     0.198 A 
ATOM     53  C   UNL     1       8.555   9.547   3.746  1.00  0.00     0.198 A 
ATOM     54  F   UNL     1       8.998   8.120   1.928  1.00  0.00    -0.203 F 
ATOM     55  F   UNL     1       6.249  12.326   4.050  1.00  0.00    -0.200 F 
ATOM     56  C   UNL     1       7.853  10.609   4.295  1.00  0.00     0.200 A 
ATOM     57  F   UNL     1       9.441   8.872   4.490  1.00  0.00    -0.200 F 
ATOM     58  F   UNL     1       8.073  10.974   5.565  1.00  0.00    -0.200 F 
ENDBRANCH  24  48
BRANCH  36  59
ATOM     59  C   UNL     1       8.002  12.220  -4.879  1.00  0.00     0.064 A 
ATOM     60  C   UNL     1       9.394  12.398  -4.859  1.00  0.00     0.173 A 
ATOM     61  C   UNL     1       7.220  13.227  -5.464  1.00  0.00     0.173 A 
ATOM     62  F   UNL     1      10.186  11.470  -4.298  1.00  0.00    -0.203 F 
ATOM     63  C   UNL     1       9.976  13.554  -5.370  1.00  0.00     0.198 A 
ATOM     64  C   UNL     1       7.809  14.364  -6.010  1.00  0.00     0.198 A 
ATOM     65  F   UNL     1       5.886  13.103  -5.517  1.00  0.00    -0.203 F 
ATOM     66  F   UNL     1      11.302  13.729  -5.283  1.00  0.00    -0.200 F 
ATOM     67  C   UNL     1       9.184  14.532  -5.952  1.00  0.00     0.200 A 
ATOM     68  F   UNL     1       7.043  15.299  -6.589  1.00  0.00    -0.200 F 
ATOM     69  F   UNL     1       9.746  15.641  -6.451  1.00  0.00    -0.200 F 
ENDBRANCH  36  59
ENDBRANCH  10  11
ENDBRANCH   3   5
ENDBRANCH   2   3
ENDBRANCH   1   2
BRANCH   1  70
ATOM     70  C   UNL     1       3.928  -1.167  -1.538  1.00  0.00     0.275 C 
BRANCH  70  71
ATOM     71  O   UNL     1       3.333   0.104  -1.843  1.00  0.00    -0.458 OA
BRANCH  71  72
ATOM     72  C   UNL     1       1.974   0.111  -1.927  1.00  0.00     0.340 C 
ATOM     73  O   UNL     1       1.232  -0.851  -1.837  1.00  0.00    -0.246 OA
BRANCH  72  74
ATOM     74  C   UNL     1       1.526   1.490  -2.194  1.00  0.00     0.088 A 
ATOM     75  C   UNL     1       2.017   2.141  -3.334  1.00  0.00     0.018 A 
ATOM     76  C   UNL     1       0.651   2.118  -1.300  1.00  0.00     0.105 A 
ATOM     77  C   UNL     1       1.644   3.454  -3.585  1.00  0.00     0.003 A 
ATOM     78  C   UNL     1       0.316   3.476  -1.557  1.00  0.00     0.091 A 
ATOM     79  N   UNL     1       0.176   1.509  -0.185  1.00  0.00    -0.230 NA
ATOM     80  C   UNL     1       0.814   4.113  -2.684  1.00  0.00     0.031 A 
ATOM     81  N   UNL     1      -0.447   4.199  -0.718  1.00  0.00    -0.231 NA
ATOM     82  C   UNL     1      -0.606   2.241   0.644  1.00  0.00     0.167 A 
ATOM     83  C   UNL     1      -0.903   3.565   0.386  1.00  0.00     0.167 A 
ATOM     84  Cl  UNL     1      -1.126   1.395   2.041  1.00  0.00    -0.059 Cl
ATOM     85  Cl  UNL     1      -1.825   4.574   1.424  1.00  0.00    -0.059 Cl
ENDBRANCH  72  74
ENDBRANCH  71  72
ENDBRANCH  70  71
ENDBRANCH   1  70
TORSDOF 11
