REMARK SMILES Cc1cc2n(n1)[C@H](C(F)(F)F)CCN2C(=O)c1cnn([C@@H](C)C(=O)OCCOC(=O)c2ccc(-c3c4nc(c(-c5c(F)c(F)c(F)c(F)c5F)c5ccc([nH]5)c(-c5c(F)c(F)c(F)c(F)c5F)c5nc(c(-c6c(F)c(F)c(F)c(F)c6F)c6ccc3[nH]6)C=C5)C=C4)cc2)c1
REMARK SMILES IDX 26 1 25 2 23 3 24 4 21 5 22 6 20 7 17 8 18 9 94 10 19 11
REMARK SMILES IDX 15 12 16 13 14 14 1 15 2 16 3 17 6 18 4 19 5 20 7 21 13 22
REMARK SMILES IDX 12 23 8 24 9 25 10 26 11 27 27 28 28 29 29 30 30 31 31 32
REMARK SMILES IDX 32 33 93 34 33 35 92 36 34 37 35 38 36 39 86 40 37 41 91 42
REMARK SMILES IDX 85 43 87 44 38 45 90 46 84 47 83 48 39 50 71 51 51 52 70 53
REMARK SMILES IDX 52 54 55 55 69 56 88 57 53 58 54 59 68 61 89 62 56 63 40 64
REMARK SMILES IDX 41 65 49 66 42 67 43 68 47 69 50 70 44 71 45 72 48 73 46 74
REMARK SMILES IDX 72 75 73 76 81 77 74 78 75 79 79 80 82 81 76 82 77 83 80 84
REMARK SMILES IDX 78 85 57 86 58 87 66 88 59 89 60 90 64 91 67 92 61 93 62 94
REMARK SMILES IDX 65 95 63 96
REMARK H PARENT 87 49 55 60
REMARK Flexibility Score: inf
ROOT
ATOM      1  C   UNL     1      -4.968  -5.121  10.085  1.00  0.00     0.274 C 
ENDROOT
BRANCH   1   2
ATOM      2  O   UNL     1      -3.893  -4.180   9.882  1.00  0.00    -0.460 OA
BRANCH   2   3
ATOM      3  C   UNL     1      -2.626  -4.652  10.014  1.00  0.00     0.330 C 
ATOM      4  O   UNL     1      -2.353  -5.775  10.437  1.00  0.00    -0.250 OA
BRANCH   3   5
ATOM      5  C   UNL     1      -1.539  -3.667   9.642  1.00  0.00     0.213 C 
ATOM      6  C   UNL     1      -1.231  -2.775  10.832  1.00  0.00     0.046 C 
BRANCH   5   7
ATOM      7  N   UNL     1      -1.758  -2.912   8.407  1.00  0.00    -0.258 N 
ATOM      8  C   UNL     1      -1.488  -2.034   6.385  1.00  0.00     0.078 A 
ATOM      9  C   UNL     1      -2.685  -1.623   7.012  1.00  0.00     0.149 A 
ATOM     10  C   UNL     1      -0.921  -2.892   7.314  1.00  0.00     0.123 A 
ATOM     11  N   UNL     1      -2.761  -2.017   8.285  1.00  0.00    -0.180 NA
BRANCH   8  12
ATOM     12  C   UNL     1      -0.991  -1.758   5.064  1.00  0.00     0.262 C 
ATOM     13  O   UNL     1      -0.670  -2.650   4.266  1.00  0.00    -0.269 OA
BRANCH  12  14
ATOM     14  N   UNL     1      -0.774  -0.348   4.753  1.00  0.00    -0.293 N 
ATOM     15  C   UNL     1       0.850   0.021  -0.012  1.00  0.00     0.069 C 
ATOM     16  C   UNL     1       0.389   0.252   1.380  1.00  0.00     0.062 A 
ATOM     17  C   UNL     1      -0.058  -0.696   2.340  1.00  0.00     0.072 A 
ATOM     18  N   UNL     1       0.370   1.493   1.877  1.00  0.00    -0.176 NA
ATOM     19  C   UNL     1      -0.307   0.030   3.485  1.00  0.00     0.134 A 
ATOM     20  N   UNL     1       0.014   1.317   3.153  1.00  0.00    -0.237 N 
ATOM     21  C   UNL     1      -0.108   2.450   4.037  1.00  0.00     0.216 C 
ATOM     22  C   UNL     1      -0.801   0.704   5.808  1.00  0.00     0.130 C 
ATOM     23  C   UNL     1      -1.012   2.113   5.230  1.00  0.00     0.059 C 
BRANCH  21  24
ATOM     24  C   UNL     1       1.248   2.967   4.471  1.00  0.00     0.410 C 
ATOM     25  F   UNL     1       1.717   2.267   5.532  1.00  0.00    -0.169 F 
ATOM     26  F   UNL     1       2.191   2.936   3.513  1.00  0.00    -0.169 F 
ATOM     27  F   UNL     1       1.131   4.257   4.874  1.00  0.00    -0.169 F 
ENDBRANCH  21  24
ENDBRANCH  12  14
ENDBRANCH   8  12
ENDBRANCH   5   7
ENDBRANCH   3   5
ENDBRANCH   2   3
ENDBRANCH   1   2
BRANCH   1  28
ATOM     28  C   UNL     1      -5.343  -5.835   8.791  1.00  0.00     0.275 C 
BRANCH  28  29
ATOM     29  O   UNL     1      -4.312  -6.746   8.413  1.00  0.00    -0.458 OA
BRANCH  29  30
ATOM     30  C   UNL     1      -3.354  -6.214   7.622  1.00  0.00     0.338 C 
ATOM     31  O   UNL     1      -3.255  -5.061   7.260  1.00  0.00    -0.246 OA
BRANCH  30  32
ATOM     32  C   UNL     1      -2.496  -7.273   7.088  1.00  0.00     0.060 A 
ATOM     33  C   UNL     1      -1.470  -6.848   6.235  1.00  0.00     0.016 A 
ATOM     34  C   UNL     1      -2.992  -8.579   7.082  1.00  0.00     0.016 A 
ATOM     35  C   UNL     1      -1.164  -7.643   5.159  1.00  0.00     0.010 A 
ATOM     36  C   UNL     1      -2.693  -9.366   6.004  1.00  0.00     0.010 A 
ATOM     37  C   UNL     1      -1.884  -8.828   5.005  1.00  0.00    -0.014 A 
BRANCH  37  38
ATOM     38  C   UNL     1      -1.806  -9.517   3.742  1.00  0.00     0.031 A 
ATOM     39  C   UNL     1      -0.578 -10.318   3.596  1.00  0.00     0.074 A 
ATOM     40  C   UNL     1      -2.843  -9.510   2.885  1.00  0.00     0.049 A 
ATOM     41  N   UNL     1       0.396 -10.131   2.771  1.00  0.00    -0.248 NA
ATOM     42  C   UNL     1      -0.323 -11.345   4.619  1.00  0.00     0.031 C 
ATOM     43  C   UNL     1      -4.193  -8.968   3.074  1.00  0.00     0.029 A 
ATOM     44  N   UNL     1      -2.924 -10.103   1.669  1.00  0.00    -0.354 N 
ATOM     45  C   UNL     1       1.308 -11.140   3.051  1.00  0.00     0.074 A 
ATOM     46  C   UNL     1       0.918 -11.716   4.311  1.00  0.00     0.031 C 
ATOM     47  C   UNL     1      -5.010  -9.464   2.115  1.00  0.00     0.029 A 
ATOM     48  C   UNL     1      -4.215 -10.245   1.185  1.00  0.00     0.049 A 
ATOM     49  H   UNL     1      -2.131 -10.408   1.172  1.00  0.00     0.167 HD
ATOM     50  C   UNL     1       2.160 -11.608   2.103  1.00  0.00     0.037 A 
ATOM     51  C   UNL     1      -4.571 -11.057   0.158  1.00  0.00     0.037 A 
ATOM     52  C   UNL     1       2.264 -10.707   0.987  1.00  0.00     0.049 A 
ATOM     53  C   UNL     1      -3.333 -11.340  -0.623  1.00  0.00     0.074 A 
ATOM     54  C   UNL     1       2.716  -9.411   0.831  1.00  0.00     0.029 A 
ATOM     55  N   UNL     1       1.503 -10.973  -0.126  1.00  0.00    -0.354 N 
ATOM     56  N   UNL     1      -2.681 -10.426  -1.292  1.00  0.00    -0.248 NA
ATOM     57  C   UNL     1      -2.550 -12.510  -0.246  1.00  0.00     0.031 C 
ATOM     58  C   UNL     1       1.824  -8.817  -0.109  1.00  0.00     0.029 A 
ATOM     59  C   UNL     1       0.914  -9.795  -0.512  1.00  0.00     0.049 A 
ATOM     60  H   UNL     1       1.400 -11.847  -0.566  1.00  0.00     0.167 HD
ATOM     61  C   UNL     1      -1.339 -10.704  -1.068  1.00  0.00     0.074 A 
ATOM     62  C   UNL     1      -1.319 -12.036  -0.467  1.00  0.00     0.031 C 
ATOM     63  C   UNL     1      -0.396  -9.716  -1.115  1.00  0.00     0.037 A 
BRANCH  50  64
ATOM     64  C   UNL     1       2.599 -13.042   2.030  1.00  0.00     0.064 A 
ATOM     65  C   UNL     1       3.680 -13.390   1.205  1.00  0.00     0.173 A 
ATOM     66  C   UNL     1       1.823 -14.118   2.519  1.00  0.00     0.173 A 
ATOM     67  F   UNL     1       4.459 -12.439   0.667  1.00  0.00    -0.203 F 
ATOM     68  C   UNL     1       3.931 -14.717   0.849  1.00  0.00     0.198 A 
ATOM     69  C   UNL     1       2.114 -15.443   2.212  1.00  0.00     0.198 A 
ATOM     70  F   UNL     1       0.694 -13.926   3.211  1.00  0.00    -0.203 F 
ATOM     71  F   UNL     1       4.898 -14.995  -0.035  1.00  0.00    -0.200 F 
ATOM     72  C   UNL     1       3.147 -15.741   1.352  1.00  0.00     0.200 A 
ATOM     73  F   UNL     1       1.329 -16.417   2.695  1.00  0.00    -0.200 F 
ATOM     74  F   UNL     1       3.352 -17.007   0.967  1.00  0.00    -0.200 F 
ENDBRANCH  50  64
BRANCH  51  75
ATOM     75  C   UNL     1      -5.781 -11.913   0.093  1.00  0.00     0.064 A 
ATOM     76  C   UNL     1      -6.221 -12.467  -1.119  1.00  0.00     0.173 A 
ATOM     77  C   UNL     1      -6.382 -12.417   1.265  1.00  0.00     0.173 A 
ATOM     78  F   UNL     1      -5.662 -12.084  -2.275  1.00  0.00    -0.203 F 
ATOM     79  C   UNL     1      -7.200 -13.469  -1.154  1.00  0.00     0.198 A 
ATOM     80  C   UNL     1      -7.361 -13.411   1.229  1.00  0.00     0.198 A 
ATOM     81  F   UNL     1      -5.966 -12.022   2.477  1.00  0.00    -0.203 F 
ATOM     82  F   UNL     1      -7.561 -14.011  -2.326  1.00  0.00    -0.200 F 
ATOM     83  C   UNL     1      -7.763 -13.944   0.020  1.00  0.00     0.200 A 
ATOM     84  F   UNL     1      -7.866 -13.887   2.376  1.00  0.00    -0.200 F 
ATOM     85  F   UNL     1      -8.661 -14.939  -0.010  1.00  0.00    -0.200 F 
ENDBRANCH  51  75
BRANCH  63  86
ATOM     86  C   UNL     1      -0.833  -8.366  -1.613  1.00  0.00     0.064 A 
ATOM     87  C   UNL     1      -1.758  -7.549  -0.937  1.00  0.00     0.173 A 
ATOM     88  C   UNL     1      -0.185  -7.815  -2.724  1.00  0.00     0.173 A 
ATOM     89  F   UNL     1      -2.333  -7.958   0.199  1.00  0.00    -0.203 F 
ATOM     90  C   UNL     1      -2.054  -6.262  -1.382  1.00  0.00     0.198 A 
ATOM     91  C   UNL     1      -0.456  -6.515  -3.147  1.00  0.00     0.198 A 
ATOM     92  F   UNL     1       0.758  -8.520  -3.368  1.00  0.00    -0.203 F 
ATOM     93  F   UNL     1      -2.942  -5.507  -0.718  1.00  0.00    -0.200 F 
ATOM     94  C   UNL     1      -1.397  -5.744  -2.484  1.00  0.00     0.200 A 
ATOM     95  F   UNL     1       0.225  -5.996  -4.178  1.00  0.00    -0.200 F 
ATOM     96  F   UNL     1      -1.643  -4.488  -2.885  1.00  0.00    -0.200 F 
ENDBRANCH  63  86
ENDBRANCH  37  38
ENDBRANCH  30  32
ENDBRANCH  29  30
ENDBRANCH  28  29
ENDBRANCH   1  28
TORSDOF 15
