REMARK SMILES Cc1ccc(/C=C2/C[N@@H+](C)Cc3c2nc2ccccc2c3C(=O)OCCOC(=O)c2ccc(-c3c4nc(c(-c5c(F)c(F)c(F)c(F)c5F)c5ccc([nH]5)c(-c5c(F)c(F)c(F)c(F)c5F)c5nc(c(-c6c(F)c(F)c(F)c(F)c6F)c6ccc3[nH]6)C=C5)C=C4)cc2)cc1
REMARK SMILES IDX 26 1 25 2 24 3 22 4 23 5 21 6 6 7 7 8 8 9 13 10 9 11 12 12
REMARK SMILES IDX 14 13 10 14 11 15 15 17 20 18 16 19 19 20 17 21 18 22 5 23
REMARK SMILES IDX 1 24 2 25 3 26 94 27 4 28 93 29 27 30 28 31 29 32 30 33
REMARK SMILES IDX 31 34 92 35 32 36 91 37 33 38 34 39 35 40 85 41 36 42 90 43
REMARK SMILES IDX 84 44 86 45 37 46 89 47 83 48 82 49 38 51 70 52 50 53 69 54
REMARK SMILES IDX 51 55 54 56 68 57 87 58 52 59 53 60 67 62 88 63 55 64 39 65
REMARK SMILES IDX 40 66 48 67 41 68 42 69 46 70 49 71 43 72 44 73 47 74 45 75
REMARK SMILES IDX 71 76 72 77 80 78 73 79 74 80 78 81 81 82 75 83 76 84 79 85
REMARK SMILES IDX 77 86 56 87 57 88 65 89 58 90 59 91 63 92 66 93 60 94 61 95
REMARK SMILES IDX 64 96 62 97
REMARK H PARENT 9 16 86 50 54 61
REMARK Flexibility Score: inf
ROOT
ATOM      1  C   UNL     1      -6.300  -9.001  -0.781  1.00  0.00     0.275 C 
ENDROOT
BRANCH   1   2
ATOM      2  C   UNL     1      -6.061  -8.887   0.729  1.00  0.00     0.275 C 
BRANCH   2   3
ATOM      3  O   UNL     1      -5.646  -7.539   1.032  1.00  0.00    -0.458 OA
BRANCH   3   4
ATOM      4  C   UNL     1      -4.226  -7.146   0.687  1.00  0.00     0.339 C 
ATOM      5  O   UNL     1      -3.680  -8.278   0.865  1.00  0.00    -0.246 OA
BRANCH   4   6
ATOM      6  C   UNL     1      -3.500  -5.196   0.072  1.00  0.00     0.080 A 
ATOM      7  C   UNL     1      -3.239  -0.030   0.178  1.00  0.00     0.020 C 
ATOM      8  C   UNL     1      -4.004  -1.121  -0.093  1.00  0.00     0.033 C 
ATOM      9  C   UNL     1      -5.486  -0.984  -0.154  1.00  0.00     0.301 C 
ATOM     10  C   UNL     1      -3.542  -2.523  -0.325  1.00  0.00     0.082 A 
ATOM     11  N   UNL     1      -6.017  -1.942   0.802  1.00  0.00    -0.330 N 
ATOM     12  C   UNL     1      -4.224  -3.715   0.072  1.00  0.00     0.048 A 
ATOM     13  N   UNL     1      -2.405  -2.520  -0.995  1.00  0.00    -0.247 NA
ATOM     14  C   UNL     1      -7.453  -1.731   0.997  1.00  0.00     0.333 C 
ATOM     15  C   UNL     1      -5.757  -3.299   0.275  1.00  0.00     0.302 C 
ATOM     16  H   UNL     1      -5.565  -1.824   1.709  1.00  0.00     0.348 HD
ATOM     17  C   UNL     1      -1.619  -3.554  -1.023  1.00  0.00     0.072 A 
ATOM     18  C   UNL     1      -1.917  -4.841  -0.497  1.00  0.00     0.015 A 
ATOM     19  C   UNL     1      -0.405  -3.125  -1.575  1.00  0.00     0.029 A 
ATOM     20  C   UNL     1      -0.595  -5.568  -0.626  1.00  0.00     0.011 A 
ATOM     21  C   UNL     1       0.742  -3.889  -1.626  1.00  0.00     0.002 A 
ATOM     22  C   UNL     1       0.649  -5.147  -1.131  1.00  0.00     0.001 A 
BRANCH   7  23
ATOM     23  C   UNL     1      -1.773   0.112   0.331  1.00  0.00    -0.025 A 
ATOM     24  C   UNL     1       2.533   0.303   0.108  1.00  0.00     0.044 C 
ATOM     25  C   UNL     1       1.048   0.314   0.317  1.00  0.00    -0.051 A 
ATOM     26  C   UNL     1       0.415  -0.787   0.896  1.00  0.00     0.004 A 
ATOM     27  C   UNL     1       0.260   1.367  -0.158  1.00  0.00     0.004 A 
ATOM     28  C   UNL     1      -0.981  -0.860   0.946  1.00  0.00     0.008 A 
ATOM     29  C   UNL     1      -1.138   1.267  -0.150  1.00  0.00     0.008 A 
ENDBRANCH   7  23
ENDBRANCH   4   6
ENDBRANCH   3   4
ENDBRANCH   2   3
ENDBRANCH   1   2
BRANCH   1  30
ATOM     30  O   UNL     1      -5.101  -8.882  -1.591  1.00  0.00    -0.458 OA
BRANCH  30  31
ATOM     31  C   UNL     1      -4.861  -7.713  -2.250  1.00  0.00     0.338 C 
ATOM     32  O   UNL     1      -4.840  -7.571  -3.457  1.00  0.00    -0.246 OA
BRANCH  31  33
ATOM     33  C   UNL     1      -4.316  -6.701  -1.325  1.00  0.00     0.060 A 
ATOM     34  C   UNL     1      -2.704  -7.104  -0.647  1.00  0.00     0.016 A 
ATOM     35  C   UNL     1      -5.517  -5.866  -0.299  1.00  0.00     0.016 A 
ATOM     36  C   UNL     1      -2.288  -6.661   1.110  1.00  0.00     0.010 A 
ATOM     37  C   UNL     1      -5.118  -5.503   1.469  1.00  0.00     0.010 A 
ATOM     38  C   UNL     1      -3.509  -5.887   2.152  1.00  0.00    -0.014 A 
BRANCH  38  39
ATOM     39  C   UNL     1      -3.616  -6.123   3.585  1.00  0.00     0.031 A 
ATOM     40  C   UNL     1      -4.154  -5.025   4.410  1.00  0.00     0.074 A 
ATOM     41  C   UNL     1      -3.555  -7.410   4.007  1.00  0.00     0.049 A 
ATOM     42  N   UNL     1      -4.338  -5.128   5.672  1.00  0.00    -0.248 NA
ATOM     43  C   UNL     1      -4.525  -3.701   3.908  1.00  0.00     0.031 C 
ATOM     44  C   UNL     1      -4.090  -8.013   5.226  1.00  0.00     0.029 A 
ATOM     45  N   UNL     1      -2.857  -8.466   3.409  1.00  0.00    -0.354 N 
ATOM     46  C   UNL     1      -5.004  -4.014   6.122  1.00  0.00     0.074 A 
ATOM     47  C   UNL     1      -5.088  -3.140   4.986  1.00  0.00     0.031 C 
ATOM     48  C   UNL     1      -3.504  -9.207   5.429  1.00  0.00     0.029 A 
ATOM     49  C   UNL     1      -2.489  -9.384   4.405  1.00  0.00     0.049 A 
ATOM     50  H   UNL     1      -2.658  -8.551   2.449  1.00  0.00     0.167 HD
ATOM     51  C   UNL     1      -5.439  -4.045   7.411  1.00  0.00     0.037 A 
ATOM     52  C   UNL     1      -1.159  -9.566   4.662  1.00  0.00     0.037 A 
ATOM     53  C   UNL     1      -4.758  -5.143   8.100  1.00  0.00     0.049 A 
ATOM     54  C   UNL     1      -0.741  -8.836   5.925  1.00  0.00     0.074 A 
ATOM     55  C   UNL     1      -5.115  -6.445   8.395  1.00  0.00     0.029 A 
ATOM     56  N   UNL     1      -3.368  -5.083   8.184  1.00  0.00    -0.354 N 
ATOM     57  N   UNL     1      -1.460  -7.907   6.502  1.00  0.00    -0.248 NA
ATOM     58  C   UNL     1       0.482  -9.127   6.665  1.00  0.00     0.031 C 
ATOM     59  C   UNL     1      -3.908  -7.193   8.534  1.00  0.00     0.029 A 
ATOM     60  C   UNL     1      -2.825  -6.337   8.382  1.00  0.00     0.049 A 
ATOM     61  H   UNL     1      -2.842  -4.254   8.113  1.00  0.00     0.167 HD
ATOM     62  C   UNL     1      -0.847  -7.487   7.649  1.00  0.00     0.074 A 
ATOM     63  C   UNL     1       0.362  -8.290   7.710  1.00  0.00     0.031 C 
ATOM     64  C   UNL     1      -1.376  -6.520   8.461  1.00  0.00     0.037 A 
BRANCH  51  65
ATOM     65  C   UNL     1      -6.531  -3.216   8.040  1.00  0.00     0.064 A 
ATOM     66  C   UNL     1      -6.889  -3.451   9.387  1.00  0.00     0.173 A 
ATOM     67  C   UNL     1      -7.355  -2.292   7.365  1.00  0.00     0.173 A 
ATOM     68  F   UNL     1      -6.192  -4.304  10.152  1.00  0.00    -0.203 F 
ATOM     69  C   UNL     1      -7.992  -2.842   9.993  1.00  0.00     0.198 A 
ATOM     70  C   UNL     1      -8.440  -1.658   7.983  1.00  0.00     0.198 A 
ATOM     71  F   UNL     1      -7.182  -1.995   6.074  1.00  0.00    -0.203 F 
ATOM     72  F   UNL     1      -8.312  -3.151  11.257  1.00  0.00    -0.200 F 
ATOM     73  C   UNL     1      -8.768  -1.944   9.291  1.00  0.00     0.200 A 
ATOM     74  F   UNL     1      -9.184  -0.787   7.285  1.00  0.00    -0.200 F 
ATOM     75  F   UNL     1      -9.832  -1.368   9.866  1.00  0.00    -0.200 F 
ENDBRANCH  51  65
BRANCH  52  76
ATOM     76  C   UNL     1      -0.376  -9.731   3.398  1.00  0.00     0.064 A 
ATOM     77  C   UNL     1      -0.775 -10.786   2.544  1.00  0.00     0.173 A 
ATOM     78  C   UNL     1       0.390  -8.711   2.829  1.00  0.00     0.173 A 
ATOM     79  F   UNL     1      -1.438 -11.839   3.050  1.00  0.00    -0.203 F 
ATOM     80  C   UNL     1      -0.626 -10.704   1.161  1.00  0.00     0.198 A 
ATOM     81  C   UNL     1       0.608  -8.675   1.446  1.00  0.00     0.198 A 
ATOM     82  F   UNL     1       0.799  -7.670   3.568  1.00  0.00    -0.203 F 
ATOM     83  F   UNL     1      -1.190 -11.627   0.368  1.00  0.00    -0.200 F 
ATOM     84  C   UNL     1       0.031  -9.622   0.610  1.00  0.00     0.200 A 
ATOM     85  F   UNL     1       1.260  -7.636   0.904  1.00  0.00    -0.200 F 
ATOM     86  F   UNL     1       0.057  -9.454  -0.721  1.00  0.00    -0.200 F 
ENDBRANCH  52  76
BRANCH  64  87
ATOM     87  C   UNL     1      -0.579  -5.743   9.489  1.00  0.00     0.064 A 
ATOM     88  C   UNL     1       0.822  -5.632   9.465  1.00  0.00     0.173 A 
ATOM     89  C   UNL     1      -1.220  -4.965  10.485  1.00  0.00     0.173 A 
ATOM     90  F   UNL     1       1.552  -6.136   8.461  1.00  0.00    -0.203 F 
ATOM     91  C   UNL     1       1.530  -4.939  10.448  1.00  0.00     0.198 A 
ATOM     92  C   UNL     1      -0.514  -4.189  11.402  1.00  0.00     0.198 A 
ATOM     93  F   UNL     1      -2.554  -4.902  10.592  1.00  0.00    -0.203 F 
ATOM     94  F   UNL     1       2.870  -4.963  10.437  1.00  0.00    -0.200 F 
ATOM     95  C   UNL     1       0.863  -4.214  11.414  1.00  0.00     0.200 A 
ATOM     96  F   UNL     1      -1.181  -3.410  12.264  1.00  0.00    -0.200 F 
ATOM     97  F   UNL     1       1.543  -3.521  12.335  1.00  0.00    -0.200 F 
ENDBRANCH  64  87
ENDBRANCH  38  39
ENDBRANCH  31  33
ENDBRANCH  30  31
ENDBRANCH   1  30
TORSDOF 12
