REMARK SMILES C/C(=N\Nc1ccc(C(=O)OCCOC(=O)c2ccc(-c3c4nc(c(-c5c(F)c(F)c(F)c(F)c5F)c5ccc([nH]5)c(-c5c(F)c(F)c(F)c(F)c5F)c5nc(c(-c6c(F)c(F)c(F)c(F)c6F)c6ccc3[nH]6)C=C5)C=C4)cc2)cc1)c1cccc(S(=O)(=O)N(C)C)c1
REMARK SMILES IDX 11 1 9 2 10 3 8 4 5 5 6 6 81 7 7 8 80 9 4 10 3 12 1 13 2 14
REMARK SMILES IDX 82 15 83 16 93 17 84 18 86 19 85 20 87 21 88 22 89 23 90 24
REMARK SMILES IDX 91 25 92 26 12 27 13 28 14 29 15 30 16 31 17 32 18 33 79 34
REMARK SMILES IDX 19 35 78 36 20 37 21 38 22 39 72 40 23 41 77 42 71 43 73 44
REMARK SMILES IDX 24 45 76 46 70 47 69 48 25 50 57 51 37 52 56 53 38 54 41 55
REMARK SMILES IDX 55 56 74 57 39 58 40 59 54 61 75 62 42 63 26 64 27 65 35 66
REMARK SMILES IDX 28 67 29 68 33 69 36 70 30 71 31 72 34 73 32 74 58 75 59 76
REMARK SMILES IDX 67 77 60 78 61 79 65 80 68 81 62 82 63 83 66 84 64 85 43 86
REMARK SMILES IDX 44 87 52 88 45 89 46 90 50 91 53 92 47 93 48 94 51 95 49 96
REMARK H PARENT 4 11 73 49 41 60
REMARK Flexibility Score: inf
ROOT
ATOM      1  O   UNL     1       0.657  -5.204  -0.710  1.00  0.00    -0.458 OA
ENDROOT
BRANCH   1   2
ATOM      2  C   UNL     1       1.222  -4.219  -1.446  1.00  0.00     0.338 C 
ATOM      3  O   UNL     1       2.286  -4.274  -2.042  1.00  0.00    -0.246 OA
BRANCH   2   4
ATOM      4  C   UNL     1       0.347  -3.027  -1.496  1.00  0.00     0.060 A 
ATOM      5  C   UNL     1      -0.898  -0.527  -1.484  1.00  0.00     0.056 A 
ATOM      6  C   UNL     1      -0.213  -0.958  -2.624  1.00  0.00     0.028 A 
ATOM      7  C   UNL     1      -1.071  -1.410  -0.411  1.00  0.00     0.028 A 
ATOM      8  C   UNL     1       0.458  -2.174  -2.602  1.00  0.00     0.018 A 
ATOM      9  C   UNL     1      -0.475  -2.673  -0.425  1.00  0.00     0.018 A 
BRANCH   5  10
ATOM     10  N   UNL     1      -1.133   0.849  -1.347  1.00  0.00    -0.278 N 
ATOM     11  H   UNL     1      -1.597   1.315  -2.079  1.00  0.00     0.190 HD
BRANCH  10  12
ATOM     12  N   UNL     1      -0.756   1.575  -0.262  1.00  0.00    -0.180 NA
ATOM     13  C   UNL     1       1.569   0.599  -0.294  1.00  0.00     0.069 C 
ATOM     14  C   UNL     1       0.463   1.516   0.213  1.00  0.00     0.065 C 
BRANCH  14  15
ATOM     15  C   UNL     1       0.848   2.504   1.281  1.00  0.00    -0.001 A 
ATOM     16  C   UNL     1       0.011   3.604   1.520  1.00  0.00     0.010 A 
ATOM     17  C   UNL     1       2.099   2.452   1.905  1.00  0.00     0.031 A 
ATOM     18  C   UNL     1       0.455   4.678   2.296  1.00  0.00     0.002 A 
ATOM     19  C   UNL     1       2.575   3.570   2.590  1.00  0.00     0.083 A 
ATOM     20  C   UNL     1       1.755   4.682   2.797  1.00  0.00     0.022 A 
BRANCH  19  21
ATOM     21  S   UNL     1       4.280   3.658   3.086  1.00  0.00     0.242 S 
ATOM     22  O   UNL     1       4.785   4.956   2.672  1.00  0.00    -0.207 OA
ATOM     23  O   UNL     1       4.329   3.229   4.462  1.00  0.00    -0.207 OA
BRANCH  21  24
ATOM     24  N   UNL     1       5.096   2.486   2.126  1.00  0.00    -0.204 NA
ATOM     25  C   UNL     1       5.173   2.777   0.672  1.00  0.00     0.124 C 
ATOM     26  C   UNL     1       6.442   2.156   2.658  1.00  0.00     0.124 C 
ENDBRANCH  21  24
ENDBRANCH  19  21
ENDBRANCH  14  15
ENDBRANCH  10  12
ENDBRANCH   5  10
ENDBRANCH   2   4
ENDBRANCH   1   2
BRANCH   1  27
ATOM     27  C   UNL     1       1.374  -6.452  -0.703  1.00  0.00     0.275 C 
BRANCH  27  28
ATOM     28  C   UNL     1       0.769  -7.420  -1.718  1.00  0.00     0.275 C 
BRANCH  28  29
ATOM     29  O   UNL     1       0.974  -6.935  -3.059  1.00  0.00    -0.458 OA
BRANCH  29  30
ATOM     30  C   UNL     1      -0.136  -6.513  -3.706  1.00  0.00     0.338 C 
ATOM     31  O   UNL     1      -1.287  -6.529  -3.306  1.00  0.00    -0.246 OA
BRANCH  30  32
ATOM     32  C   UNL     1       0.233  -5.988  -5.030  1.00  0.00     0.060 A 
ATOM     33  C   UNL     1       0.918  -4.779  -5.119  1.00  0.00     0.016 A 
ATOM     34  C   UNL     1      -0.214  -6.622  -6.185  1.00  0.00     0.016 A 
ATOM     35  C   UNL     1       1.081  -4.148  -6.350  1.00  0.00     0.010 A 
ATOM     36  C   UNL     1       0.041  -6.039  -7.431  1.00  0.00     0.010 A 
ATOM     37  C   UNL     1       0.663  -4.779  -7.527  1.00  0.00    -0.014 A 
BRANCH  37  38
ATOM     38  C   UNL     1       0.842  -4.124  -8.853  1.00  0.00     0.031 A 
ATOM     39  C   UNL     1      -0.355  -3.863  -9.728  1.00  0.00     0.074 A 
ATOM     40  C   UNL     1       2.067  -3.772  -9.290  1.00  0.00     0.049 A 
ATOM     41  N   UNL     1      -0.404  -3.544 -10.996  1.00  0.00    -0.248 NA
ATOM     42  C   UNL     1      -1.675  -3.992  -9.091  1.00  0.00     0.031 C 
ATOM     43  C   UNL     1       3.311  -3.904  -8.530  1.00  0.00     0.029 A 
ATOM     44  N   UNL     1       2.470  -3.236 -10.490  1.00  0.00    -0.354 N 
ATOM     45  C   UNL     1      -1.752  -3.502 -11.325  1.00  0.00     0.074 A 
ATOM     46  C   UNL     1      -2.491  -3.817 -10.121  1.00  0.00     0.031 C 
ATOM     47  C   UNL     1       4.331  -3.441  -9.269  1.00  0.00     0.029 A 
ATOM     48  C   UNL     1       3.830  -3.070 -10.588  1.00  0.00     0.049 A 
ATOM     49  H   UNL     1       1.843  -2.993 -11.209  1.00  0.00     0.167 HD
ATOM     50  C   UNL     1      -2.318  -3.233 -12.526  1.00  0.00     0.037 A 
ATOM     51  C   UNL     1       4.598  -2.716 -11.636  1.00  0.00     0.037 A 
ATOM     52  C   UNL     1      -1.582  -2.859 -13.705  1.00  0.00     0.049 A 
ATOM     53  C   UNL     1       3.952  -2.454 -12.967  1.00  0.00     0.074 A 
ATOM     54  C   UNL     1      -2.065  -2.550 -14.965  1.00  0.00     0.029 A 
ATOM     55  N   UNL     1      -0.203  -2.723 -13.762  1.00  0.00    -0.354 N 
ATOM     56  N   UNL     1       2.683  -2.488 -13.289  1.00  0.00    -0.248 NA
ATOM     57  C   UNL     1       4.848  -2.129 -14.086  1.00  0.00     0.031 C 
ATOM     58  C   UNL     1      -0.976  -2.256 -15.793  1.00  0.00     0.029 A 
ATOM     59  C   UNL     1       0.182  -2.345 -15.038  1.00  0.00     0.049 A 
ATOM     60  H   UNL     1       0.412  -2.873 -13.008  1.00  0.00     0.167 HD
ATOM     61  C   UNL     1       2.625  -2.181 -14.641  1.00  0.00     0.074 A 
ATOM     62  C   UNL     1       3.986  -1.946 -15.076  1.00  0.00     0.031 C 
ATOM     63  C   UNL     1       1.541  -2.107 -15.450  1.00  0.00     0.037 A 
BRANCH  50  64
ATOM     64  C   UNL     1      -3.808  -3.370 -12.641  1.00  0.00     0.064 A 
ATOM     65  C   UNL     1      -4.687  -2.431 -12.084  1.00  0.00     0.173 A 
ATOM     66  C   UNL     1      -4.360  -4.441 -13.361  1.00  0.00     0.173 A 
ATOM     67  F   UNL     1      -4.209  -1.397 -11.376  1.00  0.00    -0.203 F 
ATOM     68  C   UNL     1      -6.066  -2.570 -12.226  1.00  0.00     0.198 A 
ATOM     69  C   UNL     1      -5.737  -4.564 -13.522  1.00  0.00     0.198 A 
ATOM     70  F   UNL     1      -3.562  -5.364 -13.918  1.00  0.00    -0.203 F 
ATOM     71  F   UNL     1      -6.890  -1.682 -11.653  1.00  0.00    -0.200 F 
ATOM     72  C   UNL     1      -6.589  -3.631 -12.950  1.00  0.00     0.200 A 
ATOM     73  F   UNL     1      -6.240  -5.583 -14.232  1.00  0.00    -0.200 F 
ATOM     74  F   UNL     1      -7.916  -3.759 -13.092  1.00  0.00    -0.200 F 
ENDBRANCH  50  64
BRANCH  51  75
ATOM     75  C   UNL     1       6.074  -2.641 -11.476  1.00  0.00     0.064 A 
ATOM     76  C   UNL     1       6.740  -1.409 -11.512  1.00  0.00     0.173 A 
ATOM     77  C   UNL     1       6.844  -3.795 -11.268  1.00  0.00     0.173 A 
ATOM     78  F   UNL     1       6.050  -0.281 -11.735  1.00  0.00    -0.203 F 
ATOM     79  C   UNL     1       8.123  -1.335 -11.352  1.00  0.00     0.198 A 
ATOM     80  C   UNL     1       8.221  -3.717 -11.079  1.00  0.00     0.198 A 
ATOM     81  F   UNL     1       6.253  -4.999 -11.228  1.00  0.00    -0.203 F 
ATOM     82  F   UNL     1       8.741  -0.149 -11.424  1.00  0.00    -0.200 F 
ATOM     83  C   UNL     1       8.860  -2.488 -11.125  1.00  0.00     0.200 A 
ATOM     84  F   UNL     1       8.928  -4.832 -10.846  1.00  0.00    -0.200 F 
ATOM     85  F   UNL     1      10.188  -2.414 -10.957  1.00  0.00    -0.200 F 
ENDBRANCH  51  75
BRANCH  63  86
ATOM     86  C   UNL     1       1.778  -1.725 -16.880  1.00  0.00     0.064 A 
ATOM     87  C   UNL     1       2.309  -2.637 -17.802  1.00  0.00     0.173 A 
ATOM     88  C   UNL     1       1.428  -0.447 -17.340  1.00  0.00     0.173 A 
ATOM     89  F   UNL     1       2.674  -3.865 -17.404  1.00  0.00    -0.203 F 
ATOM     90  C   UNL     1       2.496  -2.278 -19.134  1.00  0.00     0.198 A 
ATOM     91  C   UNL     1       1.596  -0.099 -18.677  1.00  0.00     0.198 A 
ATOM     92  F   UNL     1       0.914   0.458 -16.495  1.00  0.00    -0.203 F 
ATOM     93  F   UNL     1       3.038  -3.152 -19.993  1.00  0.00    -0.200 F 
ATOM     94  C   UNL     1       2.134  -1.012 -19.572  1.00  0.00     0.200 A 
ATOM     95  F   UNL     1       1.238   1.122 -19.100  1.00  0.00    -0.200 F 
ATOM     96  F   UNL     1       2.308  -0.670 -20.855  1.00  0.00    -0.200 F 
ENDBRANCH  63  86
ENDBRANCH  37  38
ENDBRANCH  30  32
ENDBRANCH  29  30
ENDBRANCH  28  29
ENDBRANCH  27  28
ENDBRANCH   1  27
TORSDOF 16
