REMARK SMILES O=C(OCCOC(=O)c1ccc(-c2c3nc(c(-c4c(F)c(F)c(F)c(F)c4F)c4ccc([nH]4)c(-c4c(F)c(F)c(F)c(F)c4F)c4nc(c(-c5c(F)c(F)c(F)c(F)c5F)c5ccc2[nH]5)C=C4)C=C3)cc1)c1ccc(C[N@@H+]2CCC[C@H]2c2nc(-c3ccc(-c4cncnc4)nc3)no2)cc1
REMARK SMILES IDX 3 1 2 2 1 3 72 4 73 5 100 6 74 7 99 8 75 9 76 10 77 11 78 12
REMARK SMILES IDX 81 13 79 15 80 16 82 17 83 18 98 19 84 20 97 21 85 22 86 23
REMARK SMILES IDX 96 24 87 25 95 26 88 27 89 28 90 29 94 30 91 31 93 32 92 33
REMARK SMILES IDX 4 34 5 35 6 36 7 37 8 38 9 39 10 40 71 41 11 42 70 43 12 44
REMARK SMILES IDX 13 45 14 46 64 47 15 48 69 49 63 50 65 51 16 52 68 53 62 54
REMARK SMILES IDX 61 55 17 57 49 58 29 59 48 60 30 61 33 62 47 63 66 64 31 65
REMARK SMILES IDX 32 66 46 68 67 69 34 70 18 71 19 72 27 73 20 74 21 75 25 76
REMARK SMILES IDX 28 77 22 78 23 79 26 80 24 81 50 82 51 83 59 84 52 85 53 86
REMARK SMILES IDX 57 87 60 88 54 89 55 90 58 91 56 92 35 93 36 94 44 95 37 96
REMARK SMILES IDX 38 97 42 98 45 99 39 100 40 101 43 102 41 103
REMARK H PARENT 77 14 65 56 33 67
REMARK Flexibility Score: inf
ROOT
ATOM      1  O   UNL     1       2.833  -0.749   0.462  1.00  0.00    -0.458 OA
ENDROOT
BRANCH   1   2
ATOM      2  C   UNL     1       2.765   0.494   0.992  1.00  0.00     0.338 C 
ATOM      3  O   UNL     1       1.961   0.702   1.899  1.00  0.00    -0.246 OA
BRANCH   2   4
ATOM      4  C   UNL     1       3.531   1.672   0.461  1.00  0.00     0.060 A 
ATOM      5  C   UNL     1       4.421   1.653  -0.610  1.00  0.00     0.016 A 
ATOM      6  C   UNL     1       3.266   2.922   1.047  1.00  0.00     0.016 A 
ATOM      7  C   UNL     1       4.975   2.821  -1.129  1.00  0.00     0.010 A 
ATOM      8  C   UNL     1       3.878   4.090   0.577  1.00  0.00     0.010 A 
ATOM      9  C   UNL     1       4.742   4.048  -0.522  1.00  0.00     0.006 A 
BRANCH   9  10
ATOM     10  C   UNL     1       5.492   5.270  -0.994  1.00  0.00     0.299 C 
BRANCH  10  11
ATOM     11  N   UNL     1       6.900   5.333  -0.587  1.00  0.00    -0.321 N 
ATOM     12  C   UNL     1       7.822   4.446  -1.296  1.00  0.00     0.263 C 
ATOM     13  C   UNL     1       7.121   5.128   0.854  1.00  0.00     0.275 C 
ATOM     14  H   UNL     1       7.118   6.294  -0.852  1.00  0.00     0.349 HD
ATOM     15  C   UNL     1       8.155   3.288  -0.366  1.00  0.00     0.068 C 
ATOM     16  C   UNL     1       7.668   3.707   1.012  1.00  0.00     0.081 C 
BRANCH  13  17
ATOM     17  C   UNL     1       8.073   6.130   1.413  1.00  0.00     0.285 A 
ATOM     18  N   UNL     1       9.321   6.401   1.098  1.00  0.00    -0.186 NA
ATOM     19  O   UNL     1       7.616   6.838   2.486  1.00  0.00    -0.332 OA
ATOM     20  C   UNL     1       9.662   7.314   2.062  1.00  0.00     0.204 A 
ATOM     21  N   UNL     1       8.680   7.612   2.926  1.00  0.00    -0.057 NA
BRANCH  20  22
ATOM     22  C   UNL     1      10.998   7.835   2.190  1.00  0.00     0.041 A 
ATOM     23  C   UNL     1      11.645   7.827   3.424  1.00  0.00     0.016 A 
ATOM     24  C   UNL     1      11.675   8.363   1.102  1.00  0.00     0.123 A 
ATOM     25  C   UNL     1      12.928   8.351   3.527  1.00  0.00     0.030 A 
ATOM     26  N   UNL     1      12.915   8.909   1.181  1.00  0.00    -0.255 NA
ATOM     27  C   UNL     1      13.527   8.894   2.391  1.00  0.00     0.073 A 
BRANCH  27  28
ATOM     28  C   UNL     1      14.834   9.528   2.456  1.00  0.00     0.037 A 
ATOM     29  C   UNL     1      15.958   8.902   2.963  1.00  0.00     0.124 A 
ATOM     30  C   UNL     1      15.045  10.836   2.060  1.00  0.00     0.124 A 
ATOM     31  N   UNL     1      17.164   9.493   3.104  1.00  0.00    -0.244 NA
ATOM     32  N   UNL     1      16.224  11.487   2.179  1.00  0.00    -0.244 NA
ATOM     33  C   UNL     1      17.230  10.771   2.702  1.00  0.00     0.221 A 
ENDBRANCH  27  28
ENDBRANCH  20  22
ENDBRANCH  13  17
ENDBRANCH  10  11
ENDBRANCH   9  10
ENDBRANCH   2   4
ENDBRANCH   1   2
BRANCH   1  34
ATOM     34  C   UNL     1       3.938  -1.391  -0.203  1.00  0.00     0.275 C 
BRANCH  34  35
ATOM     35  C   UNL     1       3.630  -1.628  -1.692  1.00  0.00     0.275 C 
BRANCH  35  36
ATOM     36  O   UNL     1       3.265  -0.406  -2.372  1.00  0.00    -0.458 OA
BRANCH  36  37
ATOM     37  C   UNL     1       1.937  -0.127  -2.417  1.00  0.00     0.338 C 
ATOM     38  O   UNL     1       1.032  -0.902  -2.152  1.00  0.00    -0.246 OA
BRANCH  37  39
ATOM     39  C   UNL     1       1.716   1.324  -2.671  1.00  0.00     0.060 A 
ATOM     40  C   UNL     1       0.616   1.931  -2.051  1.00  0.00     0.016 A 
ATOM     41  C   UNL     1       2.571   2.103  -3.459  1.00  0.00     0.016 A 
ATOM     42  C   UNL     1       0.360   3.297  -2.228  1.00  0.00     0.010 A 
ATOM     43  C   UNL     1       2.327   3.479  -3.615  1.00  0.00     0.010 A 
ATOM     44  C   UNL     1       1.206   4.087  -3.019  1.00  0.00    -0.014 A 
BRANCH  44  45
ATOM     45  C   UNL     1       0.867   5.515  -3.291  1.00  0.00     0.031 A 
ATOM     46  C   UNL     1       0.344   5.915  -4.645  1.00  0.00     0.074 A 
ATOM     47  C   UNL     1       0.994   6.466  -2.344  1.00  0.00     0.049 A 
ATOM     48  N   UNL     1      -0.046   7.092  -5.069  1.00  0.00    -0.248 NA
ATOM     49  C   UNL     1       0.239   4.850  -5.654  1.00  0.00     0.031 C 
ATOM     50  C   UNL     1       1.455   6.240  -0.979  1.00  0.00     0.029 A 
ATOM     51  N   UNL     1       0.754   7.820  -2.391  1.00  0.00    -0.354 N 
ATOM     52  C   UNL     1      -0.463   6.905  -6.379  1.00  0.00     0.074 A 
ATOM     53  C   UNL     1      -0.220   5.515  -6.704  1.00  0.00     0.031 C 
ATOM     54  C   UNL     1       1.501   7.415  -0.326  1.00  0.00     0.029 A 
ATOM     55  C   UNL     1       1.063   8.480  -1.226  1.00  0.00     0.049 A 
ATOM     56  H   UNL     1       0.394   8.275  -3.187  1.00  0.00     0.167 HD
ATOM     57  C   UNL     1      -1.029   7.796  -7.227  1.00  0.00     0.037 A 
ATOM     58  C   UNL     1       1.000   9.790  -0.914  1.00  0.00     0.037 A 
ATOM     59  C   UNL     1      -1.295   9.176  -6.923  1.00  0.00     0.049 A 
ATOM     60  C   UNL     1       0.455  10.780  -1.912  1.00  0.00     0.074 A 
ATOM     61  C   UNL     1      -1.933  10.123  -7.707  1.00  0.00     0.029 A 
ATOM     62  N   UNL     1      -0.928   9.813  -5.749  1.00  0.00    -0.354 N 
ATOM     63  N   UNL     1      -0.026  10.567  -3.111  1.00  0.00    -0.248 NA
ATOM     64  C   UNL     1       0.425  12.194  -1.501  1.00  0.00     0.031 C 
ATOM     65  C   UNL     1      -1.907  11.346  -7.030  1.00  0.00     0.029 A 
ATOM     66  C   UNL     1      -1.291  11.151  -5.806  1.00  0.00     0.049 A 
ATOM     67  H   UNL     1      -0.477   9.381  -4.989  1.00  0.00     0.167 HD
ATOM     68  C   UNL     1      -0.455  11.805  -3.576  1.00  0.00     0.074 A 
ATOM     69  C   UNL     1      -0.179  12.766  -2.532  1.00  0.00     0.031 C 
ATOM     70  C   UNL     1      -1.034  12.109  -4.763  1.00  0.00     0.037 A 
BRANCH  57  71
ATOM     71  C   UNL     1      -1.425   7.298  -8.583  1.00  0.00     0.064 A 
ATOM     72  C   UNL     1      -2.557   6.488  -8.758  1.00  0.00     0.173 A 
ATOM     73  C   UNL     1      -0.704   7.683  -9.721  1.00  0.00     0.173 A 
ATOM     74  F   UNL     1      -3.271   6.087  -7.695  1.00  0.00    -0.203 F 
ATOM     75  C   UNL     1      -2.944   6.069 -10.027  1.00  0.00     0.198 A 
ATOM     76  C   UNL     1      -1.107   7.280 -10.990  1.00  0.00     0.198 A 
ATOM     77  F   UNL     1       0.383   8.461  -9.602  1.00  0.00    -0.203 F 
ATOM     78  F   UNL     1      -4.011   5.271 -10.170  1.00  0.00    -0.200 F 
ATOM     79  C   UNL     1      -2.224   6.471 -11.142  1.00  0.00     0.200 A 
ATOM     80  F   UNL     1      -0.417   7.676 -12.069  1.00  0.00    -0.200 F 
ATOM     81  F   UNL     1      -2.604   6.075 -12.364  1.00  0.00    -0.200 F 
ENDBRANCH  57  71
BRANCH  58  82
ATOM     82  C   UNL     1       1.463  10.268   0.415  1.00  0.00     0.064 A 
ATOM     83  C   UNL     1       0.557  10.760   1.365  1.00  0.00     0.173 A 
ATOM     84  C   UNL     1       2.829  10.309   0.730  1.00  0.00     0.173 A 
ATOM     85  F   UNL     1      -0.756  10.769   1.095  1.00  0.00    -0.203 F 
ATOM     86  C   UNL     1       1.002  11.305   2.568  1.00  0.00     0.198 A 
ATOM     87  C   UNL     1       3.271  10.834   1.943  1.00  0.00     0.198 A 
ATOM     88  F   UNL     1       3.734   9.853  -0.147  1.00  0.00    -0.203 F 
ATOM     89  F   UNL     1       0.120  11.824   3.433  1.00  0.00    -0.200 F 
ATOM     90  C   UNL     1       2.359  11.341   2.856  1.00  0.00     0.200 A 
ATOM     91  F   UNL     1       4.582  10.864   2.219  1.00  0.00    -0.200 F 
ATOM     92  F   UNL     1       2.787  11.880   4.006  1.00  0.00    -0.200 F 
ENDBRANCH  58  82
BRANCH  70  93
ATOM     93  C   UNL     1      -1.450  13.533  -4.993  1.00  0.00     0.064 A 
ATOM     94  C   UNL     1      -0.510  14.546  -5.228  1.00  0.00     0.173 A 
ATOM     95  C   UNL     1      -2.810  13.880  -5.025  1.00  0.00     0.173 A 
ATOM     96  F   UNL     1       0.802  14.270  -5.193  1.00  0.00    -0.203 F 
ATOM     97  C   UNL     1      -0.914  15.858  -5.467  1.00  0.00     0.198 A 
ATOM     98  C   UNL     1      -3.212  15.187  -5.291  1.00  0.00     0.198 A 
ATOM     99  F   UNL     1      -3.751  12.948  -4.812  1.00  0.00    -0.203 F 
ATOM    100  F   UNL     1       0.004  16.817  -5.649  1.00  0.00    -0.200 F 
ATOM    101  C   UNL     1      -2.264  16.175  -5.506  1.00  0.00     0.200 A 
ATOM    102  F   UNL     1      -4.517  15.489  -5.340  1.00  0.00    -0.200 F 
ATOM    103  F   UNL     1      -2.651  17.436  -5.745  1.00  0.00    -0.200 F 
ENDBRANCH  70  93
ENDBRANCH  44  45
ENDBRANCH  37  39
ENDBRANCH  36  37
ENDBRANCH  35  36
ENDBRANCH  34  35
ENDBRANCH   1  34
TORSDOF 16
