REMARK SMILES COc1ccc(CCN2/C(=[NH+]/C(=O)CCC(=O)OCCOC(=O)c3ccc(-c4c5nc(c(-c6c(F)c(F)c(F)c(F)c6F)c6ccc([nH]6)c(-c6c(F)c(F)c(F)c(F)c6F)c6nc(c(-c7c(F)c(F)c(F)c(F)c7F)c7ccc4[nH]7)C=C6)C=C5)cc3)S[C@@H]3CS(=O)(=O)C[C@@H]32)cc1
REMARK SMILES IDX 16 1 17 2 15 3 14 4 12 5 9 6 10 7 94 8 11 9 87 10 88 11
REMARK SMILES IDX 93 12 89 14 90 15 13 16 91 17 92 18 8 19 7 20 6 21 3 22 4 23
REMARK SMILES IDX 96 24 5 25 95 26 2 27 1 28 18 29 19 30 20 31 21 32 22 33
REMARK SMILES IDX 23 34 24 35 25 36 86 37 26 38 85 39 27 40 28 41 29 42 79 43
REMARK SMILES IDX 30 44 84 45 78 46 80 47 31 48 83 49 77 50 76 51 32 53 64 54
REMARK SMILES IDX 44 55 63 56 45 57 48 58 62 59 81 60 46 61 47 62 61 64 82 65
REMARK SMILES IDX 49 66 33 67 34 68 42 69 35 70 36 71 40 72 43 73 37 74 38 75
REMARK SMILES IDX 41 76 39 77 65 78 66 79 74 80 67 81 68 82 72 83 75 84 69 85
REMARK SMILES IDX 70 86 73 87 71 88 50 89 51 90 59 91 52 92 53 93 57 94 60 95
REMARK SMILES IDX 54 96 55 97 58 98 56 99
REMARK H PARENT 11 13 80 52 48 63
REMARK Flexibility Score: inf
ROOT
ATOM      1  C   UNL     1       1.189   5.090  11.106  1.00  0.00     0.306 C 
ATOM      2  O   UNL     1       1.939   5.359  12.034  1.00  0.00    -0.252 OA
ENDROOT
BRANCH   1   3
ATOM      3  C   UNL     1      -0.089   5.840  10.827  1.00  0.00     0.135 C 
BRANCH   3   4
ATOM      4  C   UNL     1       0.017   6.701   9.578  1.00  0.00     0.139 C 
BRANCH   4   5
ATOM      5  C   UNL     1      -0.675   6.102   8.368  1.00  0.00     0.308 C 
ATOM      6  N   UNL     1      -0.282   2.761   6.990  1.00  0.00    -0.251 N 
ATOM      7  C   UNL     1      -0.823   3.961   7.463  1.00  0.00     0.314 C 
ATOM      8  C   UNL     1      -1.263   1.728   6.614  1.00  0.00     0.206 C 
ATOM      9  N   UNL     1      -0.110   4.937   7.917  1.00  0.00    -0.205 N 
ATOM     10  S   UNL     1      -2.581   3.917   7.394  1.00  0.00    -0.030 SA
ATOM     11  C   UNL     1      -2.604   2.122   7.275  1.00  0.00     0.120 C 
ATOM     12  C   UNL     1      -0.942   0.303   7.058  1.00  0.00     0.187 C 
ATOM     13  H   UNL     1       0.870   4.842   7.940  1.00  0.00     0.316 HD
ATOM     14  C   UNL     1      -2.642   1.529   8.670  1.00  0.00     0.156 C 
ATOM     15  S   UNL     1      -2.011  -0.097   8.416  1.00  0.00     0.155 S 
ATOM     16  O   UNL     1      -1.581   6.718   7.814  1.00  0.00    -0.247 OA
ATOM     17  O   UNL     1      -1.202  -0.474   9.558  1.00  0.00    -0.229 OA
ATOM     18  O   UNL     1      -3.087  -0.926   7.920  1.00  0.00    -0.229 OA
BRANCH   6  19
ATOM     19  C   UNL     1       1.145   2.787   6.606  1.00  0.00     0.242 C 
BRANCH  19  20
ATOM     20  C   UNL     1       1.816   1.628   5.862  1.00  0.00     0.081 C 
BRANCH  20  21
ATOM     21  C   UNL     1       1.641   1.480   4.370  1.00  0.00    -0.044 A 
ATOM     22  C   UNL     1       1.359   0.998   1.605  1.00  0.00     0.118 A 
ATOM     23  C   UNL     1       0.451   1.810   2.281  1.00  0.00     0.046 A 
ATOM     24  C   UNL     1       2.445   0.466   2.293  1.00  0.00     0.046 A 
ATOM     25  C   UNL     1       0.597   2.061   3.648  1.00  0.00     0.007 A 
ATOM     26  C   UNL     1       2.574   0.693   3.668  1.00  0.00     0.007 A 
BRANCH  22  27
ATOM     27  O   UNL     1       1.125   0.833   0.269  1.00  0.00    -0.497 OA
ATOM     28  C   UNL     1       1.474  -0.450  -0.244  1.00  0.00     0.278 C 
ENDBRANCH  22  27
ENDBRANCH  20  21
ENDBRANCH  19  20
ENDBRANCH   6  19
ENDBRANCH   4   5
ENDBRANCH   3   4
ENDBRANCH   1   3
BRANCH   1  29
ATOM     29  O   UNL     1       1.387   4.106  10.196  1.00  0.00    -0.462 OA
BRANCH  29  30
ATOM     30  C   UNL     1       2.630   3.384  10.273  1.00  0.00     0.274 C 
BRANCH  30  31
ATOM     31  C   UNL     1       3.678   4.017   9.356  1.00  0.00     0.275 C 
BRANCH  31  32
ATOM     32  O   UNL     1       4.244   5.177   9.987  1.00  0.00    -0.458 OA
BRANCH  32  33
ATOM     33  C   UNL     1       3.939   6.364   9.426  1.00  0.00     0.338 C 
ATOM     34  O   UNL     1       3.318   6.574   8.394  1.00  0.00    -0.246 OA
BRANCH  33  35
ATOM     35  C   UNL     1       4.415   7.429  10.310  1.00  0.00     0.060 A 
ATOM     36  C   UNL     1       3.489   8.114  11.103  1.00  0.00     0.016 A 
ATOM     37  C   UNL     1       5.762   7.789  10.302  1.00  0.00     0.016 A 
ATOM     38  C   UNL     1       3.909   9.187  11.882  1.00  0.00     0.010 A 
ATOM     39  C   UNL     1       6.184   8.858  11.092  1.00  0.00     0.010 A 
ATOM     40  C   UNL     1       5.255   9.577  11.865  1.00  0.00    -0.014 A 
BRANCH  40  41
ATOM     41  C   UNL     1       5.673  10.806  12.574  1.00  0.00     0.031 A 
ATOM     42  C   UNL     1       5.946  12.049  11.778  1.00  0.00     0.074 A 
ATOM     43  C   UNL     1       5.791  10.808  13.913  1.00  0.00     0.049 A 
ATOM     44  N   UNL     1       6.381  13.215  12.181  1.00  0.00    -0.248 NA
ATOM     45  C   UNL     1       5.703  11.965  10.329  1.00  0.00     0.031 C 
ATOM     46  C   UNL     1       5.518   9.668  14.787  1.00  0.00     0.029 A 
ATOM     47  N   UNL     1       6.178  11.806  14.771  1.00  0.00    -0.354 N 
ATOM     48  C   UNL     1       6.483  13.995  11.036  1.00  0.00     0.074 A 
ATOM     49  C   UNL     1       6.087  13.165   9.919  1.00  0.00     0.031 C 
ATOM     50  C   UNL     1       5.743  10.032  16.061  1.00  0.00     0.029 A 
ATOM     51  C   UNL     1       6.210  11.416  16.086  1.00  0.00     0.049 A 
ATOM     52  H   UNL     1       6.409  12.715  14.472  1.00  0.00     0.167 HD
ATOM     53  C   UNL     1       6.867  15.289  10.931  1.00  0.00     0.037 A 
ATOM     54  C   UNL     1       6.590  12.100  17.182  1.00  0.00     0.037 A 
ATOM     55  C   UNL     1       7.242  16.112  12.051  1.00  0.00     0.049 A 
ATOM     56  C   UNL     1       7.044  13.528  17.030  1.00  0.00     0.074 A 
ATOM     57  C   UNL     1       7.636  17.438  12.056  1.00  0.00     0.029 A 
ATOM     58  N   UNL     1       7.267  15.682  13.370  1.00  0.00    -0.354 N 
ATOM     59  N   UNL     1       7.127  14.262  15.947  1.00  0.00    -0.248 NA
ATOM     60  C   UNL     1       7.452  14.224  18.259  1.00  0.00     0.031 C 
ATOM     61  C   UNL     1       7.936  17.800  13.374  1.00  0.00     0.029 A 
ATOM     62  C   UNL     1       7.681  16.714  14.196  1.00  0.00     0.049 A 
ATOM     63  H   UNL     1       7.026  14.777  13.674  1.00  0.00     0.167 HD
ATOM     64  C   UNL     1       7.559  15.514  16.366  1.00  0.00     0.074 A 
ATOM     65  C   UNL     1       7.712  15.441  17.805  1.00  0.00     0.031 C 
ATOM     66  C   UNL     1       7.805  16.625  15.628  1.00  0.00     0.037 A 
BRANCH  53  67
ATOM     67  C   UNL     1       6.925  15.884   9.556  1.00  0.00     0.064 A 
ATOM     68  C   UNL     1       5.763  16.182   8.828  1.00  0.00     0.173 A 
ATOM     69  C   UNL     1       8.163  16.182   8.966  1.00  0.00     0.173 A 
ATOM     70  F   UNL     1       4.556  15.900   9.340  1.00  0.00    -0.203 F 
ATOM     71  C   UNL     1       5.839  16.734   7.552  1.00  0.00     0.198 A 
ATOM     72  C   UNL     1       8.235  16.760   7.702  1.00  0.00     0.198 A 
ATOM     73  F   UNL     1       9.305  15.918   9.619  1.00  0.00    -0.203 F 
ATOM     74  F   UNL     1       4.717  16.968   6.857  1.00  0.00    -0.200 F 
ATOM     75  C   UNL     1       7.074  17.029   6.993  1.00  0.00     0.200 A 
ATOM     76  F   UNL     1       9.428  17.054   7.167  1.00  0.00    -0.200 F 
ATOM     77  F   UNL     1       7.145  17.566   5.767  1.00  0.00    -0.200 F 
ENDBRANCH  53  67
BRANCH  54  78
ATOM     78  C   UNL     1       6.552  11.451  18.518  1.00  0.00     0.064 A 
ATOM     79  C   UNL     1       5.640  11.870  19.497  1.00  0.00     0.173 A 
ATOM     80  C   UNL     1       7.441  10.419  18.853  1.00  0.00     0.173 A 
ATOM     81  F   UNL     1       4.787  12.870  19.232  1.00  0.00    -0.203 F 
ATOM     82  C   UNL     1       5.634  11.298  20.767  1.00  0.00     0.198 A 
ATOM     83  C   UNL     1       7.415   9.828  20.115  1.00  0.00     0.198 A 
ATOM     84  F   UNL     1       8.334   9.982  17.953  1.00  0.00    -0.203 F 
ATOM     85  F   UNL     1       4.788  11.754  21.700  1.00  0.00    -0.200 F 
ATOM     86  C   UNL     1       6.518  10.275  21.074  1.00  0.00     0.200 A 
ATOM     87  F   UNL     1       8.264   8.833  20.404  1.00  0.00    -0.200 F 
ATOM     88  F   UNL     1       6.514   9.727  22.297  1.00  0.00    -0.200 F 
ENDBRANCH  54  78
BRANCH  66  89
ATOM     89  C   UNL     1       8.205  17.865  16.372  1.00  0.00     0.064 A 
ATOM     90  C   UNL     1       9.467  17.997  16.968  1.00  0.00     0.173 A 
ATOM     91  C   UNL     1       7.316  18.948  16.467  1.00  0.00     0.173 A 
ATOM     92  F   UNL     1      10.347  16.985  16.918  1.00  0.00    -0.203 F 
ATOM     93  C   UNL     1       9.813  19.154  17.662  1.00  0.00     0.198 A 
ATOM     94  C   UNL     1       7.677  20.114  17.134  1.00  0.00     0.198 A 
ATOM     95  F   UNL     1       6.100  18.875  15.906  1.00  0.00    -0.203 F 
ATOM     96  F   UNL     1      11.004  19.236  18.271  1.00  0.00    -0.200 F 
ATOM     97  C   UNL     1       8.921  20.213  17.739  1.00  0.00     0.200 A 
ATOM     98  F   UNL     1       6.818  21.142  17.196  1.00  0.00    -0.200 F 
ATOM     99  F   UNL     1       9.256  21.326  18.405  1.00  0.00    -0.200 F 
ENDBRANCH  66  89
ENDBRANCH  40  41
ENDBRANCH  33  35
ENDBRANCH  32  33
ENDBRANCH  31  32
ENDBRANCH  30  31
ENDBRANCH  29  30
ENDBRANCH   1  29
TORSDOF 17
