REMARK SMILES CC(C)Cc1ccc(-c2cc(Cl)cc3c2O[C@H](C(F)(F)F)C(C(=O)OCCOC(=O)c2ccc(-c4c5nc(c(-c6c(F)c(F)c(F)c(F)c6F)c6ccc([nH]6)c(-c6c(F)c(F)c(F)c(F)c6F)c6nc(c(-c7c(F)c(F)c(F)c(F)c7F)c7ccc4[nH]7)C=C6)C=C5)cc2)=C3)cc1
REMARK SMILES IDX 26 1 25 2 23 3 24 4 22 5 9 6 10 7 15 8 11 9 14 10 16 11
REMARK SMILES IDX 12 12 13 13 94 14 17 15 8 16 5 17 6 18 96 19 7 20 95 21 4 22
REMARK SMILES IDX 2 23 1 24 3 25 18 26 19 27 20 28 21 29 27 30 28 31 29 32
REMARK SMILES IDX 30 33 31 34 32 35 93 36 33 37 92 38 34 39 35 40 36 41 86 42
REMARK SMILES IDX 37 43 91 44 85 45 87 46 38 47 90 48 84 49 83 50 39 52 71 53
REMARK SMILES IDX 51 54 70 55 52 56 55 57 69 58 88 59 53 60 54 61 68 63 89 64
REMARK SMILES IDX 56 65 40 66 41 67 49 68 42 69 43 70 47 71 50 72 44 73 45 74
REMARK SMILES IDX 48 75 46 76 72 77 73 78 81 79 74 80 75 81 79 82 82 83 76 84
REMARK SMILES IDX 77 85 80 86 78 87 57 88 58 89 66 90 59 91 60 92 64 93 67 94
REMARK SMILES IDX 61 95 62 96 65 97 63 98
REMARK H PARENT 87 51 55 62
REMARK Flexibility Score: inf
ROOT
ATOM      1  C   UNL     1      -5.948  -2.180 -10.653  1.00  0.00     0.275 C 
ENDROOT
BRANCH   1   2
ATOM      2  O   UNL     1      -6.203  -2.907  -9.427  1.00  0.00    -0.459 OA
BRANCH   2   3
ATOM      3  C   UNL     1      -5.628  -4.138  -9.421  1.00  0.00     0.338 C 
ATOM      4  O   UNL     1      -4.987  -4.604 -10.358  1.00  0.00    -0.246 OA
BRANCH   3   5
ATOM      5  C   UNL     1      -5.760  -4.868  -8.136  1.00  0.00     0.087 C 
ATOM      6  C   UNL     1      -3.835  -3.397  -4.867  1.00  0.00     0.026 A 
ATOM      7  C   UNL     1      -2.756  -2.695  -5.463  1.00  0.00     0.033 A 
ATOM      8  C   UNL     1      -4.555  -4.202  -5.755  1.00  0.00     0.135 A 
ATOM      9  C   UNL     1      -2.338  -2.887  -6.784  1.00  0.00     0.042 A 
ATOM     10  C   UNL     1      -3.939  -4.599  -6.969  1.00  0.00     0.019 A 
ATOM     11  O   UNL     1      -5.902  -4.519  -5.631  1.00  0.00    -0.475 OA
ATOM     12  Cl  UNL     1      -1.226  -1.860  -7.589  1.00  0.00    -0.084 Cl
ATOM     13  C   UNL     1      -2.850  -3.934  -7.500  1.00  0.00     0.032 A 
ATOM     14  C   UNL     1      -4.649  -5.558  -7.832  1.00  0.00     0.027 C 
ATOM     15  C   UNL     1      -6.626  -4.443  -6.963  1.00  0.00     0.316 C 
BRANCH   6  16
ATOM     16  C   UNL     1      -3.867  -3.325  -3.370  1.00  0.00    -0.015 A 
ATOM     17  C   UNL     1      -3.132  -2.677  -0.645  1.00  0.00    -0.048 A 
ATOM     18  C   UNL     1      -4.231  -2.071  -1.275  1.00  0.00     0.004 A 
ATOM     19  C   UNL     1      -2.450  -3.654  -1.371  1.00  0.00     0.004 A 
ATOM     20  C   UNL     1      -4.619  -2.425  -2.601  1.00  0.00     0.009 A 
ATOM     21  C   UNL     1      -2.806  -3.963  -2.693  1.00  0.00     0.009 A 
BRANCH  17  22
ATOM     22  C   UNL     1      -2.697  -2.335   0.783  1.00  0.00     0.038 C 
BRANCH  22  23
ATOM     23  C   UNL     1      -1.192  -2.048   0.902  1.00  0.00    -0.013 C 
ATOM     24  C   UNL     1      -0.981  -0.663   0.380  1.00  0.00     0.008 C 
ATOM     25  C   UNL     1      -0.573  -2.110   2.302  1.00  0.00     0.008 C 
ENDBRANCH  22  23
ENDBRANCH  17  22
ENDBRANCH   6  16
BRANCH  15  26
ATOM     26  C   UNL     1      -7.835  -5.388  -6.989  1.00  0.00     0.430 C 
ATOM     27  F   UNL     1      -7.476  -6.667  -6.721  1.00  0.00    -0.167 F 
ATOM     28  F   UNL     1      -8.785  -5.031  -6.100  1.00  0.00    -0.167 F 
ATOM     29  F   UNL     1      -8.419  -5.392  -8.215  1.00  0.00    -0.167 F 
ENDBRANCH  15  26
ENDBRANCH   3   5
ENDBRANCH   2   3
ENDBRANCH   1   2
BRANCH   1  30
ATOM     30  C   UNL     1      -6.061  -0.661 -10.487  1.00  0.00     0.275 C 
BRANCH  30  31
ATOM     31  O   UNL     1      -5.186  -0.172  -9.447  1.00  0.00    -0.458 OA
BRANCH  31  32
ATOM     32  C   UNL     1      -5.784  -0.033  -8.232  1.00  0.00     0.338 C 
ATOM     33  O   UNL     1      -6.953  -0.250  -7.989  1.00  0.00    -0.246 OA
BRANCH  32  34
ATOM     34  C   UNL     1      -4.794   0.306  -7.164  1.00  0.00     0.060 A 
ATOM     35  C   UNL     1      -5.097  -0.129  -5.877  1.00  0.00     0.016 A 
ATOM     36  C   UNL     1      -3.611   1.031  -7.354  1.00  0.00     0.016 A 
ATOM     37  C   UNL     1      -4.203   0.112  -4.819  1.00  0.00     0.010 A 
ATOM     38  C   UNL     1      -2.709   1.259  -6.272  1.00  0.00     0.010 A 
ATOM     39  C   UNL     1      -2.971   0.772  -4.981  1.00  0.00    -0.014 A 
BRANCH  39  40
ATOM     40  C   UNL     1      -2.085   0.998  -3.754  1.00  0.00     0.031 A 
ATOM     41  C   UNL     1      -2.667   1.795  -2.585  1.00  0.00     0.074 A 
ATOM     42  C   UNL     1      -0.874   0.409  -3.558  1.00  0.00     0.049 A 
ATOM     43  N   UNL     1      -2.214   1.996  -1.366  1.00  0.00    -0.248 NA
ATOM     44  C   UNL     1      -3.969   2.430  -2.835  1.00  0.00     0.031 C 
ATOM     45  C   UNL     1      -0.225  -0.534  -4.454  1.00  0.00     0.029 A 
ATOM     46  N   UNL     1       0.004   0.443  -2.485  1.00  0.00    -0.354 N 
ATOM     47  C   UNL     1      -3.180   2.754  -0.701  1.00  0.00     0.074 A 
ATOM     48  C   UNL     1      -4.254   2.957  -1.655  1.00  0.00     0.031 C 
ATOM     49  C   UNL     1       0.806  -1.137  -3.835  1.00  0.00     0.029 A 
ATOM     50  C   UNL     1       1.019  -0.508  -2.532  1.00  0.00     0.049 A 
ATOM     51  H   UNL     1      -0.085   1.088  -1.747  1.00  0.00     0.167 HD
ATOM     52  C   UNL     1      -3.178   3.289   0.555  1.00  0.00     0.037 A 
ATOM     53  C   UNL     1       1.979  -0.863  -1.632  1.00  0.00     0.037 A 
ATOM     54  C   UNL     1      -2.066   3.242   1.486  1.00  0.00     0.049 A 
ATOM     55  C   UNL     1       2.119  -0.113  -0.297  1.00  0.00     0.074 A 
ATOM     56  C   UNL     1      -1.805   3.975   2.634  1.00  0.00     0.029 A 
ATOM     57  N   UNL     1      -1.003   2.369   1.355  1.00  0.00    -0.354 N 
ATOM     58  N   UNL     1       1.424   0.901   0.172  1.00  0.00    -0.248 NA
ATOM     59  C   UNL     1       3.131  -0.599   0.658  1.00  0.00     0.031 C 
ATOM     60  C   UNL     1      -0.540   3.592   3.132  1.00  0.00     0.029 A 
ATOM     61  C   UNL     1      -0.037   2.578   2.329  1.00  0.00     0.049 A 
ATOM     62  H   UNL     1      -0.938   1.681   0.655  1.00  0.00     0.167 HD
ATOM     63  C   UNL     1       1.783   1.057   1.513  1.00  0.00     0.074 A 
ATOM     64  C   UNL     1       2.887   0.141   1.735  1.00  0.00     0.031 C 
ATOM     65  C   UNL     1       1.169   1.779   2.498  1.00  0.00     0.037 A 
BRANCH  52  66
ATOM     66  C   UNL     1      -4.373   4.132   0.911  1.00  0.00     0.064 A 
ATOM     67  C   UNL     1      -5.656   3.589   1.101  1.00  0.00     0.173 A 
ATOM     68  C   UNL     1      -4.238   5.526   0.987  1.00  0.00     0.173 A 
ATOM     69  F   UNL     1      -5.854   2.266   0.990  1.00  0.00    -0.203 F 
ATOM     70  C   UNL     1      -6.758   4.416   1.320  1.00  0.00     0.198 A 
ATOM     71  C   UNL     1      -5.332   6.344   1.248  1.00  0.00     0.198 A 
ATOM     72  F   UNL     1      -3.043   6.101   0.787  1.00  0.00    -0.203 F 
ATOM     73  F   UNL     1      -7.985   3.885   1.416  1.00  0.00    -0.200 F 
ATOM     74  C   UNL     1      -6.593   5.791   1.401  1.00  0.00     0.200 A 
ATOM     75  F   UNL     1      -5.166   7.671   1.330  1.00  0.00    -0.200 F 
ATOM     76  F   UNL     1      -7.653   6.586   1.603  1.00  0.00    -0.200 F 
ENDBRANCH  52  66
BRANCH  53  77
ATOM     77  C   UNL     1       2.820  -2.095  -1.879  1.00  0.00     0.064 A 
ATOM     78  C   UNL     1       2.723  -3.237  -1.057  1.00  0.00     0.173 A 
ATOM     79  C   UNL     1       3.737  -2.169  -2.939  1.00  0.00     0.173 A 
ATOM     80  F   UNL     1       1.873  -3.249  -0.019  1.00  0.00    -0.203 F 
ATOM     81  C   UNL     1       3.526  -4.366  -1.261  1.00  0.00     0.198 A 
ATOM     82  C   UNL     1       4.510  -3.313  -3.167  1.00  0.00     0.198 A 
ATOM     83  F   UNL     1       3.874  -1.132  -3.776  1.00  0.00    -0.203 F 
ATOM     84  F   UNL     1       3.448  -5.408  -0.419  1.00  0.00    -0.200 F 
ATOM     85  C   UNL     1       4.416  -4.405  -2.320  1.00  0.00     0.200 A 
ATOM     86  F   UNL     1       5.348  -3.354  -4.212  1.00  0.00    -0.200 F 
ATOM     87  F   UNL     1       5.183  -5.486  -2.521  1.00  0.00    -0.200 F 
ENDBRANCH  53  77
BRANCH  65  88
ATOM     88  C   UNL     1       1.758   1.711   3.890  1.00  0.00     0.064 A 
ATOM     89  C   UNL     1       3.020   2.250   4.187  1.00  0.00     0.173 A 
ATOM     90  C   UNL     1       1.028   1.156   4.956  1.00  0.00     0.173 A 
ATOM     91  F   UNL     1       3.773   2.780   3.212  1.00  0.00    -0.203 F 
ATOM     92  C   UNL     1       3.533   2.226   5.485  1.00  0.00     0.198 A 
ATOM     93  C   UNL     1       1.534   1.155   6.258  1.00  0.00     0.198 A 
ATOM     94  F   UNL     1      -0.179   0.613   4.741  1.00  0.00    -0.203 F 
ATOM     95  F   UNL     1       4.754   2.720   5.731  1.00  0.00    -0.200 F 
ATOM     96  C   UNL     1       2.785   1.688   6.521  1.00  0.00     0.200 A 
ATOM     97  F   UNL     1       0.807   0.639   7.260  1.00  0.00    -0.200 F 
ATOM     98  F   UNL     1       3.273   1.681   7.770  1.00  0.00    -0.200 F 
ENDBRANCH  65  88
ENDBRANCH  39  40
ENDBRANCH  32  34
ENDBRANCH  31  32
ENDBRANCH  30  31
ENDBRANCH   1  30
TORSDOF 15
