REMARK SMILES O=C(OCCOC(=O)c1ccc(-c2c3nc(c(-c4c(F)c(F)c(F)c(F)c4F)c4ccc([nH]4)c(-c4c(F)c(F)c(F)c(F)c4F)c4nc(c(-c5c(F)c(F)c(F)c(F)c5F)c5ccc2[nH]5)C=C4)C=C3)cc1)C1=C([O-])N(c2ccc3c(c2)OCCO3)CC1
REMARK SMILES IDX 5 1 4 2 3 3 2 4 1 5 72 6 73 7 87 8 74 9 75 10 86 11 76 12
REMARK SMILES IDX 77 13 81 14 78 15 80 16 79 17 82 18 85 19 83 20 84 21 6 22
REMARK SMILES IDX 7 23 8 24 9 25 10 26 71 27 11 28 70 29 12 30 13 31 14 32
REMARK SMILES IDX 64 33 15 34 69 35 63 36 65 37 16 38 68 39 62 40 61 41 17 43
REMARK SMILES IDX 49 44 29 45 48 46 30 47 33 48 47 49 66 50 31 51 32 52 46 54
REMARK SMILES IDX 67 55 34 56 18 57 19 58 27 59 20 60 21 61 25 62 28 63 22 64
REMARK SMILES IDX 23 65 26 66 24 67 50 68 51 69 59 70 52 71 53 72 57 73 60 74
REMARK SMILES IDX 54 75 55 76 58 77 56 78 35 79 36 80 44 81 37 82 38 83 42 84
REMARK SMILES IDX 45 85 39 86 40 87 43 88 41 89
REMARK H PARENT 65 42 33 53
REMARK Flexibility Score: inf
ROOT
ATOM      1  C   UNL     1       4.131   1.508  -1.490  1.00  0.00     0.275 C 
ENDROOT
BRANCH   1   2
ATOM      2  C   UNL     1       4.399   0.028  -1.205  1.00  0.00     0.275 C 
BRANCH   2   3
ATOM      3  O   UNL     1       3.263  -0.656  -0.642  1.00  0.00    -0.459 OA
BRANCH   3   4
ATOM      4  C   UNL     1       2.838  -0.780   0.638  1.00  0.00     0.335 C 
ATOM      5  O   UNL     1       1.754  -1.327   0.823  1.00  0.00    -0.247 OA
BRANCH   4   6
ATOM      6  C   UNL     1       3.645  -0.299   1.774  1.00  0.00     0.048 C 
ATOM      7  C   UNL     1       3.203  -0.290   3.048  1.00  0.00    -0.026 C 
ATOM      8  C   UNL     1       5.052   0.223   1.766  1.00  0.00     0.066 C 
ATOM      9  O   UNL     1       1.981  -0.679   3.489  1.00  0.00    -0.860 OA
ATOM     10  N   UNL     1       4.151   0.144   3.954  1.00  0.00    -0.354 N 
ATOM     11  C   UNL     1       5.350   0.591   3.228  1.00  0.00     0.126 C 
BRANCH  10  12
ATOM     12  C   UNL     1       3.895   0.915   5.104  1.00  0.00     0.044 A 
ATOM     13  C   UNL     1       4.128   0.415   6.387  1.00  0.00     0.030 A 
ATOM     14  C   UNL     1       3.590   2.269   4.955  1.00  0.00     0.076 A 
ATOM     15  C   UNL     1       4.181   1.290   7.479  1.00  0.00     0.052 A 
ATOM     16  C   UNL     1       3.673   3.149   6.018  1.00  0.00     0.163 A 
ATOM     17  C   UNL     1       4.037   2.661   7.270  1.00  0.00     0.161 A 
ATOM     18  O   UNL     1       3.521   4.477   5.718  1.00  0.00    -0.486 OA
ATOM     19  O   UNL     1       4.392   3.507   8.293  1.00  0.00    -0.486 OA
ATOM     20  C   UNL     1       3.807   5.332   6.831  1.00  0.00     0.271 C 
ATOM     21  C   UNL     1       4.888   4.725   7.712  1.00  0.00     0.271 C 
ENDBRANCH  10  12
ENDBRANCH   4   6
ENDBRANCH   3   4
ENDBRANCH   2   3
ENDBRANCH   1   2
BRANCH   1  22
ATOM     22  O   UNL     1       3.544   2.178  -0.361  1.00  0.00    -0.458 OA
BRANCH  22  23
ATOM     23  C   UNL     1       2.183   2.260  -0.387  1.00  0.00     0.338 C 
ATOM     24  O   UNL     1       1.456   1.917  -1.294  1.00  0.00    -0.246 OA
BRANCH  23  25
ATOM     25  C   UNL     1       1.691   2.743   0.925  1.00  0.00     0.060 A 
ATOM     26  C   UNL     1       0.539   2.164   1.468  1.00  0.00     0.016 A 
ATOM     27  C   UNL     1       2.342   3.759   1.620  1.00  0.00     0.016 A 
ATOM     28  C   UNL     1       0.029   2.606   2.700  1.00  0.00     0.010 A 
ATOM     29  C   UNL     1       1.838   4.180   2.858  1.00  0.00     0.010 A 
ATOM     30  C   UNL     1       0.672   3.621   3.424  1.00  0.00    -0.014 A 
BRANCH  30  31
ATOM     31  C   UNL     1       0.134   4.130   4.735  1.00  0.00     0.031 A 
ATOM     32  C   UNL     1      -0.159   5.605   4.911  1.00  0.00     0.074 A 
ATOM     33  C   UNL     1      -0.041   3.326   5.810  1.00  0.00     0.049 A 
ATOM     34  N   UNL     1      -0.608   6.250   5.965  1.00  0.00    -0.248 NA
ATOM     35  C   UNL     1       0.112   6.480   3.760  1.00  0.00     0.031 C 
ATOM     36  C   UNL     1       0.258   1.896   5.873  1.00  0.00     0.029 A 
ATOM     37  N   UNL     1      -0.475   3.620   7.088  1.00  0.00    -0.354 N 
ATOM     38  C   UNL     1      -0.704   7.581   5.581  1.00  0.00     0.074 A 
ATOM     39  C   UNL     1      -0.124   7.681   4.262  1.00  0.00     0.031 C 
ATOM     40  C   UNL     1       0.059   1.453   7.127  1.00  0.00     0.029 A 
ATOM     41  C   UNL     1      -0.406   2.559   7.961  1.00  0.00     0.049 A 
ATOM     42  H   UNL     1      -0.805   4.510   7.351  1.00  0.00     0.167 HD
ATOM     43  C   UNL     1      -1.297   8.621   6.216  1.00  0.00     0.037 A 
ATOM     44  C   UNL     1      -0.686   2.475   9.279  1.00  0.00     0.037 A 
ATOM     45  C   UNL     1      -1.891   8.558   7.524  1.00  0.00     0.049 A 
ATOM     46  C   UNL     1      -1.278   3.658  10.006  1.00  0.00     0.074 A 
ATOM     47  C   UNL     1      -2.585   9.543   8.206  1.00  0.00     0.029 A 
ATOM     48  N   UNL     1      -1.850   7.451   8.355  1.00  0.00    -0.354 N 
ATOM     49  N   UNL     1      -1.510   4.871   9.572  1.00  0.00    -0.248 NA
ATOM     50  C   UNL     1      -1.698   3.439  11.401  1.00  0.00     0.031 C 
ATOM     51  C   UNL     1      -2.919   9.050   9.472  1.00  0.00     0.029 A 
ATOM     52  C   UNL     1      -2.485   7.738   9.554  1.00  0.00     0.049 A 
ATOM     53  H   UNL     1      -1.431   6.589   8.129  1.00  0.00     0.167 HD
ATOM     54  C   UNL     1      -2.160   5.532  10.609  1.00  0.00     0.074 A 
ATOM     55  C   UNL     1      -2.279   4.591  11.699  1.00  0.00     0.031 C 
ATOM     56  C   UNL     1      -2.631   6.803  10.639  1.00  0.00     0.037 A 
BRANCH  43  57
ATOM     57  C   UNL     1      -1.398   9.914   5.455  1.00  0.00     0.064 A 
ATOM     58  C   UNL     1      -2.204  10.014   4.308  1.00  0.00     0.173 A 
ATOM     59  C   UNL     1      -0.722  11.065   5.883  1.00  0.00     0.173 A 
ATOM     60  F   UNL     1      -2.867   8.940   3.853  1.00  0.00    -0.203 F 
ATOM     61  C   UNL     1      -2.294  11.204   3.594  1.00  0.00     0.198 A 
ATOM     62  C   UNL     1      -0.846  12.265   5.187  1.00  0.00     0.198 A 
ATOM     63  F   UNL     1       0.052  11.029   6.977  1.00  0.00    -0.203 F 
ATOM     64  F   UNL     1      -3.017  11.253   2.467  1.00  0.00    -0.200 F 
ATOM     65  C   UNL     1      -1.622  12.331   4.039  1.00  0.00     0.200 A 
ATOM     66  F   UNL     1      -0.210  13.360   5.626  1.00  0.00    -0.200 F 
ATOM     67  F   UNL     1      -1.715  13.479   3.355  1.00  0.00    -0.200 F 
ENDBRANCH  43  57
BRANCH  44  68
ATOM     68  C   UNL     1      -0.451   1.205  10.021  1.00  0.00     0.064 A 
ATOM     69  C   UNL     1      -1.519   0.415  10.471  1.00  0.00     0.173 A 
ATOM     70  C   UNL     1       0.847   0.804  10.369  1.00  0.00     0.173 A 
ATOM     71  F   UNL     1      -2.781   0.777  10.197  1.00  0.00    -0.203 F 
ATOM     72  C   UNL     1      -1.300  -0.704  11.274  1.00  0.00     0.198 A 
ATOM     73  C   UNL     1       1.066  -0.332  11.147  1.00  0.00     0.198 A 
ATOM     74  F   UNL     1       1.903   1.530   9.977  1.00  0.00    -0.203 F 
ATOM     75  F   UNL     1      -2.343  -1.395  11.755  1.00  0.00    -0.200 F 
ATOM     76  C   UNL     1      -0.008  -1.077  11.611  1.00  0.00     0.200 A 
ATOM     77  F   UNL     1       2.316  -0.691  11.470  1.00  0.00    -0.200 F 
ATOM     78  F   UNL     1       0.200  -2.142  12.398  1.00  0.00    -0.200 F 
ENDBRANCH  44  68
BRANCH  56  79
ATOM     79  C   UNL     1      -3.397   7.240  11.858  1.00  0.00     0.064 A 
ATOM     80  C   UNL     1      -2.782   7.412  13.107  1.00  0.00     0.173 A 
ATOM     81  C   UNL     1      -4.772   7.511  11.767  1.00  0.00     0.173 A 
ATOM     82  F   UNL     1      -1.472   7.159  13.256  1.00  0.00    -0.203 F 
ATOM     83  C   UNL     1      -3.520   7.800  14.224  1.00  0.00     0.198 A 
ATOM     84  C   UNL     1      -5.499   7.934  12.877  1.00  0.00     0.198 A 
ATOM     85  F   UNL     1      -5.413   7.374  10.596  1.00  0.00    -0.203 F 
ATOM     86  F   UNL     1      -2.921   7.897  15.419  1.00  0.00    -0.200 F 
ATOM     87  C   UNL     1      -4.875   8.067  14.107  1.00  0.00     0.200 A 
ATOM     88  F   UNL     1      -6.806   8.210  12.755  1.00  0.00    -0.200 F 
ATOM     89  F   UNL     1      -5.582   8.443  15.182  1.00  0.00    -0.200 F 
ENDBRANCH  56  79
ENDBRANCH  30  31
ENDBRANCH  23  25
ENDBRANCH  22  23
ENDBRANCH   1  22
TORSDOF 12
