REMARK SMILES O=C(OCCOC(=O)[C@@H]1CS[C@H](c2cc(Br)ccc2O)[NH2+]1)c1ccc(-c2c3nc(c(-c4c(F)c(F)c(F)c(F)c4F)c4ccc([nH]4)c(-c4c(F)c(F)c(F)c(F)c4F)c4nc(c(-c5c(F)c(F)c(F)c(F)c5F)c5ccc2[nH]5)C=C4)C=C3)cc1
REMARK SMILES IDX 4 1 3 2 2 3 1 4 22 5 23 6 84 7 24 8 83 9 25 10 26 11 27 12
REMARK SMILES IDX 77 13 28 14 82 15 76 16 78 17 29 18 81 19 75 20 74 21 30 23
REMARK SMILES IDX 62 24 42 25 61 26 43 27 46 28 60 29 79 30 44 31 45 32 59 34
REMARK SMILES IDX 80 35 47 36 31 37 32 38 40 39 33 40 34 41 38 42 41 43 35 44
REMARK SMILES IDX 36 45 39 46 37 47 63 48 64 49 72 50 65 51 66 52 70 53 73 54
REMARK SMILES IDX 67 55 68 56 71 57 69 58 48 59 49 60 57 61 50 62 51 63 55 64
REMARK SMILES IDX 58 65 52 66 53 67 56 68 54 69 5 70 6 71 7 72 8 73 9 74 10 75
REMARK SMILES IDX 21 76 11 77 12 78 13 81 14 82 19 83 15 84 18 85 16 86 17 87
REMARK SMILES IDX 20 88
REMARK H PARENT 78 22 46 33 21 79 21 80 20 89
REMARK Flexibility Score: inf
ROOT
ATOM      1  C   UNL     1      -1.122   3.325   2.084  1.00  0.00     0.275 C 
ENDROOT
BRANCH   1   2
ATOM      2  O   UNL     1       0.165   3.338   1.391  1.00  0.00    -0.458 OA
BRANCH   2   3
ATOM      3  C   UNL     1       1.036   4.389   1.555  1.00  0.00     0.338 C 
ATOM      4  O   UNL     1       1.035   5.376   0.837  1.00  0.00    -0.246 OA
BRANCH   3   5
ATOM      5  C   UNL     1       2.151   4.109   2.541  1.00  0.00     0.060 A 
ATOM      6  C   UNL     1       1.856   3.349   3.645  1.00  0.00     0.016 A 
ATOM      7  C   UNL     1       3.470   4.567   2.481  1.00  0.00     0.016 A 
ATOM      8  C   UNL     1       2.789   2.950   4.610  1.00  0.00     0.010 A 
ATOM      9  C   UNL     1       4.460   4.109   3.430  1.00  0.00     0.010 A 
ATOM     10  C   UNL     1       4.137   3.223   4.480  1.00  0.00    -0.014 A 
BRANCH  10  11
ATOM     11  C   UNL     1       5.013   2.658   5.584  1.00  0.00     0.031 A 
ATOM     12  C   UNL     1       5.101   3.437   6.870  1.00  0.00     0.074 A 
ATOM     13  C   UNL     1       5.381   1.350   5.695  1.00  0.00     0.049 A 
ATOM     14  N   UNL     1       5.692   3.122   7.995  1.00  0.00    -0.248 NA
ATOM     15  C   UNL     1       4.335   4.691   6.917  1.00  0.00     0.031 C 
ATOM     16  C   UNL     1       4.995   0.298   4.765  1.00  0.00     0.029 A 
ATOM     17  N   UNL     1       6.059   0.644   6.687  1.00  0.00    -0.354 N 
ATOM     18  C   UNL     1       5.404   4.152   8.872  1.00  0.00     0.074 A 
ATOM     19  C   UNL     1       4.534   5.073   8.168  1.00  0.00     0.031 C 
ATOM     20  C   UNL     1       5.349  -0.902   5.256  1.00  0.00     0.029 A 
ATOM     21  C   UNL     1       6.138  -0.722   6.467  1.00  0.00     0.049 A 
ATOM     22  H   UNL     1       6.449   1.080   7.479  1.00  0.00     0.167 HD
ATOM     23  C   UNL     1       5.859   4.340  10.132  1.00  0.00     0.037 A 
ATOM     24  C   UNL     1       6.766  -1.736   7.114  1.00  0.00     0.037 A 
ATOM     25  C   UNL     1       6.703   3.429  10.862  1.00  0.00     0.049 A 
ATOM     26  C   UNL     1       7.461  -1.455   8.419  1.00  0.00     0.074 A 
ATOM     27  C   UNL     1       7.347   3.643  12.069  1.00  0.00     0.029 A 
ATOM     28  N   UNL     1       7.010   2.133  10.476  1.00  0.00    -0.354 N 
ATOM     29  N   UNL     1       7.387  -0.372   9.148  1.00  0.00    -0.248 NA
ATOM     30  C   UNL     1       8.296  -2.518   9.008  1.00  0.00     0.031 C 
ATOM     31  C   UNL     1       8.105   2.509  12.376  1.00  0.00     0.029 A 
ATOM     32  C   UNL     1       7.878   1.558  11.398  1.00  0.00     0.049 A 
ATOM     33  H   UNL     1       6.664   1.686   9.670  1.00  0.00     0.167 HD
ATOM     34  C   UNL     1       8.140  -0.625  10.283  1.00  0.00     0.074 A 
ATOM     35  C   UNL     1       8.629  -1.982  10.175  1.00  0.00     0.031 C 
ATOM     36  C   UNL     1       8.400   0.218  11.310  1.00  0.00     0.037 A 
BRANCH  23  37
ATOM     37  C   UNL     1       5.612   5.698  10.712  1.00  0.00     0.064 A 
ATOM     38  C   UNL     1       4.370   6.111  11.209  1.00  0.00     0.173 A 
ATOM     39  C   UNL     1       6.668   6.624  10.714  1.00  0.00     0.173 A 
ATOM     40  F   UNL     1       3.319   5.277  11.183  1.00  0.00    -0.203 F 
ATOM     41  C   UNL     1       4.188   7.415  11.664  1.00  0.00     0.198 A 
ATOM     42  C   UNL     1       6.492   7.912  11.199  1.00  0.00     0.198 A 
ATOM     43  F   UNL     1       7.871   6.276  10.231  1.00  0.00    -0.203 F 
ATOM     44  F   UNL     1       2.977   7.817  12.072  1.00  0.00    -0.200 F 
ATOM     45  C   UNL     1       5.250   8.310  11.664  1.00  0.00     0.200 A 
ATOM     46  F   UNL     1       7.520   8.771  11.199  1.00  0.00    -0.200 F 
ATOM     47  F   UNL     1       5.069   9.566  12.097  1.00  0.00    -0.200 F 
ENDBRANCH  23  37
BRANCH  24  48
ATOM     48  C   UNL     1       6.802  -3.125   6.538  1.00  0.00     0.064 A 
ATOM     49  C   UNL     1       6.322  -4.240   7.247  1.00  0.00     0.173 A 
ATOM     50  C   UNL     1       7.367  -3.376   5.275  1.00  0.00     0.173 A 
ATOM     51  F   UNL     1       5.812  -4.084   8.477  1.00  0.00    -0.203 F 
ATOM     52  C   UNL     1       6.406  -5.533   6.721  1.00  0.00     0.198 A 
ATOM     53  C   UNL     1       7.410  -4.662   4.732  1.00  0.00     0.198 A 
ATOM     54  F   UNL     1       7.877  -2.366   4.554  1.00  0.00    -0.203 F 
ATOM     55  F   UNL     1       5.988  -6.579   7.447  1.00  0.00    -0.200 F 
ATOM     56  C   UNL     1       6.938  -5.741   5.458  1.00  0.00     0.200 A 
ATOM     57  F   UNL     1       7.914  -4.851   3.504  1.00  0.00    -0.200 F 
ATOM     58  F   UNL     1       7.004  -6.979   4.948  1.00  0.00    -0.200 F 
ENDBRANCH  24  48
BRANCH  36  59
ATOM     59  C   UNL     1       9.290  -0.290  12.407  1.00  0.00     0.064 A 
ATOM     60  C   UNL     1      10.650  -0.556  12.181  1.00  0.00     0.173 A 
ATOM     61  C   UNL     1       8.790  -0.499  13.701  1.00  0.00     0.173 A 
ATOM     62  F   UNL     1      11.177  -0.385  10.959  1.00  0.00    -0.203 F 
ATOM     63  C   UNL     1      11.465  -1.046  13.197  1.00  0.00     0.198 A 
ATOM     64  C   UNL     1       9.616  -0.957  14.724  1.00  0.00     0.198 A 
ATOM     65  F   UNL     1       7.499  -0.258  13.975  1.00  0.00    -0.203 F 
ATOM     66  F   UNL     1      12.745  -1.350  12.939  1.00  0.00    -0.200 F 
ATOM     67  C   UNL     1      10.950  -1.240  14.469  1.00  0.00     0.200 A 
ATOM     68  F   UNL     1       9.120  -1.133  15.956  1.00  0.00    -0.200 F 
ATOM     69  F   UNL     1      11.736  -1.710  15.447  1.00  0.00    -0.200 F 
ENDBRANCH  36  59
ENDBRANCH  10  11
ENDBRANCH   3   5
ENDBRANCH   2   3
ENDBRANCH   1   2
BRANCH   1  70
ATOM     70  C   UNL     1      -1.747   1.903   2.128  1.00  0.00     0.274 C 
BRANCH  70  71
ATOM     71  O   UNL     1      -0.777   0.909   2.445  1.00  0.00    -0.458 OA
BRANCH  71  72
ATOM     72  C   UNL     1      -0.066   0.412   1.393  1.00  0.00     0.365 C 
ATOM     73  O   UNL     1      -0.419   0.406   0.234  1.00  0.00    -0.245 OA
BRANCH  72  74
ATOM     74  C   UNL     1       1.300  -0.069   1.878  1.00  0.00     0.304 C 
ATOM     75  C   UNL     1       1.361  -1.561   2.114  1.00  0.00     0.153 C 
ATOM     76  N   UNL     1       1.703   0.669   3.092  1.00  0.00    -0.319 N 
ATOM     77  S   UNL     1       1.009  -1.775   3.881  1.00  0.00    -0.087 SA
ATOM     78  C   UNL     1       1.446  -0.077   4.323  1.00  0.00     0.278 C 
ATOM     79  H   UNL     1       1.183   1.545   3.129  1.00  0.00     0.348 HD
ATOM     80  H   UNL     1       2.709   0.827   3.035  1.00  0.00     0.348 HD
BRANCH  78  81
ATOM     81  C   UNL     1       0.714   0.491   5.565  1.00  0.00     0.063 A 
ATOM     82  C   UNL     1       1.262   0.070   6.801  1.00  0.00     0.030 A 
ATOM     83  C   UNL     1      -0.369   1.376   5.732  1.00  0.00     0.125 A 
ATOM     84  C   UNL     1       0.716   0.436   8.040  1.00  0.00     0.018 A 
ATOM     85  C   UNL     1      -1.053   1.560   6.946  1.00  0.00     0.048 A 
ATOM     86  Br  UNL     1       1.680   0.089   9.624  1.00  0.00    -0.051 Br
ATOM     87  C   UNL     1      -0.489   1.113   8.117  1.00  0.00     0.019 A 
BRANCH  83  88
ATOM     88  O   UNL     1      -0.660   2.414   4.897  1.00  0.00    -0.507 OA
ATOM     89  H   UNL     1      -0.283   2.446   4.040  1.00  0.00     0.293 HD
ENDBRANCH  83  88
ENDBRANCH  78  81
ENDBRANCH  72  74
ENDBRANCH  71  72
ENDBRANCH  70  71
ENDBRANCH   1  70
TORSDOF 13
