REMARK SMILES O=C(OCCOC(=O)[C@@H]([NH2+]C[C@@H]1CCCO1)c1cncn1C1CC1)c1ccc(-c2c3nc(c(-c4c(F)c(F)c(F)c(F)c4F)c4ccc([nH]4)c(-c4c(F)c(F)c(F)c(F)c4F)c4nc(c(-c5c(F)c(F)c(F)c(F)c5F)c5ccc2[nH]5)C=C4)C=C3)cc1
REMARK SMILES IDX 5 1 4 2 3 3 2 4 1 5 25 6 26 7 87 8 27 9 86 10 28 11 29 12
REMARK SMILES IDX 30 13 80 14 31 15 85 16 79 17 81 18 32 19 84 20 78 21 77 22
REMARK SMILES IDX 33 24 65 25 45 26 64 27 46 28 49 29 63 30 82 31 47 32 48 33
REMARK SMILES IDX 62 35 83 36 50 37 34 38 35 39 43 40 36 41 37 42 41 43 44 44
REMARK SMILES IDX 38 45 39 46 42 47 40 48 66 49 67 50 75 51 68 52 69 53 73 54
REMARK SMILES IDX 76 55 70 56 71 57 74 58 72 59 51 60 52 61 60 62 53 63 54 64
REMARK SMILES IDX 58 65 61 66 55 67 56 68 59 69 57 70 6 71 7 72 8 73 9 74
REMARK SMILES IDX 10 75 11 78 12 79 13 80 16 81 14 82 15 83 17 84 18 85 21 86
REMARK SMILES IDX 19 87 20 88 22 89 23 90 24 91
REMARK H PARENT 81 23 49 34 10 76 10 77
REMARK Flexibility Score: inf
ROOT
ATOM      1  C   UNL     1       4.177  -0.019  -1.406  1.00  0.00     0.274 C 
ENDROOT
BRANCH   1   2
ATOM      2  C   UNL     1       4.425  -1.400  -0.797  1.00  0.00     0.275 C 
BRANCH   2   3
ATOM      3  O   UNL     1       3.280  -2.083  -0.266  1.00  0.00    -0.458 OA
BRANCH   3   4
ATOM      4  C   UNL     1       2.219  -1.317   0.040  1.00  0.00     0.338 C 
ATOM      5  O   UNL     1       1.363  -0.936  -0.746  1.00  0.00    -0.246 OA
BRANCH   4   6
ATOM      6  C   UNL     1       2.142  -1.105   1.491  1.00  0.00     0.060 A 
ATOM      7  C   UNL     1       3.278  -1.055   2.315  1.00  0.00     0.016 A 
ATOM      8  C   UNL     1       0.865  -0.937   2.018  1.00  0.00     0.016 A 
ATOM      9  C   UNL     1       3.126  -0.940   3.685  1.00  0.00     0.010 A 
ATOM     10  C   UNL     1       0.717  -0.793   3.378  1.00  0.00     0.010 A 
ATOM     11  C   UNL     1       1.837  -0.863   4.209  1.00  0.00    -0.014 A 
BRANCH  11  12
ATOM     12  C   UNL     1       1.652  -0.837   5.649  1.00  0.00     0.031 A 
ATOM     13  C   UNL     1       2.254   0.323   6.362  1.00  0.00     0.074 A 
ATOM     14  C   UNL     1       0.820  -1.716   6.243  1.00  0.00     0.049 A 
ATOM     15  N   UNL     1       3.213   0.329   7.228  1.00  0.00    -0.248 NA
ATOM     16  C   UNL     1       1.816   1.666   5.963  1.00  0.00     0.031 C 
ATOM     17  C   UNL     1      -0.048  -2.721   5.620  1.00  0.00     0.029 A 
ATOM     18  N   UNL     1       0.489  -1.808   7.555  1.00  0.00    -0.354 N 
ATOM     19  C   UNL     1       3.366   1.658   7.632  1.00  0.00     0.074 A 
ATOM     20  C   UNL     1       2.628   2.443   6.681  1.00  0.00     0.031 C 
ATOM     21  C   UNL     1      -0.976  -3.130   6.512  1.00  0.00     0.029 A 
ATOM     22  C   UNL     1      -0.654  -2.555   7.803  1.00  0.00     0.049 A 
ATOM     23  H   UNL     1       1.015  -1.383   8.270  1.00  0.00     0.167 HD
ATOM     24  C   UNL     1       3.868   1.967   8.864  1.00  0.00     0.037 A 
ATOM     25  C   UNL     1      -1.306  -2.633   8.988  1.00  0.00     0.037 A 
ATOM     26  C   UNL     1       4.566   0.832   9.421  1.00  0.00     0.049 A 
ATOM     27  C   UNL     1      -0.345  -2.205  10.040  1.00  0.00     0.074 A 
ATOM     28  C   UNL     1       5.646   0.065   9.028  1.00  0.00     0.029 A 
ATOM     29  N   UNL     1       3.924   0.088  10.382  1.00  0.00    -0.354 N 
ATOM     30  N   UNL     1       0.730  -2.884  10.344  1.00  0.00    -0.248 NA
ATOM     31  C   UNL     1      -0.307  -0.790  10.383  1.00  0.00     0.031 C 
ATOM     32  C   UNL     1       5.282  -1.274   9.368  1.00  0.00     0.029 A 
ATOM     33  C   UNL     1       4.051  -1.227  10.024  1.00  0.00     0.049 A 
ATOM     34  H   UNL     1       3.460   0.436  11.178  1.00  0.00     0.167 HD
ATOM     35  C   UNL     1       1.718  -1.926  10.518  1.00  0.00     0.074 A 
ATOM     36  C   UNL     1       1.005  -0.651  10.591  1.00  0.00     0.031 C 
ATOM     37  C   UNL     1       3.033  -2.215  10.282  1.00  0.00     0.037 A 
BRANCH  24  38
ATOM     38  C   UNL     1       3.376   3.104   9.749  1.00  0.00     0.064 A 
ATOM     39  C   UNL     1       3.924   3.225  11.047  1.00  0.00     0.173 A 
ATOM     40  C   UNL     1       2.190   3.839   9.536  1.00  0.00     0.173 A 
ATOM     41  F   UNL     1       5.075   2.614  11.366  1.00  0.00    -0.203 F 
ATOM     42  C   UNL     1       3.247   3.873  12.084  1.00  0.00     0.198 A 
ATOM     43  C   UNL     1       1.540   4.525  10.564  1.00  0.00     0.198 A 
ATOM     44  F   UNL     1       1.550   3.859   8.365  1.00  0.00    -0.203 F 
ATOM     45  F   UNL     1       3.728   3.808  13.333  1.00  0.00    -0.200 F 
ATOM     46  C   UNL     1       2.041   4.500  11.847  1.00  0.00     0.200 A 
ATOM     47  F   UNL     1       0.373   5.133  10.310  1.00  0.00    -0.200 F 
ATOM     48  F   UNL     1       1.343   5.042  12.852  1.00  0.00    -0.200 F 
ENDBRANCH  24  38
BRANCH  25  49
ATOM     49  C   UNL     1      -2.769  -2.704   9.201  1.00  0.00     0.064 A 
ATOM     50  C   UNL     1      -3.305  -3.117  10.430  1.00  0.00     0.173 A 
ATOM     51  C   UNL     1      -3.670  -2.118   8.288  1.00  0.00     0.173 A 
ATOM     52  F   UNL     1      -2.505  -3.641  11.369  1.00  0.00    -0.203 F 
ATOM     53  C   UNL     1      -4.659  -2.937  10.735  1.00  0.00     0.198 A 
ATOM     54  C   UNL     1      -5.020  -1.944   8.592  1.00  0.00     0.198 A 
ATOM     55  F   UNL     1      -3.238  -1.617   7.121  1.00  0.00    -0.203 F 
ATOM     56  F   UNL     1      -5.125  -3.294  11.940  1.00  0.00    -0.200 F 
ATOM     57  C   UNL     1      -5.513  -2.342   9.820  1.00  0.00     0.200 A 
ATOM     58  F   UNL     1      -5.826  -1.332   7.712  1.00  0.00    -0.200 F 
ATOM     59  F   UNL     1      -6.795  -2.117  10.135  1.00  0.00    -0.200 F 
ENDBRANCH  25  49
BRANCH  37  60
ATOM     60  C   UNL     1       3.414  -3.647  10.039  1.00  0.00     0.064 A 
ATOM     61  C   UNL     1       2.980  -4.399   8.934  1.00  0.00     0.173 A 
ATOM     62  C   UNL     1       4.393  -4.219  10.860  1.00  0.00     0.173 A 
ATOM     63  F   UNL     1       2.129  -3.883   8.041  1.00  0.00    -0.203 F 
ATOM     64  C   UNL     1       3.474  -5.679   8.688  1.00  0.00     0.198 A 
ATOM     65  C   UNL     1       4.912  -5.483  10.593  1.00  0.00     0.198 A 
ATOM     66  F   UNL     1       4.893  -3.523  11.893  1.00  0.00    -0.203 F 
ATOM     67  F   UNL     1       3.040  -6.375   7.625  1.00  0.00    -0.200 F 
ATOM     68  C   UNL     1       4.445  -6.217   9.514  1.00  0.00     0.200 A 
ATOM     69  F   UNL     1       5.891  -5.976  11.364  1.00  0.00    -0.200 F 
ATOM     70  F   UNL     1       4.956  -7.428   9.253  1.00  0.00    -0.200 F 
ENDBRANCH  37  60
ENDBRANCH  11  12
ENDBRANCH   4   6
ENDBRANCH   3   4
ENDBRANCH   2   3
ENDBRANCH   1   2
BRANCH   1  71
ATOM     71  O   UNL     1       3.754   0.950  -0.414  1.00  0.00    -0.457 OA
BRANCH  71  72
ATOM     72  C   UNL     1       2.920   1.944  -0.871  1.00  0.00     0.371 C 
ATOM     73  O   UNL     1       2.395   1.935  -1.981  1.00  0.00    -0.245 OA
BRANCH  72  74
ATOM     74  C   UNL     1       2.703   3.095   0.134  1.00  0.00     0.343 C 
BRANCH  74  75
ATOM     75  N   UNL     1       3.085   2.746   1.525  1.00  0.00    -0.327 N 
ATOM     76  H   UNL     1       4.094   2.865   1.614  1.00  0.00     0.347 HD
ATOM     77  H   UNL     1       2.772   1.786   1.671  1.00  0.00     0.347 HD
BRANCH  75  78
ATOM     78  C   UNL     1       2.434   3.554   2.584  1.00  0.00     0.293 C 
BRANCH  78  79
ATOM     79  C   UNL     1       0.881   3.629   2.728  1.00  0.00     0.173 C 
ATOM     80  C   UNL     1       0.083   2.391   2.364  1.00  0.00     0.040 C 
ATOM     81  O   UNL     1       0.337   4.717   1.970  1.00  0.00    -0.372 OA
ATOM     82  C   UNL     1      -1.199   2.927   1.777  1.00  0.00     0.031 C 
ATOM     83  C   UNL     1      -0.802   4.274   1.229  1.00  0.00     0.161 C 
ENDBRANCH  78  79
ENDBRANCH  75  78
ENDBRANCH  74  75
BRANCH  74  84
ATOM     84  C   UNL     1       3.239   4.432  -0.316  1.00  0.00     0.108 A 
ATOM     85  C   UNL     1       2.586   5.647  -0.102  1.00  0.00     0.141 A 
ATOM     86  N   UNL     1       4.387   4.830  -0.988  1.00  0.00    -0.326 N 
ATOM     87  N   UNL     1       3.278   6.722  -0.565  1.00  0.00    -0.245 NA
ATOM     88  C   UNL     1       4.356   6.201  -1.085  1.00  0.00     0.200 A 
BRANCH  86  89
ATOM     89  C   UNL     1       5.537   4.156  -1.563  1.00  0.00     0.089 C 
ATOM     90  C   UNL     1       6.097   2.846  -1.085  1.00  0.00     0.027 C 
ATOM     91  C   UNL     1       5.463   2.932  -2.438  1.00  0.00     0.027 C 
ENDBRANCH  86  89
ENDBRANCH  74  84
ENDBRANCH  72  74
ENDBRANCH  71  72
ENDBRANCH   1  71
TORSDOF 16
