REMARK SMILES NS(=O)(=O)c1ccc(-n2nc(NC(=O)NCCCCCCCCCCC(=O)OCCOC(=O)c3ccc(-c4c5nc(c(-c6c(F)c(F)c(F)c(F)c6F)c6ccc([nH]6)c(-c6c(F)c(F)c(F)c(F)c6F)c6nc(c(-c7c(F)c(F)c(F)c(F)c7F)c7ccc4[nH]7)C=C6)C=C5)cc3)cc2-c2ccccc2)cc1
REMARK SMILES IDX 22 1 21 2 20 3 19 4 18 5 17 6 16 7 15 8 12 9 13 10 14 12
REMARK SMILES IDX 11 14 9 15 10 16 98 17 97 18 8 19 5 20 6 21 106 22 7 23
REMARK SMILES IDX 105 24 2 25 3 26 4 27 1 28 99 31 100 32 104 33 101 34 103 35
REMARK SMILES IDX 102 36 23 37 24 38 25 39 26 40 27 41 28 42 29 43 30 44 31 45
REMARK SMILES IDX 32 46 33 47 34 48 35 49 96 50 36 51 95 52 37 53 38 54 39 55
REMARK SMILES IDX 89 56 40 57 94 58 88 59 90 60 41 61 93 62 87 63 86 64 42 66
REMARK SMILES IDX 74 67 54 68 73 69 55 70 58 71 72 72 91 73 56 74 57 75 71 77
REMARK SMILES IDX 92 78 59 79 43 80 44 81 52 82 45 83 46 84 50 85 53 86 47 87
REMARK SMILES IDX 48 88 51 89 49 90 75 91 76 92 84 93 77 94 78 95 82 96 85 97
REMARK SMILES IDX 79 98 80 99 83 100 81 101 60 102 61 103 69 104 62 105 63 106
REMARK SMILES IDX 67 107 70 108 64 109 65 110 68 111 66 112
REMARK H PARENT 12 11 15 13 1 29 1 30 90 65 58 76
REMARK Flexibility Score: inf
ROOT
ATOM      1  C   UNL     1       5.979  -4.361   2.941  1.00  0.00     0.000 C 
ENDROOT
BRANCH   1   2
ATOM      2  C   UNL     1       4.798  -4.800   2.080  1.00  0.00     0.000 C 
BRANCH   2   3
ATOM      3  C   UNL     1       5.043  -4.606   0.583  1.00  0.00     0.000 C 
BRANCH   3   4
ATOM      4  C   UNL     1       6.310  -5.295   0.058  1.00  0.00     0.000 C 
BRANCH   4   5
ATOM      5  C   UNL     1       6.377  -6.802   0.334  1.00  0.00     0.002 C 
BRANCH   5   6
ATOM      6  C   UNL     1       5.144  -7.592  -0.102  1.00  0.00     0.021 C 
BRANCH   6   7
ATOM      7  C   UNL     1       4.714  -7.348  -1.539  1.00  0.00     0.117 C 
BRANCH   7   8
ATOM      8  N   UNL     1       5.591  -7.916  -2.538  1.00  0.00    -0.338 N 
ATOM      9  N   UNL     1       4.044  -8.370  -4.287  1.00  0.00    -0.291 N 
ATOM     10  C   UNL     1       5.289  -8.416  -3.758  1.00  0.00     0.320 C 
ATOM     11  H   UNL     1       3.862  -9.060  -4.965  1.00  0.00     0.173 HD
ATOM     12  O   UNL     1       6.167  -9.047  -4.355  1.00  0.00    -0.248 OA
ATOM     13  H   UNL     1       6.545  -7.943  -2.296  1.00  0.00     0.165 HD
BRANCH   9  14
ATOM     14  C   UNL     1       2.990  -7.520  -4.038  1.00  0.00     0.157 A 
ATOM     15  N   UNL     1       1.848  -5.995  -3.117  1.00  0.00    -0.231 N 
ATOM     16  N   UNL     1       3.094  -6.285  -3.546  1.00  0.00    -0.149 NA
ATOM     17  C   UNL     1       0.902  -6.803  -3.738  1.00  0.00     0.076 A 
ATOM     18  C   UNL     1       1.637  -7.829  -4.306  1.00  0.00     0.078 A 
BRANCH  15  19
ATOM     19  C   UNL     1       1.646  -5.015  -2.106  1.00  0.00     0.065 A 
ATOM     20  C   UNL     1       1.105  -3.006  -0.255  1.00  0.00     0.082 A 
ATOM     21  C   UNL     1       0.384  -4.201  -0.204  1.00  0.00     0.024 A 
ATOM     22  C   UNL     1       2.129  -2.828  -1.192  1.00  0.00     0.024 A 
ATOM     23  C   UNL     1       0.657  -5.207  -1.129  1.00  0.00     0.030 A 
ATOM     24  C   UNL     1       2.419  -3.847  -2.105  1.00  0.00     0.030 A 
BRANCH  20  25
ATOM     25  S   UNL     1       0.633  -1.710   0.851  1.00  0.00     0.238 S 
ATOM     26  O   UNL     1       1.380  -1.855   2.072  1.00  0.00    -0.207 OA
ATOM     27  O   UNL     1      -0.811  -1.592   0.822  1.00  0.00    -0.207 OA
BRANCH  25  28
ATOM     28  N   UNL     1       1.194  -0.306   0.118  1.00  0.00    -0.225 NA
ATOM     29  H   UNL     1       0.959   0.498   0.700  1.00  0.00     0.137 HD
ATOM     30  H   UNL     1       0.757  -0.203  -0.798  1.00  0.00     0.137 HD
ENDBRANCH  25  28
ENDBRANCH  20  25
ENDBRANCH  15  19
BRANCH  17  31
ATOM     31  C   UNL     1      -0.533  -6.525  -3.733  1.00  0.00     0.000 A 
ATOM     32  C   UNL     1      -0.985  -5.219  -3.987  1.00  0.00     0.010 A 
ATOM     33  C   UNL     1      -1.464  -7.515  -3.409  1.00  0.00     0.010 A 
ATOM     34  C   UNL     1      -2.333  -4.893  -3.859  1.00  0.00     0.001 A 
ATOM     35  C   UNL     1      -2.818  -7.189  -3.296  1.00  0.00     0.001 A 
ATOM     36  C   UNL     1      -3.249  -5.879  -3.508  1.00  0.00     0.000 A 
ENDBRANCH  17  31
ENDBRANCH   9  14
ENDBRANCH   7   8
ENDBRANCH   6   7
ENDBRANCH   5   6
ENDBRANCH   4   5
ENDBRANCH   3   4
ENDBRANCH   2   3
ENDBRANCH   1   2
BRANCH   1  37
ATOM     37  C   UNL     1       6.239  -2.860   2.839  1.00  0.00     0.001 C 
BRANCH  37  38
ATOM     38  C   UNL     1       5.154  -2.026   3.526  1.00  0.00     0.012 C 
BRANCH  38  39
ATOM     39  C   UNL     1       4.853  -2.373   4.989  1.00  0.00     0.123 C 
BRANCH  39  40
ATOM     40  C   UNL     1       5.998  -2.326   5.984  1.00  0.00     0.305 C 
ATOM     41  O   UNL     1       5.881  -1.847   7.105  1.00  0.00    -0.252 OA
BRANCH  40  42
ATOM     42  O   UNL     1       7.131  -2.907   5.512  1.00  0.00    -0.462 OA
BRANCH  42  43
ATOM     43  C   UNL     1       8.340  -2.738   6.276  1.00  0.00     0.274 C 
BRANCH  43  44
ATOM     44  C   UNL     1       9.059  -1.447   5.903  1.00  0.00     0.275 C 
BRANCH  44  45
ATOM     45  O   UNL     1       8.247  -0.322   6.229  1.00  0.00    -0.458 OA
BRANCH  45  46
ATOM     46  C   UNL     1       7.554   0.177   5.186  1.00  0.00     0.338 C 
ATOM     47  O   UNL     1       7.505  -0.260   4.050  1.00  0.00    -0.246 OA
BRANCH  46  48
ATOM     48  C   UNL     1       7.005   1.482   5.534  1.00  0.00     0.060 A 
ATOM     49  C   UNL     1       5.981   1.999   4.731  1.00  0.00     0.016 A 
ATOM     50  C   UNL     1       7.795   2.284   6.361  1.00  0.00     0.016 A 
ATOM     51  C   UNL     1       5.885   3.367   4.600  1.00  0.00     0.010 A 
ATOM     52  C   UNL     1       7.726   3.639   6.199  1.00  0.00     0.010 A 
ATOM     53  C   UNL     1       6.829   4.155   5.263  1.00  0.00    -0.014 A 
BRANCH  53  54
ATOM     54  C   UNL     1       6.823   5.587   5.060  1.00  0.00     0.031 A 
ATOM     55  C   UNL     1       5.740   6.256   5.819  1.00  0.00     0.074 A 
ATOM     56  C   UNL     1       7.844   6.190   4.419  1.00  0.00     0.049 A 
ATOM     57  N   UNL     1       4.781   6.986   5.358  1.00  0.00    -0.248 NA
ATOM     58  C   UNL     1       5.606   5.930   7.252  1.00  0.00     0.031 C 
ATOM     59  C   UNL     1       9.071   5.569   3.904  1.00  0.00     0.029 A 
ATOM     60  N   UNL     1       8.066   7.513   4.202  1.00  0.00    -0.354 N 
ATOM     61  C   UNL     1       4.049   7.380   6.475  1.00  0.00     0.074 A 
ATOM     62  C   UNL     1       4.462   6.538   7.560  1.00  0.00     0.031 C 
ATOM     63  C   UNL     1       9.991   6.530   3.660  1.00  0.00     0.029 A 
ATOM     64  C   UNL     1       9.384   7.828   3.888  1.00  0.00     0.049 A 
ATOM     65  H   UNL     1       7.355   8.191   4.262  1.00  0.00     0.167 HD
ATOM     66  C   UNL     1       3.394   8.571   6.485  1.00  0.00     0.037 A 
ATOM     67  C   UNL     1       9.935   9.069   3.917  1.00  0.00     0.037 A 
ATOM     68  C   UNL     1       3.174   9.044   5.142  1.00  0.00     0.049 A 
ATOM     69  C   UNL     1       8.814  10.046   3.916  1.00  0.00     0.074 A 
ATOM     70  C   UNL     1       2.484   8.568   4.045  1.00  0.00     0.029 A 
ATOM     71  N   UNL     1       4.032  10.002   4.664  1.00  0.00    -0.354 N 
ATOM     72  N   UNL     1       8.015  10.231   2.902  1.00  0.00    -0.248 NA
ATOM     73  C   UNL     1       8.294  10.472   5.207  1.00  0.00     0.031 C 
ATOM     74  C   UNL     1       3.274   8.940   2.917  1.00  0.00     0.029 A 
ATOM     75  C   UNL     1       4.367   9.675   3.378  1.00  0.00     0.049 A 
ATOM     76  H   UNL     1       4.351  10.790   5.160  1.00  0.00     0.167 HD
ATOM     77  C   UNL     1       6.757  10.378   3.469  1.00  0.00     0.074 A 
ATOM     78  C   UNL     1       7.003  10.602   4.891  1.00  0.00     0.031 C 
ATOM     79  C   UNL     1       5.638  10.006   2.780  1.00  0.00     0.037 A 
BRANCH  66  80
ATOM     80  C   UNL     1       3.365   9.498   7.680  1.00  0.00     0.064 A 
ATOM     81  C   UNL     1       2.609  10.683   7.588  1.00  0.00     0.173 A 
ATOM     82  C   UNL     1       4.279   9.445   8.758  1.00  0.00     0.173 A 
ATOM     83  F   UNL     1       1.715  10.848   6.602  1.00  0.00    -0.203 F 
ATOM     84  C   UNL     1       2.832  11.767   8.440  1.00  0.00     0.198 A 
ATOM     85  C   UNL     1       4.458  10.509   9.639  1.00  0.00     0.198 A 
ATOM     86  F   UNL     1       5.119   8.422   8.946  1.00  0.00    -0.203 F 
ATOM     87  F   UNL     1       2.192  12.924   8.221  1.00  0.00    -0.200 F 
ATOM     88  C   UNL     1       3.763  11.683   9.457  1.00  0.00     0.200 A 
ATOM     89  F   UNL     1       5.378  10.411  10.609  1.00  0.00    -0.200 F 
ATOM     90  F   UNL     1       4.030  12.745  10.228  1.00  0.00    -0.200 F 
ENDBRANCH  66  80
BRANCH  67  91
ATOM     91  C   UNL     1      11.315   9.458   4.304  1.00  0.00     0.064 A 
ATOM     92  C   UNL     1      11.820  10.734   4.004  1.00  0.00     0.173 A 
ATOM     93  C   UNL     1      12.065   8.691   5.217  1.00  0.00     0.173 A 
ATOM     94  F   UNL     1      11.143  11.551   3.184  1.00  0.00    -0.203 F 
ATOM     95  C   UNL     1      12.992  11.220   4.597  1.00  0.00     0.198 A 
ATOM     96  C   UNL     1      13.238   9.173   5.802  1.00  0.00     0.198 A 
ATOM     97  F   UNL     1      11.626   7.496   5.637  1.00  0.00    -0.203 F 
ATOM     98  F   UNL     1      13.409  12.467   4.332  1.00  0.00    -0.200 F 
ATOM     99  C   UNL     1      13.694  10.443   5.502  1.00  0.00     0.200 A 
ATOM    100  F   UNL     1      13.885   8.425   6.707  1.00  0.00    -0.200 F 
ATOM    101  F   UNL     1      14.782  10.929   6.116  1.00  0.00    -0.200 F 
ENDBRANCH  67  91
BRANCH  79 102
ATOM    102  C   UNL     1       5.792   9.711   1.314  1.00  0.00     0.064 A 
ATOM    103  C   UNL     1       6.557   8.651   0.796  1.00  0.00     0.173 A 
ATOM    104  C   UNL     1       5.016  10.448   0.410  1.00  0.00     0.173 A 
ATOM    105  F   UNL     1       7.246   7.838   1.606  1.00  0.00    -0.203 F 
ATOM    106  C   UNL     1       6.576   8.374  -0.570  1.00  0.00     0.198 A 
ATOM    107  C   UNL     1       5.006  10.144  -0.947  1.00  0.00     0.198 A 
ATOM    108  F   UNL     1       4.223  11.434   0.856  1.00  0.00    -0.203 F 
ATOM    109  F   UNL     1       7.323   7.364  -1.042  1.00  0.00    -0.200 F 
ATOM    110  C   UNL     1       5.794   9.116  -1.439  1.00  0.00     0.200 A 
ATOM    111  F   UNL     1       4.207  10.831  -1.776  1.00  0.00    -0.200 F 
ATOM    112  F   UNL     1       5.775   8.822  -2.747  1.00  0.00    -0.200 F 
ENDBRANCH  79 102
ENDBRANCH  53  54
ENDBRANCH  46  48
ENDBRANCH  45  46
ENDBRANCH  44  45
ENDBRANCH  43  44
ENDBRANCH  42  43
ENDBRANCH  40  42
ENDBRANCH  39  40
ENDBRANCH  38  39
ENDBRANCH  37  38
ENDBRANCH   1  37
TORSDOF 26
