REMARK SMILES Cc1ccc(C(=O)OCCOC(=O)c2ccc(-c3c4nc(c(-c5c(F)c(F)c(F)c(F)c5F)c5ccc([nH]5)c(-c5c(F)c(F)c(F)c(F)c5F)c5nc(c(-c6c(F)c(F)c(F)c(F)c6F)c6ccc3[nH]6)C=C5)C=C4)cc2)cc1N1CC(C)C1
REMARK SMILES IDX 10 1 9 2 8 3 6 4 7 5 5 6 1 7 2 8 3 9 78 10 4 11 77 12 79 13
REMARK SMILES IDX 80 14 83 15 81 16 82 17 11 18 12 19 13 20 14 21 15 22 76 23
REMARK SMILES IDX 16 24 75 25 17 26 18 27 19 28 69 29 20 30 74 31 68 32 70 33
REMARK SMILES IDX 21 34 73 35 67 36 66 37 22 39 54 40 34 41 53 42 35 43 38 44
REMARK SMILES IDX 52 45 71 46 36 47 37 48 51 50 72 51 39 52 23 53 24 54 32 55
REMARK SMILES IDX 25 56 26 57 30 58 33 59 27 60 28 61 31 62 29 63 55 64 56 65
REMARK SMILES IDX 64 66 57 67 58 68 62 69 65 70 59 71 60 72 63 73 61 74 40 75
REMARK SMILES IDX 41 76 49 77 42 78 43 79 47 80 50 81 44 82 45 83 48 84 46 85
REMARK H PARENT 70 38 38 49
REMARK Flexibility Score: inf
ROOT
ATOM      1  C   UNL     1      -5.634   0.888  -2.992  1.00  0.00     0.275 C 
ENDROOT
BRANCH   1   2
ATOM      2  C   UNL     1      -4.593   1.700  -2.209  1.00  0.00     0.275 C 
BRANCH   2   3
ATOM      3  O   UNL     1      -3.296   1.095  -2.113  1.00  0.00    -0.458 OA
BRANCH   3   4
ATOM      4  C   UNL     1      -2.574   1.657  -1.107  1.00  0.00     0.338 C 
ATOM      5  O   UNL     1      -2.970   2.569  -0.389  1.00  0.00    -0.246 OA
BRANCH   4   6
ATOM      6  C   UNL     1      -1.198   1.136  -0.965  1.00  0.00     0.062 A 
ATOM      7  C   UNL     1       2.853  -0.068  -0.063  1.00  0.00     0.046 C 
ATOM      8  C   UNL     1       1.462   0.391  -0.411  1.00  0.00    -0.028 A 
ATOM      9  C   UNL     1       0.527  -0.553  -0.879  1.00  0.00     0.006 A 
ATOM     10  C   UNL     1       1.057   1.725  -0.252  1.00  0.00     0.040 A 
ATOM     11  C   UNL     1      -0.785  -0.173  -1.200  1.00  0.00     0.016 A 
ATOM     12  C   UNL     1      -0.275   2.067  -0.495  1.00  0.00     0.041 A 
BRANCH  10  13
ATOM     13  N   UNL     1       1.987   2.750   0.044  1.00  0.00    -0.371 N 
ATOM     14  C   UNL     1       1.713   3.930   0.831  1.00  0.00     0.121 C 
ATOM     15  C   UNL     1       2.557   3.529  -1.037  1.00  0.00     0.121 C 
ATOM     16  C   UNL     1       1.921   4.779  -0.426  1.00  0.00     0.025 C 
ATOM     17  C   UNL     1       2.817   5.991  -0.305  1.00  0.00     0.011 C 
ENDBRANCH  10  13
ENDBRANCH   4   6
ENDBRANCH   3   4
ENDBRANCH   2   3
ENDBRANCH   1   2
BRANCH   1  18
ATOM     18  O   UNL     1      -5.603  -0.566  -3.019  1.00  0.00    -0.458 OA
BRANCH  18  19
ATOM     19  C   UNL     1      -4.904  -1.399  -2.220  1.00  0.00     0.338 C 
ATOM     20  O   UNL     1      -4.377  -2.427  -2.635  1.00  0.00    -0.246 OA
BRANCH  19  21
ATOM     21  C   UNL     1      -4.820  -1.041  -0.801  1.00  0.00     0.060 A 
ATOM     22  C   UNL     1      -3.676  -1.417  -0.073  1.00  0.00     0.016 A 
ATOM     23  C   UNL     1      -5.812  -0.244  -0.241  1.00  0.00     0.016 A 
ATOM     24  C   UNL     1      -3.470  -0.915   1.199  1.00  0.00     0.010 A 
ATOM     25  C   UNL     1      -5.549   0.371   0.950  1.00  0.00     0.010 A 
ATOM     26  C   UNL     1      -4.424  -0.033   1.690  1.00  0.00    -0.014 A 
BRANCH  26  27
ATOM     27  C   UNL     1      -4.608   0.191   3.107  1.00  0.00     0.031 A 
ATOM     28  C   UNL     1      -3.961   1.322   3.773  1.00  0.00     0.074 A 
ATOM     29  C   UNL     1      -5.628  -0.588   3.539  1.00  0.00     0.049 A 
ATOM     30  N   UNL     1      -3.804   1.421   5.044  1.00  0.00    -0.248 NA
ATOM     31  C   UNL     1      -3.361   2.443   3.050  1.00  0.00     0.031 C 
ATOM     32  C   UNL     1      -6.545  -0.478   4.652  1.00  0.00     0.029 A 
ATOM     33  N   UNL     1      -5.997  -1.809   2.932  1.00  0.00    -0.354 N 
ATOM     34  C   UNL     1      -3.527   2.750   5.301  1.00  0.00     0.074 A 
ATOM     35  C   UNL     1      -3.054   3.280   4.048  1.00  0.00     0.031 C 
ATOM     36  C   UNL     1      -7.115  -1.686   4.853  1.00  0.00     0.029 A 
ATOM     37  C   UNL     1      -6.462  -2.634   3.954  1.00  0.00     0.049 A 
ATOM     38  H   UNL     1      -5.938  -2.033   1.975  1.00  0.00     0.167 HD
ATOM     39  C   UNL     1      -3.999   3.288   6.466  1.00  0.00     0.037 A 
ATOM     40  C   UNL     1      -5.648  -3.667   4.327  1.00  0.00     0.037 A 
ATOM     41  C   UNL     1      -4.697   2.241   7.217  1.00  0.00     0.049 A 
ATOM     42  C   UNL     1      -5.111  -3.400   5.710  1.00  0.00     0.074 A 
ATOM     43  C   UNL     1      -6.043   1.917   7.285  1.00  0.00     0.029 A 
ATOM     44  N   UNL     1      -3.997   1.120   7.654  1.00  0.00    -0.354 N 
ATOM     45  N   UNL     1      -4.791  -2.215   6.160  1.00  0.00    -0.248 NA
ATOM     46  C   UNL     1      -5.021  -4.444   6.721  1.00  0.00     0.031 C 
ATOM     47  C   UNL     1      -6.144   0.564   7.697  1.00  0.00     0.029 A 
ATOM     48  C   UNL     1      -4.863   0.061   7.856  1.00  0.00     0.049 A 
ATOM     49  H   UNL     1      -3.024   1.086   7.799  1.00  0.00     0.167 HD
ATOM     50  C   UNL     1      -4.572  -2.303   7.508  1.00  0.00     0.074 A 
ATOM     51  C   UNL     1      -4.689  -3.722   7.804  1.00  0.00     0.031 C 
ATOM     52  C   UNL     1      -4.370  -1.222   8.319  1.00  0.00     0.037 A 
BRANCH  39  53
ATOM     53  C   UNL     1      -4.192   4.767   6.758  1.00  0.00     0.064 A 
ATOM     54  C   UNL     1      -5.155   5.183   7.710  1.00  0.00     0.173 A 
ATOM     55  C   UNL     1      -3.504   5.824   6.134  1.00  0.00     0.173 A 
ATOM     56  F   UNL     1      -5.823   4.301   8.466  1.00  0.00    -0.203 F 
ATOM     57  C   UNL     1      -5.472   6.524   7.938  1.00  0.00     0.198 A 
ATOM     58  C   UNL     1      -3.835   7.171   6.347  1.00  0.00     0.198 A 
ATOM     59  F   UNL     1      -2.453   5.603   5.337  1.00  0.00    -0.203 F 
ATOM     60  F   UNL     1      -6.414   6.840   8.838  1.00  0.00    -0.200 F 
ATOM     61  C   UNL     1      -4.827   7.520   7.240  1.00  0.00     0.200 A 
ATOM     62  F   UNL     1      -3.176   8.132   5.682  1.00  0.00    -0.200 F 
ATOM     63  F   UNL     1      -5.139   8.806   7.448  1.00  0.00    -0.200 F 
ENDBRANCH  39  53
BRANCH  40  64
ATOM     64  C   UNL     1      -4.881  -4.276   3.185  1.00  0.00     0.064 A 
ATOM     65  C   UNL     1      -5.601  -4.726   2.052  1.00  0.00     0.173 A 
ATOM     66  C   UNL     1      -3.493  -4.165   3.037  1.00  0.00     0.173 A 
ATOM     67  F   UNL     1      -6.937  -4.860   2.118  1.00  0.00    -0.203 F 
ATOM     68  C   UNL     1      -4.986  -4.945   0.818  1.00  0.00     0.198 A 
ATOM     69  C   UNL     1      -2.874  -4.407   1.802  1.00  0.00     0.198 A 
ATOM     70  F   UNL     1      -2.731  -3.746   4.056  1.00  0.00    -0.203 F 
ATOM     71  F   UNL     1      -5.728  -5.255  -0.255  1.00  0.00    -0.200 F 
ATOM     72  C   UNL     1      -3.622  -4.771   0.691  1.00  0.00     0.200 A 
ATOM     73  F   UNL     1      -1.555  -4.203   1.662  1.00  0.00    -0.200 F 
ATOM     74  F   UNL     1      -3.032  -4.901  -0.507  1.00  0.00    -0.200 F 
ENDBRANCH  40  64
BRANCH  52  75
ATOM     75  C   UNL     1      -3.785  -1.291   9.703  1.00  0.00     0.064 A 
ATOM     76  C   UNL     1      -2.897  -2.300  10.105  1.00  0.00     0.173 A 
ATOM     77  C   UNL     1      -3.959  -0.222  10.615  1.00  0.00     0.173 A 
ATOM     78  F   UNL     1      -2.546  -3.294   9.278  1.00  0.00    -0.203 F 
ATOM     79  C   UNL     1      -2.292  -2.284  11.360  1.00  0.00     0.198 A 
ATOM     80  C   UNL     1      -3.289  -0.170  11.831  1.00  0.00     0.198 A 
ATOM     81  F   UNL     1      -4.753   0.823  10.340  1.00  0.00    -0.203 F 
ATOM     82  F   UNL     1      -1.502  -3.303  11.723  1.00  0.00    -0.200 F 
ATOM     83  C   UNL     1      -2.474  -1.214  12.215  1.00  0.00     0.200 A 
ATOM     84  F   UNL     1      -3.420   0.908  12.616  1.00  0.00    -0.200 F 
ATOM     85  F   UNL     1      -1.848  -1.178  13.397  1.00  0.00    -0.200 F 
ENDBRANCH  52  75
ENDBRANCH  26  27
ENDBRANCH  19  21
ENDBRANCH  18  19
ENDBRANCH   1  18
TORSDOF 12
