REMARK SMILES C[C@H]1[C@H](C(=O)OCCOC(=O)c2ccc(-c3c4nc(c(-c5c(F)c(F)c(F)c(F)c5F)c5ccc([nH]5)c(-c5c(F)c(F)c(F)c(F)c5F)c5nc(c(-c6c(F)c(F)c(F)c(F)c6F)c6ccc3[nH]6)C=C5)C=C4)cc2)CCN1C(=O)[C@H]1CC=CCC1
REMARK SMILES IDX 7 1 6 2 4 3 5 4 3 5 1 6 2 7 77 8 75 9 76 10 78 11 79 12
REMARK SMILES IDX 80 13 81 14 85 15 82 16 84 17 83 18 8 19 9 20 10 21 11 22
REMARK SMILES IDX 12 23 13 24 74 25 14 26 73 27 15 28 16 29 17 30 67 31 18 32
REMARK SMILES IDX 72 33 66 34 68 35 19 36 71 37 65 38 64 39 20 41 52 42 32 43
REMARK SMILES IDX 51 44 33 45 36 46 50 47 69 48 34 49 35 50 49 52 70 53 37 54
REMARK SMILES IDX 21 55 22 56 30 57 23 58 24 59 28 60 31 61 25 62 26 63 29 64
REMARK SMILES IDX 27 65 53 66 54 67 62 68 55 69 56 70 60 71 63 72 57 73 58 74
REMARK SMILES IDX 61 75 59 76 38 77 39 78 47 79 40 80 41 81 45 82 48 83 42 84
REMARK SMILES IDX 43 85 46 86 44 87
REMARK H PARENT 68 40 36 51
REMARK Flexibility Score: inf
ROOT
ATOM      1  C   UNL     1      -0.554   2.787   3.255  1.00  0.00     0.274 C 
ENDROOT
BRANCH   1   2
ATOM      2  O   UNL     1      -0.517   1.745   2.258  1.00  0.00    -0.462 OA
BRANCH   2   3
ATOM      3  C   UNL     1      -0.854   2.115   0.997  1.00  0.00     0.311 C 
ATOM      4  O   UNL     1      -1.192   3.248   0.671  1.00  0.00    -0.252 OA
BRANCH   3   5
ATOM      5  C   UNL     1      -0.836   0.975   0.006  1.00  0.00     0.123 C 
ATOM      6  C   UNL     1       1.247   0.118  -1.099  1.00  0.00     0.032 C 
ATOM      7  C   UNL     1       0.343  -0.019   0.133  1.00  0.00     0.096 C 
ATOM      8  N   UNL     1      -0.291  -1.341   0.177  1.00  0.00    -0.339 N 
ATOM      9  C   UNL     1      -2.102   0.129   0.123  1.00  0.00     0.039 C 
ATOM     10  C   UNL     1      -1.649  -1.244  -0.329  1.00  0.00     0.121 C 
BRANCH   8  11
ATOM     11  C   UNL     1       0.175  -2.559   0.611  1.00  0.00     0.226 C 
ATOM     12  O   UNL     1      -0.512  -3.572   0.411  1.00  0.00    -0.275 OA
BRANCH  11  13
ATOM     13  C   UNL     1       1.487  -2.749   1.390  1.00  0.00     0.083 C 
ATOM     14  C   UNL     1       2.781  -2.558   0.599  1.00  0.00     0.040 C 
ATOM     15  C   UNL     1       1.486  -2.184   2.817  1.00  0.00     0.018 C 
ATOM     16  C   UNL     1       3.615  -1.383   1.001  1.00  0.00    -0.030 C 
ATOM     17  C   UNL     1       2.264  -0.891   3.051  1.00  0.00     0.028 C 
ATOM     18  C   UNL     1       3.384  -0.646   2.093  1.00  0.00    -0.031 C 
ENDBRANCH  11  13
ENDBRANCH   8  11
ENDBRANCH   3   5
ENDBRANCH   2   3
ENDBRANCH   1   2
BRANCH   1  19
ATOM     19  C   UNL     1       0.826   3.402   3.508  1.00  0.00     0.275 C 
BRANCH  19  20
ATOM     20  O   UNL     1       1.292   4.174   2.386  1.00  0.00    -0.458 OA
BRANCH  20  21
ATOM     21  C   UNL     1       2.016   3.477   1.485  1.00  0.00     0.338 C 
ATOM     22  O   UNL     1       2.328   2.298   1.537  1.00  0.00    -0.246 OA
BRANCH  21  23
ATOM     23  C   UNL     1       2.311   4.299   0.309  1.00  0.00     0.060 A 
ATOM     24  C   UNL     1       1.735   3.927  -0.909  1.00  0.00     0.016 A 
ATOM     25  C   UNL     1       3.242   5.335   0.373  1.00  0.00     0.016 A 
ATOM     26  C   UNL     1       2.112   4.565  -2.083  1.00  0.00     0.010 A 
ATOM     27  C   UNL     1       3.603   5.992  -0.804  1.00  0.00     0.010 A 
ATOM     28  C   UNL     1       3.052   5.599  -2.037  1.00  0.00    -0.014 A 
BRANCH  28  29
ATOM     29  C   UNL     1       3.473   6.268  -3.285  1.00  0.00     0.031 A 
ATOM     30  C   UNL     1       4.823   5.981  -3.866  1.00  0.00     0.074 A 
ATOM     31  C   UNL     1       2.637   7.135  -3.882  1.00  0.00     0.049 A 
ATOM     32  N   UNL     1       5.447   6.586  -4.843  1.00  0.00    -0.248 NA
ATOM     33  C   UNL     1       5.571   4.865  -3.268  1.00  0.00     0.031 C 
ATOM     34  C   UNL     1       1.276   7.433  -3.439  1.00  0.00     0.029 A 
ATOM     35  N   UNL     1       2.819   7.935  -4.980  1.00  0.00    -0.354 N 
ATOM     36  C   UNL     1       6.672   5.946  -4.958  1.00  0.00     0.074 A 
ATOM     37  C   UNL     1       6.705   4.902  -3.956  1.00  0.00     0.031 C 
ATOM     38  C   UNL     1       0.749   8.366  -4.248  1.00  0.00     0.029 A 
ATOM     39  C   UNL     1       1.756   8.768  -5.225  1.00  0.00     0.049 A 
ATOM     40  H   UNL     1       3.630   7.914  -5.537  1.00  0.00     0.167 HD
ATOM     41  C   UNL     1       7.678   6.218  -5.822  1.00  0.00     0.037 A 
ATOM     42  C   UNL     1       1.632   9.776  -6.108  1.00  0.00     0.037 A 
ATOM     43  C   UNL     1       7.626   7.251  -6.823  1.00  0.00     0.049 A 
ATOM     44  C   UNL     1       2.787  10.101  -7.012  1.00  0.00     0.074 A 
ATOM     45  C   UNL     1       8.592   7.613  -7.744  1.00  0.00     0.029 A 
ATOM     46  N   UNL     1       6.538   8.086  -7.032  1.00  0.00    -0.354 N 
ATOM     47  N   UNL     1       3.959   9.520  -7.093  1.00  0.00    -0.248 NA
ATOM     48  C   UNL     1       2.608  11.228  -7.937  1.00  0.00     0.031 C 
ATOM     49  C   UNL     1       8.100   8.688  -8.493  1.00  0.00     0.029 A 
ATOM     50  C   UNL     1       6.814   8.972  -8.060  1.00  0.00     0.049 A 
ATOM     51  H   UNL     1       5.695   8.054  -6.525  1.00  0.00     0.167 HD
ATOM     52  C   UNL     1       4.652  10.197  -8.086  1.00  0.00     0.074 A 
ATOM     53  C   UNL     1       3.767  11.230  -8.584  1.00  0.00     0.031 C 
ATOM     54  C   UNL     1       5.909   9.982  -8.544  1.00  0.00     0.037 A 
BRANCH  41  55
ATOM     55  C   UNL     1       8.935   5.413  -5.697  1.00  0.00     0.064 A 
ATOM     56  C   UNL     1       9.014   4.093  -6.162  1.00  0.00     0.173 A 
ATOM     57  C   UNL     1      10.086   5.985  -5.137  1.00  0.00     0.173 A 
ATOM     58  F   UNL     1       7.934   3.498  -6.691  1.00  0.00    -0.203 F 
ATOM     59  C   UNL     1      10.199   3.369  -6.056  1.00  0.00     0.198 A 
ATOM     60  C   UNL     1      11.274   5.265  -5.051  1.00  0.00     0.198 A 
ATOM     61  F   UNL     1      10.060   7.246  -4.678  1.00  0.00    -0.203 F 
ATOM     62  F   UNL     1      10.245   2.097  -6.477  1.00  0.00    -0.200 F 
ATOM     63  C   UNL     1      11.329   3.957  -5.506  1.00  0.00     0.200 A 
ATOM     64  F   UNL     1      12.367   5.837  -4.524  1.00  0.00    -0.200 F 
ATOM     65  F   UNL     1      12.469   3.259  -5.410  1.00  0.00    -0.200 F 
ENDBRANCH  41  55
BRANCH  42  66
ATOM     66  C   UNL     1       0.379  10.569  -6.141  1.00  0.00     0.064 A 
ATOM     67  C   UNL     1      -0.521  10.449  -7.207  1.00  0.00     0.173 A 
ATOM     68  C   UNL     1       0.046  11.442  -5.095  1.00  0.00     0.173 A 
ATOM     69  F   UNL     1      -0.234   9.642  -8.238  1.00  0.00    -0.203 F 
ATOM     70  C   UNL     1      -1.709  11.178  -7.227  1.00  0.00     0.198 A 
ATOM     71  C   UNL     1      -1.152  12.152  -5.106  1.00  0.00     0.198 A 
ATOM     72  F   UNL     1       0.877  11.589  -4.053  1.00  0.00    -0.203 F 
ATOM     73  F   UNL     1      -2.542  11.068  -8.271  1.00  0.00    -0.200 F 
ATOM     74  C   UNL     1      -2.026  12.023  -6.173  1.00  0.00     0.200 A 
ATOM     75  F   UNL     1      -1.460  12.958  -4.080  1.00  0.00    -0.200 F 
ATOM     76  F   UNL     1      -3.173  12.715  -6.190  1.00  0.00    -0.200 F 
ENDBRANCH  42  66
BRANCH  54  77
ATOM     77  C   UNL     1       6.388  10.856  -9.661  1.00  0.00     0.064 A 
ATOM     78  C   UNL     1       6.828  12.165  -9.425  1.00  0.00     0.173 A 
ATOM     79  C   UNL     1       6.461  10.355 -10.969  1.00  0.00     0.173 A 
ATOM     80  F   UNL     1       6.761  12.688  -8.192  1.00  0.00    -0.203 F 
ATOM     81  C   UNL     1       7.320  12.948 -10.466  1.00  0.00     0.198 A 
ATOM     82  C   UNL     1       6.969  11.135 -12.003  1.00  0.00     0.198 A 
ATOM     83  F   UNL     1       6.052   9.107 -11.238  1.00  0.00    -0.203 F 
ATOM     84  F   UNL     1       7.714  14.206 -10.227  1.00  0.00    -0.200 F 
ATOM     85  C   UNL     1       7.396  12.430 -11.751  1.00  0.00     0.200 A 
ATOM     86  F   UNL     1       7.050  10.632 -13.242  1.00  0.00    -0.200 F 
ATOM     87  F   UNL     1       7.879  13.183 -12.749  1.00  0.00    -0.200 F 
ENDBRANCH  54  77
ENDBRANCH  28  29
ENDBRANCH  21  23
ENDBRANCH  20  21
ENDBRANCH  19  20
ENDBRANCH   1  19
TORSDOF 13
