REMARK SMILES CC(C)(C)OC(=O)N1CCC[C@H]1C(=O)N[C@@H](Cc1ccccc1)C(=O)OCCOC(=O)c1ccc(-c2c3nc(c(-c4c(F)c(F)c(F)c(F)c4F)c4ccc([nH]4)c(-c4c(F)c(F)c(F)c(F)c4F)c4nc(c(-c5c(F)c(F)c(F)c(F)c5F)c5ccc2[nH]5)C=C4)C=C3)cc1
REMARK SMILES IDX 26 1 24 2 25 3 16 4 15 5 13 6 14 7 12 9 8 10 9 11 10 12
REMARK SMILES IDX 11 13 6 14 7 15 5 16 2 17 1 18 3 19 4 20 17 21 18 22 19 23
REMARK SMILES IDX 23 24 20 25 22 26 21 27 27 28 28 29 29 30 30 31 31 32 32 33
REMARK SMILES IDX 33 34 94 35 34 36 93 37 35 38 36 39 37 40 87 41 38 42 92 43
REMARK SMILES IDX 86 44 88 45 39 46 91 47 85 48 84 49 40 51 72 52 52 53 71 54
REMARK SMILES IDX 53 55 56 56 70 57 89 58 54 59 55 60 69 62 90 63 57 64 41 65
REMARK SMILES IDX 42 66 50 67 43 68 44 69 48 70 51 71 45 72 46 73 49 74 47 75
REMARK SMILES IDX 73 76 74 77 82 78 75 79 76 80 80 81 83 82 77 83 78 84 81 85
REMARK SMILES IDX 79 86 58 87 59 88 67 89 60 90 61 91 65 92 68 93 62 94 63 95
REMARK SMILES IDX 66 96 64 97
REMARK H PARENT 15 8 88 50 56 61
REMARK Flexibility Score: inf
ROOT
ATOM      1  O   UNL     1       1.124   7.152  -0.730  1.00  0.00    -0.461 OA
ENDROOT
BRANCH   1   2
ATOM      2  C   UNL     1       0.330   6.053  -0.813  1.00  0.00     0.329 C 
ATOM      3  O   UNL     1       0.307   5.280  -1.767  1.00  0.00    -0.250 OA
BRANCH   2   4
ATOM      4  C   UNL     1      -0.549   5.852   0.425  1.00  0.00     0.196 C 
BRANCH   4   5
ATOM      5  N   UNL     1      -0.279   6.738   1.556  1.00  0.00    -0.341 N 
ATOM      6  C   UNL     1      -0.318   6.526   2.900  1.00  0.00     0.243 C 
ATOM      7  O   UNL     1      -0.262   7.553   3.591  1.00  0.00    -0.273 OA
ATOM      8  H   UNL     1      -0.022   7.653   1.300  1.00  0.00     0.164 HD
BRANCH   6   9
ATOM      9  C   UNL     1      -0.591   5.140   3.581  1.00  0.00     0.178 C 
ATOM     10  N   UNL     1      -0.133   3.926   2.914  1.00  0.00    -0.296 N 
ATOM     11  C   UNL     1       1.203   3.599   3.342  1.00  0.00     0.124 C 
ATOM     12  C   UNL     1       1.266   4.055   4.787  1.00  0.00     0.024 C 
ATOM     13  C   UNL     1       0.145   5.087   4.939  1.00  0.00     0.037 C 
BRANCH  10  14
ATOM     14  C   UNL     1      -0.945   3.172   2.093  1.00  0.00     0.410 C 
ATOM     15  O   UNL     1      -2.130   3.430   1.950  1.00  0.00    -0.224 OA
BRANCH  14  16
ATOM     16  O   UNL     1      -0.258   2.240   1.375  1.00  0.00    -0.444 OA
BRANCH  16  17
ATOM     17  C   UNL     1      -0.819   1.512   0.231  1.00  0.00     0.106 C 
ATOM     18  C   UNL     1      -0.266   0.085   0.330  1.00  0.00     0.056 C 
ATOM     19  C   UNL     1      -0.290   2.138  -1.067  1.00  0.00     0.056 C 
ATOM     20  C   UNL     1      -2.346   1.435   0.153  1.00  0.00     0.056 C 
ENDBRANCH  16  17
ENDBRANCH  14  16
ENDBRANCH  10  14
ENDBRANCH   6   9
ENDBRANCH   4   5
BRANCH   4  21
ATOM     21  C   UNL     1      -2.040   5.858   0.041  1.00  0.00     0.072 C 
BRANCH  21  22
ATOM     22  C   UNL     1      -2.467   7.089  -0.728  1.00  0.00    -0.045 A 
ATOM     23  C   UNL     1      -2.910   8.236  -0.061  1.00  0.00     0.004 A 
ATOM     24  C   UNL     1      -2.383   7.104  -2.128  1.00  0.00     0.004 A 
ATOM     25  C   UNL     1      -3.247   9.383  -0.783  1.00  0.00     0.000 A 
ATOM     26  C   UNL     1      -2.706   8.254  -2.846  1.00  0.00     0.000 A 
ATOM     27  C   UNL     1      -3.136   9.394  -2.173  1.00  0.00     0.000 A 
ENDBRANCH  21  22
ENDBRANCH   4  21
ENDBRANCH   2   4
ENDBRANCH   1   2
BRANCH   1  28
ATOM     28  C   UNL     1       2.000   7.340  -1.855  1.00  0.00     0.274 C 
BRANCH  28  29
ATOM     29  C   UNL     1       3.432   6.981  -1.472  1.00  0.00     0.275 C 
BRANCH  29  30
ATOM     30  O   UNL     1       3.507   5.630  -0.970  1.00  0.00    -0.458 OA
BRANCH  30  31
ATOM     31  C   UNL     1       4.179   5.484   0.198  1.00  0.00     0.338 C 
ATOM     32  O   UNL     1       4.696   6.369   0.862  1.00  0.00    -0.246 OA
BRANCH  31  33
ATOM     33  C   UNL     1       4.239   4.066   0.615  1.00  0.00     0.060 A 
ATOM     34  C   UNL     1       3.115   3.252   0.547  1.00  0.00     0.016 A 
ATOM     35  C   UNL     1       5.395   3.588   1.243  1.00  0.00     0.016 A 
ATOM     36  C   UNL     1       3.122   2.012   1.200  1.00  0.00     0.010 A 
ATOM     37  C   UNL     1       5.413   2.315   1.837  1.00  0.00     0.010 A 
ATOM     38  C   UNL     1       4.253   1.527   1.879  1.00  0.00    -0.014 A 
BRANCH  38  39
ATOM     39  C   UNL     1       4.169   0.286   2.724  1.00  0.00     0.031 A 
ATOM     40  C   UNL     1       4.519   0.335   4.196  1.00  0.00     0.074 A 
ATOM     41  C   UNL     1       3.676  -0.875   2.241  1.00  0.00     0.049 A 
ATOM     42  N   UNL     1       4.688  -0.652   5.043  1.00  0.00    -0.248 NA
ATOM     43  C   UNL     1       4.697   1.666   4.798  1.00  0.00     0.031 C 
ATOM     44  C   UNL     1       3.191  -1.083   0.881  1.00  0.00     0.029 A 
ATOM     45  N   UNL     1       3.450  -2.087   2.855  1.00  0.00    -0.354 N 
ATOM     46  C   UNL     1       5.072  -0.070   6.244  1.00  0.00     0.074 A 
ATOM     47  C   UNL     1       5.073   1.362   6.033  1.00  0.00     0.031 C 
ATOM     48  C   UNL     1       2.608  -2.289   0.799  1.00  0.00     0.029 A 
ATOM     49  C   UNL     1       2.816  -3.008   2.052  1.00  0.00     0.049 A 
ATOM     50  H   UNL     1       3.716  -2.278   3.784  1.00  0.00     0.167 HD
ATOM     51  C   UNL     1       5.419  -0.675   7.407  1.00  0.00     0.037 A 
ATOM     52  C   UNL     1       2.484  -4.297   2.270  1.00  0.00     0.037 A 
ATOM     53  C   UNL     1       5.365  -2.096   7.640  1.00  0.00     0.049 A 
ATOM     54  C   UNL     1       2.929  -4.962   3.547  1.00  0.00     0.074 A 
ATOM     55  C   UNL     1       5.796  -2.812   8.745  1.00  0.00     0.029 A 
ATOM     56  N   UNL     1       4.809  -3.015   6.765  1.00  0.00    -0.354 N 
ATOM     57  N   UNL     1       3.483  -4.432   4.608  1.00  0.00    -0.248 NA
ATOM     58  C   UNL     1       2.763  -6.422   3.623  1.00  0.00     0.031 C 
ATOM     59  C   UNL     1       5.521  -4.168   8.528  1.00  0.00     0.029 A 
ATOM     60  C   UNL     1       4.885  -4.290   7.304  1.00  0.00     0.049 A 
ATOM     61  H   UNL     1       4.418  -2.795   5.889  1.00  0.00     0.167 HD
ATOM     62  C   UNL     1       3.748  -5.491   5.467  1.00  0.00     0.074 A 
ATOM     63  C   UNL     1       3.248  -6.689   4.828  1.00  0.00     0.031 C 
ATOM     64  C   UNL     1       4.382  -5.475   6.665  1.00  0.00     0.037 A 
BRANCH  51  65
ATOM     65  C   UNL     1       5.965   0.190   8.505  1.00  0.00     0.064 A 
ATOM     66  C   UNL     1       5.143   0.990   9.308  1.00  0.00     0.173 A 
ATOM     67  C   UNL     1       7.342   0.173   8.783  1.00  0.00     0.173 A 
ATOM     68  F   UNL     1       3.824   1.053   9.070  1.00  0.00    -0.203 F 
ATOM     69  C   UNL     1       5.681   1.753  10.343  1.00  0.00     0.198 A 
ATOM     70  C   UNL     1       7.872   0.918   9.832  1.00  0.00     0.198 A 
ATOM     71  F   UNL     1       8.171  -0.581   8.046  1.00  0.00    -0.203 F 
ATOM     72  F   UNL     1       4.882   2.538  11.079  1.00  0.00    -0.200 F 
ATOM     73  C   UNL     1       7.042   1.711  10.608  1.00  0.00     0.200 A 
ATOM     74  F   UNL     1       9.186   0.866  10.092  1.00  0.00    -0.200 F 
ATOM     75  F   UNL     1       7.555   2.439  11.609  1.00  0.00    -0.200 F 
ENDBRANCH  51  65
BRANCH  52  76
ATOM     76  C   UNL     1       1.768  -5.090   1.229  1.00  0.00     0.064 A 
ATOM     77  C   UNL     1       0.505  -5.645   1.488  1.00  0.00     0.173 A 
ATOM     78  C   UNL     1       2.342  -5.350  -0.025  1.00  0.00     0.173 A 
ATOM     79  F   UNL     1      -0.071  -5.467   2.686  1.00  0.00    -0.203 F 
ATOM     80  C   UNL     1      -0.148  -6.430   0.539  1.00  0.00     0.198 A 
ATOM     81  C   UNL     1       1.668  -6.096  -0.989  1.00  0.00     0.198 A 
ATOM     82  F   UNL     1       3.558  -4.869  -0.322  1.00  0.00    -0.203 F 
ATOM     83  F   UNL     1      -1.326  -6.995   0.836  1.00  0.00    -0.200 F 
ATOM     84  C   UNL     1       0.428  -6.644  -0.704  1.00  0.00     0.200 A 
ATOM     85  F   UNL     1       2.225  -6.287  -2.193  1.00  0.00    -0.200 F 
ATOM     86  F   UNL     1      -0.203  -7.390  -1.620  1.00  0.00    -0.200 F 
ENDBRANCH  52  76
BRANCH  64  87
ATOM     87  C   UNL     1       4.564  -6.790   7.362  1.00  0.00     0.064 A 
ATOM     88  C   UNL     1       5.507  -7.728   6.914  1.00  0.00     0.173 A 
ATOM     89  C   UNL     1       3.810  -7.109   8.501  1.00  0.00     0.173 A 
ATOM     90  F   UNL     1       6.241  -7.476   5.819  1.00  0.00    -0.203 F 
ATOM     91  C   UNL     1       5.670  -8.947   7.566  1.00  0.00     0.198 A 
ATOM     92  C   UNL     1       3.992  -8.319   9.164  1.00  0.00     0.198 A 
ATOM     93  F   UNL     1       2.899  -6.244   8.971  1.00  0.00    -0.203 F 
ATOM     94  F   UNL     1       6.545  -9.846   7.094  1.00  0.00    -0.200 F 
ATOM     95  C   UNL     1       4.916  -9.240   8.692  1.00  0.00     0.200 A 
ATOM     96  F   UNL     1       3.268  -8.599  10.257  1.00  0.00    -0.200 F 
ATOM     97  F   UNL     1       5.074 -10.414   9.319  1.00  0.00    -0.200 F 
ENDBRANCH  64  87
ENDBRANCH  38  39
ENDBRANCH  31  33
ENDBRANCH  30  31
ENDBRANCH  29  30
ENDBRANCH  28  29
ENDBRANCH   1  28
TORSDOF 18
