REMARK SMILES CC[C@@](C)(NC(=O)Nc1cccc(C[NH2+]C)c1)C(=O)OCCOC(=O)c1ccc(-c2c3nc(c(-c4c(F)c(F)c(F)c(F)c4F)c4ccc([nH]4)c(-c4c(F)c(F)c(F)c(F)c4F)c4nc(c(-c5c(F)c(F)c(F)c(F)c5F)c5ccc2[nH]5)C=C4)C=C3)cc1
REMARK SMILES IDX 21 1 20 2 18 3 19 4 3 5 4 6 2 7 1 8 5 9 6 10 7 12 8 13 9 15
REMARK SMILES IDX 10 16 17 17 11 18 13 19 12 20 14 21 15 22 16 23 22 26 23 27
REMARK SMILES IDX 24 28 25 29 26 30 27 31 88 32 28 33 87 34 29 35 30 36 31 37
REMARK SMILES IDX 81 38 32 39 86 40 80 41 82 42 33 43 85 44 79 45 78 46 34 48
REMARK SMILES IDX 66 49 46 50 65 51 47 52 50 53 64 54 83 55 48 56 49 57 63 59
REMARK SMILES IDX 84 60 51 61 35 62 36 63 44 64 37 65 38 66 42 67 45 68 39 69
REMARK SMILES IDX 40 70 43 71 41 72 67 73 68 74 76 75 69 76 70 77 74 78 77 79
REMARK SMILES IDX 71 80 72 81 75 82 73 83 52 84 53 85 61 86 54 87 55 88 59 89
REMARK SMILES IDX 62 90 56 91 57 92 60 93 58 94
REMARK H PARENT 5 11 8 14 15 24 15 25 82 47 50 58
REMARK Flexibility Score: inf
ROOT
ATOM      1  C   UNL     1       3.923  -1.597  -4.444  1.00  0.00     0.274 C 
ENDROOT
BRANCH   1   2
ATOM      2  O   UNL     1       2.479  -1.946  -4.389  1.00  0.00    -0.460 OA
BRANCH   2   3
ATOM      3  C   UNL     1       1.874  -2.682  -3.347  1.00  0.00     0.331 C 
ATOM      4  O   UNL     1       2.339  -3.742  -2.940  1.00  0.00    -0.249 OA
BRANCH   3   5
ATOM      5  C   UNL     1       0.422  -1.994  -2.779  1.00  0.00     0.136 C 
ATOM      6  C   UNL     1      -0.710  -2.947  -3.184  1.00  0.00     0.047 C 
BRANCH   5   7
ATOM      7  C   UNL     1      -0.088  -1.243  -1.453  1.00  0.00     0.037 C 
ATOM      8  C   UNL     1       0.108  -1.638  -0.005  1.00  0.00     0.007 C 
ENDBRANCH   5   7
BRANCH   5   9
ATOM      9  N   UNL     1       0.467  -0.859  -3.633  1.00  0.00    -0.322 N 
ATOM     10  C   UNL     1       1.434   0.048  -3.498  1.00  0.00     0.320 C 
ATOM     11  H   UNL     1      -0.220  -0.742  -4.328  1.00  0.00     0.166 HD
ATOM     12  O   UNL     1       1.466   0.855  -4.435  1.00  0.00    -0.248 OA
ATOM     13  N   UNL     1       2.402   0.059  -2.521  1.00  0.00    -0.308 N 
ATOM     14  H   UNL     1       2.820   0.945  -2.619  1.00  0.00     0.171 HD
BRANCH  13  15
ATOM     15  C   UNL     1       3.127  -0.539  -1.430  1.00  0.00     0.043 A 
ATOM     16  C   UNL     1       4.219   0.216  -0.947  1.00  0.00     0.026 A 
ATOM     17  C   UNL     1       2.998  -1.789  -0.837  1.00  0.00     0.035 A 
ATOM     18  C   UNL     1       5.105  -0.247   0.039  1.00  0.00     0.003 A 
ATOM     19  C   UNL     1       3.837  -2.265   0.202  1.00  0.00     0.008 A 
ATOM     20  C   UNL     1       4.915  -1.492   0.615  1.00  0.00     0.010 A 
BRANCH  19  21
ATOM     21  C   UNL     1       3.505  -3.577   0.877  1.00  0.00     0.297 C 
BRANCH  21  22
ATOM     22  N   UNL     1       4.272  -4.702   0.350  1.00  0.00    -0.345 N 
ATOM     23  C   UNL     1       3.628  -5.958   0.727  1.00  0.00     0.331 C 
ATOM     24  H   UNL     1       5.217  -4.677   0.734  1.00  0.00     0.346 HD
ATOM     25  H   UNL     1       4.314  -4.635  -0.667  1.00  0.00     0.346 HD
ENDBRANCH  21  22
ENDBRANCH  19  21
ENDBRANCH  13  15
ENDBRANCH   5   9
ENDBRANCH   3   5
ENDBRANCH   2   3
ENDBRANCH   1   2
BRANCH   1  26
ATOM     26  C   UNL     1       4.281  -0.068  -4.920  1.00  0.00     0.275 C 
BRANCH  26  27
ATOM     27  O   UNL     1       4.135   1.023  -3.896  1.00  0.00    -0.458 OA
BRANCH  27  28
ATOM     28  C   UNL     1       4.037   2.369  -4.192  1.00  0.00     0.338 C 
ATOM     29  O   UNL     1       4.391   2.879  -5.252  1.00  0.00    -0.246 OA
BRANCH  28  30
ATOM     30  C   UNL     1       3.438   3.185  -3.020  1.00  0.00     0.060 A 
ATOM     31  C   UNL     1       2.118   2.985  -2.582  1.00  0.00     0.016 A 
ATOM     32  C   UNL     1       4.124   4.199  -2.348  1.00  0.00     0.016 A 
ATOM     33  C   UNL     1       1.553   3.561  -1.439  1.00  0.00     0.010 A 
ATOM     34  C   UNL     1       3.514   4.899  -1.254  1.00  0.00     0.010 A 
ATOM     35  C   UNL     1       2.227   4.569  -0.772  1.00  0.00    -0.014 A 
BRANCH  35  36
ATOM     36  C   UNL     1       1.399   5.410   0.156  1.00  0.00     0.031 A 
ATOM     37  C   UNL     1       0.713   6.626  -0.422  1.00  0.00     0.074 A 
ATOM     38  C   UNL     1       1.041   5.025   1.401  1.00  0.00     0.049 A 
ATOM     39  N   UNL     1      -0.026   7.536   0.165  1.00  0.00    -0.248 NA
ATOM     40  C   UNL     1       0.860   6.819  -1.873  1.00  0.00     0.031 C 
ATOM     41  C   UNL     1       1.434   3.781   2.058  1.00  0.00     0.029 A 
ATOM     42  N   UNL     1       0.233   5.648   2.334  1.00  0.00    -0.354 N 
ATOM     43  C   UNL     1      -0.404   8.420  -0.838  1.00  0.00     0.074 A 
ATOM     44  C   UNL     1       0.180   7.937  -2.070  1.00  0.00     0.031 C 
ATOM     45  C   UNL     1       0.891   3.744   3.291  1.00  0.00     0.029 A 
ATOM     46  C   UNL     1       0.142   4.979   3.533  1.00  0.00     0.049 A 
ATOM     47  H   UNL     1      -0.235   6.495   2.156  1.00  0.00     0.167 HD
ATOM     48  C   UNL     1      -1.166   9.537  -0.752  1.00  0.00     0.037 A 
ATOM     49  C   UNL     1      -0.443   5.333   4.700  1.00  0.00     0.037 A 
ATOM     50  C   UNL     1      -1.779  10.027   0.453  1.00  0.00     0.049 A 
ATOM     51  C   UNL     1      -1.179   6.651   4.812  1.00  0.00     0.074 A 
ATOM     52  C   UNL     1      -2.506  11.191   0.640  1.00  0.00     0.029 A 
ATOM     53  N   UNL     1      -1.755   9.373   1.673  1.00  0.00    -0.354 N 
ATOM     54  N   UNL     1      -1.432   7.543   3.887  1.00  0.00    -0.248 NA
ATOM     55  C   UNL     1      -1.706   7.013   6.141  1.00  0.00     0.031 C 
ATOM     56  C   UNL     1      -2.890  11.259   1.984  1.00  0.00     0.029 A 
ATOM     57  C   UNL     1      -2.445  10.114   2.621  1.00  0.00     0.049 A 
ATOM     58  H   UNL     1      -1.313   8.509   1.843  1.00  0.00     0.167 HD
ATOM     59  C   UNL     1      -2.156   8.554   4.513  1.00  0.00     0.074 A 
ATOM     60  C   UNL     1      -2.330   8.155   5.891  1.00  0.00     0.031 C 
ATOM     61  C   UNL     1      -2.627   9.714   3.991  1.00  0.00     0.037 A 
BRANCH  48  62
ATOM     62  C   UNL     1      -1.326  10.350  -2.002  1.00  0.00     0.064 A 
ATOM     63  C   UNL     1      -2.156   9.938  -3.054  1.00  0.00     0.173 A 
ATOM     64  C   UNL     1      -0.646  11.570  -2.135  1.00  0.00     0.173 A 
ATOM     65  F   UNL     1      -2.808   8.768  -2.982  1.00  0.00    -0.203 F 
ATOM     66  C   UNL     1      -2.282  10.710  -4.206  1.00  0.00     0.198 A 
ATOM     67  C   UNL     1      -0.797  12.352  -3.274  1.00  0.00     0.198 A 
ATOM     68  F   UNL     1       0.159  12.005  -1.154  1.00  0.00    -0.203 F 
ATOM     69  F   UNL     1      -3.042  10.277  -5.221  1.00  0.00    -0.200 F 
ATOM     70  C   UNL     1      -1.609  11.919  -4.312  1.00  0.00     0.200 A 
ATOM     71  F   UNL     1      -0.155  13.525  -3.369  1.00  0.00    -0.200 F 
ATOM     72  F   UNL     1      -1.737  12.664  -5.418  1.00  0.00    -0.200 F 
ENDBRANCH  48  62
BRANCH  49  73
ATOM     73  C   UNL     1      -0.295   4.477   5.915  1.00  0.00     0.064 A 
ATOM     74  C   UNL     1      -1.403   3.890   6.545  1.00  0.00     0.173 A 
ATOM     75  C   UNL     1       0.957   4.316   6.531  1.00  0.00     0.173 A 
ATOM     76  F   UNL     1      -2.631   4.052   6.030  1.00  0.00    -0.203 F 
ATOM     77  C   UNL     1      -1.268   3.200   7.751  1.00  0.00     0.198 A 
ATOM     78  C   UNL     1       1.095   3.597   7.717  1.00  0.00     0.198 A 
ATOM     79  F   UNL     1       2.048   4.877   5.989  1.00  0.00    -0.203 F 
ATOM     80  F   UNL     1      -2.354   2.712   8.368  1.00  0.00    -0.200 F 
ATOM     81  C   UNL     1      -0.019   3.050   8.333  1.00  0.00     0.200 A 
ATOM     82  F   UNL     1       2.306   3.455   8.273  1.00  0.00    -0.200 F 
ATOM     83  F   UNL     1       0.109   2.395   9.495  1.00  0.00    -0.200 F 
ENDBRANCH  49  73
BRANCH  61  84
ATOM     84  C   UNL     1      -3.404  10.626   4.900  1.00  0.00     0.064 A 
ATOM     85  C   UNL     1      -2.783  11.340   5.936  1.00  0.00     0.173 A 
ATOM     86  C   UNL     1      -4.784  10.810   4.716  1.00  0.00     0.173 A 
ATOM     87  F   UNL     1      -1.469  11.194   6.163  1.00  0.00    -0.203 F 
ATOM     88  C   UNL     1      -3.519  12.176   6.774  1.00  0.00     0.198 A 
ATOM     89  C   UNL     1      -5.511  11.669   5.536  1.00  0.00     0.198 A 
ATOM     90  F   UNL     1      -5.428  10.161   3.734  1.00  0.00    -0.203 F 
ATOM     91  F   UNL     1      -2.913  12.805   7.790  1.00  0.00    -0.200 F 
ATOM     92  C   UNL     1      -4.880  12.344   6.571  1.00  0.00     0.200 A 
ATOM     93  F   UNL     1      -6.824  11.841   5.329  1.00  0.00    -0.200 F 
ATOM     94  F   UNL     1      -5.586  13.148   7.377  1.00  0.00    -0.200 F 
ENDBRANCH  61  84
ENDBRANCH  35  36
ENDBRANCH  28  30
ENDBRANCH  27  28
ENDBRANCH  26  27
ENDBRANCH   1  26
TORSDOF 16
