REMARK SMILES CC[C@](C)(C(=O)OCCOC(=O)c1ccc(-c2c3nc(c(-c4c(F)c(F)c(F)c(F)c4F)c4ccc([nH]4)c(-c4c(F)c(F)c(F)c(F)c4F)c4nc(c(-c5c(F)c(F)c(F)c(F)c5F)c5ccc2[nH]5)C=C4)C=C3)cc1)n1nnnc1-c1ccco1
REMARK SMILES IDX 8 1 7 2 5 3 6 4 3 5 4 6 2 7 1 8 76 9 77 10 80 11 78 12 79 13
REMARK SMILES IDX 81 14 82 15 85 16 83 17 84 18 9 19 10 20 11 21 12 22 13 23
REMARK SMILES IDX 14 24 75 25 15 26 74 27 16 28 17 29 18 30 68 31 19 32 73 33
REMARK SMILES IDX 67 34 69 35 20 36 72 37 66 38 65 39 21 41 53 42 33 43 52 44
REMARK SMILES IDX 34 45 37 46 51 47 70 48 35 49 36 50 50 52 71 53 38 54 22 55
REMARK SMILES IDX 23 56 31 57 24 58 25 59 29 60 32 61 26 62 27 63 30 64 28 65
REMARK SMILES IDX 54 66 55 67 63 68 56 69 57 70 61 71 64 72 58 73 59 74 62 75
REMARK SMILES IDX 60 76 39 77 40 78 48 79 41 80 42 81 46 82 49 83 43 84 44 85
REMARK SMILES IDX 47 86 45 87
REMARK H PARENT 69 40 37 51
REMARK Flexibility Score: inf
ROOT
ATOM      1  C   UNL     1      -1.019   2.838  -4.356  1.00  0.00     0.274 C 
ENDROOT
BRANCH   1   2
ATOM      2  O   UNL     1      -0.635   2.091  -3.182  1.00  0.00    -0.460 OA
BRANCH   2   3
ATOM      3  C   UNL     1       0.356   1.165  -3.321  1.00  0.00     0.334 C 
ATOM      4  O   UNL     1       0.953   0.944  -4.371  1.00  0.00    -0.249 OA
BRANCH   3   5
ATOM      5  C   UNL     1       0.542   0.314  -2.057  1.00  0.00     0.161 C 
ATOM      6  C   UNL     1      -0.071   0.975  -0.800  1.00  0.00     0.050 C 
BRANCH   5   7
ATOM      7  C   UNL     1      -0.182  -1.031  -2.345  1.00  0.00     0.039 C 
ATOM      8  C   UNL     1      -1.677  -0.936  -2.650  1.00  0.00     0.007 C 
ENDBRANCH   5   7
BRANCH   5   9
ATOM      9  N   UNL     1       1.992   0.184  -1.835  1.00  0.00    -0.205 N 
ATOM     10  N   UNL     1       2.665   1.268  -1.374  1.00  0.00    -0.043 NA
ATOM     11  C   UNL     1       2.895  -0.841  -1.990  1.00  0.00     0.218 A 
ATOM     12  N   UNL     1       3.933   0.905  -1.285  1.00  0.00    -0.023 NA
ATOM     13  N   UNL     1       4.094  -0.391  -1.678  1.00  0.00    -0.105 NA
BRANCH  11  14
ATOM     14  C   UNL     1       2.654  -2.200  -2.326  1.00  0.00     0.172 A 
ATOM     15  C   UNL     1       2.607  -2.802  -3.573  1.00  0.00     0.054 A 
ATOM     16  O   UNL     1       2.464  -3.160  -1.367  1.00  0.00    -0.461 OA
ATOM     17  C   UNL     1       2.370  -4.183  -3.358  1.00  0.00     0.043 A 
ATOM     18  C   UNL     1       2.312  -4.351  -1.997  1.00  0.00     0.196 A 
ENDBRANCH  11  14
ENDBRANCH   5   9
ENDBRANCH   3   5
ENDBRANCH   2   3
ENDBRANCH   1   2
BRANCH   1  19
ATOM     19  C   UNL     1      -0.498   4.267  -4.271  1.00  0.00     0.275 C 
BRANCH  19  20
ATOM     20  O   UNL     1       0.935   4.233  -4.350  1.00  0.00    -0.458 OA
BRANCH  20  21
ATOM     21  C   UNL     1       1.600   4.805  -3.321  1.00  0.00     0.338 C 
ATOM     22  O   UNL     1       1.129   5.423  -2.384  1.00  0.00    -0.246 OA
BRANCH  21  23
ATOM     23  C   UNL     1       3.042   4.569  -3.501  1.00  0.00     0.060 A 
ATOM     24  C   UNL     1       3.514   3.272  -3.691  1.00  0.00     0.016 A 
ATOM     25  C   UNL     1       3.938   5.629  -3.366  1.00  0.00     0.016 A 
ATOM     26  C   UNL     1       4.881   3.014  -3.642  1.00  0.00     0.010 A 
ATOM     27  C   UNL     1       5.312   5.379  -3.421  1.00  0.00     0.010 A 
ATOM     28  C   UNL     1       5.800   4.063  -3.518  1.00  0.00    -0.014 A 
BRANCH  28  29
ATOM     29  C   UNL     1       7.258   3.783  -3.417  1.00  0.00     0.031 A 
ATOM     30  C   UNL     1       8.025   4.244  -2.209  1.00  0.00     0.074 A 
ATOM     31  C   UNL     1       7.900   3.103  -4.387  1.00  0.00     0.049 A 
ATOM     32  N   UNL     1       9.320   4.337  -2.032  1.00  0.00    -0.248 NA
ATOM     33  C   UNL     1       7.230   4.680  -1.050  1.00  0.00     0.031 C 
ATOM     34  C   UNL     1       7.276   2.530  -5.580  1.00  0.00     0.029 A 
ATOM     35  N   UNL     1       9.226   2.769  -4.515  1.00  0.00    -0.354 N 
ATOM     36  C   UNL     1       9.489   4.912  -0.779  1.00  0.00     0.074 A 
ATOM     37  C   UNL     1       8.168   5.133  -0.231  1.00  0.00     0.031 C 
ATOM     38  C   UNL     1       8.205   1.878  -6.293  1.00  0.00     0.029 A 
ATOM     39  C   UNL     1       9.507   2.070  -5.663  1.00  0.00     0.049 A 
ATOM     40  H   UNL     1       9.909   3.008  -3.848  1.00  0.00     0.167 HD
ATOM     41  C   UNL     1      10.647   5.233  -0.153  1.00  0.00     0.037 A 
ATOM     42  C   UNL     1      10.684   1.668  -6.177  1.00  0.00     0.037 A 
ATOM     43  C   UNL     1      11.957   4.931  -0.670  1.00  0.00     0.049 A 
ATOM     44  C   UNL     1      11.956   2.024  -5.461  1.00  0.00     0.074 A 
ATOM     45  C   UNL     1      13.193   5.223  -0.120  1.00  0.00     0.029 A 
ATOM     46  N   UNL     1      12.196   4.234  -1.844  1.00  0.00    -0.354 N 
ATOM     47  N   UNL     1      12.115   2.682  -4.339  1.00  0.00    -0.248 NA
ATOM     48  C   UNL     1      13.213   1.608  -6.098  1.00  0.00     0.031 C 
ATOM     49  C   UNL     1      14.182   4.716  -0.972  1.00  0.00     0.029 A 
ATOM     50  C   UNL     1      13.560   4.081  -2.035  1.00  0.00     0.049 A 
ATOM     51  H   UNL     1      11.499   3.896  -2.453  1.00  0.00     0.167 HD
ATOM     52  C   UNL     1      13.485   2.767  -4.138  1.00  0.00     0.074 A 
ATOM     53  C   UNL     1      14.113   2.065  -5.239  1.00  0.00     0.031 C 
ATOM     54  C   UNL     1      14.162   3.384  -3.140  1.00  0.00     0.037 A 
BRANCH  41  55
ATOM     55  C   UNL     1      10.551   5.986   1.140  1.00  0.00     0.064 A 
ATOM     56  C   UNL     1      10.160   5.370   2.336  1.00  0.00     0.173 A 
ATOM     57  C   UNL     1      10.892   7.348   1.182  1.00  0.00     0.173 A 
ATOM     58  F   UNL     1       9.810   4.076   2.346  1.00  0.00    -0.203 F 
ATOM     59  C   UNL     1      10.093   6.095   3.524  1.00  0.00     0.198 A 
ATOM     60  C   UNL     1      10.849   8.062   2.376  1.00  0.00     0.198 A 
ATOM     61  F   UNL     1      11.278   7.984   0.066  1.00  0.00    -0.203 F 
ATOM     62  F   UNL     1       9.679   5.496   4.650  1.00  0.00    -0.200 F 
ATOM     63  C   UNL     1      10.444   7.437   3.545  1.00  0.00     0.200 A 
ATOM     64  F   UNL     1      11.200   9.356   2.395  1.00  0.00    -0.200 F 
ATOM     65  F   UNL     1      10.386   8.130   4.691  1.00  0.00    -0.200 F 
ENDBRANCH  41  55
BRANCH  42  66
ATOM     66  C   UNL     1      10.708   0.928  -7.465  1.00  0.00     0.064 A 
ATOM     67  C   UNL     1      11.051  -0.429  -7.509  1.00  0.00     0.173 A 
ATOM     68  C   UNL     1      10.362   1.556  -8.671  1.00  0.00     0.173 A 
ATOM     69  F   UNL     1      11.418  -1.065  -6.387  1.00  0.00    -0.203 F 
ATOM     70  C   UNL     1      11.046  -1.131  -8.713  1.00  0.00     0.198 A 
ATOM     71  C   UNL     1      10.329   0.846  -9.868  1.00  0.00     0.198 A 
ATOM     72  F   UNL     1      10.029   2.855  -8.681  1.00  0.00    -0.203 F 
ATOM     73  F   UNL     1      11.407  -2.422  -8.735  1.00  0.00    -0.200 F 
ATOM     74  C   UNL     1      10.674  -0.497  -9.889  1.00  0.00     0.200 A 
ATOM     75  F   UNL     1       9.955   1.460 -10.999  1.00  0.00    -0.200 F 
ATOM     76  F   UNL     1      10.653  -1.177 -11.043  1.00  0.00    -0.200 F 
ENDBRANCH  42  66
BRANCH  54  77
ATOM     77  C   UNL     1      15.657   3.318  -3.195  1.00  0.00     0.064 A 
ATOM     78  C   UNL     1      16.388   4.117  -4.086  1.00  0.00     0.173 A 
ATOM     79  C   UNL     1      16.366   2.472  -2.330  1.00  0.00     0.173 A 
ATOM     80  F   UNL     1      15.751   4.929  -4.942  1.00  0.00    -0.203 F 
ATOM     81  C   UNL     1      17.778   4.055  -4.123  1.00  0.00     0.198 A 
ATOM     82  C   UNL     1      17.756   2.428  -2.357  1.00  0.00     0.198 A 
ATOM     83  F   UNL     1      15.709   1.692  -1.459  1.00  0.00    -0.203 F 
ATOM     84  F   UNL     1      18.456   4.798  -5.009  1.00  0.00    -0.200 F 
ATOM     85  C   UNL     1      18.460   3.215  -3.256  1.00  0.00     0.200 A 
ATOM     86  F   UNL     1      18.416   1.620  -1.515  1.00  0.00    -0.200 F 
ATOM     87  F   UNL     1      19.799   3.156  -3.294  1.00  0.00    -0.200 F 
ENDBRANCH  54  77
ENDBRANCH  28  29
ENDBRANCH  21  23
ENDBRANCH  20  21
ENDBRANCH  19  20
ENDBRANCH   1  19
TORSDOF 14
