REMARK SMILES C/C(C(=O)N[C@@H](C)CCCO)=C(\C)C(=O)OCCOC(=O)c1ccc(-c2c3nc(c(-c4c(F)c(F)c(F)c(F)c4F)c4ccc([nH]4)c(-c4c(F)c(F)c(F)c(F)c4F)c4nc(c(-c5c(F)c(F)c(F)c(F)c5F)c5ccc2[nH]5)C=C4)C=C3)cc1
REMARK SMILES IDX 14 1 15 2 12 3 1 4 2 5 13 6 3 7 4 8 5 9 6 11 7 12 8 13 9 14
REMARK SMILES IDX 10 15 11 16 16 18 17 19 18 20 19 21 20 22 21 23 22 24 23 25
REMARK SMILES IDX 84 26 24 27 83 28 25 29 26 30 27 31 77 32 28 33 82 34 76 35
REMARK SMILES IDX 78 36 29 37 81 38 75 39 74 40 30 42 62 43 42 44 61 45 43 46
REMARK SMILES IDX 46 47 60 48 79 49 44 50 45 51 59 53 80 54 47 55 31 56 32 57
REMARK SMILES IDX 40 58 33 59 34 60 38 61 41 62 35 63 36 64 39 65 37 66 63 67
REMARK SMILES IDX 64 68 72 69 65 70 66 71 70 72 73 73 67 74 68 75 71 76 69 77
REMARK SMILES IDX 48 78 49 79 57 80 50 81 51 82 55 83 58 84 52 85 53 86 56 87
REMARK SMILES IDX 54 88
REMARK H PARENT 5 10 11 17 78 41 46 52
REMARK Flexibility Score: inf
ROOT
ATOM      1  C   UNL     1       0.094   3.319  -1.147  1.00  0.00     0.334 C 
ATOM      2  O   UNL     1      -1.058   3.168  -1.518  1.00  0.00    -0.247 OA
ENDROOT
BRANCH   1   3
ATOM      3  C   UNL     1       0.850   2.437  -0.178  1.00  0.00     0.042 C 
ATOM      4  C   UNL     1       1.332   0.401   1.172  1.00  0.00     0.051 C 
ATOM      5  C   UNL     1       0.547   1.142   0.129  1.00  0.00     0.024 C 
ATOM      6  C   UNL     1       1.977   3.185   0.509  1.00  0.00     0.053 C 
BRANCH   5   7
ATOM      7  C   UNL     1      -0.682   0.464  -0.387  1.00  0.00     0.247 C 
ATOM      8  O   UNL     1      -1.790   0.967  -0.215  1.00  0.00    -0.270 OA
ATOM      9  N   UNL     1      -0.630  -0.687  -1.122  1.00  0.00    -0.350 N 
ATOM     10  H   UNL     1      -1.009  -0.610  -2.027  1.00  0.00     0.164 HD
BRANCH   9  11
ATOM     11  C   UNL     1      -0.105  -2.021  -0.797  1.00  0.00     0.079 C 
ATOM     12  C   UNL     1      -1.286  -2.878  -0.302  1.00  0.00     0.031 C 
BRANCH  11  13
ATOM     13  C   UNL     1       0.535  -2.757  -1.990  1.00  0.00     0.027 C 
BRANCH  13  14
ATOM     14  C   UNL     1       1.753  -2.108  -2.650  1.00  0.00     0.030 C 
BRANCH  14  15
ATOM     15  C   UNL     1       2.844  -1.613  -1.715  1.00  0.00     0.156 C 
BRANCH  15  16
ATOM     16  O   UNL     1       3.323  -2.645  -0.868  1.00  0.00    -0.396 OA
ATOM     17  H   UNL     1       2.596  -2.974  -0.316  1.00  0.00     0.210 HD
ENDBRANCH  15  16
ENDBRANCH  14  15
ENDBRANCH  13  14
ENDBRANCH  11  13
ENDBRANCH   9  11
ENDBRANCH   5   7
ENDBRANCH   1   3
BRANCH   1  18
ATOM     18  O   UNL     1       0.895   4.345  -1.551  1.00  0.00    -0.459 OA
BRANCH  18  19
ATOM     19  C   UNL     1       0.314   5.350  -2.410  1.00  0.00     0.275 C 
BRANCH  19  20
ATOM     20  C   UNL     1       0.785   5.192  -3.856  1.00  0.00     0.275 C 
BRANCH  20  21
ATOM     21  O   UNL     1       0.205   4.024  -4.461  1.00  0.00    -0.458 OA
BRANCH  21  22
ATOM     22  C   UNL     1       0.994   2.928  -4.455  1.00  0.00     0.338 C 
ATOM     23  O   UNL     1       2.138   2.827  -4.046  1.00  0.00    -0.246 OA
BRANCH  22  24
ATOM     24  C   UNL     1       0.232   1.772  -4.940  1.00  0.00     0.060 A 
ATOM     25  C   UNL     1      -0.486   1.043  -4.005  1.00  0.00     0.016 A 
ATOM     26  C   UNL     1       0.367   1.302  -6.246  1.00  0.00     0.016 A 
ATOM     27  C   UNL     1      -0.994  -0.202  -4.346  1.00  0.00     0.010 A 
ATOM     28  C   UNL     1      -0.209   0.070  -6.599  1.00  0.00     0.010 A 
ATOM     29  C   UNL     1      -0.859  -0.720  -5.635  1.00  0.00    -0.014 A 
BRANCH  29  30
ATOM     30  C   UNL     1      -1.300  -2.121  -5.899  1.00  0.00     0.031 A 
ATOM     31  C   UNL     1      -0.302  -3.137  -6.392  1.00  0.00     0.074 A 
ATOM     32  C   UNL     1      -2.549  -2.531  -5.590  1.00  0.00     0.049 A 
ATOM     33  N   UNL     1      -0.504  -4.343  -6.860  1.00  0.00    -0.248 NA
ATOM     34  C   UNL     1       1.116  -2.747  -6.341  1.00  0.00     0.031 C 
ATOM     35  C   UNL     1      -3.585  -1.708  -4.962  1.00  0.00     0.029 A 
ATOM     36  N   UNL     1      -3.157  -3.755  -5.743  1.00  0.00    -0.354 N 
ATOM     37  C   UNL     1       0.748  -4.824  -7.223  1.00  0.00     0.074 A 
ATOM     38  C   UNL     1       1.708  -3.792  -6.900  1.00  0.00     0.031 C 
ATOM     39  C   UNL     1      -4.675  -2.456  -4.742  1.00  0.00     0.029 A 
ATOM     40  C   UNL     1      -4.473  -3.768  -5.343  1.00  0.00     0.049 A 
ATOM     41  H   UNL     1      -2.695  -4.546  -6.104  1.00  0.00     0.167 HD
ATOM     42  C   UNL     1       1.058  -6.013  -7.794  1.00  0.00     0.037 A 
ATOM     43  C   UNL     1      -5.435  -4.695  -5.514  1.00  0.00     0.037 A 
ATOM     44  C   UNL     1       0.094  -7.046  -8.073  1.00  0.00     0.049 A 
ATOM     45  C   UNL     1      -5.099  -5.957  -6.259  1.00  0.00     0.074 A 
ATOM     46  C   UNL     1       0.289  -8.266  -8.696  1.00  0.00     0.029 A 
ATOM     47  N   UNL     1      -1.249  -6.981  -7.733  1.00  0.00    -0.354 N 
ATOM     48  N   UNL     1      -3.940  -6.359  -6.723  1.00  0.00    -0.248 NA
ATOM     49  C   UNL     1      -6.207  -6.881  -6.535  1.00  0.00     0.031 C 
ATOM     50  C   UNL     1      -0.947  -8.915  -8.782  1.00  0.00     0.029 A 
ATOM     51  C   UNL     1      -1.899  -8.131  -8.149  1.00  0.00     0.049 A 
ATOM     52  H   UNL     1      -1.678  -6.228  -7.265  1.00  0.00     0.167 HD
ATOM     53  C   UNL     1      -4.173  -7.592  -7.316  1.00  0.00     0.074 A 
ATOM     54  C   UNL     1      -5.583  -7.876  -7.149  1.00  0.00     0.031 C 
ATOM     55  C   UNL     1      -3.297  -8.413  -7.944  1.00  0.00     0.037 A 
BRANCH  42  56
ATOM     56  C   UNL     1       2.479  -6.227  -8.233  1.00  0.00     0.064 A 
ATOM     57  C   UNL     1       3.528  -6.424  -7.324  1.00  0.00     0.173 A 
ATOM     58  C   UNL     1       2.788  -6.253  -9.603  1.00  0.00     0.173 A 
ATOM     59  F   UNL     1       3.292  -6.395  -6.004  1.00  0.00    -0.203 F 
ATOM     60  C   UNL     1       4.837  -6.607  -7.769  1.00  0.00     0.198 A 
ATOM     61  C   UNL     1       4.090  -6.468 -10.045  1.00  0.00     0.198 A 
ATOM     62  F   UNL     1       1.823  -6.076 -10.517  1.00  0.00    -0.203 F 
ATOM     63  F   UNL     1       5.832  -6.740  -6.881  1.00  0.00    -0.200 F 
ATOM     64  C   UNL     1       5.115  -6.636  -9.128  1.00  0.00     0.200 A 
ATOM     65  F   UNL     1       4.353  -6.510 -11.358  1.00  0.00    -0.200 F 
ATOM     66  F   UNL     1       6.374  -6.815  -9.553  1.00  0.00    -0.200 F 
ENDBRANCH  42  56
BRANCH  43  67
ATOM     67  C   UNL     1      -6.828  -4.421  -5.061  1.00  0.00     0.064 A 
ATOM     68  C   UNL     1      -7.443  -5.208  -4.077  1.00  0.00     0.173 A 
ATOM     69  C   UNL     1      -7.584  -3.377  -5.620  1.00  0.00     0.173 A 
ATOM     70  F   UNL     1      -6.779  -6.237  -3.531  1.00  0.00    -0.203 F 
ATOM     71  C   UNL     1      -8.759  -4.970  -3.682  1.00  0.00     0.198 A 
ATOM     72  C   UNL     1      -8.884  -3.115  -5.195  1.00  0.00     0.198 A 
ATOM     73  F   UNL     1      -7.052  -2.599  -6.574  1.00  0.00    -0.203 F 
ATOM     74  F   UNL     1      -9.340  -5.772  -2.780  1.00  0.00    -0.200 F 
ATOM     75  C   UNL     1      -9.475  -3.918  -4.234  1.00  0.00     0.200 A 
ATOM     76  F   UNL     1      -9.563  -2.087  -5.722  1.00  0.00    -0.200 F 
ATOM     77  F   UNL     1     -10.737  -3.687  -3.849  1.00  0.00    -0.200 F 
ENDBRANCH  43  67
BRANCH  55  78
ATOM     78  C   UNL     1      -3.811  -9.737  -8.428  1.00  0.00     0.064 A 
ATOM     79  C   UNL     1      -4.647  -9.846  -9.547  1.00  0.00     0.173 A 
ATOM     80  C   UNL     1      -3.398 -10.920  -7.794  1.00  0.00     0.173 A 
ATOM     81  F   UNL     1      -5.083  -8.744 -10.175  1.00  0.00    -0.203 F 
ATOM     82  C   UNL     1      -5.064 -11.093 -10.006  1.00  0.00     0.198 A 
ATOM     83  C   UNL     1      -3.790 -12.164  -8.275  1.00  0.00     0.198 A 
ATOM     84  F   UNL     1      -2.594 -10.867  -6.721  1.00  0.00    -0.203 F 
ATOM     85  F   UNL     1      -5.895 -11.175 -11.055  1.00  0.00    -0.200 F 
ATOM     86  C   UNL     1      -4.626 -12.250  -9.378  1.00  0.00     0.200 A 
ATOM     87  F   UNL     1      -3.353 -13.280  -7.676  1.00  0.00    -0.200 F 
ATOM     88  F   UNL     1      -5.013 -13.449  -9.833  1.00  0.00    -0.200 F 
ENDBRANCH  55  78
ENDBRANCH  29  30
ENDBRANCH  22  24
ENDBRANCH  21  22
ENDBRANCH  20  21
ENDBRANCH  19  20
ENDBRANCH  18  19
ENDBRANCH   1  18
TORSDOF 17
