REMARK SMILES Cc1c(C(=O)OCCOC(=O)c2ccc(-c3c4nc(c(-c5c(F)c(F)c(F)c(F)c5F)c5ccc([nH]5)c(-c5c(F)c(F)c(F)c(F)c5F)c5nc(c(-c6c(F)c(F)c(F)c(F)c6F)c6ccc3[nH]6)C=C5)C=C4)cc2)cnn1[C@H]1CCS(=O)(=O)C1
REMARK SMILES IDX 8 1 7 2 6 3 4 4 5 5 3 6 1 7 2 8 77 9 75 10 76 11 78 12 79 13
REMARK SMILES IDX 84 14 80 15 81 16 82 17 83 18 9 19 10 20 11 21 12 22 13 23
REMARK SMILES IDX 74 24 14 25 73 26 15 27 16 28 17 29 67 30 18 31 72 32 66 33
REMARK SMILES IDX 68 34 19 35 71 36 65 37 64 38 20 40 52 41 32 42 51 43 33 44
REMARK SMILES IDX 36 45 50 46 69 47 34 48 35 49 49 51 70 52 37 53 21 54 22 55
REMARK SMILES IDX 30 56 23 57 24 58 28 59 31 60 25 61 26 62 29 63 27 64 53 65
REMARK SMILES IDX 54 66 62 67 55 68 56 69 60 70 63 71 57 72 58 73 61 74 59 75
REMARK SMILES IDX 38 76 39 77 47 78 40 79 41 80 45 81 48 82 42 83 43 84 46 85
REMARK SMILES IDX 44 86
REMARK H PARENT 68 39 36 50
REMARK Flexibility Score: inf
ROOT
ATOM      1  C   UNL     1      -0.254  10.416  -0.826  1.00  0.00     0.275 C 
ENDROOT
BRANCH   1   2
ATOM      2  C   UNL     1       1.254  10.202  -0.699  1.00  0.00     0.275 C 
BRANCH   2   3
ATOM      3  O   UNL     1       1.648   8.851  -1.012  1.00  0.00    -0.458 OA
BRANCH   3   4
ATOM      4  C   UNL     1       1.631   7.977   0.040  1.00  0.00     0.341 C 
ATOM      5  O   UNL     1       1.486   8.319   1.209  1.00  0.00    -0.246 OA
BRANCH   4   6
ATOM      6  C   UNL     1       1.713   6.582  -0.366  1.00  0.00     0.100 A 
ATOM      7  C   UNL     1       0.326   5.490   1.530  1.00  0.00     0.067 C 
ATOM      8  C   UNL     1       1.180   5.487   0.314  1.00  0.00     0.050 A 
ATOM      9  N   UNL     1       1.567   4.374  -0.399  1.00  0.00    -0.265 N 
ATOM     10  C   UNL     1       2.259   6.029  -1.536  1.00  0.00     0.151 A 
ATOM     11  N   UNL     1       2.191   4.698  -1.554  1.00  0.00    -0.180 NA
BRANCH   9  12
ATOM     12  C   UNL     1       1.494   2.950  -0.094  1.00  0.00     0.123 C 
ATOM     13  C   UNL     1       2.885   2.393   0.264  1.00  0.00     0.044 C 
ATOM     14  C   UNL     1       0.583   2.509   1.042  1.00  0.00     0.164 C 
ATOM     15  C   UNL     1       2.700   0.941   0.688  1.00  0.00     0.139 C 
ATOM     16  S   UNL     1       1.069   0.843   1.397  1.00  0.00     0.152 S 
ATOM     17  O   UNL     1       0.261  -0.047   0.587  1.00  0.00    -0.229 OA
ATOM     18  O   UNL     1       1.180   0.698   2.831  1.00  0.00    -0.229 OA
ENDBRANCH   9  12
ENDBRANCH   4   6
ENDBRANCH   3   4
ENDBRANCH   2   3
ENDBRANCH   1   2
BRANCH   1  19
ATOM     19  O   UNL     1      -0.987   9.737   0.196  1.00  0.00    -0.458 OA
BRANCH  19  20
ATOM     20  C   UNL     1      -1.368   8.493  -0.161  1.00  0.00     0.338 C 
ATOM     21  O   UNL     1      -0.937   7.825  -1.088  1.00  0.00    -0.246 OA
BRANCH  20  22
ATOM     22  C   UNL     1      -2.578   8.100   0.552  1.00  0.00     0.060 A 
ATOM     23  C   UNL     1      -2.948   6.755   0.435  1.00  0.00     0.016 A 
ATOM     24  C   UNL     1      -3.482   9.100   0.931  1.00  0.00     0.016 A 
ATOM     25  C   UNL     1      -4.279   6.433   0.502  1.00  0.00     0.010 A 
ATOM     26  C   UNL     1      -4.815   8.778   0.987  1.00  0.00     0.010 A 
ATOM     27  C   UNL     1      -5.196   7.469   0.680  1.00  0.00    -0.014 A 
BRANCH  27  28
ATOM     28  C   UNL     1      -6.600   7.139   0.567  1.00  0.00     0.031 A 
ATOM     29  C   UNL     1      -7.116   6.325   1.698  1.00  0.00     0.074 A 
ATOM     30  C   UNL     1      -7.327   7.683  -0.427  1.00  0.00     0.049 A 
ATOM     31  N   UNL     1      -7.834   5.250   1.662  1.00  0.00    -0.248 NA
ATOM     32  C   UNL     1      -6.654   6.688   3.052  1.00  0.00     0.031 C 
ATOM     33  C   UNL     1      -6.901   8.679  -1.419  1.00  0.00     0.029 A 
ATOM     34  N   UNL     1      -8.658   7.579  -0.659  1.00  0.00    -0.354 N 
ATOM     35  C   UNL     1      -8.046   4.890   2.992  1.00  0.00     0.074 A 
ATOM     36  C   UNL     1      -7.181   5.714   3.789  1.00  0.00     0.031 C 
ATOM     37  C   UNL     1      -7.994   9.270  -1.949  1.00  0.00     0.029 A 
ATOM     38  C   UNL     1      -9.176   8.622  -1.412  1.00  0.00     0.049 A 
ATOM     39  H   UNL     1      -9.207   6.832  -0.325  1.00  0.00     0.167 HD
ATOM     40  C   UNL     1      -9.076   4.082   3.357  1.00  0.00     0.037 A 
ATOM     41  C   UNL     1     -10.479   8.993  -1.428  1.00  0.00     0.037 A 
ATOM     42  C   UNL     1      -9.524   3.282   2.250  1.00  0.00     0.049 A 
ATOM     43  C   UNL     1     -11.268   7.846  -0.893  1.00  0.00     0.074 A 
ATOM     44  C   UNL     1      -8.925   2.312   1.470  1.00  0.00     0.029 A 
ATOM     45  N   UNL     1     -10.646   3.677   1.564  1.00  0.00    -0.354 N 
ATOM     46  N   UNL     1     -11.393   6.703  -1.514  1.00  0.00    -0.248 NA
ATOM     47  C   UNL     1     -11.500   7.799   0.547  1.00  0.00     0.031 C 
ATOM     48  C   UNL     1      -9.435   2.528   0.159  1.00  0.00     0.029 A 
ATOM     49  C   UNL     1     -10.350   3.579   0.229  1.00  0.00     0.049 A 
ATOM     50  H   UNL     1     -11.499   3.973   1.956  1.00  0.00     0.167 HD
ATOM     51  C   UNL     1     -11.324   5.741  -0.514  1.00  0.00     0.074 A 
ATOM     52  C   UNL     1     -11.456   6.477   0.740  1.00  0.00     0.031 C 
ATOM     53  C   UNL     1     -10.869   4.479  -0.771  1.00  0.00     0.037 A 
BRANCH  40  54
ATOM     54  C   UNL     1      -9.899   4.282   4.606  1.00  0.00     0.064 A 
ATOM     55  C   UNL     1     -10.919   3.356   4.900  1.00  0.00     0.173 A 
ATOM     56  C   UNL     1      -9.947   5.491   5.335  1.00  0.00     0.173 A 
ATOM     57  F   UNL     1     -10.967   2.169   4.278  1.00  0.00    -0.203 F 
ATOM     58  C   UNL     1     -11.971   3.668   5.765  1.00  0.00     0.198 A 
ATOM     59  C   UNL     1     -10.971   5.778   6.235  1.00  0.00     0.198 A 
ATOM     60  F   UNL     1      -9.079   6.489   5.137  1.00  0.00    -0.203 F 
ATOM     61  F   UNL     1     -12.992   2.813   5.903  1.00  0.00    -0.200 F 
ATOM     62  C   UNL     1     -12.004   4.886   6.418  1.00  0.00     0.200 A 
ATOM     63  F   UNL     1     -10.987   6.967   6.854  1.00  0.00    -0.200 F 
ATOM     64  F   UNL     1     -13.050   5.219   7.185  1.00  0.00    -0.200 F 
ENDBRANCH  40  54
BRANCH  41  65
ATOM     65  C   UNL     1     -10.993  10.382  -1.514  1.00  0.00     0.064 A 
ATOM     66  C   UNL     1     -12.322  10.648  -1.872  1.00  0.00     0.173 A 
ATOM     67  C   UNL     1     -10.244  11.482  -1.041  1.00  0.00     0.173 A 
ATOM     68  F   UNL     1     -13.122   9.650  -2.273  1.00  0.00    -0.203 F 
ATOM     69  C   UNL     1     -12.864  11.936  -1.774  1.00  0.00     0.198 A 
ATOM     70  C   UNL     1     -10.778  12.767  -0.960  1.00  0.00     0.198 A 
ATOM     71  F   UNL     1      -9.000  11.321  -0.567  1.00  0.00    -0.203 F 
ATOM     72  F   UNL     1     -14.151  12.145  -2.084  1.00  0.00    -0.200 F 
ATOM     73  C   UNL     1     -12.092  12.993  -1.319  1.00  0.00     0.200 A 
ATOM     74  F   UNL     1     -10.027  13.771  -0.484  1.00  0.00    -0.200 F 
ATOM     75  F   UNL     1     -12.621  14.218  -1.191  1.00  0.00    -0.200 F 
ENDBRANCH  41  65
BRANCH  53  76
ATOM     76  C   UNL     1     -10.623   4.088  -2.199  1.00  0.00     0.064 A 
ATOM     77  C   UNL     1      -9.628   4.678  -2.996  1.00  0.00     0.173 A 
ATOM     78  C   UNL     1     -11.257   2.944  -2.700  1.00  0.00     0.173 A 
ATOM     79  F   UNL     1      -8.900   5.703  -2.537  1.00  0.00    -0.203 F 
ATOM     80  C   UNL     1      -9.306   4.167  -4.250  1.00  0.00     0.198 A 
ATOM     81  C   UNL     1     -10.909   2.413  -3.939  1.00  0.00     0.198 A 
ATOM     82  F   UNL     1     -12.168   2.300  -1.954  1.00  0.00    -0.203 F 
ATOM     83  F   UNL     1      -8.347   4.748  -4.987  1.00  0.00    -0.200 F 
ATOM     84  C   UNL     1      -9.939   3.027  -4.716  1.00  0.00     0.200 A 
ATOM     85  F   UNL     1     -11.483   1.278  -4.361  1.00  0.00    -0.200 F 
ATOM     86  F   UNL     1      -9.590   2.500  -5.898  1.00  0.00    -0.200 F 
ENDBRANCH  53  76
ENDBRANCH  27  28
ENDBRANCH  20  22
ENDBRANCH  19  20
ENDBRANCH   1  19
TORSDOF 12
