REMARK SMILES Nc1nc(Nc2ccc(C(=O)OCCOC(=O)c3ccc(-c4c5nc(c(-c6c(F)c(F)c(F)c(F)c6F)c6ccc([nH]6)c(-c6c(F)c(F)c(F)c(F)c6F)c6nc(c(-c7c(F)c(F)c(F)c(F)c7F)c7ccc4[nH]7)C=C6)C=C5)cc3)cc2)ccc1[N+](=O)[O-]
REMARK SMILES IDX 13 1 12 2 10 3 11 4 9 5 6 6 7 7 82 8 8 9 81 10 5 11 4 13
REMARK SMILES IDX 2 14 3 15 85 16 84 17 83 18 1 19 86 22 87 23 88 24 14 25
REMARK SMILES IDX 15 26 16 27 17 28 18 29 19 30 80 31 20 32 79 33 21 34 22 35
REMARK SMILES IDX 23 36 73 37 24 38 78 39 72 40 74 41 25 42 77 43 71 44 70 45
REMARK SMILES IDX 26 47 58 48 38 49 57 50 39 51 42 52 56 53 75 54 40 55 41 56
REMARK SMILES IDX 55 58 76 59 43 60 27 61 28 62 36 63 29 64 30 65 34 66 37 67
REMARK SMILES IDX 31 68 32 69 35 70 33 71 59 72 60 73 68 74 61 75 62 76 66 77
REMARK SMILES IDX 69 78 63 79 64 80 67 81 65 82 44 83 45 84 53 85 46 86 47 87
REMARK SMILES IDX 51 88 54 89 48 90 49 91 52 92 50 93
REMARK H PARENT 5 12 1 20 1 21 74 46 42 57
REMARK Flexibility Score: inf
ROOT
ATOM      1  C   UNL     1       3.048   8.528  -0.689  1.00  0.00     0.275 C 
ENDROOT
BRANCH   1   2
ATOM      2  O   UNL     1       2.153   7.414  -0.888  1.00  0.00    -0.458 OA
BRANCH   2   3
ATOM      3  C   UNL     1       1.883   6.681   0.218  1.00  0.00     0.338 C 
ATOM      4  O   UNL     1       2.322   6.870   1.343  1.00  0.00    -0.246 OA
BRANCH   3   5
ATOM      5  C   UNL     1       0.892   5.622  -0.074  1.00  0.00     0.060 A 
ATOM      6  C   UNL     1      -0.858   3.447  -0.387  1.00  0.00     0.040 A 
ATOM      7  C   UNL     1      -0.994   4.305   0.704  1.00  0.00     0.027 A 
ATOM      8  C   UNL     1       0.142   3.710  -1.336  1.00  0.00     0.027 A 
ATOM      9  C   UNL     1      -0.103   5.360   0.874  1.00  0.00     0.018 A 
ATOM     10  C   UNL     1       1.001   4.808  -1.200  1.00  0.00     0.018 A 
BRANCH   6  11
ATOM     11  N   UNL     1      -1.582   2.238  -0.384  1.00  0.00    -0.340 N 
ATOM     12  H   UNL     1      -2.562   2.284  -0.463  1.00  0.00     0.168 HD
BRANCH  11  13
ATOM     13  C   UNL     1      -0.986   0.966  -0.275  1.00  0.00     0.133 A 
ATOM     14  C   UNL     1       0.952  -0.347  -0.118  1.00  0.00     0.204 A 
ATOM     15  N   UNL     1       0.363   0.859  -0.242  1.00  0.00    -0.207 NA
ATOM     16  C   UNL     1       0.190  -1.506  -0.038  1.00  0.00     0.311 A 
ATOM     17  C   UNL     1      -1.206  -1.413  -0.085  1.00  0.00     0.093 A 
ATOM     18  C   UNL     1      -1.798  -0.159  -0.216  1.00  0.00     0.054 A 
BRANCH  14  19
ATOM     19  N   UNL     1       2.327  -0.294  -0.179  1.00  0.00    -0.378 N 
ATOM     20  H   UNL     1       2.784   0.576  -0.235  1.00  0.00     0.158 HD
ATOM     21  H   UNL     1       2.852  -1.126  -0.167  1.00  0.00     0.158 HD
ENDBRANCH  14  19
BRANCH  16  22
ATOM     22  N   UNL     1       0.811  -2.815   0.116  1.00  0.00     0.066 N 
ATOM     23  O   UNL     1       0.111  -3.808  -0.135  1.00  0.00    -0.258 OA
ATOM     24  O   UNL     1       1.981  -2.874   0.524  1.00  0.00    -0.258 OA
ENDBRANCH  16  22
ENDBRANCH  11  13
ENDBRANCH   6  11
ENDBRANCH   3   5
ENDBRANCH   2   3
ENDBRANCH   1   2
BRANCH   1  25
ATOM     25  C   UNL     1       2.280   9.843  -0.552  1.00  0.00     0.275 C 
BRANCH  25  26
ATOM     26  O   UNL     1       1.521   9.863   0.672  1.00  0.00    -0.458 OA
BRANCH  26  27
ATOM     27  C   UNL     1       0.179   9.824   0.523  1.00  0.00     0.338 C 
ATOM     28  O   UNL     1      -0.458   9.813  -0.516  1.00  0.00    -0.246 OA
BRANCH  27  29
ATOM     29  C   UNL     1      -0.478   9.740   1.838  1.00  0.00     0.060 A 
ATOM     30  C   UNL     1      -0.376   8.556   2.557  1.00  0.00     0.016 A 
ATOM     31  C   UNL     1      -1.349  10.738   2.264  1.00  0.00     0.016 A 
ATOM     32  C   UNL     1      -1.248   8.296   3.610  1.00  0.00     0.010 A 
ATOM     33  C   UNL     1      -2.124  10.531   3.414  1.00  0.00     0.010 A 
ATOM     34  C   UNL     1      -2.124   9.287   4.073  1.00  0.00    -0.014 A 
BRANCH  34  35
ATOM     35  C   UNL     1      -3.048   9.012   5.216  1.00  0.00     0.031 A 
ATOM     36  C   UNL     1      -4.534   9.235   5.069  1.00  0.00     0.074 A 
ATOM     37  C   UNL     1      -2.570   8.545   6.389  1.00  0.00     0.049 A 
ATOM     38  N   UNL     1      -5.469   9.244   5.988  1.00  0.00    -0.248 NA
ATOM     39  C   UNL     1      -5.035   9.496   3.710  1.00  0.00     0.031 C 
ATOM     40  C   UNL     1      -1.168   8.232   6.671  1.00  0.00     0.029 A 
ATOM     41  N   UNL     1      -3.214   8.245   7.567  1.00  0.00    -0.354 N 
ATOM     42  C   UNL     1      -6.649   9.575   5.331  1.00  0.00     0.074 A 
ATOM     43  C   UNL     1      -6.315   9.761   3.935  1.00  0.00     0.031 C 
ATOM     44  C   UNL     1      -1.063   7.742   7.914  1.00  0.00     0.029 A 
ATOM     45  C   UNL     1      -2.368   7.808   8.559  1.00  0.00     0.049 A 
ATOM     46  H   UNL     1      -4.187   8.334   7.688  1.00  0.00     0.167 HD
ATOM     47  C   UNL     1      -7.896   9.711   5.846  1.00  0.00     0.037 A 
ATOM     48  C   UNL     1      -2.597   7.543   9.859  1.00  0.00     0.037 A 
ATOM     49  C   UNL     1      -8.237   9.464   7.224  1.00  0.00     0.049 A 
ATOM     50  C   UNL     1      -3.979   7.739  10.415  1.00  0.00     0.074 A 
ATOM     51  C   UNL     1      -9.475   9.560   7.839  1.00  0.00     0.029 A 
ATOM     52  N   UNL     1      -7.340   9.055   8.200  1.00  0.00    -0.354 N 
ATOM     53  N   UNL     1      -5.073   8.111   9.798  1.00  0.00    -0.248 NA
ATOM     54  C   UNL     1      -4.152   7.500  11.854  1.00  0.00     0.031 C 
ATOM     55  C   UNL     1      -9.319   9.246   9.193  1.00  0.00     0.029 A 
ATOM     56  C   UNL     1      -7.995   8.906   9.413  1.00  0.00     0.049 A 
ATOM     57  H   UNL     1      -6.380   8.893   8.052  1.00  0.00     0.167 HD
ATOM     58  C   UNL     1      -6.066   8.136  10.766  1.00  0.00     0.074 A 
ATOM     59  C   UNL     1      -5.449   7.720  12.009  1.00  0.00     0.031 C 
ATOM     60  C   UNL     1      -7.370   8.481  10.639  1.00  0.00     0.037 A 
BRANCH  47  61
ATOM     61  C   UNL     1      -8.988  10.179   4.926  1.00  0.00     0.064 A 
ATOM     62  C   UNL     1      -9.525   9.356   3.926  1.00  0.00     0.173 A 
ATOM     63  C   UNL     1      -9.541  11.460   5.085  1.00  0.00     0.173 A 
ATOM     64  F   UNL     1      -9.027   8.127   3.725  1.00  0.00    -0.203 F 
ATOM     65  C   UNL     1     -10.557   9.805   3.105  1.00  0.00     0.198 A 
ATOM     66  C   UNL     1     -10.593  11.896   4.282  1.00  0.00     0.198 A 
ATOM     67  F   UNL     1      -9.072  12.287   6.032  1.00  0.00    -0.203 F 
ATOM     68  F   UNL     1     -11.025   9.016   2.128  1.00  0.00    -0.200 F 
ATOM     69  C   UNL     1     -11.095  11.071   3.288  1.00  0.00     0.200 A 
ATOM     70  F   UNL     1     -11.121  13.113   4.472  1.00  0.00    -0.200 F 
ATOM     71  F   UNL     1     -12.095  11.496   2.504  1.00  0.00    -0.200 F 
ENDBRANCH  47  61
BRANCH  48  72
ATOM     72  C   UNL     1      -1.476   7.112  10.738  1.00  0.00     0.064 A 
ATOM     73  C   UNL     1      -1.444   5.823  11.288  1.00  0.00     0.173 A 
ATOM     74  C   UNL     1      -0.416   7.978  11.046  1.00  0.00     0.173 A 
ATOM     75  F   UNL     1      -2.448   4.967  11.046  1.00  0.00    -0.203 F 
ATOM     76  C   UNL     1      -0.402   5.423  12.122  1.00  0.00     0.198 A 
ATOM     77  C   UNL     1       0.643   7.565  11.851  1.00  0.00     0.198 A 
ATOM     78  F   UNL     1      -0.399   9.224  10.548  1.00  0.00    -0.203 F 
ATOM     79  F   UNL     1      -0.420   4.201  12.672  1.00  0.00    -0.200 F 
ATOM     80  C   UNL     1       0.645   6.290  12.395  1.00  0.00     0.200 A 
ATOM     81  F   UNL     1       1.660   8.401  12.097  1.00  0.00    -0.200 F 
ATOM     82  F   UNL     1       1.652   5.900  13.188  1.00  0.00    -0.200 F 
ENDBRANCH  48  72
BRANCH  60  83
ATOM     83  C   UNL     1      -8.226   8.380  11.866  1.00  0.00     0.064 A 
ATOM     84  C   UNL     1      -8.109   9.294  12.923  1.00  0.00     0.173 A 
ATOM     85  C   UNL     1      -9.192   7.367  11.975  1.00  0.00     0.173 A 
ATOM     86  F   UNL     1      -7.188  10.268  12.874  1.00  0.00    -0.203 F 
ATOM     87  C   UNL     1      -8.910   9.183  14.057  1.00  0.00     0.198 A 
ATOM     88  C   UNL     1     -10.010   7.276  13.097  1.00  0.00     0.198 A 
ATOM     89  F   UNL     1      -9.345   6.471  10.990  1.00  0.00    -0.203 F 
ATOM     90  F   UNL     1      -8.747  10.037  15.077  1.00  0.00    -0.200 F 
ATOM     91  C   UNL     1      -9.863   8.178  14.140  1.00  0.00     0.200 A 
ATOM     92  F   UNL     1     -10.938   6.312  13.171  1.00  0.00    -0.200 F 
ATOM     93  F   UNL     1     -10.635   8.075  15.231  1.00  0.00    -0.200 F 
ENDBRANCH  60  83
ENDBRANCH  34  35
ENDBRANCH  27  29
ENDBRANCH  26  27
ENDBRANCH  25  26
ENDBRANCH   1  25
TORSDOF 15
