REMARK SMILES Cc1cccc(OCC(=O)Nc2cc(C(=O)OCCOC(=O)c3ccc(-c4c5nc(c(-c6c(F)c(F)c(F)c(F)c6F)c6ccc([nH]6)c(-c6c(F)c(F)c(F)c(F)c6F)c6nc(c(-c7c(F)c(F)c(F)c(F)c7F)c7ccc4[nH]7)C=C6)C=C5)cc3)c(Cl)cc2Cl)c1
REMARK SMILES IDX 18 1 17 2 15 3 16 4 14 5 12 6 13 7 89 8 88 9 90 10 86 11
REMARK SMILES IDX 87 12 11 13 9 14 10 15 8 17 7 18 6 19 1 20 2 21 3 22 91 23
REMARK SMILES IDX 4 24 5 25 19 26 20 27 21 28 22 29 23 30 24 31 85 32 25 33
REMARK SMILES IDX 84 34 26 35 27 36 28 37 78 38 29 39 83 40 77 41 79 42 30 43
REMARK SMILES IDX 82 44 76 45 75 46 31 48 63 49 43 50 62 51 44 52 47 53 61 54
REMARK SMILES IDX 80 55 45 56 46 57 60 59 81 60 48 61 32 62 33 63 41 64 34 65
REMARK SMILES IDX 35 66 39 67 42 68 36 69 37 70 40 71 38 72 64 73 65 74 73 75
REMARK SMILES IDX 66 76 67 77 71 78 74 79 68 80 69 81 72 82 70 83 49 84 50 85
REMARK SMILES IDX 58 86 51 87 52 88 56 89 59 90 53 91 54 92 57 93 55 94
REMARK H PARENT 11 16 79 47 47 58
REMARK Flexibility Score: inf
ROOT
ATOM      1  C   UNL     1      -5.455  -1.095  -0.444  1.00  0.00     0.275 C 
ENDROOT
BRANCH   1   2
ATOM      2  O   UNL     1      -4.887   0.205  -0.431  1.00  0.00    -0.458 OA
BRANCH   2   3
ATOM      3  C   UNL     1      -4.205   0.417   0.690  1.00  0.00     0.339 C 
ATOM      4  O   UNL     1      -3.478  -0.397   1.239  1.00  0.00    -0.246 OA
BRANCH   3   5
ATOM      5  C   UNL     1      -4.464   1.818   1.237  1.00  0.00     0.080 A 
ATOM      6  C   UNL     1      -2.217   3.434   2.548  1.00  0.00     0.061 A 
ATOM      7  C   UNL     1      -2.714   2.194   1.476  1.00  0.00     0.045 A 
ATOM      8  C   UNL     1      -3.331   4.379   3.486  1.00  0.00     0.066 A 
ATOM      9  C   UNL     1      -5.049   4.217   3.408  1.00  0.00     0.044 A 
ATOM     10  Cl  UNL     1      -2.684   5.536   4.597  1.00  0.00    -0.082 Cl
ATOM     11  C   UNL     1      -5.770   2.918   2.362  1.00  0.00     0.057 A 
ATOM     12  Cl  UNL     1      -7.037   2.466   3.884  1.00  0.00    -0.083 Cl
BRANCH   6  13
ATOM     13  N   UNL     1      -0.837   3.667   2.635  1.00  0.00    -0.322 N 
ATOM     14  C   UNL     1       0.078   3.520   1.611  1.00  0.00     0.262 C 
ATOM     15  O   UNL     1       1.282   3.608   1.865  1.00  0.00    -0.271 OA
ATOM     16  H   UNL     1      -0.487   3.964   3.507  1.00  0.00     0.170 HD
BRANCH  14  17
ATOM     17  C   UNL     1      -0.419   3.470   0.126  1.00  0.00     0.329 C 
BRANCH  17  18
ATOM     18  O   UNL     1      -0.945   2.345  -0.568  1.00  0.00    -0.484 OA
BRANCH  18  19
ATOM     19  C   UNL     1      -0.292   1.155  -0.483  1.00  0.00     0.120 A 
ATOM     20  C   UNL     1       3.132  -0.285   0.059  1.00  0.00     0.044 C 
ATOM     21  C   UNL     1       1.647  -0.199  -0.076  1.00  0.00    -0.047 A 
ATOM     22  C   UNL     1       0.851  -1.352  -0.052  1.00  0.00     0.003 A 
ATOM     23  C   UNL     1       1.065   1.054  -0.271  1.00  0.00     0.049 A 
ATOM     24  C   UNL     1      -0.511  -1.259  -0.308  1.00  0.00     0.004 A 
ATOM     25  C   UNL     1      -1.062  -0.011  -0.589  1.00  0.00     0.046 A 
ENDBRANCH  18  19
ENDBRANCH  17  18
ENDBRANCH  14  17
ENDBRANCH   6  13
ENDBRANCH   3   5
ENDBRANCH   2   3
ENDBRANCH   1   2
BRANCH   1  26
ATOM     26  C   UNL     1      -5.602  -1.906   0.910  1.00  0.00     0.275 C 
BRANCH  26  27
ATOM     27  O   UNL     1      -6.085  -1.368   2.229  1.00  0.00    -0.458 OA
BRANCH  27  28
ATOM     28  C   UNL     1      -5.468  -0.594   3.225  1.00  0.00     0.338 C 
ATOM     29  O   UNL     1      -5.409  -0.930   4.395  1.00  0.00    -0.246 OA
BRANCH  28  30
ATOM     30  C   UNL     1      -5.384   0.847   2.838  1.00  0.00     0.060 A 
ATOM     31  C   UNL     1      -4.175   2.241   3.012  1.00  0.00     0.016 A 
ATOM     32  C   UNL     1      -6.577   0.968   1.573  1.00  0.00     0.016 A 
ATOM     33  C   UNL     1      -4.262   3.644   1.532  1.00  0.00     0.010 A 
ATOM     34  C   UNL     1      -6.547   2.104   0.396  1.00  0.00     0.010 A 
ATOM     35  C   UNL     1      -5.514   3.446   0.243  1.00  0.00    -0.014 A 
BRANCH  35  36
ATOM     36  C   UNL     1      -5.676   3.933  -1.185  1.00  0.00     0.031 A 
ATOM     37  C   UNL     1      -4.480   4.481  -1.869  1.00  0.00     0.074 A 
ATOM     38  C   UNL     1      -6.851   3.670  -1.876  1.00  0.00     0.049 A 
ATOM     39  N   UNL     1      -4.342   5.656  -2.384  1.00  0.00    -0.248 NA
ATOM     40  C   UNL     1      -3.243   3.705  -1.939  1.00  0.00     0.031 C 
ATOM     41  C   UNL     1      -7.202   3.713  -3.303  1.00  0.00     0.029 A 
ATOM     42  N   UNL     1      -8.101   3.232  -1.343  1.00  0.00    -0.354 N 
ATOM     43  C   UNL     1      -3.201   5.582  -3.182  1.00  0.00     0.074 A 
ATOM     44  C   UNL     1      -2.420   4.514  -2.622  1.00  0.00     0.031 C 
ATOM     45  C   UNL     1      -8.551   3.703  -3.455  1.00  0.00     0.029 A 
ATOM     46  C   UNL     1      -9.165   3.649  -2.146  1.00  0.00     0.049 A 
ATOM     47  H   UNL     1      -8.200   2.705  -0.518  1.00  0.00     0.167 HD
ATOM     48  C   UNL     1      -3.226   6.025  -4.480  1.00  0.00     0.037 A 
ATOM     49  C   UNL     1     -10.126   4.439  -1.597  1.00  0.00     0.037 A 
ATOM     50  C   UNL     1      -4.618   6.276  -4.850  1.00  0.00     0.049 A 
ATOM     51  C   UNL     1      -9.768   5.843  -1.984  1.00  0.00     0.074 A 
ATOM     52  C   UNL     1      -5.524   5.566  -5.620  1.00  0.00     0.029 A 
ATOM     53  N   UNL     1      -5.364   7.170  -4.102  1.00  0.00    -0.354 N 
ATOM     54  N   UNL     1      -8.615   6.160  -2.508  1.00  0.00    -0.248 NA
ATOM     55  C   UNL     1     -10.694   6.957  -1.919  1.00  0.00     0.031 C 
ATOM     56  C   UNL     1      -6.827   6.060  -5.322  1.00  0.00     0.029 A 
ATOM     57  C   UNL     1      -6.714   7.043  -4.349  1.00  0.00     0.049 A 
ATOM     58  H   UNL     1      -4.978   7.819  -3.470  1.00  0.00     0.167 HD
ATOM     59  C   UNL     1      -8.670   7.425  -2.990  1.00  0.00     0.074 A 
ATOM     60  C   UNL     1      -9.992   7.884  -2.591  1.00  0.00     0.031 C 
ATOM     61  C   UNL     1      -7.647   7.968  -3.713  1.00  0.00     0.037 A 
BRANCH  48  62
ATOM     62  C   UNL     1      -2.110   5.943  -5.525  1.00  0.00     0.064 A 
ATOM     63  C   UNL     1      -2.388   6.132  -6.903  1.00  0.00     0.173 A 
ATOM     64  C   UNL     1      -0.738   5.793  -5.232  1.00  0.00     0.173 A 
ATOM     65  F   UNL     1      -3.631   6.369  -7.340  1.00  0.00    -0.203 F 
ATOM     66  C   UNL     1      -1.399   6.118  -7.896  1.00  0.00     0.198 A 
ATOM     67  C   UNL     1       0.253   5.760  -6.232  1.00  0.00     0.198 A 
ATOM     68  F   UNL     1      -0.300   5.728  -3.967  1.00  0.00    -0.203 F 
ATOM     69  F   UNL     1      -1.742   6.312  -9.178  1.00  0.00    -0.200 F 
ATOM     70  C   UNL     1      -0.078   5.923  -7.562  1.00  0.00     0.200 A 
ATOM     71  F   UNL     1       1.540   5.593  -5.892  1.00  0.00    -0.200 F 
ATOM     72  F   UNL     1       0.869   5.920  -8.511  1.00  0.00    -0.200 F 
ENDBRANCH  48  62
BRANCH  49  73
ATOM     73  C   UNL     1     -10.472   3.954  -0.224  1.00  0.00     0.064 A 
ATOM     74  C   UNL     1     -10.961   2.627  -0.116  1.00  0.00     0.173 A 
ATOM     75  C   UNL     1      -9.775   4.479   0.858  1.00  0.00     0.173 A 
ATOM     76  F   UNL     1     -11.672   2.087  -1.117  1.00  0.00    -0.203 F 
ATOM     77  C   UNL     1     -10.534   1.789   0.906  1.00  0.00     0.198 A 
ATOM     78  C   UNL     1      -9.365   3.643   1.882  1.00  0.00     0.198 A 
ATOM     79  F   UNL     1      -9.309   5.734   0.836  1.00  0.00    -0.203 F 
ATOM     80  F   UNL     1     -10.793   0.472   0.861  1.00  0.00    -0.200 F 
ATOM     81  C   UNL     1      -9.705   2.287   1.886  1.00  0.00     0.200 A 
ATOM     82  F   UNL     1      -8.532   4.183   2.775  1.00  0.00    -0.200 F 
ATOM     83  F   UNL     1      -9.203   1.415   2.769  1.00  0.00    -0.200 F 
ENDBRANCH  49  73
BRANCH  61  84
ATOM     84  C   UNL     1      -7.485   9.440  -3.982  1.00  0.00     0.064 A 
ATOM     85  C   UNL     1      -8.180  10.438  -3.286  1.00  0.00     0.173 A 
ATOM     86  C   UNL     1      -6.509   9.915  -4.895  1.00  0.00     0.173 A 
ATOM     87  F   UNL     1      -8.951  10.162  -2.228  1.00  0.00    -0.203 F 
ATOM     88  C   UNL     1      -8.046  11.785  -3.602  1.00  0.00     0.198 A 
ATOM     89  C   UNL     1      -6.279  11.267  -5.104  1.00  0.00     0.198 A 
ATOM     90  F   UNL     1      -5.718   9.099  -5.603  1.00  0.00    -0.203 F 
ATOM     91  F   UNL     1      -8.841  12.680  -3.002  1.00  0.00    -0.200 F 
ATOM     92  C   UNL     1      -7.085  12.202  -4.500  1.00  0.00     0.200 A 
ATOM     93  F   UNL     1      -5.265  11.649  -5.892  1.00  0.00    -0.200 F 
ATOM     94  F   UNL     1      -6.918  13.503  -4.758  1.00  0.00    -0.200 F 
ENDBRANCH  61  84
ENDBRANCH  35  36
ENDBRANCH  28  30
ENDBRANCH  27  28
ENDBRANCH  26  27
ENDBRANCH   1  26
TORSDOF 15
