REMARK SMILES Cc1c(C(=O)OCCOC(=O)c2ccc(-c3c4nc(c(-c5c(F)c(F)c(F)c(F)c5F)c5ccc([nH]5)c(-c5c(F)c(F)c(F)c(F)c5F)c5nc(c(-c6c(F)c(F)c(F)c(F)c6F)c6ccc3[nH]6)C=C5)C=C4)cc2)cccc1N1[C@@H](C)C=C(/C=C(\C#N)C(=O)NCCc2c[nH]c3ccccc23)[C@@H]1C
REMARK SMILES IDX 4 1 5 2 3 3 1 4 2 5 78 6 75 7 77 8 76 9 79 10 80 11 102 12
REMARK SMILES IDX 82 13 81 14 83 15 103 16 84 17 85 18 86 19 87 20 88 21 89 22
REMARK SMILES IDX 90 23 91 25 92 26 93 27 94 28 101 29 95 30 96 31 100 32
REMARK SMILES IDX 97 34 99 35 98 36 6 37 7 38 8 39 9 40 10 41 11 42 12 43
REMARK SMILES IDX 13 44 74 45 14 46 73 47 15 48 16 49 17 50 67 51 18 52 72 53
REMARK SMILES IDX 66 54 68 55 19 56 71 57 65 58 64 59 20 61 52 62 32 63 51 64
REMARK SMILES IDX 33 65 36 66 50 67 69 68 34 69 35 70 49 72 70 73 37 74 21 75
REMARK SMILES IDX 22 76 30 77 23 78 24 79 28 80 31 81 25 82 26 83 29 84 27 85
REMARK SMILES IDX 53 86 54 87 62 88 55 89 56 90 60 91 63 92 57 93 58 94 61 95
REMARK SMILES IDX 59 96 38 97 39 98 47 99 40 100 41 101 45 102 48 103 42 104
REMARK SMILES IDX 43 105 46 106 44 107
REMARK H PARENT 90 24 95 33 68 60 36 71
REMARK Flexibility Score: inf
ROOT
ATOM      1  C   UNL     1       1.916  -1.474   0.893  1.00  0.00     0.338 C 
ATOM      2  O   UNL     1       2.684  -1.579  -0.054  1.00  0.00    -0.246 OA
ENDROOT
BRANCH   1   3
ATOM      3  C   UNL     1       0.877  -0.440   0.867  1.00  0.00     0.065 A 
ATOM      4  C   UNL     1       2.804   1.131   0.607  1.00  0.00     0.047 C 
ATOM      5  C   UNL     1       1.323   0.839   0.501  1.00  0.00    -0.013 A 
ATOM      6  C   UNL     1       0.370   1.792   0.110  1.00  0.00     0.041 A 
ATOM      7  C   UNL     1      -0.484  -0.734   0.995  1.00  0.00     0.016 A 
ATOM      8  C   UNL     1      -0.995   1.438   0.112  1.00  0.00     0.026 A 
ATOM      9  C   UNL     1      -1.425   0.201   0.582  1.00  0.00     0.003 A 
BRANCH   6  10
ATOM     10  N   UNL     1       0.679   3.123  -0.078  1.00  0.00    -0.358 N 
ATOM     11  C   UNL     1       0.392   4.022   1.058  1.00  0.00     0.103 C 
ATOM     12  C   UNL     1       1.799   3.590  -0.906  1.00  0.00     0.110 C 
ATOM     13  C   UNL     1       1.527   4.982   0.960  1.00  0.00     0.003 C 
ATOM     14  C   UNL     1       0.460   3.364   2.447  1.00  0.00     0.035 C 
ATOM     15  C   UNL     1       2.384   4.663  -0.018  1.00  0.00    -0.026 C 
ATOM     16  C   UNL     1       1.273   4.128  -2.235  1.00  0.00     0.036 C 
BRANCH  15  17
ATOM     17  C   UNL     1       3.701   5.214  -0.229  1.00  0.00     0.031 C 
ATOM     18  C   UNL     1       4.494   5.817   0.686  1.00  0.00     0.117 C 
BRANCH  18  19
ATOM     19  C   UNL     1       4.139   5.971   2.048  1.00  0.00     0.105 C 
ATOM     20  N   UNL     1       3.828   6.121   3.163  1.00  0.00    -0.192 NA
ENDBRANCH  18  19
BRANCH  18  21
ATOM     21  C   UNL     1       5.658   6.554   0.126  1.00  0.00     0.261 C 
ATOM     22  O   UNL     1       5.942   6.490  -1.071  1.00  0.00    -0.268 OA
ATOM     23  N   UNL     1       6.258   7.515   0.877  1.00  0.00    -0.351 N 
ATOM     24  H   UNL     1       6.293   8.400   0.447  1.00  0.00     0.163 HD
BRANCH  23  25
ATOM     25  C   UNL     1       6.866   7.473   2.215  1.00  0.00     0.121 C 
BRANCH  25  26
ATOM     26  C   UNL     1       8.229   6.723   2.295  1.00  0.00     0.059 C 
BRANCH  26  27
ATOM     27  C   UNL     1       9.350   7.388   1.494  1.00  0.00    -0.021 A 
ATOM     28  C   UNL     1       9.358   8.745   1.182  1.00  0.00     0.087 A 
ATOM     29  C   UNL     1       9.931   6.851   0.301  1.00  0.00     0.003 A 
ATOM     30  N   UNL     1       8.800   8.706  -0.096  1.00  0.00    -0.361 N 
ATOM     31  C   UNL     1       9.280   7.565  -0.706  1.00  0.00     0.046 A 
ATOM     32  C   UNL     1      10.816   5.825  -0.073  1.00  0.00     0.010 A 
ATOM     33  H   UNL     1       8.183   9.365  -0.488  1.00  0.00     0.166 HD
ATOM     34  C   UNL     1       9.246   7.162  -2.037  1.00  0.00     0.026 A 
ATOM     35  C   UNL     1      10.965   5.547  -1.442  1.00  0.00     0.001 A 
ATOM     36  C   UNL     1      10.137   6.150  -2.393  1.00  0.00     0.002 A 
ENDBRANCH  26  27
ENDBRANCH  25  26
ENDBRANCH  23  25
ENDBRANCH  18  21
ENDBRANCH  15  17
ENDBRANCH   6  10
ENDBRANCH   1   3
BRANCH   1  37
ATOM     37  O   UNL     1       2.009  -2.155   2.055  1.00  0.00    -0.458 OA
BRANCH  37  38
ATOM     38  C   UNL     1       3.129  -3.048   2.049  1.00  0.00     0.275 C 
BRANCH  38  39
ATOM     39  C   UNL     1       2.825  -4.391   2.714  1.00  0.00     0.275 C 
BRANCH  39  40
ATOM     40  O   UNL     1       1.489  -4.971   2.627  1.00  0.00    -0.458 OA
BRANCH  40  41
ATOM     41  C   UNL     1       0.475  -4.557   1.827  1.00  0.00     0.338 C 
ATOM     42  O   UNL     1      -0.651  -4.336   2.249  1.00  0.00    -0.246 OA
BRANCH  41  43
ATOM     43  C   UNL     1       0.791  -4.412   0.393  1.00  0.00     0.060 A 
ATOM     44  C   UNL     1      -0.025  -3.608  -0.429  1.00  0.00     0.016 A 
ATOM     45  C   UNL     1       1.980  -4.941  -0.085  1.00  0.00     0.016 A 
ATOM     46  C   UNL     1       0.409  -3.224  -1.689  1.00  0.00     0.010 A 
ATOM     47  C   UNL     1       2.495  -4.426  -1.239  1.00  0.00     0.010 A 
ATOM     48  C   UNL     1       1.681  -3.635  -2.066  1.00  0.00    -0.014 A 
BRANCH  48  49
ATOM     49  C   UNL     1       2.156  -3.613  -3.433  1.00  0.00     0.031 A 
ATOM     50  C   UNL     1       2.706  -2.379  -4.009  1.00  0.00     0.074 A 
ATOM     51  C   UNL     1       2.163  -4.877  -3.920  1.00  0.00     0.049 A 
ATOM     52  N   UNL     1       2.627  -2.069  -5.255  1.00  0.00    -0.248 NA
ATOM     53  C   UNL     1       3.347  -1.322  -3.221  1.00  0.00     0.031 C 
ATOM     54  C   UNL     1       2.829  -5.526  -5.027  1.00  0.00     0.029 A 
ATOM     55  N   UNL     1       1.358  -5.914  -3.389  1.00  0.00    -0.354 N 
ATOM     56  C   UNL     1       3.586  -1.094  -5.457  1.00  0.00     0.074 A 
ATOM     57  C   UNL     1       3.809  -0.495  -4.169  1.00  0.00     0.031 C 
ATOM     58  C   UNL     1       2.160  -6.667  -5.312  1.00  0.00     0.029 A 
ATOM     59  C   UNL     1       0.970  -6.707  -4.466  1.00  0.00     0.049 A 
ATOM     60  H   UNL     1       1.120  -6.049  -2.444  1.00  0.00     0.167 HD
ATOM     61  C   UNL     1       4.327  -1.136  -6.602  1.00  0.00     0.037 A 
ATOM     62  C   UNL     1      -0.335  -6.580  -4.857  1.00  0.00     0.037 A 
ATOM     63  C   UNL     1       3.946  -2.319  -7.370  1.00  0.00     0.049 A 
ATOM     64  C   UNL     1      -0.427  -5.863  -6.186  1.00  0.00     0.074 A 
ATOM     65  C   UNL     1       4.485  -3.591  -7.468  1.00  0.00     0.029 A 
ATOM     66  N   UNL     1       2.644  -2.427  -7.812  1.00  0.00    -0.354 N 
ATOM     67  N   UNL     1       0.510  -5.094  -6.670  1.00  0.00    -0.248 NA
ATOM     68  C   UNL     1      -1.596  -5.931  -7.052  1.00  0.00     0.031 C 
ATOM     69  C   UNL     1       3.495  -4.450  -8.027  1.00  0.00     0.029 A 
ATOM     70  C   UNL     1       2.347  -3.707  -8.224  1.00  0.00     0.049 A 
ATOM     71  H   UNL     1       2.005  -1.679  -7.832  1.00  0.00     0.167 HD
ATOM     72  C   UNL     1       0.153  -4.658  -7.913  1.00  0.00     0.074 A 
ATOM     73  C   UNL     1      -1.214  -5.133  -8.065  1.00  0.00     0.031 C 
ATOM     74  C   UNL     1       1.011  -3.966  -8.725  1.00  0.00     0.037 A 
BRANCH  61  75
ATOM     75  C   UNL     1       5.587  -0.350  -6.883  1.00  0.00     0.064 A 
ATOM     76  C   UNL     1       6.574  -0.871  -7.752  1.00  0.00     0.173 A 
ATOM     77  C   UNL     1       5.869   0.930  -6.369  1.00  0.00     0.173 A 
ATOM     78  F   UNL     1       6.415  -2.045  -8.376  1.00  0.00    -0.203 F 
ATOM     79  C   UNL     1       7.768  -0.206  -8.028  1.00  0.00     0.198 A 
ATOM     80  C   UNL     1       7.080   1.589  -6.632  1.00  0.00     0.198 A 
ATOM     81  F   UNL     1       4.968   1.599  -5.636  1.00  0.00    -0.203 F 
ATOM     82  F   UNL     1       8.661  -0.767  -8.857  1.00  0.00    -0.200 F 
ATOM     83  C   UNL     1       8.030   1.018  -7.457  1.00  0.00     0.200 A 
ATOM     84  F   UNL     1       7.318   2.792  -6.088  1.00  0.00    -0.200 F 
ATOM     85  F   UNL     1       9.182   1.652  -7.718  1.00  0.00    -0.200 F 
ENDBRANCH  61  75
BRANCH  62  86
ATOM     86  C   UNL     1      -1.288  -6.382  -3.700  1.00  0.00     0.064 A 
ATOM     87  C   UNL     1      -1.207  -7.256  -2.587  1.00  0.00     0.173 A 
ATOM     88  C   UNL     1      -2.031  -5.208  -3.516  1.00  0.00     0.173 A 
ATOM     89  F   UNL     1      -0.515  -8.404  -2.682  1.00  0.00    -0.203 F 
ATOM     90  C   UNL     1      -1.724  -6.914  -1.336  1.00  0.00     0.198 A 
ATOM     91  C   UNL     1      -2.586  -4.888  -2.269  1.00  0.00     0.198 A 
ATOM     92  F   UNL     1      -2.154  -4.316  -4.507  1.00  0.00    -0.203 F 
ATOM     93  F   UNL     1      -1.484  -7.698  -0.274  1.00  0.00    -0.200 F 
ATOM     94  C   UNL     1      -2.408  -5.725  -1.177  1.00  0.00     0.200 A 
ATOM     95  F   UNL     1      -3.206  -3.711  -2.098  1.00  0.00    -0.200 F 
ATOM     96  F   UNL     1      -2.833  -5.348   0.038  1.00  0.00    -0.200 F 
ENDBRANCH  62  86
BRANCH  74  97
ATOM     97  C   UNL     1       0.658  -3.441 -10.090  1.00  0.00     0.064 A 
ATOM     98  C   UNL     1      -0.185  -4.128 -10.968  1.00  0.00     0.173 A 
ATOM     99  C   UNL     1       1.221  -2.243 -10.598  1.00  0.00     0.173 A 
ATOM    100  F   UNL     1      -0.620  -5.364 -10.685  1.00  0.00    -0.203 F 
ATOM    101  C   UNL     1      -0.575  -3.576 -12.187  1.00  0.00     0.198 A 
ATOM    102  C   UNL     1       0.884  -1.728 -11.842  1.00  0.00     0.198 A 
ATOM    103  F   UNL     1       2.106  -1.508  -9.913  1.00  0.00    -0.203 F 
ATOM    104  F   UNL     1      -1.469  -4.223 -12.947  1.00  0.00    -0.200 F 
ATOM    105  C   UNL     1      -0.049  -2.373 -12.619  1.00  0.00     0.200 A 
ATOM    106  F   UNL     1       1.461  -0.595 -12.265  1.00  0.00    -0.200 F 
ATOM    107  F   UNL     1      -0.428  -1.842 -13.788  1.00  0.00    -0.200 F 
ENDBRANCH  74  97
ENDBRANCH  48  49
ENDBRANCH  41  43
ENDBRANCH  40  41
ENDBRANCH  39  40
ENDBRANCH  38  39
ENDBRANCH  37  38
ENDBRANCH   1  37
TORSDOF 18
