REMARK SMILES O=C(OCCOC(=O)[C@H]1CCCN(c2cc(-c3ccccn3)nc(-c3ccccc3F)n2)C1)c1ccc(-c2c3nc(c(-c4c(F)c(F)c(F)c(F)c4F)c4ccc([nH]4)c(-c4c(F)c(F)c(F)c(F)c4F)c4nc(c(-c5c(F)c(F)c(F)c(F)c5F)c5ccc2[nH]5)C=C4)C=C3)cc1
REMARK SMILES IDX 4 1 3 2 2 3 1 4 34 5 35 6 96 7 36 8 95 9 37 10 38 11 39 12
REMARK SMILES IDX 89 13 40 14 94 15 88 16 90 17 41 18 93 19 87 20 86 21 42 23
REMARK SMILES IDX 74 24 54 25 73 26 55 27 58 28 72 29 91 30 56 31 57 32 71 34
REMARK SMILES IDX 92 35 59 36 43 37 44 38 52 39 45 40 46 41 50 42 53 43 47 44
REMARK SMILES IDX 48 45 51 46 49 47 75 48 76 49 84 50 77 51 78 52 82 53 85 54
REMARK SMILES IDX 79 55 80 56 83 57 81 58 60 59 61 60 69 61 62 62 63 63 67 64
REMARK SMILES IDX 70 65 64 66 65 67 68 68 66 69 5 70 6 71 7 72 8 73 9 74 10 75
REMARK SMILES IDX 33 76 11 77 13 78 12 79 14 80 15 81 32 82 16 83 24 84 23 85
REMARK SMILES IDX 17 86 18 87 22 88 19 89 21 90 20 91 25 92 26 93 30 94 27 95
REMARK SMILES IDX 29 96 31 97 28 98
REMARK H PARENT 90 22 58 33
REMARK Flexibility Score: inf
ROOT
ATOM      1  C   UNL     1       1.944   0.892   6.458  1.00  0.00     0.275 C 
ENDROOT
BRANCH   1   2
ATOM      2  O   UNL     1       2.050  -0.537   6.558  1.00  0.00    -0.458 OA
BRANCH   2   3
ATOM      3  C   UNL     1       1.298  -1.506   5.986  1.00  0.00     0.338 C 
ATOM      4  O   UNL     1       1.533  -2.683   6.252  1.00  0.00    -0.246 OA
BRANCH   3   5
ATOM      5  C   UNL     1       0.299  -1.222   4.913  1.00  0.00     0.060 A 
ATOM      6  C   UNL     1      -0.403  -0.027   4.753  1.00  0.00     0.016 A 
ATOM      7  C   UNL     1       0.118  -2.230   3.951  1.00  0.00     0.016 A 
ATOM      8  C   UNL     1      -1.088   0.247   3.573  1.00  0.00     0.010 A 
ATOM      9  C   UNL     1      -0.569  -1.960   2.764  1.00  0.00     0.010 A 
ATOM     10  C   UNL     1      -1.109  -0.684   2.537  1.00  0.00    -0.014 A 
BRANCH  10  11
ATOM     11  C   UNL     1      -1.729  -0.310   1.244  1.00  0.00     0.031 A 
ATOM     12  C   UNL     1      -2.965  -1.036   0.828  1.00  0.00     0.074 A 
ATOM     13  C   UNL     1      -1.218   0.697   0.499  1.00  0.00     0.049 A 
ATOM     14  N   UNL     1      -3.682  -0.894  -0.253  1.00  0.00    -0.248 NA
ATOM     15  C   UNL     1      -3.490  -2.043   1.770  1.00  0.00     0.031 C 
ATOM     16  C   UNL     1      -0.051   1.508   0.859  1.00  0.00     0.029 A 
ATOM     17  N   UNL     1      -1.573   1.191  -0.737  1.00  0.00    -0.354 N 
ATOM     18  C   UNL     1      -4.791  -1.699  -0.059  1.00  0.00     0.074 A 
ATOM     19  C   UNL     1      -4.579  -2.459   1.147  1.00  0.00     0.031 C 
ATOM     20  C   UNL     1       0.288   2.292  -0.176  1.00  0.00     0.029 A 
ATOM     21  C   UNL     1      -0.608   2.023  -1.279  1.00  0.00     0.049 A 
ATOM     22  H   UNL     1      -2.423   0.976  -1.187  1.00  0.00     0.167 HD
ATOM     23  C   UNL     1      -5.935  -1.719  -0.773  1.00  0.00     0.037 A 
ATOM     24  C   UNL     1      -0.432   2.404  -2.562  1.00  0.00     0.037 A 
ATOM     25  C   UNL     1      -6.130  -0.978  -1.978  1.00  0.00     0.049 A 
ATOM     26  C   UNL     1      -1.732   2.275  -3.442  1.00  0.00     0.074 A 
ATOM     27  C   UNL     1      -7.247  -0.926  -2.788  1.00  0.00     0.029 A 
ATOM     28  N   UNL     1      -5.167  -0.162  -2.549  1.00  0.00    -0.354 N 
ATOM     29  N   UNL     1      -2.805   1.526  -3.239  1.00  0.00    -0.248 NA
ATOM     30  C   UNL     1      -1.878   3.114  -4.645  1.00  0.00     0.031 C 
ATOM     31  C   UNL     1      -6.941  -0.116  -3.883  1.00  0.00     0.029 A 
ATOM     32  C   UNL     1      -5.661   0.391  -3.712  1.00  0.00     0.049 A 
ATOM     33  H   UNL     1      -4.268  -0.001  -2.181  1.00  0.00     0.167 HD
ATOM     34  C   UNL     1      -3.701   1.805  -4.277  1.00  0.00     0.074 A 
ATOM     35  C   UNL     1      -3.079   2.803  -5.103  1.00  0.00     0.031 C 
ATOM     36  C   UNL     1      -4.945   1.325  -4.536  1.00  0.00     0.037 A 
BRANCH  23  37
ATOM     37  C   UNL     1      -7.062  -2.523  -0.218  1.00  0.00     0.064 A 
ATOM     38  C   UNL     1      -7.467  -3.713  -0.831  1.00  0.00     0.173 A 
ATOM     39  C   UNL     1      -7.747  -2.098   0.933  1.00  0.00     0.173 A 
ATOM     40  F   UNL     1      -6.826  -4.164  -1.920  1.00  0.00    -0.203 F 
ATOM     41  C   UNL     1      -8.527  -4.450  -0.314  1.00  0.00     0.198 A 
ATOM     42  C   UNL     1      -8.788  -2.851   1.462  1.00  0.00     0.198 A 
ATOM     43  F   UNL     1      -7.370  -0.977   1.568  1.00  0.00    -0.203 F 
ATOM     44  F   UNL     1      -8.908  -5.583  -0.919  1.00  0.00    -0.200 F 
ATOM     45  C   UNL     1      -9.182  -4.022   0.833  1.00  0.00     0.200 A 
ATOM     46  F   UNL     1      -9.393  -2.455   2.590  1.00  0.00    -0.200 F 
ATOM     47  F   UNL     1     -10.187  -4.748   1.341  1.00  0.00    -0.200 F 
ENDBRANCH  23  37
BRANCH  24  48
ATOM     48  C   UNL     1       1.028   2.989  -3.192  1.00  0.00     0.064 A 
ATOM     49  C   UNL     1       2.681   2.279  -4.141  1.00  0.00     0.173 A 
ATOM     50  C   UNL     1       0.453   4.617  -3.726  1.00  0.00     0.173 A 
ATOM     51  F   UNL     1       3.317   1.063  -4.116  1.00  0.00    -0.203 F 
ATOM     52  C   UNL     1       3.387   3.244  -5.490  1.00  0.00     0.198 A 
ATOM     53  C   UNL     1       1.234   5.415  -5.071  1.00  0.00     0.198 A 
ATOM     54  F   UNL     1      -0.601   5.195  -3.130  1.00  0.00    -0.203 F 
ATOM     55  F   UNL     1       4.421   2.771  -6.198  1.00  0.00    -0.200 F 
ATOM     56  C   UNL     1       2.631   4.756  -5.917  1.00  0.00     0.200 A 
ATOM     57  F   UNL     1       0.781   6.624  -5.438  1.00  0.00    -0.200 F 
ATOM     58  F   UNL     1       3.160   5.480  -6.916  1.00  0.00    -0.200 F 
ENDBRANCH  24  48
BRANCH  36  59
ATOM     59  C   UNL     1      -5.668   1.813  -5.768  1.00  0.00     0.064 A 
ATOM     60  C   UNL     1      -6.826   2.601  -5.652  1.00  0.00     0.173 A 
ATOM     61  C   UNL     1      -5.300   1.380  -7.050  1.00  0.00     0.173 A 
ATOM     62  F   UNL     1      -7.233   3.033  -4.448  1.00  0.00    -0.203 F 
ATOM     63  C   UNL     1      -7.606   2.903  -6.766  1.00  0.00     0.198 A 
ATOM     64  C   UNL     1      -6.065   1.712  -8.167  1.00  0.00     0.198 A 
ATOM     65  F   UNL     1      -4.199   0.633  -7.221  1.00  0.00    -0.203 F 
ATOM     66  F   UNL     1      -8.740   3.602  -6.619  1.00  0.00    -0.200 F 
ATOM     67  C   UNL     1      -7.225   2.458  -8.022  1.00  0.00     0.200 A 
ATOM     68  F   UNL     1      -5.687   1.296  -9.384  1.00  0.00    -0.200 F 
ATOM     69  F   UNL     1      -7.980   2.742  -9.092  1.00  0.00    -0.200 F 
ENDBRANCH  36  59
ENDBRANCH  10  11
ENDBRANCH   3   5
ENDBRANCH   2   3
ENDBRANCH   1   2
BRANCH   1  70
ATOM     70  C   UNL     1       2.521   1.528   5.182  1.00  0.00     0.274 C 
BRANCH  70  71
ATOM     71  O   UNL     1       2.494   0.702   3.991  1.00  0.00    -0.462 OA
BRANCH  71  72
ATOM     72  C   UNL     1       3.665   0.064   3.714  1.00  0.00     0.310 C 
ATOM     73  O   UNL     1       4.647   0.135   4.450  1.00  0.00    -0.252 OA
BRANCH  72  74
ATOM     74  C   UNL     1       3.704  -0.753   2.412  1.00  0.00     0.118 C 
ATOM     75  C   UNL     1       4.237  -2.139   2.789  1.00  0.00     0.019 C 
ATOM     76  C   UNL     1       2.415  -0.826   1.580  1.00  0.00     0.133 C 
ATOM     77  C   UNL     1       4.253  -3.081   1.598  1.00  0.00     0.022 C 
ATOM     78  N   UNL     1       2.323  -1.966   0.634  1.00  0.00    -0.356 N 
ATOM     79  C   UNL     1       2.851  -3.260   1.031  1.00  0.00     0.118 C 
BRANCH  78  80
ATOM     80  C   UNL     1       1.594  -1.849  -0.542  1.00  0.00     0.133 A 
ATOM     81  C   UNL     1       0.737  -2.809  -1.037  1.00  0.00     0.077 A 
ATOM     82  N   UNL     1       1.778  -0.748  -1.263  1.00  0.00    -0.211 NA
ATOM     83  C   UNL     1       0.110  -2.565  -2.266  1.00  0.00     0.095 A 
ATOM     84  C   UNL     1       1.171  -0.581  -2.468  1.00  0.00     0.165 A 
ATOM     85  N   UNL     1       0.320  -1.443  -3.003  1.00  0.00    -0.226 NA
BRANCH  83  86
ATOM     86  C   UNL     1      -0.838  -3.534  -2.845  1.00  0.00     0.089 A 
ATOM     87  C   UNL     1      -2.117  -3.724  -2.321  1.00  0.00     0.030 A 
ATOM     88  N   UNL     1      -0.400  -4.223  -3.932  1.00  0.00    -0.255 NA
ATOM     89  C   UNL     1      -2.983  -4.622  -2.945  1.00  0.00     0.004 A 
ATOM     90  C   UNL     1      -1.267  -5.071  -4.527  1.00  0.00     0.112 A 
ATOM     91  C   UNL     1      -2.554  -5.305  -4.075  1.00  0.00     0.020 A 
ENDBRANCH  83  86
BRANCH  84  92
ATOM     92  C   UNL     1       1.467   0.731  -3.076  1.00  0.00     0.055 A 
ATOM     93  C   UNL     1       2.523   1.711  -2.010  1.00  0.00     0.015 A 
ATOM     94  C   UNL     1       0.864   1.382  -4.624  1.00  0.00     0.134 A 
ATOM     95  C   UNL     1       3.029   3.325  -2.295  1.00  0.00     0.001 A 
ATOM     96  C   UNL     1       1.289   3.106  -5.061  1.00  0.00     0.040 A 
ATOM     97  F   UNL     1       0.067   0.676  -5.434  1.00  0.00    -0.206 F 
ATOM     98  C   UNL     1       2.479   4.104  -3.773  1.00  0.00     0.003 A 
ENDBRANCH  84  92
ENDBRANCH  78  80
ENDBRANCH  72  74
ENDBRANCH  71  72
ENDBRANCH  70  71
ENDBRANCH   1  70
TORSDOF 14
