REMARK SMILES C[C@H]1[C@H](C(=O)OCCOC(=O)c2ccc(-c3c4nc(c(-c5c(F)c(F)c(F)c(F)c5F)c5ccc([nH]5)c(-c5c(F)c(F)c(F)c(F)c5F)c5nc(c(-c6c(F)c(F)c(F)c(F)c6F)c6ccc3[nH]6)C=C5)C=C4)cc2)CCN1C(=O)COc1ccccc1F
REMARK SMILES IDX 7 1 6 2 4 3 5 4 3 5 1 6 2 7 77 8 75 9 76 10 78 11 79 12
REMARK SMILES IDX 80 13 81 14 82 15 83 16 87 17 84 18 86 19 88 20 85 21 8 22
REMARK SMILES IDX 9 23 10 24 11 25 12 26 13 27 74 28 14 29 73 30 15 31 16 32
REMARK SMILES IDX 17 33 67 34 18 35 72 36 66 37 68 38 19 39 71 40 65 41 64 42
REMARK SMILES IDX 20 44 52 45 32 46 51 47 33 48 36 49 50 50 69 51 34 52 35 53
REMARK SMILES IDX 49 55 70 56 37 57 21 58 22 59 30 60 23 61 24 62 28 63 31 64
REMARK SMILES IDX 25 65 26 66 29 67 27 68 53 69 54 70 62 71 55 72 56 73 60 74
REMARK SMILES IDX 63 75 57 76 58 77 61 78 59 79 38 80 39 81 47 82 40 83 41 84
REMARK SMILES IDX 45 85 48 86 42 87 43 88 46 89 44 90
REMARK H PARENT 68 43 36 54
REMARK Flexibility Score: inf
ROOT
ATOM      1  C   UNL     1      -0.396   2.906   3.439  1.00  0.00     0.274 C 
ENDROOT
BRANCH   1   2
ATOM      2  O   UNL     1      -0.380   1.827   2.484  1.00  0.00    -0.462 OA
BRANCH   2   3
ATOM      3  C   UNL     1      -0.728   2.147   1.214  1.00  0.00     0.311 C 
ATOM      4  O   UNL     1      -1.094   3.260   0.850  1.00  0.00    -0.252 OA
BRANCH   3   5
ATOM      5  C   UNL     1      -0.687   0.975   0.264  1.00  0.00     0.123 C 
ATOM      6  C   UNL     1       1.544   0.067  -0.439  1.00  0.00     0.032 C 
ATOM      7  C   UNL     1       0.385  -0.105   0.545  1.00  0.00     0.096 C 
ATOM      8  N   UNL     1      -0.342  -1.375   0.375  1.00  0.00    -0.336 N 
ATOM      9  C   UNL     1      -2.025   0.243   0.281  1.00  0.00     0.039 C 
ATOM     10  C   UNL     1      -1.660  -1.147  -0.183  1.00  0.00     0.121 C 
BRANCH   8  11
ATOM     11  C   UNL     1       0.016  -2.655   0.749  1.00  0.00     0.260 C 
ATOM     12  O   UNL     1      -0.820  -3.565   0.804  1.00  0.00    -0.271 OA
BRANCH  11  13
ATOM     13  C   UNL     1       1.471  -2.961   1.123  1.00  0.00     0.329 C 
BRANCH  13  14
ATOM     14  O   UNL     1       2.562  -2.638   0.284  1.00  0.00    -0.481 OA
BRANCH  14  15
ATOM     15  C   UNL     1       2.716  -3.299  -0.901  1.00  0.00     0.155 A 
ATOM     16  C   UNL     1       4.044  -3.595  -1.231  1.00  0.00     0.049 A 
ATOM     17  C   UNL     1       1.727  -3.559  -1.850  1.00  0.00     0.165 A 
ATOM     18  C   UNL     1       4.367  -4.160  -2.469  1.00  0.00     0.004 A 
ATOM     19  C   UNL     1       2.042  -4.124  -3.086  1.00  0.00     0.043 A 
ATOM     20  F   UNL     1       0.454  -3.203  -1.664  1.00  0.00    -0.203 F 
ATOM     21  C   UNL     1       3.364  -4.426  -3.398  1.00  0.00     0.003 A 
ENDBRANCH  14  15
ENDBRANCH  13  14
ENDBRANCH  11  13
ENDBRANCH   8  11
ENDBRANCH   3   5
ENDBRANCH   2   3
ENDBRANCH   1   2
BRANCH   1  22
ATOM     22  C   UNL     1       0.998   3.510   3.641  1.00  0.00     0.275 C 
BRANCH  22  23
ATOM     23  O   UNL     1       1.450   4.222   2.474  1.00  0.00    -0.458 OA
BRANCH  23  24
ATOM     24  C   UNL     1       2.154   3.479   1.591  1.00  0.00     0.338 C 
ATOM     25  O   UNL     1       2.460   2.303   1.689  1.00  0.00    -0.246 OA
BRANCH  24  26
ATOM     26  C   UNL     1       2.426   4.270   0.383  1.00  0.00     0.060 A 
ATOM     27  C   UNL     1       1.771   3.926  -0.803  1.00  0.00     0.016 A 
ATOM     28  C   UNL     1       3.395   5.271   0.394  1.00  0.00     0.016 A 
ATOM     29  C   UNL     1       2.106   4.554  -1.997  1.00  0.00     0.010 A 
ATOM     30  C   UNL     1       3.711   5.923  -0.800  1.00  0.00     0.010 A 
ATOM     31  C   UNL     1       3.079   5.557  -2.003  1.00  0.00    -0.014 A 
BRANCH  31  32
ATOM     32  C   UNL     1       3.470   6.212  -3.271  1.00  0.00     0.031 A 
ATOM     33  C   UNL     1       4.816   5.929  -3.864  1.00  0.00     0.074 A 
ATOM     34  C   UNL     1       2.627   7.072  -3.868  1.00  0.00     0.049 A 
ATOM     35  N   UNL     1       5.441   6.547  -4.833  1.00  0.00    -0.248 NA
ATOM     36  C   UNL     1       5.563   4.801  -3.285  1.00  0.00     0.031 C 
ATOM     37  C   UNL     1       1.266   7.368  -3.421  1.00  0.00     0.029 A 
ATOM     38  N   UNL     1       2.803   7.873  -4.967  1.00  0.00    -0.354 N 
ATOM     39  C   UNL     1       6.667   5.910  -4.955  1.00  0.00     0.074 A 
ATOM     40  C   UNL     1       6.700   4.854  -3.965  1.00  0.00     0.031 C 
ATOM     41  C   UNL     1       0.735   8.301  -4.228  1.00  0.00     0.029 A 
ATOM     42  C   UNL     1       1.741   8.711  -5.203  1.00  0.00     0.049 A 
ATOM     43  H   UNL     1       3.610   7.850  -5.531  1.00  0.00     0.167 HD
ATOM     44  C   UNL     1       7.674   6.193  -5.815  1.00  0.00     0.037 A 
ATOM     45  C   UNL     1       1.617   9.731  -6.074  1.00  0.00     0.037 A 
ATOM     46  C   UNL     1       7.617   7.232  -6.809  1.00  0.00     0.049 A 
ATOM     47  C   UNL     1       2.774  10.070  -6.972  1.00  0.00     0.074 A 
ATOM     48  C   UNL     1       8.581   7.600  -7.730  1.00  0.00     0.029 A 
ATOM     49  N   UNL     1       6.528   8.067  -7.011  1.00  0.00    -0.354 N 
ATOM     50  N   UNL     1       3.948   9.493  -7.060  1.00  0.00    -0.248 NA
ATOM     51  C   UNL     1       2.597  11.212  -7.880  1.00  0.00     0.031 C 
ATOM     52  C   UNL     1       8.088   8.682  -8.468  1.00  0.00     0.029 A 
ATOM     53  C   UNL     1       6.801   8.960  -8.034  1.00  0.00     0.049 A 
ATOM     54  H   UNL     1       5.685   8.030  -6.503  1.00  0.00     0.167 HD
ATOM     55  C   UNL     1       4.639  10.181  -8.048  1.00  0.00     0.074 A 
ATOM     56  C   UNL     1       3.752  11.219  -8.532  1.00  0.00     0.031 C 
ATOM     57  C   UNL     1       5.894   9.970  -8.513  1.00  0.00     0.037 A 
BRANCH  44  58
ATOM     58  C   UNL     1       8.937   5.396  -5.692  1.00  0.00     0.064 A 
ATOM     59  C   UNL     1       9.018   4.065  -6.126  1.00  0.00     0.173 A 
ATOM     60  C   UNL     1      10.095   5.987  -5.163  1.00  0.00     0.173 A 
ATOM     61  F   UNL     1       7.935   3.451  -6.625  1.00  0.00    -0.203 F 
ATOM     62  C   UNL     1      10.208   3.349  -6.018  1.00  0.00     0.198 A 
ATOM     63  C   UNL     1      11.288   5.276  -5.078  1.00  0.00     0.198 A 
ATOM     64  F   UNL     1      10.069   7.258  -4.735  1.00  0.00    -0.203 F 
ATOM     65  F   UNL     1      10.254   2.067  -6.404  1.00  0.00    -0.200 F 
ATOM     66  C   UNL     1      11.343   3.957  -5.501  1.00  0.00     0.200 A 
ATOM     67  F   UNL     1      12.386   5.868  -4.587  1.00  0.00    -0.200 F 
ATOM     68  F   UNL     1      12.488   3.268  -5.403  1.00  0.00    -0.200 F 
ENDBRANCH  44  58
BRANCH  45  69
ATOM     69  C   UNL     1       0.364  10.526  -6.102  1.00  0.00     0.064 A 
ATOM     70  C   UNL     1      -0.516  10.446  -7.189  1.00  0.00     0.173 A 
ATOM     71  C   UNL     1       0.015  11.372  -5.038  1.00  0.00     0.173 A 
ATOM     72  F   UNL     1      -0.212   9.669  -8.239  1.00  0.00    -0.203 F 
ATOM     73  C   UNL     1      -1.694  11.190  -7.216  1.00  0.00     0.198 A 
ATOM     74  C   UNL     1      -1.175  12.095  -5.054  1.00  0.00     0.198 A 
ATOM     75  F   UNL     1       0.825  11.484  -3.975  1.00  0.00    -0.203 F 
ATOM     76  F   UNL     1      -2.501  11.123  -8.283  1.00  0.00    -0.200 F 
ATOM     77  C   UNL     1      -2.026  12.007  -6.146  1.00  0.00     0.200 A 
ATOM     78  F   UNL     1      -1.498  12.874  -4.013  1.00  0.00    -0.200 F 
ATOM     79  F   UNL     1      -3.163  12.716  -6.169  1.00  0.00    -0.200 F 
ENDBRANCH  45  69
BRANCH  57  80
ATOM     80  C   UNL     1       6.368  10.843  -9.634  1.00  0.00     0.064 A 
ATOM     81  C   UNL     1       6.781  12.163  -9.412  1.00  0.00     0.173 A 
ATOM     82  C   UNL     1       6.476  10.324 -10.933  1.00  0.00     0.173 A 
ATOM     83  F   UNL     1       6.682  12.705  -8.189  1.00  0.00    -0.203 F 
ATOM     84  C   UNL     1       7.279  12.938 -10.456  1.00  0.00     0.198 A 
ATOM     85  C   UNL     1       6.994  11.095 -11.969  1.00  0.00     0.198 A 
ATOM     86  F   UNL     1       6.097   9.064 -11.191  1.00  0.00    -0.203 F 
ATOM     87  F   UNL     1       7.646  14.207 -10.229  1.00  0.00    -0.200 F 
ATOM     88  C   UNL     1       7.394  12.401 -11.730  1.00  0.00     0.200 A 
ATOM     89  F   UNL     1       7.114  10.571 -13.197  1.00  0.00    -0.200 F 
ATOM     90  F   UNL     1       7.887  13.145 -12.730  1.00  0.00    -0.200 F 
ENDBRANCH  57  80
ENDBRANCH  31  32
ENDBRANCH  24  26
ENDBRANCH  23  24
ENDBRANCH  22  23
ENDBRANCH   1  22
TORSDOF 15
