REMARK SMILES CC(C)C[C@H](NC(=O)[C@](C)([NH3+])C(F)(F)F)C(=O)OCCOC(=O)c1ccc(-c2c3nc(c(-c4c(F)c(F)c(F)c(F)c4F)c4ccc([nH]4)c(-c4c(F)c(F)c(F)c(F)c4F)c4nc(c(-c5c(F)c(F)c(F)c(F)c5F)c5ccc2[nH]5)C=C4)C=C3)cc1
REMARK SMILES IDX 19 1 18 2 16 3 17 4 5 5 4 6 2 7 1 8 3 9 6 10 7 11 8 13 9 14
REMARK SMILES IDX 10 15 11 16 12 20 13 21 14 22 15 23 20 24 21 25 22 26 23 27
REMARK SMILES IDX 24 28 25 29 86 30 26 31 85 32 27 33 28 34 29 35 79 36 30 37
REMARK SMILES IDX 84 38 78 39 80 40 31 41 83 42 77 43 76 44 32 46 64 47 44 48
REMARK SMILES IDX 63 49 45 50 48 51 62 52 81 53 46 54 47 55 61 57 82 58 49 59
REMARK SMILES IDX 33 60 34 61 42 62 35 63 36 64 40 65 43 66 37 67 38 68 41 69
REMARK SMILES IDX 39 70 65 71 66 72 74 73 67 74 68 75 72 76 75 77 69 78 70 79
REMARK SMILES IDX 73 80 71 81 50 82 51 83 59 84 52 85 53 86 57 87 60 88 54 89
REMARK SMILES IDX 55 90 58 91 56 92
REMARK H PARENT 6 12 11 17 11 18 11 19 80 45 48 56
REMARK Flexibility Score: inf
ROOT
ATOM      1  C   UNL     1      -3.056  -4.809  -2.809  1.00  0.00     0.274 C 
ENDROOT
BRANCH   1   2
ATOM      2  O   UNL     1      -2.601  -4.758  -1.435  1.00  0.00    -0.461 OA
BRANCH   2   3
ATOM      3  C   UNL     1      -3.567  -4.838  -0.487  1.00  0.00     0.328 C 
ATOM      4  O   UNL     1      -4.771  -4.872  -0.743  1.00  0.00    -0.250 OA
BRANCH   3   5
ATOM      5  C   UNL     1      -3.048  -4.898   0.973  1.00  0.00     0.192 C 
BRANCH   5   6
ATOM      6  C   UNL     1      -3.696  -3.664   1.671  1.00  0.00     0.040 C 
BRANCH   6   7
ATOM      7  C   UNL     1      -4.428  -3.961   2.997  1.00  0.00    -0.015 C 
ATOM      8  C   UNL     1      -3.495  -4.452   4.101  1.00  0.00     0.007 C 
ATOM      9  C   UNL     1      -5.150  -2.690   3.462  1.00  0.00     0.007 C 
ENDBRANCH   6   7
ENDBRANCH   5   6
BRANCH   5  10
ATOM     10  N   UNL     1      -1.602  -4.927   1.329  1.00  0.00    -0.337 N 
ATOM     11  C   UNL     1      -0.795  -6.023   1.408  1.00  0.00     0.291 C 
ATOM     12  H   UNL     1      -1.182  -4.059   1.529  1.00  0.00     0.164 HD
ATOM     13  O   UNL     1      -0.656  -6.498   2.547  1.00  0.00    -0.267 OA
BRANCH  11  14
ATOM     14  C   UNL     1       0.118  -6.541   0.252  1.00  0.00     0.267 C 
ATOM     15  C   UNL     1      -0.365  -7.914  -0.250  1.00  0.00     0.100 C 
BRANCH  14  16
ATOM     16  N   UNL     1       1.443  -6.918   0.929  1.00  0.00    -0.337 N 
ATOM     17  H   UNL     1       2.096  -7.269   0.229  1.00  0.00     0.345 HD
ATOM     18  H   UNL     1       1.274  -7.642   1.628  1.00  0.00     0.345 HD
ATOM     19  H   UNL     1       1.840  -6.095   1.382  1.00  0.00     0.345 HD
ENDBRANCH  14  16
BRANCH  14  20
ATOM     20  C   UNL     1       0.346  -5.488  -0.872  1.00  0.00     0.453 C 
ATOM     21  F   UNL     1      -0.157  -5.857  -2.071  1.00  0.00    -0.164 F 
ATOM     22  F   UNL     1      -0.132  -4.255  -0.592  1.00  0.00    -0.164 F 
ATOM     23  F   UNL     1       1.682  -5.295  -1.077  1.00  0.00    -0.164 F 
ENDBRANCH  14  20
ENDBRANCH  11  14
ENDBRANCH   5  10
ENDBRANCH   3   5
ENDBRANCH   2   3
ENDBRANCH   1   2
BRANCH   1  24
ATOM     24  C   UNL     1      -2.930  -6.210  -3.434  1.00  0.00     0.275 C 
BRANCH  24  25
ATOM     25  O   UNL     1      -3.942  -7.141  -2.998  1.00  0.00    -0.458 OA
BRANCH  25  26
ATOM     26  C   UNL     1      -3.745  -7.626  -1.756  1.00  0.00     0.338 C 
ATOM     27  O   UNL     1      -2.869  -7.322  -0.970  1.00  0.00    -0.246 OA
BRANCH  26  28
ATOM     28  C   UNL     1      -4.783  -8.547  -1.329  1.00  0.00     0.060 A 
ATOM     29  C   UNL     1      -5.494  -8.205  -0.173  1.00  0.00     0.016 A 
ATOM     30  C   UNL     1      -4.917  -9.792  -1.937  1.00  0.00     0.016 A 
ATOM     31  C   UNL     1      -6.382  -9.113   0.375  1.00  0.00     0.010 A 
ATOM     32  C   UNL     1      -5.825 -10.695  -1.399  1.00  0.00     0.010 A 
ATOM     33  C   UNL     1      -6.571 -10.346  -0.258  1.00  0.00    -0.014 A 
BRANCH  33  34
ATOM     34  C   UNL     1      -7.670 -11.227   0.166  1.00  0.00     0.031 A 
ATOM     35  C   UNL     1      -7.388 -12.511   0.865  1.00  0.00     0.074 A 
ATOM     36  C   UNL     1      -8.909 -10.872  -0.211  1.00  0.00     0.049 A 
ATOM     37  N   UNL     1      -8.194 -13.511   1.097  1.00  0.00    -0.248 NA
ATOM     38  C   UNL     1      -6.017 -12.704   1.357  1.00  0.00     0.031 C 
ATOM     39  C   UNL     1      -9.252  -9.620  -0.892  1.00  0.00     0.029 A 
ATOM     40  N   UNL     1     -10.097 -11.543  -0.123  1.00  0.00    -0.354 N 
ATOM     41  C   UNL     1      -7.425 -14.470   1.737  1.00  0.00     0.074 A 
ATOM     42  C   UNL     1      -6.085 -13.931   1.856  1.00  0.00     0.031 C 
ATOM     43  C   UNL     1     -10.556  -9.629  -1.195  1.00  0.00     0.029 A 
ATOM     44  C   UNL     1     -11.118 -10.908  -0.783  1.00  0.00     0.049 A 
ATOM     45  H   UNL     1     -10.207 -12.392   0.363  1.00  0.00     0.167 HD
ATOM     46  C   UNL     1      -7.818 -15.692   2.167  1.00  0.00     0.037 A 
ATOM     47  C   UNL     1     -12.355 -11.340  -1.077  1.00  0.00     0.037 A 
ATOM     48  C   UNL     1      -9.161 -16.192   2.021  1.00  0.00     0.049 A 
ATOM     49  C   UNL     1     -12.758 -12.706  -0.617  1.00  0.00     0.074 A 
ATOM     50  C   UNL     1      -9.690 -17.397   2.446  1.00  0.00     0.029 A 
ATOM     51  N   UNL     1     -10.190 -15.505   1.385  1.00  0.00    -0.354 N 
ATOM     52  N   UNL     1     -12.037 -13.608   0.005  1.00  0.00    -0.248 NA
ATOM     53  C   UNL     1     -14.138 -13.116  -0.892  1.00  0.00     0.031 C 
ATOM     54  C   UNL     1     -11.026 -17.457   2.029  1.00  0.00     0.029 A 
ATOM     55  C   UNL     1     -11.345 -16.270   1.386  1.00  0.00     0.049 A 
ATOM     56  H   UNL     1     -10.110 -14.607   0.991  1.00  0.00     0.167 HD
ATOM     57  C   UNL     1     -12.877 -14.689   0.214  1.00  0.00     0.074 A 
ATOM     58  C   UNL     1     -14.167 -14.323  -0.344  1.00  0.00     0.031 C 
ATOM     59  C   UNL     1     -12.610 -15.873   0.817  1.00  0.00     0.037 A 
BRANCH  46  60
ATOM     60  C   UNL     1      -6.774 -16.576   2.784  1.00  0.00     0.064 A 
ATOM     61  C   UNL     1      -6.224 -16.306   4.046  1.00  0.00     0.173 A 
ATOM     62  C   UNL     1      -6.317 -17.713   2.101  1.00  0.00     0.173 A 
ATOM     63  F   UNL     1      -6.615 -15.224   4.735  1.00  0.00    -0.203 F 
ATOM     64  C   UNL     1      -5.232 -17.123   4.586  1.00  0.00     0.198 A 
ATOM     65  C   UNL     1      -5.344 -18.542   2.654  1.00  0.00     0.198 A 
ATOM     66  F   UNL     1      -6.810 -18.020   0.891  1.00  0.00    -0.203 F 
ATOM     67  F   UNL     1      -4.684 -16.816   5.769  1.00  0.00    -0.200 F 
ATOM     68  C   UNL     1      -4.796 -18.241   3.892  1.00  0.00     0.200 A 
ATOM     69  F   UNL     1      -4.930 -19.627   1.985  1.00  0.00    -0.200 F 
ATOM     70  F   UNL     1      -3.839 -19.024   4.410  1.00  0.00    -0.200 F 
ENDBRANCH  46  60
BRANCH  47  71
ATOM     71  C   UNL     1     -13.255 -10.459  -1.858  1.00  0.00     0.064 A 
ATOM     72  C   UNL     1     -14.309  -9.779  -1.236  1.00  0.00     0.173 A 
ATOM     73  C   UNL     1     -13.016 -10.199  -3.216  1.00  0.00     0.173 A 
ATOM     74  F   UNL     1     -14.576 -10.002   0.059  1.00  0.00    -0.203 F 
ATOM     75  C   UNL     1     -15.091  -8.869  -1.944  1.00  0.00     0.198 A 
ATOM     76  C   UNL     1     -13.783  -9.271  -3.917  1.00  0.00     0.198 A 
ATOM     77  F   UNL     1     -12.004 -10.812  -3.849  1.00  0.00    -0.203 F 
ATOM     78  F   UNL     1     -16.099  -8.237  -1.329  1.00  0.00    -0.200 F 
ATOM     79  C   UNL     1     -14.820  -8.607  -3.280  1.00  0.00     0.200 A 
ATOM     80  F   UNL     1     -13.503  -9.005  -5.200  1.00  0.00    -0.200 F 
ATOM     81  F   UNL     1     -15.556  -7.712  -3.951  1.00  0.00    -0.200 F 
ENDBRANCH  47  71
BRANCH  59  82
ATOM     82  C   UNL     1     -13.747 -16.841   0.926  1.00  0.00     0.064 A 
ATOM     83  C   UNL     1     -14.190 -17.579  -0.180  1.00  0.00     0.173 A 
ATOM     84  C   UNL     1     -14.371 -17.060   2.163  1.00  0.00     0.173 A 
ATOM     85  F   UNL     1     -13.635 -17.387  -1.386  1.00  0.00    -0.203 F 
ATOM     86  C   UNL     1     -15.231 -18.494  -0.054  1.00  0.00     0.198 A 
ATOM     87  C   UNL     1     -15.395 -17.992   2.290  1.00  0.00     0.198 A 
ATOM     88  F   UNL     1     -13.978 -16.376   3.248  1.00  0.00    -0.203 F 
ATOM     89  F   UNL     1     -15.666 -19.163  -1.131  1.00  0.00    -0.200 F 
ATOM     90  C   UNL     1     -15.826 -18.705   1.181  1.00  0.00     0.200 A 
ATOM     91  F   UNL     1     -15.963 -18.202   3.485  1.00  0.00    -0.200 F 
ATOM     92  F   UNL     1     -16.823 -19.592   1.302  1.00  0.00    -0.200 F 
ENDBRANCH  59  82
ENDBRANCH  33  34
ENDBRANCH  26  28
ENDBRANCH  25  26
ENDBRANCH  24  25
ENDBRANCH   1  24
TORSDOF 17
