REMARK SMILES CCn1c(=O)n(CC)c2cc(C(=O)OCCOC(=O)c3ccc(-c4c5nc(c(-c6c(F)c(F)c(F)c(F)c6F)c6ccc([nH]6)c(-c6c(F)c(F)c(F)c(F)c6F)c6nc(c(-c7c(F)c(F)c(F)c(F)c7F)c7ccc4[nH]7)C=C6)C=C5)cc3)ccc21
REMARK SMILES IDX 16 1 15 2 14 3 12 4 13 5 11 6 3 7 4 8 85 9 5 10 6 11 9 12
REMARK SMILES IDX 84 13 10 14 83 15 2 16 1 17 7 18 8 19 17 20 18 21 19 22
REMARK SMILES IDX 20 23 21 24 82 25 22 26 81 27 23 28 24 29 25 30 75 31 26 32
REMARK SMILES IDX 80 33 74 34 76 35 27 36 79 37 73 38 72 39 28 41 60 42 40 43
REMARK SMILES IDX 59 44 41 45 44 46 58 47 77 48 42 49 43 50 57 52 78 53 45 54
REMARK SMILES IDX 29 55 30 56 38 57 31 58 32 59 36 60 39 61 33 62 34 63 37 64
REMARK SMILES IDX 35 65 61 66 62 67 70 68 63 69 64 70 68 71 71 72 65 73 66 74
REMARK SMILES IDX 69 75 67 76 46 77 47 78 55 79 48 80 49 81 53 82 56 83 50 84
REMARK SMILES IDX 51 85 54 86 52 87
REMARK H PARENT 76 40 44 51
REMARK Flexibility Score: inf
ROOT
ATOM      1  C   UNL     1       3.075   1.084  -8.566  1.00  0.00     0.275 C 
ENDROOT
BRANCH   1   2
ATOM      2  C   UNL     1       3.839   0.500  -7.367  1.00  0.00     0.275 C 
BRANCH   2   3
ATOM      3  O   UNL     1       3.045   0.487  -6.144  1.00  0.00    -0.458 OA
BRANCH   3   4
ATOM      4  C   UNL     1       3.543   1.222  -5.115  1.00  0.00     0.338 C 
ATOM      5  O   UNL     1       4.522   1.943  -5.209  1.00  0.00    -0.246 OA
BRANCH   4   6
ATOM      6  C   UNL     1       2.730   1.118  -3.861  1.00  0.00     0.062 A 
ATOM      7  N   UNL     1       0.471   1.293  -0.340  1.00  0.00    -0.292 N 
ATOM      8  C   UNL     1       0.285   2.686  -0.227  1.00  0.00     0.329 A 
ATOM      9  C   UNL     1       1.189   1.019  -1.520  1.00  0.00     0.069 A 
ATOM     10  O   UNL     1      -0.336   3.277   0.646  1.00  0.00    -0.248 OA
ATOM     11  N   UNL     1       0.983   3.268  -1.291  1.00  0.00    -0.292 N 
ATOM     12  C   UNL     1       1.585   2.244  -2.048  1.00  0.00     0.070 A 
ATOM     13  C   UNL     1       1.538  -0.164  -2.160  1.00  0.00     0.029 A 
ATOM     14  C   UNL     1       2.454   2.279  -3.119  1.00  0.00     0.044 A 
ATOM     15  C   UNL     1       2.271  -0.108  -3.366  1.00  0.00     0.018 A 
BRANCH   7  16
ATOM     16  C   UNL     1       0.088   0.462   0.759  1.00  0.00     0.124 C 
ATOM     17  C   UNL     1       0.644  -0.939   0.814  1.00  0.00     0.028 C 
ENDBRANCH   7  16
BRANCH  11  18
ATOM     18  C   UNL     1       0.995   4.691  -1.464  1.00  0.00     0.124 C 
ATOM     19  C   UNL     1       2.185   5.329  -0.786  1.00  0.00     0.028 C 
ENDBRANCH  11  18
ENDBRANCH   4   6
ENDBRANCH   3   4
ENDBRANCH   2   3
ENDBRANCH   1   2
BRANCH   1  20
ATOM     20  O   UNL     1       3.256   2.509  -8.582  1.00  0.00    -0.458 OA
BRANCH  20  21
ATOM     21  C   UNL     1       2.170   3.247  -8.255  1.00  0.00     0.338 C 
ATOM     22  O   UNL     1       1.000   2.960  -8.423  1.00  0.00    -0.246 OA
BRANCH  21  23
ATOM     23  C   UNL     1       2.669   4.222  -7.266  1.00  0.00     0.060 A 
ATOM     24  C   UNL     1       3.920   4.852  -7.365  1.00  0.00     0.016 A 
ATOM     25  C   UNL     1       1.967   4.253  -6.078  1.00  0.00     0.016 A 
ATOM     26  C   UNL     1       4.558   5.339  -6.212  1.00  0.00     0.010 A 
ATOM     27  C   UNL     1       2.607   4.766  -4.966  1.00  0.00     0.010 A 
ATOM     28  C   UNL     1       3.942   5.200  -4.970  1.00  0.00    -0.014 A 
BRANCH  28  29
ATOM     29  C   UNL     1       4.548   5.666  -3.692  1.00  0.00     0.031 A 
ATOM     30  C   UNL     1       4.075   7.033  -3.291  1.00  0.00     0.074 A 
ATOM     31  C   UNL     1       5.268   4.927  -2.784  1.00  0.00     0.049 A 
ATOM     32  N   UNL     1       4.804   7.976  -2.794  1.00  0.00    -0.248 NA
ATOM     33  C   UNL     1       2.659   7.430  -3.453  1.00  0.00     0.031 C 
ATOM     34  C   UNL     1       5.612   3.503  -2.836  1.00  0.00     0.029 A 
ATOM     35  N   UNL     1       5.765   5.259  -1.528  1.00  0.00    -0.354 N 
ATOM     36  C   UNL     1       3.932   8.999  -2.438  1.00  0.00     0.074 A 
ATOM     37  C   UNL     1       2.622   8.627  -2.873  1.00  0.00     0.031 C 
ATOM     38  C   UNL     1       6.010   3.040  -1.626  1.00  0.00     0.029 A 
ATOM     39  C   UNL     1       6.178   4.169  -0.733  1.00  0.00     0.049 A 
ATOM     40  H   UNL     1       5.824   6.190  -1.215  1.00  0.00     0.167 HD
ATOM     41  C   UNL     1       4.342  10.016  -1.646  1.00  0.00     0.037 A 
ATOM     42  C   UNL     1       6.706   4.161   0.526  1.00  0.00     0.037 A 
ATOM     43  C   UNL     1       5.766  10.167  -1.695  1.00  0.00     0.049 A 
ATOM     44  C   UNL     1       7.274   5.498   0.752  1.00  0.00     0.074 A 
ATOM     45  C   UNL     1       6.650  10.725  -2.591  1.00  0.00     0.029 A 
ATOM     46  N   UNL     1       6.467   9.298  -0.912  1.00  0.00    -0.354 N 
ATOM     47  N   UNL     1       8.354   5.926   0.170  1.00  0.00    -0.248 NA
ATOM     48  C   UNL     1       6.551   6.470   1.562  1.00  0.00     0.031 C 
ATOM     49  C   UNL     1       7.893  10.055  -2.406  1.00  0.00     0.029 A 
ATOM     50  C   UNL     1       7.750   9.136  -1.375  1.00  0.00     0.049 A 
ATOM     51  H   UNL     1       6.102   8.845  -0.118  1.00  0.00     0.167 HD
ATOM     52  C   UNL     1       8.184   7.284   0.159  1.00  0.00     0.074 A 
ATOM     53  C   UNL     1       7.211   7.572   1.203  1.00  0.00     0.031 C 
ATOM     54  C   UNL     1       8.521   7.996  -0.948  1.00  0.00     0.037 A 
BRANCH  41  55
ATOM     55  C   UNL     1       3.501  10.607  -0.555  1.00  0.00     0.064 A 
ATOM     56  C   UNL     1       3.866  11.832   0.025  1.00  0.00     0.173 A 
ATOM     57  C   UNL     1       2.531   9.854   0.142  1.00  0.00     0.173 A 
ATOM     58  F   UNL     1       4.799  12.604  -0.550  1.00  0.00    -0.203 F 
ATOM     59  C   UNL     1       3.327  12.254   1.244  1.00  0.00     0.198 A 
ATOM     60  C   UNL     1       1.976  10.289   1.344  1.00  0.00     0.198 A 
ATOM     61  F   UNL     1       2.167   8.634  -0.272  1.00  0.00    -0.203 F 
ATOM     62  F   UNL     1       3.761  13.391   1.805  1.00  0.00    -0.200 F 
ATOM     63  C   UNL     1       2.389  11.479   1.906  1.00  0.00     0.200 A 
ATOM     64  F   UNL     1       1.090   9.512   1.984  1.00  0.00    -0.200 F 
ATOM     65  F   UNL     1       1.915  11.858   3.100  1.00  0.00    -0.200 F 
ENDBRANCH  41  55
BRANCH  42  66
ATOM     66  C   UNL     1       6.875   3.171   1.636  1.00  0.00     0.064 A 
ATOM     67  C   UNL     1       7.888   3.350   2.611  1.00  0.00     0.173 A 
ATOM     68  C   UNL     1       5.849   2.279   1.979  1.00  0.00     0.173 A 
ATOM     69  F   UNL     1       8.923   4.170   2.378  1.00  0.00    -0.203 F 
ATOM     70  C   UNL     1       7.819   2.767   3.880  1.00  0.00     0.198 A 
ATOM     71  C   UNL     1       5.788   1.683   3.249  1.00  0.00     0.198 A 
ATOM     72  F   UNL     1       4.838   2.054   1.129  1.00  0.00    -0.203 F 
ATOM     73  F   UNL     1       8.746   3.060   4.804  1.00  0.00    -0.200 F 
ATOM     74  C   UNL     1       6.753   1.953   4.208  1.00  0.00     0.200 A 
ATOM     75  F   UNL     1       4.747   0.901   3.571  1.00  0.00    -0.200 F 
ATOM     76  F   UNL     1       6.635   1.464   5.452  1.00  0.00    -0.200 F 
ENDBRANCH  42  66
BRANCH  54  77
ATOM     77  C   UNL     1       9.605   7.453  -1.829  1.00  0.00     0.064 A 
ATOM     78  C   UNL     1       9.547   6.240  -2.539  1.00  0.00     0.173 A 
ATOM     79  C   UNL     1      10.753   8.238  -1.993  1.00  0.00     0.173 A 
ATOM     80  F   UNL     1       8.465   5.454  -2.489  1.00  0.00    -0.203 F 
ATOM     81  C   UNL     1      10.605   5.828  -3.350  1.00  0.00     0.198 A 
ATOM     82  C   UNL     1      11.788   7.844  -2.835  1.00  0.00     0.198 A 
ATOM     83  F   UNL     1      10.860   9.413  -1.353  1.00  0.00    -0.203 F 
ATOM     84  F   UNL     1      10.538   4.656  -4.001  1.00  0.00    -0.200 F 
ATOM     85  C   UNL     1      11.719   6.636  -3.506  1.00  0.00     0.200 A 
ATOM     86  F   UNL     1      12.847   8.648  -3.006  1.00  0.00    -0.200 F 
ATOM     87  F   UNL     1      12.718   6.260  -4.317  1.00  0.00    -0.200 F 
ENDBRANCH  54  77
ENDBRANCH  28  29
ENDBRANCH  21  23
ENDBRANCH  20  21
ENDBRANCH   1  20
TORSDOF 13
