REMARK SMILES C[C@@H]1CC[C@H]([N@@H+]2[C@@H](C(=O)OCCOC(=O)c3ccc(-c4c5nc(c(-c6c(F)c(F)c(F)c(F)c6F)c6ccc([nH]6)c(-c6c(F)c(F)c(F)c(F)c6F)c6nc(c(-c7c(F)c(F)c(F)c(F)c7F)c7ccc4[nH]7)C=C6)C=C5)cc3)C[C@H]3CCCC[C@H]32)C1
REMARK SMILES IDX 12 1 11 2 10 3 8 4 9 5 7 6 6 7 85 8 79 10 80 11 84 12 81 13
REMARK SMILES IDX 83 14 82 15 5 16 1 17 2 18 3 19 86 20 4 21 13 22 14 23 15 24
REMARK SMILES IDX 16 25 17 26 78 27 18 28 77 29 19 30 20 31 21 32 71 33 22 34
REMARK SMILES IDX 76 35 70 36 72 37 23 38 75 39 69 40 68 41 24 43 56 44 36 45
REMARK SMILES IDX 55 46 37 47 40 48 54 49 73 50 38 51 39 52 53 54 74 55 41 56
REMARK SMILES IDX 25 57 26 58 34 59 27 60 28 61 32 62 35 63 29 64 30 65 33 66
REMARK SMILES IDX 31 67 57 68 58 69 66 70 59 71 60 72 64 73 67 74 61 75 62 76
REMARK SMILES IDX 65 77 63 78 42 79 43 80 51 81 44 82 45 83 49 84 52 85 46 86
REMARK SMILES IDX 47 87 50 88 48 89
REMARK H PARENT 6 9 72 42 40 53
REMARK Flexibility Score: inf
ROOT
ATOM      1  C   UNL     1      -5.404   3.526  -3.664  1.00  0.00     0.275 C 
ENDROOT
BRANCH   1   2
ATOM      2  C   UNL     1      -4.478   2.867  -4.686  1.00  0.00     0.274 C 
BRANCH   2   3
ATOM      3  O   UNL     1      -3.830   1.701  -4.136  1.00  0.00    -0.458 OA
BRANCH   3   4
ATOM      4  C   UNL     1      -2.574   1.919  -3.640  1.00  0.00     0.365 C 
ATOM      5  O   UNL     1      -2.016   3.009  -3.668  1.00  0.00    -0.245 OA
BRANCH   4   6
ATOM      6  C   UNL     1      -1.980   0.611  -3.067  1.00  0.00     0.296 C 
ATOM      7  N   UNL     1      -0.817   0.903  -2.171  1.00  0.00    -0.318 N 
ATOM      8  C   UNL     1       0.402   0.561  -2.919  1.00  0.00     0.188 C 
ATOM      9  H   UNL     1      -0.776   1.897  -1.943  1.00  0.00     0.349 HD
ATOM     10  C   UNL     1      -1.439  -0.248  -4.219  1.00  0.00     0.087 C 
ATOM     11  C   UNL     1      -0.010  -0.598  -3.820  1.00  0.00     0.054 C 
ATOM     12  C   UNL     1       0.920   1.780  -3.704  1.00  0.00     0.065 C 
ATOM     13  C   UNL     1       0.957  -0.890  -4.964  1.00  0.00     0.010 C 
ATOM     14  C   UNL     1       2.005   1.384  -4.698  1.00  0.00     0.006 C 
ATOM     15  C   UNL     1       1.466   0.352  -5.683  1.00  0.00     0.001 C 
BRANCH   7  16
ATOM     16  C   UNL     1      -0.941   0.360  -0.804  1.00  0.00     0.185 C 
ATOM     17  C   UNL     1       2.061  -0.965  -0.108  1.00  0.00     0.008 C 
ATOM     18  C   UNL     1       0.840  -0.510   0.686  1.00  0.00    -0.008 C 
ATOM     19  C   UNL     1      -0.303  -1.519   0.641  1.00  0.00     0.009 C 
ATOM     20  C   UNL     1       0.203   0.773   0.150  1.00  0.00     0.068 C 
ATOM     21  C   UNL     1      -1.123  -1.153  -0.595  1.00  0.00     0.065 C 
ENDBRANCH   7  16
ENDBRANCH   4   6
ENDBRANCH   3   4
ENDBRANCH   2   3
ENDBRANCH   1   2
BRANCH   1  22
ATOM     22  O   UNL     1      -4.655   3.999  -2.529  1.00  0.00    -0.458 OA
BRANCH  22  23
ATOM     23  C   UNL     1      -4.870   3.351  -1.366  1.00  0.00     0.338 C 
ATOM     24  O   UNL     1      -5.672   2.451  -1.146  1.00  0.00    -0.246 OA
BRANCH  23  25
ATOM     25  C   UNL     1      -3.952   3.858  -0.339  1.00  0.00     0.060 A 
ATOM     26  C   UNL     1      -2.600   3.549  -0.433  1.00  0.00     0.016 A 
ATOM     27  C   UNL     1      -4.437   4.529   0.784  1.00  0.00     0.016 A 
ATOM     28  C   UNL     1      -1.737   3.846   0.614  1.00  0.00     0.010 A 
ATOM     29  C   UNL     1      -3.550   4.898   1.805  1.00  0.00     0.010 A 
ATOM     30  C   UNL     1      -2.193   4.535   1.742  1.00  0.00    -0.014 A 
BRANCH  30  31
ATOM     31  C   UNL     1      -1.246   4.838   2.849  1.00  0.00     0.031 A 
ATOM     32  C   UNL     1      -1.491   4.304   4.232  1.00  0.00     0.074 A 
ATOM     33  C   UNL     1      -0.134   5.561   2.608  1.00  0.00     0.049 A 
ATOM     34  N   UNL     1      -0.876   4.591   5.352  1.00  0.00    -0.248 NA
ATOM     35  C   UNL     1      -2.575   3.321   4.378  1.00  0.00     0.031 C 
ATOM     36  C   UNL     1       0.265   6.089   1.303  1.00  0.00     0.029 A 
ATOM     37  N   UNL     1       0.873   5.965   3.450  1.00  0.00    -0.354 N 
ATOM     38  C   UNL     1      -1.539   3.878   6.342  1.00  0.00     0.074 A 
ATOM     39  C   UNL     1      -2.594   3.132   5.690  1.00  0.00     0.031 C 
ATOM     40  C   UNL     1       1.447   6.710   1.421  1.00  0.00     0.029 A 
ATOM     41  C   UNL     1       1.841   6.711   2.825  1.00  0.00     0.049 A 
ATOM     42  H   UNL     1       0.899   5.741   4.408  1.00  0.00     0.167 HD
ATOM     43  C   UNL     1      -1.292   3.861   7.675  1.00  0.00     0.037 A 
ATOM     44  C   UNL     1       2.901   7.373   3.326  1.00  0.00     0.037 A 
ATOM     45  C   UNL     1      -0.200   4.552   8.310  1.00  0.00     0.049 A 
ATOM     46  C   UNL     1       3.138   7.365   4.807  1.00  0.00     0.074 A 
ATOM     47  C   UNL     1       0.159   4.557   9.647  1.00  0.00     0.029 A 
ATOM     48  N   UNL     1       0.718   5.353   7.647  1.00  0.00    -0.354 N 
ATOM     49  N   UNL     1       2.465   6.747   5.746  1.00  0.00    -0.248 NA
ATOM     50  C   UNL     1       4.259   8.175   5.302  1.00  0.00     0.031 C 
ATOM     51  C   UNL     1       1.272   5.392   9.799  1.00  0.00     0.029 A 
ATOM     52  C   UNL     1       1.627   5.880   8.551  1.00  0.00     0.049 A 
ATOM     53  H   UNL     1       0.724   5.522   6.677  1.00  0.00     0.167 HD
ATOM     54  C   UNL     1       3.063   7.108   6.944  1.00  0.00     0.074 A 
ATOM     55  C   UNL     1       4.179   7.970   6.610  1.00  0.00     0.031 C 
ATOM     56  C   UNL     1       2.709   6.766   8.206  1.00  0.00     0.037 A 
BRANCH  43  57
ATOM     57  C   UNL     1      -2.256   3.110   8.544  1.00  0.00     0.064 A 
ATOM     58  C   UNL     1      -2.281   1.710   8.600  1.00  0.00     0.173 A 
ATOM     59  C   UNL     1      -3.160   3.817   9.354  1.00  0.00     0.173 A 
ATOM     60  F   UNL     1      -1.447   0.989   7.835  1.00  0.00    -0.203 F 
ATOM     61  C   UNL     1      -3.194   1.043   9.414  1.00  0.00     0.198 A 
ATOM     62  C   UNL     1      -4.055   3.148  10.184  1.00  0.00     0.198 A 
ATOM     63  F   UNL     1      -3.174   5.158   9.340  1.00  0.00    -0.203 F 
ATOM     64  F   UNL     1      -3.232  -0.297   9.419  1.00  0.00    -0.200 F 
ATOM     65  C   UNL     1      -4.077   1.762  10.208  1.00  0.00     0.200 A 
ATOM     66  F   UNL     1      -4.901   3.844  10.956  1.00  0.00    -0.200 F 
ATOM     67  F   UNL     1      -4.954   1.118  10.990  1.00  0.00    -0.200 F 
ENDBRANCH  43  57
BRANCH  44  68
ATOM     68  C   UNL     1       3.763   8.158   2.408  1.00  0.00     0.064 A 
ATOM     69  C   UNL     1       5.059   7.734   2.092  1.00  0.00     0.173 A 
ATOM     70  C   UNL     1       3.281   9.319   1.782  1.00  0.00     0.173 A 
ATOM     71  F   UNL     1       5.571   6.646   2.686  1.00  0.00    -0.203 F 
ATOM     72  C   UNL     1       5.839   8.436   1.175  1.00  0.00     0.198 A 
ATOM     73  C   UNL     1       4.051  10.004   0.846  1.00  0.00     0.198 A 
ATOM     74  F   UNL     1       2.046   9.765   2.056  1.00  0.00    -0.203 F 
ATOM     75  F   UNL     1       7.083   8.023   0.902  1.00  0.00    -0.200 F 
ATOM     76  C   UNL     1       5.329   9.562   0.544  1.00  0.00     0.200 A 
ATOM     77  F   UNL     1       3.548  11.081   0.228  1.00  0.00    -0.200 F 
ATOM     78  F   UNL     1       6.071  10.222  -0.356  1.00  0.00    -0.200 F 
ENDBRANCH  44  68
BRANCH  56  79
ATOM     79  C   UNL     1       3.520   7.354   9.320  1.00  0.00     0.064 A 
ATOM     80  C   UNL     1       3.360   8.695   9.700  1.00  0.00     0.173 A 
ATOM     81  C   UNL     1       4.442   6.573  10.030  1.00  0.00     0.173 A 
ATOM     82  F   UNL     1       2.503   9.486   9.037  1.00  0.00    -0.203 F 
ATOM     83  C   UNL     1       4.107   9.237  10.741  1.00  0.00     0.198 A 
ATOM     84  C   UNL     1       5.172   7.112  11.085  1.00  0.00     0.198 A 
ATOM     85  F   UNL     1       4.629   5.285   9.704  1.00  0.00    -0.203 F 
ATOM     86  F   UNL     1       3.965  10.530  11.064  1.00  0.00    -0.200 F 
ATOM     87  C   UNL     1       5.008   8.444  11.436  1.00  0.00     0.200 A 
ATOM     88  F   UNL     1       6.039   6.344  11.760  1.00  0.00    -0.200 F 
ATOM     89  F   UNL     1       5.726   8.966  12.441  1.00  0.00    -0.200 F 
ENDBRANCH  56  79
ENDBRANCH  30  31
ENDBRANCH  23  25
ENDBRANCH  22  23
ENDBRANCH   1  22
TORSDOF 12
