REMARK SMILES O=C(CC1CCN(C(=O)[C@@H]2Cc3[nH]cnc3C[NH2+]2)CC1)OCCOC(=O)c1ccc(-c2c3nc(c(-c4c(F)c(F)c(F)c(F)c4F)c4ccc([nH]4)c(-c4c(F)c(F)c(F)c(F)c4F)c4nc(c(-c5c(F)c(F)c(F)c(F)c5F)c5ccc2[nH]5)C=C4)C=C3)cc1
REMARK SMILES IDX 22 1 21 2 2 3 1 4 3 5 4 6 5 7 20 8 6 9 19 10 7 11 8 12 9 13
REMARK SMILES IDX 10 14 11 15 18 16 12 17 17 18 13 21 16 22 14 23 15 25 23 26
REMARK SMILES IDX 24 27 25 28 26 29 27 30 28 31 89 32 29 33 88 34 30 35 31 36
REMARK SMILES IDX 32 37 82 38 33 39 87 40 81 41 83 42 34 43 86 44 80 45 79 46
REMARK SMILES IDX 35 48 67 49 47 50 66 51 48 52 51 53 65 54 84 55 49 56 50 57
REMARK SMILES IDX 64 59 85 60 52 61 36 62 37 63 45 64 38 65 39 66 43 67 46 68
REMARK SMILES IDX 40 69 41 70 44 71 42 72 68 73 69 74 77 75 70 76 71 77 75 78
REMARK SMILES IDX 78 79 72 80 73 81 76 82 74 83 53 84 54 85 62 86 55 87 56 88
REMARK SMILES IDX 60 89 63 90 57 91 58 92 61 93 59 94
REMARK H PARENT 18 19 18 20 13 24 83 47 51 58
REMARK Flexibility Score: inf
ROOT
ATOM      1  C   UNL     1      12.199  -2.701  -7.300  1.00  0.00     0.274 C 
ENDROOT
BRANCH   1   2
ATOM      2  O   UNL     1      13.405  -2.012  -7.668  1.00  0.00    -0.462 OA
BRANCH   2   3
ATOM      3  C   UNL     1      13.573  -0.691  -7.889  1.00  0.00     0.306 C 
ATOM      4  O   UNL     1      14.514  -0.328  -8.596  1.00  0.00    -0.252 OA
BRANCH   3   5
ATOM      5  C   UNL     1      12.733   0.365  -7.176  1.00  0.00     0.126 C 
BRANCH   5   6
ATOM      6  C   UNL     1      11.319   0.686  -7.709  1.00  0.00     0.003 C 
ATOM      7  C   UNL     1      11.028   2.220  -7.810  1.00  0.00     0.026 C 
ATOM      8  C   UNL     1      10.203   0.090  -6.841  1.00  0.00     0.026 C 
ATOM      9  C   UNL     1      10.596   2.932  -6.498  1.00  0.00     0.120 C 
ATOM     10  C   UNL     1      10.143   0.791  -5.503  1.00  0.00     0.120 C 
ATOM     11  N   UNL     1       9.672   2.124  -5.688  1.00  0.00    -0.338 N 
ATOM     12  C   UNL     1       8.523   2.640  -5.110  1.00  0.00     0.281 C 
ATOM     13  O   UNL     1       8.267   3.845  -5.234  1.00  0.00    -0.268 OA
BRANCH  12  14
ATOM     14  C   UNL     1       7.506   1.746  -4.287  1.00  0.00     0.279 C 
ATOM     15  C   UNL     1       7.948   1.338  -2.845  1.00  0.00     0.131 C 
ATOM     16  N   UNL     1       6.801   0.727  -5.112  1.00  0.00    -0.331 N 
ATOM     17  C   UNL     1       8.095  -0.136  -2.732  1.00  0.00     0.050 A 
ATOM     18  C   UNL     1       7.189  -0.689  -5.035  1.00  0.00     0.320 C 
ATOM     19  H   UNL     1       6.915   1.009  -6.086  1.00  0.00     0.347 HD
ATOM     20  H   UNL     1       5.857   0.730  -4.726  1.00  0.00     0.347 HD
ATOM     21  N   UNL     1       8.568  -0.889  -1.693  1.00  0.00    -0.348 N 
ATOM     22  C   UNL     1       7.805  -1.039  -3.725  1.00  0.00     0.116 A 
ATOM     23  C   UNL     1       8.851  -2.126  -2.214  1.00  0.00     0.197 A 
ATOM     24  H   UNL     1       8.682  -0.601  -0.758  1.00  0.00     0.167 HD
ATOM     25  N   UNL     1       8.371  -2.256  -3.433  1.00  0.00    -0.236 NA
ENDBRANCH  12  14
ENDBRANCH   5   6
ENDBRANCH   3   5
ENDBRANCH   2   3
ENDBRANCH   1   2
BRANCH   1  26
ATOM     26  C   UNL     1      12.144  -3.031  -5.816  1.00  0.00     0.275 C 
BRANCH  26  27
ATOM     27  O   UNL     1      12.290  -1.864  -5.016  1.00  0.00    -0.458 OA
BRANCH  27  28
ATOM     28  C   UNL     1      13.487  -1.665  -4.399  1.00  0.00     0.338 C 
ATOM     29  O   UNL     1      14.545  -2.182  -4.658  1.00  0.00    -0.246 OA
BRANCH  28  30
ATOM     30  C   UNL     1      13.227  -0.778  -3.240  1.00  0.00     0.060 A 
ATOM     31  C   UNL     1      14.260  -0.365  -2.393  1.00  0.00     0.016 A 
ATOM     32  C   UNL     1      11.905  -0.479  -2.917  1.00  0.00     0.016 A 
ATOM     33  C   UNL     1      13.941   0.187  -1.151  1.00  0.00     0.010 A 
ATOM     34  C   UNL     1      11.605   0.131  -1.733  1.00  0.00     0.010 A 
ATOM     35  C   UNL     1      12.599   0.341  -0.802  1.00  0.00    -0.014 A 
BRANCH  35  36
ATOM     36  C   UNL     1      12.139   0.767   0.505  1.00  0.00     0.031 A 
ATOM     37  C   UNL     1      12.002   2.233   0.646  1.00  0.00     0.074 A 
ATOM     38  C   UNL     1      11.598  -0.078   1.410  1.00  0.00     0.049 A 
ATOM     39  N   UNL     1      12.802   3.016   1.284  1.00  0.00    -0.248 NA
ATOM     40  C   UNL     1      10.961   2.937  -0.120  1.00  0.00     0.031 C 
ATOM     41  C   UNL     1      11.278  -1.503   1.272  1.00  0.00     0.029 A 
ATOM     42  N   UNL     1      11.154   0.207   2.667  1.00  0.00    -0.354 N 
ATOM     43  C   UNL     1      12.251   4.285   1.174  1.00  0.00     0.074 A 
ATOM     44  C   UNL     1      11.271   4.211   0.125  1.00  0.00     0.031 C 
ATOM     45  C   UNL     1      10.550  -1.913   2.341  1.00  0.00     0.029 A 
ATOM     46  C   UNL     1      10.469  -0.825   3.303  1.00  0.00     0.049 A 
ATOM     47  H   UNL     1      11.306   1.081   3.095  1.00  0.00     0.167 HD
ATOM     48  C   UNL     1      12.451   5.212   2.149  1.00  0.00     0.037 A 
ATOM     49  C   UNL     1       9.879  -0.767   4.527  1.00  0.00     0.037 A 
ATOM     50  C   UNL     1      13.524   4.806   3.026  1.00  0.00     0.049 A 
ATOM     51  C   UNL     1      10.487   0.376   5.255  1.00  0.00     0.074 A 
ATOM     52  C   UNL     1      14.857   4.492   2.840  1.00  0.00     0.029 A 
ATOM     53  N   UNL     1      13.184   4.265   4.243  1.00  0.00    -0.354 N 
ATOM     54  N   UNL     1      11.726   0.402   5.659  1.00  0.00    -0.248 NA
ATOM     55  C   UNL     1       9.843   1.675   5.128  1.00  0.00     0.031 C 
ATOM     56  C   UNL     1      15.098   3.378   3.700  1.00  0.00     0.029 A 
ATOM     57  C   UNL     1      13.928   3.127   4.418  1.00  0.00     0.049 A 
ATOM     58  H   UNL     1      12.523   4.630   4.876  1.00  0.00     0.167 HD
ATOM     59  C   UNL     1      12.149   1.697   5.407  1.00  0.00     0.074 A 
ATOM     60  C   UNL     1      10.925   2.458   5.164  1.00  0.00     0.031 C 
ATOM     61  C   UNL     1      13.459   1.963   5.133  1.00  0.00     0.037 A 
BRANCH  48  62
ATOM     62  C   UNL     1      11.451   6.271   2.540  1.00  0.00     0.064 A 
ATOM     63  C   UNL     1      11.844   7.263   3.458  1.00  0.00     0.173 A 
ATOM     64  C   UNL     1      10.064   6.195   2.284  1.00  0.00     0.173 A 
ATOM     65  F   UNL     1      13.135   7.409   3.794  1.00  0.00    -0.203 F 
ATOM     66  C   UNL     1      10.913   8.061   4.127  1.00  0.00     0.198 A 
ATOM     67  C   UNL     1       9.143   7.035   2.908  1.00  0.00     0.198 A 
ATOM     68  F   UNL     1       9.525   5.238   1.521  1.00  0.00    -0.203 F 
ATOM     69  F   UNL     1      11.325   8.894   5.091  1.00  0.00    -0.200 F 
ATOM     70  C   UNL     1       9.563   7.944   3.854  1.00  0.00     0.200 A 
ATOM     71  F   UNL     1       7.837   6.888   2.646  1.00  0.00    -0.200 F 
ATOM     72  F   UNL     1       8.664   8.662   4.538  1.00  0.00    -0.200 F 
ENDBRANCH  48  62
BRANCH  49  73
ATOM     73  C   UNL     1       8.650  -1.432   5.029  1.00  0.00     0.064 A 
ATOM     74  C   UNL     1       8.356  -1.485   6.405  1.00  0.00     0.173 A 
ATOM     75  C   UNL     1       7.593  -1.743   4.155  1.00  0.00     0.173 A 
ATOM     76  F   UNL     1       9.292  -1.159   7.308  1.00  0.00    -0.203 F 
ATOM     77  C   UNL     1       7.073  -1.794   6.874  1.00  0.00     0.198 A 
ATOM     78  C   UNL     1       6.314  -2.054   4.624  1.00  0.00     0.198 A 
ATOM     79  F   UNL     1       7.755  -1.646   2.827  1.00  0.00    -0.203 F 
ATOM     80  F   UNL     1       6.815  -1.765   8.189  1.00  0.00    -0.200 F 
ATOM     81  C   UNL     1       6.050  -2.065   5.982  1.00  0.00     0.200 A 
ATOM     82  F   UNL     1       5.322  -2.272   3.749  1.00  0.00    -0.200 F 
ATOM     83  F   UNL     1       4.804  -2.289   6.425  1.00  0.00    -0.200 F 
ENDBRANCH  49  73
BRANCH  61  84
ATOM     84  C   UNL     1      14.465   0.875   5.399  1.00  0.00     0.064 A 
ATOM     85  C   UNL     1      14.476  -0.374   4.753  1.00  0.00     0.173 A 
ATOM     86  C   UNL     1      15.540   1.166   6.250  1.00  0.00     0.173 A 
ATOM     87  F   UNL     1      13.540  -0.696   3.851  1.00  0.00    -0.203 F 
ATOM     88  C   UNL     1      15.493  -1.300   4.984  1.00  0.00     0.198 A 
ATOM     89  C   UNL     1      16.574   0.256   6.449  1.00  0.00     0.198 A 
ATOM     90  F   UNL     1      15.610   2.361   6.856  1.00  0.00    -0.203 F 
ATOM     91  F   UNL     1      15.472  -2.491   4.365  1.00  0.00    -0.200 F 
ATOM     92  C   UNL     1      16.545  -0.981   5.826  1.00  0.00     0.200 A 
ATOM     93  F   UNL     1      17.613   0.590   7.226  1.00  0.00    -0.200 F 
ATOM     94  F   UNL     1      17.544  -1.854   6.017  1.00  0.00    -0.200 F 
ENDBRANCH  61  84
ENDBRANCH  35  36
ENDBRANCH  28  30
ENDBRANCH  27  28
ENDBRANCH  26  27
ENDBRANCH   1  26
TORSDOF 13
