REMARK SMILES Cc1cc(C[N@H+]2CC[C@@H](C(=O)OCCOC(=O)c3ccc(-c4c5nc(c(-c6c(F)c(F)c(F)c(F)c6F)c6ccc([nH]6)c(-c6c(F)c(F)c(F)c(F)c6F)c6nc(c(-c7c(F)c(F)c(F)c(F)c7F)c7ccc4[nH]7)C=C6)C=C5)cc3)[C@@H]2C)ccc1Br
REMARK SMILES IDX 13 1 12 2 10 3 11 4 9 5 6 6 7 7 81 8 8 10 82 11 5 12 4 13
REMARK SMILES IDX 1 14 2 15 3 16 85 17 84 18 86 19 83 20 14 21 15 22 16 23
REMARK SMILES IDX 17 24 18 25 19 26 80 27 20 28 79 29 21 30 22 31 23 32 73 33
REMARK SMILES IDX 24 34 78 35 72 36 74 37 25 38 77 39 71 40 70 41 26 43 58 44
REMARK SMILES IDX 38 45 57 46 39 47 42 48 56 49 75 50 40 51 41 52 55 54 76 55
REMARK SMILES IDX 43 56 27 57 28 58 36 59 29 60 30 61 34 62 37 63 31 64 32 65
REMARK SMILES IDX 35 66 33 67 59 68 60 69 68 70 61 71 62 72 66 73 69 74 63 75
REMARK SMILES IDX 64 76 67 77 65 78 44 79 45 80 53 81 46 82 47 83 51 84 54 85
REMARK SMILES IDX 48 86 49 87 52 88 50 89
REMARK H PARENT 6 9 74 42 42 53
REMARK Flexibility Score: inf
ROOT
ATOM      1  C   UNL     1       0.158   3.002  -1.215  1.00  0.00     0.274 C 
ENDROOT
BRANCH   1   2
ATOM      2  O   UNL     1       1.482   2.447  -1.365  1.00  0.00    -0.462 OA
BRANCH   2   3
ATOM      3  C   UNL     1       2.031   2.448  -2.600  1.00  0.00     0.315 C 
ATOM      4  O   UNL     1       1.449   2.815  -3.616  1.00  0.00    -0.252 OA
BRANCH   3   5
ATOM      5  C   UNL     1       3.452   1.915  -2.644  1.00  0.00     0.162 C 
ATOM      6  N   UNL     1       4.952   0.787  -1.128  1.00  0.00    -0.328 N 
ATOM      7  C   UNL     1       4.735  -0.057  -2.299  1.00  0.00     0.263 C 
ATOM      8  C   UNL     1       4.323   2.096  -1.388  1.00  0.00     0.195 C 
ATOM      9  H   UNL     1       5.955   0.921  -1.007  1.00  0.00     0.348 HD
ATOM     10  C   UNL     1       3.443   0.423  -2.923  1.00  0.00     0.083 C 
ATOM     11  C   UNL     1       5.461   3.101  -1.615  1.00  0.00     0.076 C 
BRANCH   6  12
ATOM     12  C   UNL     1       4.624   0.175   0.166  1.00  0.00     0.299 C 
BRANCH  12  13
ATOM     13  C   UNL     1       3.159  -0.051   0.483  1.00  0.00     0.007 A 
ATOM     14  C   UNL     1       0.476  -2.681  -0.159  1.00  0.00     0.045 C 
ATOM     15  C   UNL     1       1.127  -1.412   0.313  1.00  0.00    -0.036 A 
ATOM     16  C   UNL     1       2.502  -1.225   0.084  1.00  0.00     0.014 A 
ATOM     17  C   UNL     1       0.406  -0.383   0.937  1.00  0.00     0.020 A 
ATOM     18  C   UNL     1       1.059   0.763   1.392  1.00  0.00     0.016 A 
ATOM     19  Br  UNL     1      -1.478  -0.460   1.163  1.00  0.00    -0.051 Br
ATOM     20  C   UNL     1       2.427   0.921   1.176  1.00  0.00     0.011 A 
ENDBRANCH  12  13
ENDBRANCH   6  12
ENDBRANCH   3   5
ENDBRANCH   2   3
ENDBRANCH   1   2
BRANCH   1  21
ATOM     21  C   UNL     1       0.221   4.300  -0.407  1.00  0.00     0.275 C 
BRANCH  21  22
ATOM     22  O   UNL     1       0.758   5.354  -1.222  1.00  0.00    -0.458 OA
BRANCH  22  23
ATOM     23  C   UNL     1       2.105   5.459  -1.217  1.00  0.00     0.338 C 
ATOM     24  O   UNL     1       2.901   4.888  -0.493  1.00  0.00    -0.246 OA
BRANCH  23  25
ATOM     25  C   UNL     1       2.487   6.262  -2.381  1.00  0.00     0.060 A 
ATOM     26  C   UNL     1       3.196   5.648  -3.419  1.00  0.00     0.016 A 
ATOM     27  C   UNL     1       2.137   7.607  -2.451  1.00  0.00     0.016 A 
ATOM     28  C   UNL     1       3.559   6.370  -4.545  1.00  0.00     0.010 A 
ATOM     29  C   UNL     1       2.493   8.333  -3.582  1.00  0.00     0.010 A 
ATOM     30  C   UNL     1       3.207   7.717  -4.628  1.00  0.00    -0.014 A 
BRANCH  30  31
ATOM     31  C   UNL     1       3.637   8.535  -5.775  1.00  0.00     0.031 A 
ATOM     32  C   UNL     1       4.702   9.559  -5.556  1.00  0.00     0.074 A 
ATOM     33  C   UNL     1       3.020   8.401  -6.960  1.00  0.00     0.049 A 
ATOM     34  N   UNL     1       5.059  10.560  -6.313  1.00  0.00    -0.248 NA
ATOM     35  C   UNL     1       5.452   9.451  -4.294  1.00  0.00     0.031 C 
ATOM     36  C   UNL     1       2.014   7.388  -7.280  1.00  0.00     0.029 A 
ATOM     37  N   UNL     1       3.122   9.150  -8.103  1.00  0.00    -0.354 N 
ATOM     38  C   UNL     1       6.043  11.229  -5.601  1.00  0.00     0.074 A 
ATOM     39  C   UNL     1       6.221  10.528  -4.348  1.00  0.00     0.031 C 
ATOM     40  C   UNL     1       1.564   7.601  -8.527  1.00  0.00     0.029 A 
ATOM     41  C   UNL     1       2.204   8.799  -9.061  1.00  0.00     0.049 A 
ATOM     42  H   UNL     1       3.786   9.867  -8.224  1.00  0.00     0.167 HD
ATOM     43  C   UNL     1       6.724  12.338  -5.971  1.00  0.00     0.037 A 
ATOM     44  C   UNL     1       1.882   9.418 -10.212  1.00  0.00     0.037 A 
ATOM     45  C   UNL     1       6.523  13.006  -7.229  1.00  0.00     0.049 A 
ATOM     46  C   UNL     1       2.608  10.685 -10.576  1.00  0.00     0.074 A 
ATOM     47  C   UNL     1       7.166  14.123  -7.727  1.00  0.00     0.029 A 
ATOM     48  N   UNL     1       5.595  12.614  -8.187  1.00  0.00    -0.354 N 
ATOM     49  N   UNL     1       3.537  11.327  -9.907  1.00  0.00    -0.248 NA
ATOM     50  C   UNL     1       2.241  11.319 -11.848  1.00  0.00     0.031 C 
ATOM     51  C   UNL     1       6.585  14.444  -8.957  1.00  0.00     0.029 A 
ATOM     52  C   UNL     1       5.632  13.484  -9.262  1.00  0.00     0.049 A 
ATOM     53  H   UNL     1       5.001  11.833  -8.111  1.00  0.00     0.167 HD
ATOM     54  C   UNL     1       3.894  12.415 -10.691  1.00  0.00     0.074 A 
ATOM     55  C   UNL     1       3.077  12.349 -11.886  1.00  0.00     0.031 C 
ATOM     56  C   UNL     1       4.819  13.377 -10.450  1.00  0.00     0.037 A 
BRANCH  43  57
ATOM     57  C   UNL     1       7.696  12.917  -4.984  1.00  0.00     0.064 A 
ATOM     58  C   UNL     1       8.881  12.256  -4.628  1.00  0.00     0.173 A 
ATOM     59  C   UNL     1       7.435  14.159  -4.386  1.00  0.00     0.173 A 
ATOM     60  F   UNL     1       9.172  11.057  -5.157  1.00  0.00    -0.203 F 
ATOM     61  C   UNL     1       9.749  12.799  -3.683  1.00  0.00     0.198 A 
ATOM     62  C   UNL     1       8.322  14.716  -3.469  1.00  0.00     0.198 A 
ATOM     63  F   UNL     1       6.317  14.835  -4.689  1.00  0.00    -0.203 F 
ATOM     64  F   UNL     1      10.843  12.119  -3.312  1.00  0.00    -0.200 F 
ATOM     65  C   UNL     1       9.472  14.031  -3.110  1.00  0.00     0.200 A 
ATOM     66  F   UNL     1       8.058  15.912  -2.925  1.00  0.00    -0.200 F 
ATOM     67  F   UNL     1      10.309  14.553  -2.203  1.00  0.00    -0.200 F 
ENDBRANCH  43  57
BRANCH  44  68
ATOM     68  C   UNL     1       0.812   8.857 -11.077  1.00  0.00     0.064 A 
ATOM     69  C   UNL     1       1.115   8.297 -12.325  1.00  0.00     0.173 A 
ATOM     70  C   UNL     1      -0.531   8.847 -10.667  1.00  0.00     0.173 A 
ATOM     71  F   UNL     1       2.380   8.300 -12.770  1.00  0.00    -0.203 F 
ATOM     72  C   UNL     1       0.117   7.760 -13.135  1.00  0.00     0.198 A 
ATOM     73  C   UNL     1      -1.524   8.283 -11.465  1.00  0.00     0.198 A 
ATOM     74  F   UNL     1      -0.875   9.367  -9.480  1.00  0.00    -0.203 F 
ATOM     75  F   UNL     1       0.430   7.266 -14.341  1.00  0.00    -0.200 F 
ATOM     76  C   UNL     1      -1.200   7.745 -12.701  1.00  0.00     0.200 A 
ATOM     77  F   UNL     1      -2.793   8.256 -11.034  1.00  0.00    -0.200 F 
ATOM     78  F   UNL     1      -2.158   7.219 -13.477  1.00  0.00    -0.200 F 
ENDBRANCH  44  68
BRANCH  56  79
ATOM     79  C   UNL     1       5.051  14.399 -11.523  1.00  0.00     0.064 A 
ATOM     80  C   UNL     1       4.129  15.420 -11.787  1.00  0.00     0.173 A 
ATOM     81  C   UNL     1       6.261  14.400 -12.236  1.00  0.00     0.173 A 
ATOM     82  F   UNL     1       2.953  15.453 -11.143  1.00  0.00    -0.203 F 
ATOM     83  C   UNL     1       4.407  16.402 -12.735  1.00  0.00     0.198 A 
ATOM     84  C   UNL     1       6.548  15.401 -13.157  1.00  0.00     0.198 A 
ATOM     85  F   UNL     1       7.178  13.447 -12.012  1.00  0.00    -0.203 F 
ATOM     86  F   UNL     1       3.499  17.352 -12.997  1.00  0.00    -0.200 F 
ATOM     87  C   UNL     1       5.620  16.399 -13.408  1.00  0.00     0.200 A 
ATOM     88  F   UNL     1       7.728  15.407 -13.792  1.00  0.00    -0.200 F 
ATOM     89  F   UNL     1       5.894  17.360 -14.302  1.00  0.00    -0.200 F 
ENDBRANCH  56  79
ENDBRANCH  30  31
ENDBRANCH  23  25
ENDBRANCH  22  23
ENDBRANCH  21  22
ENDBRANCH   1  21
TORSDOF 13
