REMARK SMILES COCc1cc(-n2cnc(C(=O)OCCOC(=O)c3ccc(-c4c5nc(c(-c6c(F)c(F)c(F)c(F)c6F)c6ccc([nH]6)c(-c6c(F)c(F)c(F)c(F)c6F)c6nc(c(-c7c(F)c(F)c(F)c(F)c7F)c7ccc4[nH]7)C=C6)C=C5)cc3)c2)nc(-c2cccnc2)n1
REMARK SMILES IDX 14 1 13 2 11 3 12 4 10 5 7 6 8 7 82 8 9 9 6 10 4 11 5 12
REMARK SMILES IDX 91 13 84 14 83 15 3 16 2 17 1 18 85 19 86 20 90 21 87 22
REMARK SMILES IDX 89 23 88 24 15 25 16 26 17 27 18 28 19 29 20 30 81 31 21 32
REMARK SMILES IDX 80 33 22 34 23 35 24 36 74 37 25 38 79 39 73 40 75 41 26 42
REMARK SMILES IDX 78 43 72 44 71 45 27 47 59 48 39 49 58 50 40 51 43 52 57 53
REMARK SMILES IDX 76 54 41 55 42 56 56 58 77 59 44 60 28 61 29 62 37 63 30 64
REMARK SMILES IDX 31 65 35 66 38 67 32 68 33 69 36 70 34 71 60 72 61 73 69 74
REMARK SMILES IDX 62 75 63 76 67 77 70 78 64 79 65 80 68 81 66 82 45 83 46 84
REMARK SMILES IDX 54 85 47 86 48 87 52 88 55 89 49 90 50 91 53 92 51 93
REMARK H PARENT 75 46 43 57
REMARK Flexibility Score: inf
ROOT
ATOM      1  C   UNL     1       0.535  -8.976  -1.281  1.00  0.00     0.275 C 
ENDROOT
BRANCH   1   2
ATOM      2  O   UNL     1       0.561  -7.967  -0.257  1.00  0.00    -0.457 OA
BRANCH   2   3
ATOM      3  C   UNL     1       1.636  -8.003   0.605  1.00  0.00     0.358 C 
ATOM      4  O   UNL     1       2.414  -8.927   0.694  1.00  0.00    -0.244 OA
BRANCH   3   5
ATOM      5  C   UNL     1       1.787  -6.720   1.304  1.00  0.00     0.166 A 
ATOM      6  N   UNL     1       1.400  -4.689   2.062  1.00  0.00    -0.289 N 
ATOM      7  C   UNL     1       2.738  -4.976   2.140  1.00  0.00     0.206 A 
ATOM      8  C   UNL     1       0.788  -5.805   1.547  1.00  0.00     0.130 A 
ATOM      9  N   UNL     1       3.003  -6.202   1.734  1.00  0.00    -0.229 NA
BRANCH   6  10
ATOM     10  C   UNL     1       0.717  -3.511   2.433  1.00  0.00     0.142 A 
ATOM     11  C   UNL     1       0.496  -1.189   2.590  1.00  0.00     0.072 A 
ATOM     12  C   UNL     1       1.319  -2.276   2.334  1.00  0.00     0.074 A 
ATOM     13  N   UNL     1      -0.782  -1.328   3.018  1.00  0.00    -0.230 NA
ATOM     14  C   UNL     1      -1.248  -2.578   3.146  1.00  0.00     0.163 A 
ATOM     15  N   UNL     1      -0.560  -3.679   2.827  1.00  0.00    -0.210 NA
BRANCH  11  16
ATOM     16  C   UNL     1       0.980   0.218   2.304  1.00  0.00     0.216 C 
BRANCH  16  17
ATOM     17  O   UNL     1       0.453   0.751   1.084  1.00  0.00    -0.378 OA
ATOM     18  C   UNL     1       0.957   0.122  -0.086  1.00  0.00     0.195 C 
ENDBRANCH  16  17
ENDBRANCH  11  16
BRANCH  14  19
ATOM     19  C   UNL     1      -2.552  -2.791   3.748  1.00  0.00     0.038 A 
ATOM     20  C   UNL     1      -2.707  -3.609   4.878  1.00  0.00     0.015 A 
ATOM     21  C   UNL     1      -3.709  -2.234   3.218  1.00  0.00     0.123 A 
ATOM     22  C   UNL     1      -3.970  -3.834   5.417  1.00  0.00     0.021 A 
ATOM     23  N   UNL     1      -4.957  -2.445   3.710  1.00  0.00    -0.264 NA
ATOM     24  C   UNL     1      -5.055  -3.240   4.798  1.00  0.00     0.111 A 
ENDBRANCH  14  19
ENDBRANCH   6  10
ENDBRANCH   3   5
ENDBRANCH   2   3
ENDBRANCH   1   2
BRANCH   1  25
ATOM     25  C   UNL     1       1.325  -8.538  -2.511  1.00  0.00     0.275 C 
BRANCH  25  26
ATOM     26  O   UNL     1       2.726  -8.564  -2.237  1.00  0.00    -0.458 OA
BRANCH  26  27
ATOM     27  C   UNL     1       3.277  -7.396  -1.833  1.00  0.00     0.338 C 
ATOM     28  O   UNL     1       2.691  -6.344  -1.635  1.00  0.00    -0.246 OA
BRANCH  27  29
ATOM     29  C   UNL     1       4.742  -7.538  -1.826  1.00  0.00     0.060 A 
ATOM     30  C   UNL     1       5.494  -6.401  -1.517  1.00  0.00     0.016 A 
ATOM     31  C   UNL     1       5.337  -8.681  -2.381  1.00  0.00     0.016 A 
ATOM     32  C   UNL     1       6.794  -6.322  -1.976  1.00  0.00     0.010 A 
ATOM     33  C   UNL     1       6.629  -8.599  -2.848  1.00  0.00     0.010 A 
ATOM     34  C   UNL     1       7.304  -7.385  -2.726  1.00  0.00    -0.014 A 
BRANCH  34  35
ATOM     35  C   UNL     1       8.516  -7.165  -3.489  1.00  0.00     0.031 A 
ATOM     36  C   UNL     1       9.795  -7.287  -2.755  1.00  0.00     0.074 A 
ATOM     37  C   UNL     1       8.466  -7.015  -4.827  1.00  0.00     0.049 A 
ATOM     38  N   UNL     1      10.749  -6.419  -2.652  1.00  0.00    -0.248 NA
ATOM     39  C   UNL     1      10.020  -8.530  -2.004  1.00  0.00     0.031 C 
ATOM     40  C   UNL     1       7.317  -7.205  -5.719  1.00  0.00     0.029 A 
ATOM     41  N   UNL     1       9.490  -6.775  -5.687  1.00  0.00    -0.354 N 
ATOM     42  C   UNL     1      11.760  -7.053  -1.938  1.00  0.00     0.074 A 
ATOM     43  C   UNL     1      11.222  -8.308  -1.475  1.00  0.00     0.031 C 
ATOM     44  C   UNL     1       7.758  -7.289  -6.994  1.00  0.00     0.029 A 
ATOM     45  C   UNL     1       9.190  -7.038  -7.012  1.00  0.00     0.049 A 
ATOM     46  H   UNL     1      10.369  -6.443  -5.393  1.00  0.00     0.167 HD
ATOM     47  C   UNL     1      13.041  -6.596  -1.926  1.00  0.00     0.037 A 
ATOM     48  C   UNL     1      10.083  -7.138  -8.024  1.00  0.00     0.037 A 
ATOM     49  C   UNL     1      13.139  -5.222  -2.329  1.00  0.00     0.049 A 
ATOM     50  C   UNL     1      11.342  -6.482  -7.585  1.00  0.00     0.074 A 
ATOM     51  C   UNL     1      12.629  -4.034  -1.839  1.00  0.00     0.029 A 
ATOM     52  N   UNL     1      13.585  -4.931  -3.593  1.00  0.00    -0.354 N 
ATOM     53  N   UNL     1      11.476  -5.198  -7.400  1.00  0.00    -0.248 NA
ATOM     54  C   UNL     1      12.348  -7.313  -6.939  1.00  0.00     0.031 C 
ATOM     55  C   UNL     1      12.342  -3.249  -2.995  1.00  0.00     0.029 A 
ATOM     56  C   UNL     1      12.715  -4.003  -4.107  1.00  0.00     0.049 A 
ATOM     57  H   UNL     1      14.373  -5.313  -4.043  1.00  0.00     0.167 HD
ATOM     58  C   UNL     1      12.322  -5.082  -6.307  1.00  0.00     0.074 A 
ATOM     59  C   UNL     1      12.900  -6.409  -6.127  1.00  0.00     0.031 C 
ATOM     60  C   UNL     1      12.264  -3.999  -5.477  1.00  0.00     0.037 A 
BRANCH  47  61
ATOM     61  C   UNL     1      14.232  -7.501  -1.821  1.00  0.00     0.064 A 
ATOM     62  C   UNL     1      15.489  -6.978  -1.470  1.00  0.00     0.173 A 
ATOM     63  C   UNL     1      14.228  -8.824  -2.314  1.00  0.00     0.173 A 
ATOM     64  F   UNL     1      15.603  -5.714  -1.035  1.00  0.00    -0.203 F 
ATOM     65  C   UNL     1      16.662  -7.719  -1.634  1.00  0.00     0.198 A 
ATOM     66  C   UNL     1      15.392  -9.580  -2.423  1.00  0.00     0.198 A 
ATOM     67  F   UNL     1      13.116  -9.388  -2.806  1.00  0.00    -0.203 F 
ATOM     68  F   UNL     1      17.849  -7.149  -1.386  1.00  0.00    -0.200 F 
ATOM     69  C   UNL     1      16.612  -9.020  -2.107  1.00  0.00     0.200 A 
ATOM     70  F   UNL     1      15.326 -10.829  -2.906  1.00  0.00    -0.200 F 
ATOM     71  F   UNL     1      17.740  -9.714  -2.306  1.00  0.00    -0.200 F 
ENDBRANCH  47  61
BRANCH  48  72
ATOM     72  C   UNL     1      10.018  -8.049  -9.190  1.00  0.00     0.064 A 
ATOM     73  C   UNL     1      10.802  -7.824 -10.331  1.00  0.00     0.173 A 
ATOM     74  C   UNL     1       9.374  -9.300  -9.107  1.00  0.00     0.173 A 
ATOM     75  F   UNL     1      11.489  -6.680 -10.462  1.00  0.00    -0.203 F 
ATOM     76  C   UNL     1      10.943  -8.799 -11.324  1.00  0.00     0.198 A 
ATOM     77  C   UNL     1       9.504 -10.266 -10.104  1.00  0.00     0.198 A 
ATOM     78  F   UNL     1       8.680  -9.648  -8.013  1.00  0.00    -0.203 F 
ATOM     79  F   UNL     1      11.746  -8.572 -12.373  1.00  0.00    -0.200 F 
ATOM     80  C   UNL     1      10.299 -10.020 -11.207  1.00  0.00     0.200 A 
ATOM     81  F   UNL     1       8.904 -11.456  -9.958  1.00  0.00    -0.200 F 
ATOM     82  F   UNL     1      10.475 -10.973 -12.132  1.00  0.00    -0.200 F 
ENDBRANCH  48  72
BRANCH  60  83
ATOM     83  C   UNL     1      11.422  -2.835  -5.914  1.00  0.00     0.064 A 
ATOM     84  C   UNL     1      10.026  -2.910  -6.064  1.00  0.00     0.173 A 
ATOM     85  C   UNL     1      12.017  -1.574  -6.043  1.00  0.00     0.173 A 
ATOM     86  F   UNL     1       9.372  -4.056  -5.841  1.00  0.00    -0.203 F 
ATOM     87  C   UNL     1       9.270  -1.786  -6.385  1.00  0.00     0.198 A 
ATOM     88  C   UNL     1      11.254  -0.444  -6.328  1.00  0.00     0.198 A 
ATOM     89  F   UNL     1      13.336  -1.429  -5.842  1.00  0.00    -0.203 F 
ATOM     90  F   UNL     1       7.941  -1.889  -6.535  1.00  0.00    -0.200 F 
ATOM     91  C   UNL     1       9.884  -0.552  -6.512  1.00  0.00     0.200 A 
ATOM     92  F   UNL     1      11.843   0.758  -6.396  1.00  0.00    -0.200 F 
ATOM     93  F   UNL     1       9.152   0.539  -6.779  1.00  0.00    -0.200 F 
ENDBRANCH  60  83
ENDBRANCH  34  35
ENDBRANCH  27  29
ENDBRANCH  26  27
ENDBRANCH  25  26
ENDBRANCH   1  25
TORSDOF 15
