REMARK SMILES O=C(OCCOC(=O)c1cccc2c(C(F)(F)F)cc(Br)nc12)c1ccc(-c2c3nc(c(-c4c(F)c(F)c(F)c(F)c4F)c4ccc([nH]4)c(-c4c(F)c(F)c(F)c(F)c4F)c4nc(c(-c5c(F)c(F)c(F)c(F)c5F)c5ccc2[nH]5)C=C4)C=C3)cc1
REMARK SMILES IDX 4 1 3 2 2 3 1 4 24 5 25 6 86 7 26 8 85 9 27 10 28 11 29 12
REMARK SMILES IDX 79 13 30 14 84 15 78 16 80 17 31 18 83 19 77 20 76 21 32 23
REMARK SMILES IDX 64 24 44 25 63 26 45 27 48 28 62 29 81 30 46 31 47 32 61 34
REMARK SMILES IDX 82 35 49 36 33 37 34 38 42 39 35 40 36 41 40 42 43 43 37 44
REMARK SMILES IDX 38 45 41 46 39 47 65 48 66 49 74 50 67 51 68 52 72 53 75 54
REMARK SMILES IDX 69 55 70 56 73 57 71 58 50 59 51 60 59 61 52 62 53 63 57 64
REMARK SMILES IDX 60 65 54 66 55 67 58 68 56 69 5 70 6 71 7 72 8 73 9 74 10 75
REMARK SMILES IDX 23 76 11 77 13 78 22 79 12 80 14 81 20 82 19 83 21 84 15 85
REMARK SMILES IDX 16 86 17 87 18 88
REMARK H PARENT 80 22 48 33
REMARK Flexibility Score: inf
ROOT
ATOM      1  C   UNL     1       4.267   0.816  -1.073  1.00  0.00     0.275 C 
ENDROOT
BRANCH   1   2
ATOM      2  O   UNL     1       3.279  -0.228  -1.069  1.00  0.00    -0.458 OA
BRANCH   2   3
ATOM      3  C   UNL     1       3.392  -1.401  -0.397  1.00  0.00     0.338 C 
ATOM      4  O   UNL     1       2.909  -2.438  -0.841  1.00  0.00    -0.246 OA
BRANCH   3   5
ATOM      5  C   UNL     1       3.892  -1.400   1.004  1.00  0.00     0.060 A 
ATOM      6  C   UNL     1       3.052  -1.971   1.970  1.00  0.00     0.016 A 
ATOM      7  C   UNL     1       5.157  -0.956   1.393  1.00  0.00     0.016 A 
ATOM      8  C   UNL     1       3.424  -2.002   3.316  1.00  0.00     0.010 A 
ATOM      9  C   UNL     1       5.541  -0.998   2.737  1.00  0.00     0.010 A 
ATOM     10  C   UNL     1       4.677  -1.515   3.710  1.00  0.00    -0.014 A 
BRANCH  10  11
ATOM     11  C   UNL     1       5.171  -1.741   5.088  1.00  0.00     0.031 A 
ATOM     12  C   UNL     1       5.346  -0.622   6.070  1.00  0.00     0.074 A 
ATOM     13  C   UNL     1       5.529  -2.995   5.419  1.00  0.00     0.049 A 
ATOM     14  N   UNL     1       5.659  -0.687   7.340  1.00  0.00    -0.248 NA
ATOM     15  C   UNL     1       5.138   0.746   5.578  1.00  0.00     0.031 C 
ATOM     16  C   UNL     1       5.458  -4.149   4.519  1.00  0.00     0.029 A 
ATOM     17  N   UNL     1       6.048  -3.506   6.579  1.00  0.00    -0.354 N 
ATOM     18  C   UNL     1       5.609   0.616   7.813  1.00  0.00     0.074 A 
ATOM     19  C   UNL     1       5.297   1.464   6.684  1.00  0.00     0.031 C 
ATOM     20  C   UNL     1       5.932  -5.229   5.155  1.00  0.00     0.029 A 
ATOM     21  C   UNL     1       6.363  -4.839   6.492  1.00  0.00     0.049 A 
ATOM     22  H   UNL     1       6.182  -2.970   7.393  1.00  0.00     0.167 HD
ATOM     23  C   UNL     1       5.798   1.051   9.081  1.00  0.00     0.037 A 
ATOM     24  C   UNL     1       6.956  -5.652   7.384  1.00  0.00     0.037 A 
ATOM     25  C   UNL     1       6.237   0.210  10.164  1.00  0.00     0.049 A 
ATOM     26  C   UNL     1       7.306  -5.110   8.738  1.00  0.00     0.074 A 
ATOM     27  C   UNL     1       6.448   0.547  11.490  1.00  0.00     0.029 A 
ATOM     28  N   UNL     1       6.593  -1.124  10.029  1.00  0.00    -0.354 N 
ATOM     29  N   UNL     1       7.098  -3.909   9.222  1.00  0.00    -0.248 NA
ATOM     30  C   UNL     1       7.964  -6.031   9.672  1.00  0.00     0.031 C 
ATOM     31  C   UNL     1       7.013  -0.557  12.135  1.00  0.00     0.029 A 
ATOM     32  C   UNL     1       7.093  -1.603  11.229  1.00  0.00     0.049 A 
ATOM     33  H   UNL     1       6.504  -1.652   9.203  1.00  0.00     0.167 HD
ATOM     34  C   UNL     1       7.582  -3.933  10.521  1.00  0.00     0.074 A 
ATOM     35  C   UNL     1       8.082  -5.273  10.754  1.00  0.00     0.031 C 
ATOM     36  C   UNL     1       7.605  -2.935  11.437  1.00  0.00     0.037 A 
BRANCH  23  37
ATOM     37  C   UNL     1       5.536   2.497   9.384  1.00  0.00     0.064 A 
ATOM     38  C   UNL     1       4.224   2.979   9.506  1.00  0.00     0.173 A 
ATOM     39  C   UNL     1       6.589   3.374   9.682  1.00  0.00     0.173 A 
ATOM     40  F   UNL     1       3.183   2.182   9.220  1.00  0.00    -0.203 F 
ATOM     41  C   UNL     1       3.976   4.284   9.926  1.00  0.00     0.198 A 
ATOM     42  C   UNL     1       6.337   4.675  10.115  1.00  0.00     0.198 A 
ATOM     43  F   UNL     1       7.861   2.961   9.583  1.00  0.00    -0.203 F 
ATOM     44  F   UNL     1       2.714   4.723  10.034  1.00  0.00    -0.200 F 
ATOM     45  C   UNL     1       5.032   5.127  10.241  1.00  0.00     0.200 A 
ATOM     46  F   UNL     1       7.358   5.486  10.425  1.00  0.00    -0.200 F 
ATOM     47  F   UNL     1       4.791   6.375  10.665  1.00  0.00    -0.200 F 
ENDBRANCH  23  37
BRANCH  24  48
ATOM     48  C   UNL     1       7.239  -7.057   7.000  1.00  0.00     0.064 A 
ATOM     49  C   UNL     1       6.518  -8.118   7.559  1.00  0.00     0.173 A 
ATOM     50  C   UNL     1       8.192  -7.360   6.014  1.00  0.00     0.173 A 
ATOM     51  F   UNL     1       5.608  -7.879   8.514  1.00  0.00    -0.203 F 
ATOM     52  C   UNL     1       6.737  -9.431   7.146  1.00  0.00     0.198 A 
ATOM     53  C   UNL     1       8.390  -8.669   5.582  1.00  0.00     0.198 A 
ATOM     54  F   UNL     1       8.903  -6.377   5.443  1.00  0.00    -0.203 F 
ATOM     55  F   UNL     1       6.047 -10.431   7.711  1.00  0.00    -0.200 F 
ATOM     56  C   UNL     1       7.664  -9.704   6.151  1.00  0.00     0.200 A 
ATOM     57  F   UNL     1       9.273  -8.925   4.607  1.00  0.00    -0.200 F 
ATOM     58  F   UNL     1       7.857 -10.964   5.739  1.00  0.00    -0.200 F 
ENDBRANCH  24  48
BRANCH  36  59
ATOM     59  C   UNL     1       8.201  -3.245  12.777  1.00  0.00     0.064 A 
ATOM     60  C   UNL     1       9.586  -3.391  12.941  1.00  0.00     0.173 A 
ATOM     61  C   UNL     1       7.389  -3.326  13.918  1.00  0.00     0.173 A 
ATOM     62  F   UNL     1      10.401  -3.335  11.877  1.00  0.00    -0.203 F 
ATOM     63  C   UNL     1      10.135  -3.621  14.199  1.00  0.00     0.198 A 
ATOM     64  C   UNL     1       7.944  -3.527  15.178  1.00  0.00     0.198 A 
ATOM     65  F   UNL     1       6.059  -3.185  13.813  1.00  0.00    -0.203 F 
ATOM     66  F   UNL     1      11.458  -3.791  14.329  1.00  0.00    -0.200 F 
ATOM     67  C   UNL     1       9.316  -3.677  15.317  1.00  0.00     0.200 A 
ATOM     68  F   UNL     1       7.153  -3.565  16.259  1.00  0.00    -0.200 F 
ATOM     69  F   UNL     1       9.849  -3.880  16.529  1.00  0.00    -0.200 F 
ENDBRANCH  36  59
ENDBRANCH  10  11
ENDBRANCH   3   5
ENDBRANCH   2   3
ENDBRANCH   1   2
BRANCH   1  70
ATOM     70  C   UNL     1       3.915   2.007  -0.182  1.00  0.00     0.275 C 
BRANCH  70  71
ATOM     71  O   UNL     1       3.384   1.612   1.091  1.00  0.00    -0.458 OA
BRANCH  71  72
ATOM     72  C   UNL     1       2.034   1.725   1.214  1.00  0.00     0.340 C 
ATOM     73  O   UNL     1       1.261   2.184   0.384  1.00  0.00    -0.246 OA
BRANCH  72  74
ATOM     74  C   UNL     1       1.635   1.267   2.555  1.00  0.00     0.086 A 
ATOM     75  C   UNL     1       2.210   1.903   3.665  1.00  0.00     0.018 A 
ATOM     76  C   UNL     1       0.695   0.237   2.684  1.00  0.00     0.087 A 
ATOM     77  C   UNL     1       1.848   1.506   4.941  1.00  0.00     0.002 A 
ATOM     78  C   UNL     1       0.333  -0.171   3.991  1.00  0.00     0.013 A 
ATOM     79  N   UNL     1       0.192  -0.381   1.596  1.00  0.00    -0.240 NA
ATOM     80  C   UNL     1       0.925   0.476   5.103  1.00  0.00     0.011 A 
ATOM     81  C   UNL     1      -0.602  -1.232   4.122  1.00  0.00     0.068 A 
ATOM     82  C   UNL     1      -0.681  -1.393   1.741  1.00  0.00     0.107 A 
ATOM     83  C   UNL     1      -1.103  -1.851   2.970  1.00  0.00     0.049 A 
ATOM     84  Br  UNL     1      -1.305  -2.252   0.174  1.00  0.00    -0.029 Br
BRANCH  81  85
ATOM     85  C   UNL     1      -1.065  -1.727   5.470  1.00  0.00     0.417 C 
ATOM     86  F   UNL     1      -0.050  -2.266   6.199  1.00  0.00    -0.166 F 
ATOM     87  F   UNL     1      -1.603  -0.740   6.237  1.00  0.00    -0.166 F 
ATOM     88  F   UNL     1      -2.020  -2.695   5.393  1.00  0.00    -0.166 F 
ENDBRANCH  81  85
ENDBRANCH  72  74
ENDBRANCH  71  72
ENDBRANCH  70  71
ENDBRANCH   1  70
TORSDOF 12
