REMARK SMILES CCN(CCC(=O)OCCOC(=O)c1ccc(-c2c3nc(c(-c4c(F)c(F)c(F)c(F)c4F)c4ccc([nH]4)c(-c4c(F)c(F)c(F)c(F)c4F)c4nc(c(-c5c(F)c(F)c(F)c(F)c5F)c5ccc2[nH]5)C=C4)C=C3)cc1)C(=O)c1cc(Cl)ccc1F
REMARK SMILES IDX 9 1 8 2 6 3 7 4 5 5 4 6 3 7 2 8 1 9 77 10 78 11 79 12 80 13
REMARK SMILES IDX 85 14 81 15 84 16 86 17 82 18 83 19 10 20 11 21 12 22 13 23
REMARK SMILES IDX 14 24 15 25 76 26 16 27 75 28 17 29 18 30 19 31 69 32 20 33
REMARK SMILES IDX 74 34 68 35 70 36 21 37 73 38 67 39 66 40 22 42 54 43 34 44
REMARK SMILES IDX 53 45 35 46 38 47 52 48 71 49 36 50 37 51 51 53 72 54 39 55
REMARK SMILES IDX 23 56 24 57 32 58 25 59 26 60 30 61 33 62 27 63 28 64 31 65
REMARK SMILES IDX 29 66 55 67 56 68 64 69 57 70 58 71 62 72 65 73 59 74 60 75
REMARK SMILES IDX 63 76 61 77 40 78 41 79 49 80 42 81 43 82 47 83 50 84 44 85
REMARK SMILES IDX 45 86 48 87 46 88
REMARK H PARENT 70 41 38 52
REMARK Flexibility Score: inf
ROOT
ATOM      1  C   UNL     1       3.573  -5.485   1.532  1.00  0.00     0.274 C 
ENDROOT
BRANCH   1   2
ATOM      2  O   UNL     1       2.558  -4.898   0.674  1.00  0.00    -0.462 OA
BRANCH   2   3
ATOM      3  C   UNL     1       1.356  -5.537   0.608  1.00  0.00     0.307 C 
ATOM      4  O   UNL     1       1.167  -6.699   0.949  1.00  0.00    -0.252 OA
BRANCH   3   5
ATOM      5  C   UNL     1       0.246  -4.599   0.165  1.00  0.00     0.144 C 
BRANCH   5   6
ATOM      6  C   UNL     1      -0.049  -3.337   1.005  1.00  0.00     0.131 C 
BRANCH   6   7
ATOM      7  N   UNL     1       0.913  -2.245   0.877  1.00  0.00    -0.338 N 
BRANCH   7   8
ATOM      8  C   UNL     1       0.756  -1.431  -0.343  1.00  0.00     0.116 C 
ATOM      9  C   UNL     1       0.662   0.076  -0.139  1.00  0.00     0.027 C 
ENDBRANCH   7   8
BRANCH   7  10
ATOM     10  C   UNL     1       1.980  -1.961   1.742  1.00  0.00     0.256 C 
ATOM     11  O   UNL     1       2.685  -0.963   1.562  1.00  0.00    -0.269 OA
BRANCH  10  12
ATOM     12  C   UNL     1       2.465  -2.853   2.842  1.00  0.00     0.077 A 
ATOM     13  C   UNL     1       4.041  -2.311   3.575  1.00  0.00     0.037 A 
ATOM     14  C   UNL     1       1.913  -4.545   3.167  1.00  0.00     0.136 A 
ATOM     15  C   UNL     1       5.025  -3.454   4.551  1.00  0.00     0.042 A 
ATOM     16  C   UNL     1       2.931  -5.706   4.121  1.00  0.00     0.041 A 
ATOM     17  F   UNL     1       0.696  -4.992   2.856  1.00  0.00    -0.206 F 
ATOM     18  Cl  UNL     1       6.532  -2.958   5.209  1.00  0.00    -0.084 Cl
ATOM     19  C   UNL     1       4.480  -5.149   4.825  1.00  0.00     0.023 A 
ENDBRANCH  10  12
ENDBRANCH   7  10
ENDBRANCH   6   7
ENDBRANCH   5   6
ENDBRANCH   3   5
ENDBRANCH   2   3
ENDBRANCH   1   2
BRANCH   1  20
ATOM     20  C   UNL     1       4.075  -4.429   2.703  1.00  0.00     0.275 C 
BRANCH  20  21
ATOM     21  O   UNL     1       3.137  -3.807   4.379  1.00  0.00    -0.458 OA
BRANCH  21  22
ATOM     22  C   UNL     1       2.395  -3.505   5.554  1.00  0.00     0.338 C 
ATOM     23  O   UNL     1       2.608  -2.478   6.196  1.00  0.00    -0.246 OA
BRANCH  22  24
ATOM     24  C   UNL     1       1.351  -4.432   6.107  1.00  0.00     0.060 A 
ATOM     25  C   UNL     1       0.101  -4.614   5.498  1.00  0.00     0.016 A 
ATOM     26  C   UNL     1       1.578  -5.023   7.354  1.00  0.00     0.016 A 
ATOM     27  C   UNL     1      -0.865  -5.461   6.050  1.00  0.00     0.010 A 
ATOM     28  C   UNL     1       0.582  -5.811   7.952  1.00  0.00     0.010 A 
ATOM     29  C   UNL     1      -0.650  -6.027   7.308  1.00  0.00    -0.014 A 
BRANCH  29  30
ATOM     30  C   UNL     1      -1.794  -6.605   8.059  1.00  0.00     0.031 A 
ATOM     31  C   UNL     1      -2.498  -5.727   9.058  1.00  0.00     0.074 A 
ATOM     32  C   UNL     1      -2.218  -7.866   7.861  1.00  0.00     0.049 A 
ATOM     33  N   UNL     1      -3.440  -6.025   9.916  1.00  0.00    -0.248 NA
ATOM     34  C   UNL     1      -2.073  -4.318   9.095  1.00  0.00     0.031 C 
ATOM     35  C   UNL     1      -1.682  -8.799   6.875  1.00  0.00     0.029 A 
ATOM     36  N   UNL     1      -3.201  -8.581   8.503  1.00  0.00    -0.354 N 
ATOM     37  C   UNL     1      -3.693  -4.853  10.617  1.00  0.00     0.074 A 
ATOM     38  C   UNL     1      -2.801  -3.842  10.093  1.00  0.00     0.031 C 
ATOM     39  C   UNL     1      -2.329  -9.973   6.990  1.00  0.00     0.029 A 
ATOM     40  C   UNL     1      -3.299  -9.884   8.082  1.00  0.00     0.049 A 
ATOM     41  H   UNL     1      -3.781  -8.195   9.199  1.00  0.00     0.167 HD
ATOM     42  C   UNL     1      -4.588  -4.637  11.611  1.00  0.00     0.037 A 
ATOM     43  C   UNL     1      -4.063 -10.893   8.546  1.00  0.00     0.037 A 
ATOM     44  C   UNL     1      -5.489  -5.635  12.122  1.00  0.00     0.049 A 
ATOM     45  C   UNL     1      -5.002 -10.648   9.702  1.00  0.00     0.074 A 
ATOM     46  C   UNL     1      -6.452  -5.504  13.106  1.00  0.00     0.029 A 
ATOM     47  N   UNL     1      -5.534  -6.951  11.690  1.00  0.00    -0.354 N 
ATOM     48  N   UNL     1      -5.242  -9.538  10.356  1.00  0.00    -0.248 NA
ATOM     49  C   UNL     1      -5.774 -11.803  10.184  1.00  0.00     0.031 C 
ATOM     50  C   UNL     1      -7.046  -6.755  13.306  1.00  0.00     0.029 A 
ATOM     51  C   UNL     1      -6.491  -7.651  12.407  1.00  0.00     0.049 A 
ATOM     52  H   UNL     1      -4.969  -7.333  10.979  1.00  0.00     0.167 HD
ATOM     53  C   UNL     1      -6.216  -9.850  11.297  1.00  0.00     0.074 A 
ATOM     54  C   UNL     1      -6.526 -11.253  11.127  1.00  0.00     0.031 C 
ATOM     55  C   UNL     1      -6.803  -9.045  12.218  1.00  0.00     0.037 A 
BRANCH  42  56
ATOM     56  C   UNL     1      -4.604  -3.275  12.239  1.00  0.00     0.064 A 
ATOM     57  C   UNL     1      -5.099  -2.150  11.562  1.00  0.00     0.173 A 
ATOM     58  C   UNL     1      -4.133  -3.098  13.549  1.00  0.00     0.173 A 
ATOM     59  F   UNL     1      -5.545  -2.263  10.302  1.00  0.00    -0.203 F 
ATOM     60  C   UNL     1      -5.095  -0.894  12.163  1.00  0.00     0.198 A 
ATOM     61  C   UNL     1      -4.159  -1.847  14.158  1.00  0.00     0.198 A 
ATOM     62  F   UNL     1      -3.652  -4.142  14.242  1.00  0.00    -0.203 F 
ATOM     63  F   UNL     1      -5.527   0.175  11.480  1.00  0.00    -0.200 F 
ATOM     64  C   UNL     1      -4.632  -0.745  13.462  1.00  0.00     0.200 A 
ATOM     65  F   UNL     1      -3.723  -1.707  15.418  1.00  0.00    -0.200 F 
ATOM     66  F   UNL     1      -4.635   0.464  14.041  1.00  0.00    -0.200 F 
ENDBRANCH  42  56
BRANCH  43  67
ATOM     67  C   UNL     1      -3.977 -12.241   7.924  1.00  0.00     0.064 A 
ATOM     68  C   UNL     1      -5.050 -12.762   7.188  1.00  0.00     0.173 A 
ATOM     69  C   UNL     1      -2.837 -13.044   8.072  1.00  0.00     0.173 A 
ATOM     70  F   UNL     1      -6.175 -12.045   7.047  1.00  0.00    -0.203 F 
ATOM     71  C   UNL     1      -4.992 -14.040   6.636  1.00  0.00     0.198 A 
ATOM     72  C   UNL     1      -2.769 -14.311   7.497  1.00  0.00     0.198 A 
ATOM     73  F   UNL     1      -1.786 -12.595   8.775  1.00  0.00    -0.203 F 
ATOM     74  F   UNL     1      -6.050 -14.532   5.977  1.00  0.00    -0.200 F 
ATOM     75  C   UNL     1      -3.849 -14.811   6.785  1.00  0.00     0.200 A 
ATOM     76  F   UNL     1      -1.660 -15.050   7.637  1.00  0.00    -0.200 F 
ATOM     77  F   UNL     1      -3.792 -16.039   6.252  1.00  0.00    -0.200 F 
ENDBRANCH  43  67
BRANCH  55  78
ATOM     78  C   UNL     1      -7.880  -9.643  13.077  1.00  0.00     0.064 A 
ATOM     79  C   UNL     1      -7.589 -10.560  14.097  1.00  0.00     0.173 A 
ATOM     80  C   UNL     1      -9.219  -9.262  12.899  1.00  0.00     0.173 A 
ATOM     81  F   UNL     1      -6.327 -10.968  14.299  1.00  0.00    -0.203 F 
ATOM     82  C   UNL     1      -8.603 -11.095  14.889  1.00  0.00     0.198 A 
ATOM     83  C   UNL     1     -10.226  -9.776  13.712  1.00  0.00     0.198 A 
ATOM     84  F   UNL     1      -9.551  -8.382  11.943  1.00  0.00    -0.203 F 
ATOM     85  F   UNL     1      -8.308 -12.007  15.826  1.00  0.00    -0.200 F 
ATOM     86  C   UNL     1      -9.918 -10.698  14.700  1.00  0.00     0.200 A 
ATOM     87  F   UNL     1     -11.494  -9.380  13.537  1.00  0.00    -0.200 F 
ATOM     88  F   UNL     1     -10.891 -11.210  15.467  1.00  0.00    -0.200 F 
ENDBRANCH  55  78
ENDBRANCH  29  30
ENDBRANCH  22  24
ENDBRANCH  21  22
ENDBRANCH  20  21
ENDBRANCH   1  20
TORSDOF 16
