REMARK SMILES COC(=O)[C@H]1CCN(C(=O)N[C@H](C(=O)OCCOC(=O)c2ccc(-c3c4nc(c(-c5c(F)c(F)c(F)c(F)c5F)c5ccc([nH]5)c(-c5c(F)c(F)c(F)c(F)c5F)c5nc(c(-c6c(F)c(F)c(F)c(F)c6F)c6ccc3[nH]6)C=C5)C=C4)cc2)C2CC2)C1
REMARK SMILES IDX 16 1 15 2 13 3 14 4 12 5 11 6 9 7 10 8 8 10 5 11 6 12 87 13
REMARK SMILES IDX 7 14 3 15 4 16 2 17 1 18 84 19 85 20 86 21 17 22 18 23 19 24
REMARK SMILES IDX 20 25 21 26 22 27 83 28 23 29 82 30 24 31 25 32 26 33 76 34
REMARK SMILES IDX 27 35 81 36 75 37 77 38 28 39 80 40 74 41 73 42 29 44 61 45
REMARK SMILES IDX 41 46 60 47 42 48 45 49 59 50 78 51 43 52 44 53 58 55 79 56
REMARK SMILES IDX 46 57 30 58 31 59 39 60 32 61 33 62 37 63 40 64 34 65 35 66
REMARK SMILES IDX 38 67 36 68 62 69 63 70 71 71 64 72 65 73 69 74 72 75 66 76
REMARK SMILES IDX 67 77 70 78 68 79 47 80 48 81 56 82 49 83 50 84 54 85 57 86
REMARK SMILES IDX 51 87 52 88 55 89 53 90
REMARK H PARENT 11 9 77 43 45 54
REMARK Flexibility Score: inf
ROOT
ATOM      1  C   UNL     1      -5.248  -4.503   5.143  1.00  0.00     0.274 C 
ENDROOT
BRANCH   1   2
ATOM      2  O   UNL     1      -4.133  -5.385   4.935  1.00  0.00    -0.461 OA
BRANCH   2   3
ATOM      3  C   UNL     1      -3.575  -5.396   3.688  1.00  0.00     0.329 C 
ATOM      4  O   UNL     1      -3.902  -4.639   2.779  1.00  0.00    -0.250 OA
BRANCH   3   5
ATOM      5  C   UNL     1      -2.456  -6.451   3.569  1.00  0.00     0.197 C 
BRANCH   5   6
ATOM      6  N   UNL     1      -2.650  -7.533   4.519  1.00  0.00    -0.324 N 
ATOM      7  C   UNL     1      -3.538  -8.536   4.611  1.00  0.00     0.318 C 
ATOM      8  O   UNL     1      -3.355  -9.331   5.538  1.00  0.00    -0.249 OA
ATOM      9  H   UNL     1      -1.989  -7.531   5.249  1.00  0.00     0.166 HD
BRANCH   7  10
ATOM     10  N   UNL     1      -4.569  -8.698   3.735  1.00  0.00    -0.324 N 
ATOM     11  C   UNL     1      -6.397  -9.844   2.721  1.00  0.00     0.120 C 
ATOM     12  C   UNL     1      -6.487  -8.362   2.394  1.00  0.00     0.039 C 
ATOM     13  C   UNL     1      -5.362  -9.915   3.839  1.00  0.00     0.136 C 
ATOM     14  C   UNL     1      -5.088  -7.865   2.665  1.00  0.00     0.122 C 
BRANCH  11  15
ATOM     15  C   UNL     1      -7.779 -10.323   3.071  1.00  0.00     0.310 C 
ATOM     16  O   UNL     1      -8.607 -10.634   2.223  1.00  0.00    -0.252 OA
BRANCH  15  17
ATOM     17  O   UNL     1      -8.033 -10.203   4.398  1.00  0.00    -0.469 OA
ATOM     18  C   UNL     1      -9.401 -10.367   4.762  1.00  0.00     0.282 C 
ENDBRANCH  15  17
ENDBRANCH  11  15
ENDBRANCH   7  10
ENDBRANCH   5   6
BRANCH   5  19
ATOM     19  C   UNL     1      -2.173  -6.947   2.161  1.00  0.00     0.023 C 
ATOM     20  C   UNL     1      -0.769  -7.248   1.677  1.00  0.00     0.007 C 
ATOM     21  C   UNL     1      -1.728  -8.376   1.888  1.00  0.00     0.007 C 
ENDBRANCH   5  19
ENDBRANCH   3   5
ENDBRANCH   2   3
ENDBRANCH   1   2
BRANCH   1  22
ATOM     22  C   UNL     1      -4.814  -3.160   5.734  1.00  0.00     0.275 C 
BRANCH  22  23
ATOM     23  O   UNL     1      -4.104  -2.360   4.775  1.00  0.00    -0.458 OA
BRANCH  23  24
ATOM     24  C   UNL     1      -2.774  -2.609   4.675  1.00  0.00     0.338 C 
ATOM     25  O   UNL     1      -2.105  -3.364   5.355  1.00  0.00    -0.246 OA
BRANCH  24  26
ATOM     26  C   UNL     1      -2.265  -1.953   3.459  1.00  0.00     0.060 A 
ATOM     27  C   UNL     1      -1.552  -2.724   2.531  1.00  0.00     0.016 A 
ATOM     28  C   UNL     1      -2.483  -0.594   3.242  1.00  0.00     0.016 A 
ATOM     29  C   UNL     1      -1.065  -2.143   1.366  1.00  0.00     0.010 A 
ATOM     30  C   UNL     1      -1.975  -0.006   2.087  1.00  0.00     0.010 A 
ATOM     31  C   UNL     1      -1.259  -0.777   1.152  1.00  0.00    -0.014 A 
BRANCH  31  32
ATOM     32  C   UNL     1      -0.612  -0.096   0.014  1.00  0.00     0.031 A 
ATOM     33  C   UNL     1       0.607   0.728   0.283  1.00  0.00     0.074 A 
ATOM     34  C   UNL     1      -1.143  -0.174  -1.217  1.00  0.00     0.049 A 
ATOM     35  N   UNL     1       1.219   1.583  -0.491  1.00  0.00    -0.248 NA
ATOM     36  C   UNL     1       1.210   0.579   1.618  1.00  0.00     0.031 C 
ATOM     37  C   UNL     1      -2.289  -0.999  -1.593  1.00  0.00     0.029 A 
ATOM     38  N   UNL     1      -0.802   0.481  -2.372  1.00  0.00    -0.354 N 
ATOM     39  C   UNL     1       2.260   2.095   0.270  1.00  0.00     0.074 A 
ATOM     40  C   UNL     1       2.189   1.469   1.572  1.00  0.00     0.031 C 
ATOM     41  C   UNL     1      -2.579  -0.776  -2.886  1.00  0.00     0.029 A 
ATOM     42  C   UNL     1      -1.675   0.247  -3.406  1.00  0.00     0.049 A 
ATOM     43  H   UNL     1      -0.011   1.062  -2.452  1.00  0.00     0.167 HD
ATOM     44  C   UNL     1       3.186   3.011  -0.094  1.00  0.00     0.037 A 
ATOM     45  C   UNL     1      -1.756   0.834  -4.615  1.00  0.00     0.037 A 
ATOM     46  C   UNL     1       3.235   3.621  -1.396  1.00  0.00     0.049 A 
ATOM     47  C   UNL     1      -0.765   1.914  -4.969  1.00  0.00     0.074 A 
ATOM     48  C   UNL     1       4.134   4.553  -1.879  1.00  0.00     0.029 A 
ATOM     49  N   UNL     1       2.334   3.360  -2.420  1.00  0.00    -0.354 N 
ATOM     50  N   UNL     1       0.220   2.401  -4.252  1.00  0.00    -0.248 NA
ATOM     51  C   UNL     1      -0.898   2.531  -6.296  1.00  0.00     0.031 C 
ATOM     52  C   UNL     1       3.741   4.903  -3.174  1.00  0.00     0.029 A 
ATOM     53  C   UNL     1       2.643   4.133  -3.526  1.00  0.00     0.049 A 
ATOM     54  H   UNL     1       1.587   2.721  -2.368  1.00  0.00     0.167 HD
ATOM     55  C   UNL     1       0.851   3.342  -5.055  1.00  0.00     0.074 A 
ATOM     56  C   UNL     1       0.132   3.365  -6.312  1.00  0.00     0.031 C 
ATOM     57  C   UNL     1       1.932   4.112  -4.780  1.00  0.00     0.037 A 
BRANCH  44  58
ATOM     58  C   UNL     1       4.188   3.437   0.938  1.00  0.00     0.064 A 
ATOM     59  C   UNL     1       5.191   2.571   1.400  1.00  0.00     0.173 A 
ATOM     60  C   UNL     1       4.161   4.742   1.452  1.00  0.00     0.173 A 
ATOM     61  F   UNL     1       5.252   1.308   0.954  1.00  0.00    -0.203 F 
ATOM     62  C   UNL     1       6.111   2.989   2.359  1.00  0.00     0.198 A 
ATOM     63  C   UNL     1       5.103   5.166   2.384  1.00  0.00     0.198 A 
ATOM     64  F   UNL     1       3.224   5.611   1.043  1.00  0.00    -0.203 F 
ATOM     65  F   UNL     1       7.027   2.128   2.825  1.00  0.00    -0.200 F 
ATOM     66  C   UNL     1       6.071   4.287   2.843  1.00  0.00     0.200 A 
ATOM     67  F   UNL     1       5.071   6.426   2.840  1.00  0.00    -0.200 F 
ATOM     68  F   UNL     1       6.963   4.690   3.759  1.00  0.00    -0.200 F 
ENDBRANCH  44  58
BRANCH  45  69
ATOM     69  C   UNL     1      -2.825   0.434  -5.567  1.00  0.00     0.064 A 
ATOM     70  C   UNL     1      -2.513  -0.222  -6.766  1.00  0.00     0.173 A 
ATOM     71  C   UNL     1      -4.177   0.705  -5.307  1.00  0.00     0.173 A 
ATOM     72  F   UNL     1      -1.233  -0.485  -7.070  1.00  0.00    -0.203 F 
ATOM     73  C   UNL     1      -3.507  -0.572  -7.677  1.00  0.00     0.198 A 
ATOM     74  C   UNL     1      -5.174   0.326  -6.204  1.00  0.00     0.198 A 
ATOM     75  F   UNL     1      -4.532   1.329  -4.174  1.00  0.00    -0.203 F 
ATOM     76  F   UNL     1      -3.175  -1.152  -8.838  1.00  0.00    -0.200 F 
ATOM     77  C   UNL     1      -4.838  -0.303  -7.392  1.00  0.00     0.200 A 
ATOM     78  F   UNL     1      -6.460   0.574  -5.918  1.00  0.00    -0.200 F 
ATOM     79  F   UNL     1      -5.794  -0.642  -8.268  1.00  0.00    -0.200 F 
ENDBRANCH  45  69
BRANCH  57  80
ATOM     80  C   UNL     1       2.466   4.987  -5.876  1.00  0.00     0.064 A 
ATOM     81  C   UNL     1       1.810   6.157  -6.281  1.00  0.00     0.173 A 
ATOM     82  C   UNL     1       3.710   4.694  -6.459  1.00  0.00     0.173 A 
ATOM     83  F   UNL     1       0.613   6.474  -5.764  1.00  0.00    -0.203 F 
ATOM     84  C   UNL     1       2.376   6.998  -7.235  1.00  0.00     0.198 A 
ATOM     85  C   UNL     1       4.287   5.553  -7.388  1.00  0.00     0.198 A 
ATOM     86  F   UNL     1       4.381   3.589  -6.099  1.00  0.00    -0.203 F 
ATOM     87  F   UNL     1       1.719   8.098  -7.630  1.00  0.00    -0.200 F 
ATOM     88  C   UNL     1       3.619   6.703  -7.777  1.00  0.00     0.200 A 
ATOM     89  F   UNL     1       5.496   5.275  -7.895  1.00  0.00    -0.200 F 
ATOM     90  F   UNL     1       4.173   7.528  -8.676  1.00  0.00    -0.200 F 
ENDBRANCH  57  80
ENDBRANCH  31  32
ENDBRANCH  24  26
ENDBRANCH  23  24
ENDBRANCH  22  23
ENDBRANCH   1  22
TORSDOF 16
