REMARK SMILES COc1ccc([C@@H]2C3=C(C[C@@H](c4ccccc4)CC3=O)Nc3ccccc3N2C(=O)CCC(=O)OCCOC(=O)c2ccc(-c3c4nc(c(-c5c(F)c(F)c(F)c(F)c5F)c5ccc([nH]5)c(-c5c(F)c(F)c(F)c(F)c5F)c5nc(c(-c6c(F)c(F)c(F)c(F)c6F)c6ccc3[nH]6)C=C5)C=C4)cc2)cc1
REMARK SMILES IDX 33 1 34 2 32 3 31 4 29 5 30 6 28 7 7 8 6 10 3 11 4 12 105 13
REMARK SMILES IDX 5 14 104 15 2 16 1 17 27 18 22 19 26 20 23 21 25 22 24 23
REMARK SMILES IDX 21 24 9 26 8 27 10 28 19 29 11 31 18 32 20 33 12 34 13 35
REMARK SMILES IDX 17 36 14 37 16 38 15 39 35 40 36 41 37 42 38 43 39 44 40 45
REMARK SMILES IDX 41 46 42 47 103 48 43 49 102 50 44 51 45 52 46 53 96 54
REMARK SMILES IDX 47 55 101 56 95 57 97 58 48 59 100 60 94 61 93 62 49 64
REMARK SMILES IDX 81 65 61 66 80 67 62 68 65 69 79 70 98 71 63 72 64 73 78 75
REMARK SMILES IDX 99 76 66 77 50 78 51 79 59 80 52 81 53 82 57 83 60 84 54 85
REMARK SMILES IDX 55 86 58 87 56 88 82 89 83 90 91 91 84 92 85 93 89 94 92 95
REMARK SMILES IDX 86 96 87 97 90 98 88 99 67 100 68 101 76 102 69 103 70 104
REMARK SMILES IDX 74 105 77 106 71 107 72 108 75 109 73 110
REMARK H PARENT 21 25 97 63 65 74
REMARK Flexibility Score: 90.00
ROOT
ATOM      1  C   UNL     1       0.790   1.327  -5.622  1.00  0.00     0.306 C 
ATOM      2  O   UNL     1       0.597   2.534  -5.529  1.00  0.00    -0.252 OA
ENDROOT
BRANCH   1   3
ATOM      3  C   UNL     1      -0.306   0.307  -5.293  1.00  0.00     0.132 C 
BRANCH   3   4
ATOM      4  C   UNL     1      -0.403  -0.986  -6.111  1.00  0.00     0.112 C 
BRANCH   4   5
ATOM      5  C   UNL     1       0.869  -1.792  -6.048  1.00  0.00     0.228 C 
ATOM      6  O   UNL     1       1.119  -2.364  -4.981  1.00  0.00    -0.274 OA
BRANCH   5   7
ATOM      7  N   UNL     1       1.692  -1.897  -7.168  1.00  0.00    -0.298 N 
BRANCH   7   8
ATOM      8  C   UNL     1       2.921  -2.819  -6.972  1.00  0.00     0.156 CG0
ATOM      9  G   UNL     1       3.711  -3.373  -8.171  1.00  0.00     0.000 G0
BRANCH   8  10
ATOM     10  C   UNL     1       3.972  -2.534  -5.850  1.00  0.00    -0.020 A 
ATOM     11  C   UNL     1       6.653  -2.165  -5.174  1.00  0.00     0.118 A 
ATOM     12  C   UNL     1       5.807  -1.065  -5.252  1.00  0.00     0.047 A 
ATOM     13  C   UNL     1       6.118  -3.448  -5.138  1.00  0.00     0.047 A 
ATOM     14  C   UNL     1       4.455  -1.256  -5.564  1.00  0.00     0.010 A 
ATOM     15  C   UNL     1       4.772  -3.632  -5.453  1.00  0.00     0.010 A 
BRANCH  11  16
ATOM     16  O   UNL     1       8.005  -1.942  -5.217  1.00  0.00    -0.497 OA
ATOM     17  C   UNL     1       8.608  -2.658  -6.307  1.00  0.00     0.278 C 
ENDBRANCH  11  16
ENDBRANCH   8  10
ENDBRANCH   7   8
BRANCH   7  18
ATOM     18  C   UNL     1       1.403  -1.200  -8.452  1.00  0.00     0.068 A 
ATOM     19  C   UNL     1       2.485  -1.737  -9.800  1.00  0.00     0.062 A 
ATOM     20  C   UNL     1       0.827   0.549  -8.467  1.00  0.00     0.028 A 
ATOM     21  C   UNL     1       3.127  -0.572 -11.026  1.00  0.00     0.028 A 
ATOM     22  C   UNL     1       1.558   1.776  -9.636  1.00  0.00     0.002 A 
ATOM     23  C   UNL     1       2.717   1.187 -10.917  1.00  0.00     0.002 A 
BRANCH  19  24
ATOM     24  N   UNL     1       2.475  -3.133 -10.062  1.00  0.00    -0.357 N 
ATOM     25  H   UNL     1       2.028  -3.484 -10.867  1.00  0.00     0.166 HD
BRANCH  24  26
ATOM     26  C   UNL     1       3.094  -3.990  -9.185  1.00  0.00     0.025 C 
ATOM     27  C   UNL     1       3.711  -3.373  -8.171  1.00  0.00     0.042 CG0
ATOM     28  C   UNL     1       3.829  -5.150  -9.815  1.00  0.00     0.063 C 
ATOM     29  C   UNL     1       5.033  -2.825  -8.684  1.00  0.00     0.163 C 
ATOM     30  G   UNL     1       2.921  -2.819  -6.972  1.00  0.00     0.000 G0
ATOM     31  C   UNL     1       5.107  -4.705 -10.539  1.00  0.00     0.033 C 
ATOM     32  C   UNL     1       5.721  -3.441  -9.916  1.00  0.00     0.089 C 
ATOM     33  O   UNL     1       5.552  -1.818  -8.201  1.00  0.00    -0.294 OA
BRANCH  31  34
ATOM     34  C   UNL     1       4.949  -4.661 -12.064  1.00  0.00    -0.044 A 
ATOM     35  C   UNL     1       3.811  -4.142 -12.698  1.00  0.00     0.004 A 
ATOM     36  C   UNL     1       5.927  -5.239 -12.888  1.00  0.00     0.004 A 
ATOM     37  C   UNL     1       3.600  -4.265 -14.071  1.00  0.00     0.000 A 
ATOM     38  C   UNL     1       5.726  -5.356 -14.270  1.00  0.00     0.000 A 
ATOM     39  C   UNL     1       4.553  -4.888 -14.858  1.00  0.00     0.000 A 
ENDBRANCH  31  34
ENDBRANCH  24  26
ENDBRANCH  19  24
ENDBRANCH   7  18
ENDBRANCH   5   7
ENDBRANCH   4   5
ENDBRANCH   3   4
ENDBRANCH   1   3
BRANCH   1  40
ATOM     40  O   UNL     1       1.925   0.778  -6.135  1.00  0.00    -0.462 OA
BRANCH  40  41
ATOM     41  C   UNL     1       2.783   1.618  -6.971  1.00  0.00     0.274 C 
BRANCH  41  42
ATOM     42  C   UNL     1       3.398   0.881  -8.238  1.00  0.00     0.275 C 
BRANCH  42  43
ATOM     43  O   UNL     1       2.377   0.097  -9.398  1.00  0.00    -0.458 OA
BRANCH  43  44
ATOM     44  C   UNL     1       0.923  -0.156 -10.534  1.00  0.00     0.338 C 
ATOM     45  O   UNL     1       0.536  -1.285 -10.928  1.00  0.00    -0.246 OA
BRANCH  44  46
ATOM     46  C   UNL     1      -0.068   0.868 -11.163  1.00  0.00     0.060 A 
ATOM     47  C   UNL     1      -1.254   1.232 -10.499  1.00  0.00     0.016 A 
ATOM     48  C   UNL     1       0.235   1.446 -12.403  1.00  0.00     0.016 A 
ATOM     49  C   UNL     1      -2.022   2.296 -10.973  1.00  0.00     0.010 A 
ATOM     50  C   UNL     1      -0.517   2.520 -12.864  1.00  0.00     0.010 A 
ATOM     51  C   UNL     1      -1.640   2.960 -12.143  1.00  0.00    -0.014 A 
BRANCH  51  52
ATOM     52  C   UNL     1      -2.489   4.014 -12.736  1.00  0.00     0.031 A 
ATOM     53  C   UNL     1      -3.309   3.650 -13.936  1.00  0.00     0.074 A 
ATOM     54  C   UNL     1      -2.468   5.274 -12.262  1.00  0.00     0.049 A 
ATOM     55  N   UNL     1      -3.982   4.420 -14.746  1.00  0.00    -0.248 NA
ATOM     56  C   UNL     1      -3.352   2.219 -14.284  1.00  0.00     0.031 C 
ATOM     57  C   UNL     1      -1.717   5.730 -11.093  1.00  0.00     0.029 A 
ATOM     58  N   UNL     1      -3.077   6.410 -12.734  1.00  0.00    -0.354 N 
ATOM     59  C   UNL     1      -4.498   3.574 -15.717  1.00  0.00     0.074 A 
ATOM     60  C   UNL     1      -4.049   2.236 -15.410  1.00  0.00     0.031 C 
ATOM     61  C   UNL     1      -1.891   7.057 -10.953  1.00  0.00     0.029 A 
ATOM     62  C   UNL     1      -2.728   7.548 -12.045  1.00  0.00     0.049 A 
ATOM     63  H   UNL     1      -3.704   6.410 -13.492  1.00  0.00     0.167 HD
ATOM     64  C   UNL     1      -5.282   3.893 -16.770  1.00  0.00     0.037 A 
ATOM     65  C   UNL     1      -3.023   8.838 -12.301  1.00  0.00     0.037 A 
ATOM     66  C   UNL     1      -5.750   5.223 -17.044  1.00  0.00     0.049 A 
ATOM     67  C   UNL     1      -3.873   9.166 -13.506  1.00  0.00     0.074 A 
ATOM     68  C   UNL     1      -6.613   5.643 -18.038  1.00  0.00     0.029 A 
ATOM     69  N   UNL     1      -5.388   6.348 -16.319  1.00  0.00    -0.354 N 
ATOM     70  N   UNL     1      -4.409   8.356 -14.388  1.00  0.00    -0.248 NA
ATOM     71  C   UNL     1      -4.151  10.588 -13.758  1.00  0.00     0.031 C 
ATOM     72  C   UNL     1      -6.729   7.033 -17.951  1.00  0.00     0.029 A 
ATOM     73  C   UNL     1      -5.980   7.471 -16.870  1.00  0.00     0.049 A 
ATOM     74  H   UNL     1      -4.798   6.348 -15.531  1.00  0.00     0.167 HD
ATOM     75  C   UNL     1      -5.101   9.164 -15.280  1.00  0.00     0.074 A 
ATOM     76  C   UNL     1      -4.938  10.527 -14.822  1.00  0.00     0.031 C 
ATOM     77  C   UNL     1      -5.805   8.815 -16.385  1.00  0.00     0.037 A 
BRANCH  64  78
ATOM     78  C   UNL     1      -5.666   2.798 -17.716  1.00  0.00     0.064 A 
ATOM     79  C   UNL     1      -6.595   1.808 -17.364  1.00  0.00     0.173 A 
ATOM     80  C   UNL     1      -5.136   2.774 -19.014  1.00  0.00     0.173 A 
ATOM     81  F   UNL     1      -7.113   1.777 -16.127  1.00  0.00    -0.203 F 
ATOM     82  C   UNL     1      -6.973   0.828 -18.278  1.00  0.00     0.198 A 
ATOM     83  C   UNL     1      -5.537   1.809 -19.933  1.00  0.00     0.198 A 
ATOM     84  F   UNL     1      -4.239   3.696 -19.396  1.00  0.00    -0.203 F 
ATOM     85  F   UNL     1      -7.838  -0.128 -17.912  1.00  0.00    -0.200 F 
ATOM     86  C   UNL     1      -6.453   0.836 -19.564  1.00  0.00     0.200 A 
ATOM     87  F   UNL     1      -5.040   1.823 -21.177  1.00  0.00    -0.200 F 
ATOM     88  F   UNL     1      -6.833  -0.097 -20.447  1.00  0.00    -0.200 F 
ENDBRANCH  64  78
BRANCH  65  89
ATOM     89  C   UNL     1      -2.485   9.928 -11.440  1.00  0.00     0.064 A 
ATOM     90  C   UNL     1      -3.339  10.738 -10.678  1.00  0.00     0.173 A 
ATOM     91  C   UNL     1      -1.114  10.224 -11.410  1.00  0.00     0.173 A 
ATOM     92  F   UNL     1      -4.662  10.517 -10.694  1.00  0.00    -0.203 F 
ATOM     93  C   UNL     1      -2.848  11.819  -9.947  1.00  0.00     0.198 A 
ATOM     94  C   UNL     1      -0.620  11.285 -10.653  1.00  0.00     0.198 A 
ATOM     95  F   UNL     1      -0.251   9.486 -12.124  1.00  0.00    -0.203 F 
ATOM     96  F   UNL     1      -3.696  12.617  -9.283  1.00  0.00    -0.200 F 
ATOM     97  C   UNL     1      -1.488  12.090  -9.932  1.00  0.00     0.200 A 
ATOM     98  F   UNL     1       0.697  11.537 -10.635  1.00  0.00    -0.200 F 
ATOM     99  F   UNL     1      -1.017  13.135  -9.238  1.00  0.00    -0.200 F 
ENDBRANCH  65  89
BRANCH  77 100
ATOM    100  C   UNL     1      -6.465   9.917 -17.161  1.00  0.00     0.064 A 
ATOM    101  C   UNL     1      -5.719  10.804 -17.949  1.00  0.00     0.173 A 
ATOM    102  C   UNL     1      -7.862  10.043 -17.167  1.00  0.00     0.173 A 
ATOM    103  F   UNL     1      -4.379  10.731 -17.965  1.00  0.00    -0.203 F 
ATOM    104  C   UNL     1      -6.348  11.791 -18.702  1.00  0.00     0.198 A 
ATOM    105  C   UNL     1      -8.489  11.011 -17.946  1.00  0.00     0.198 A 
ATOM    106  F   UNL     1      -8.620   9.211 -16.438  1.00  0.00    -0.203 F 
ATOM    107  F   UNL     1      -5.613  12.655 -19.418  1.00  0.00    -0.200 F 
ATOM    108  C   UNL     1      -7.731  11.888 -18.708  1.00  0.00     0.200 A 
ATOM    109  F   UNL     1      -9.826  11.091 -17.964  1.00  0.00    -0.200 F 
ATOM    110  F   UNL     1      -8.335  12.829 -19.446  1.00  0.00    -0.200 F 
ENDBRANCH  77 100
ENDBRANCH  51  52
ENDBRANCH  44  46
ENDBRANCH  43  44
ENDBRANCH  42  43
ENDBRANCH  41  42
ENDBRANCH  40  41
ENDBRANCH   1  40
TORSDOF 17
