REMARK SMILES Cc1ccc(-c2cc(C[C@H]3CCCC3=O)ccc2[C@@H](C)C(=O)OCCOC(=O)c2ccc(-c3c4nc(c(-c5c(F)c(F)c(F)c(F)c5F)c5ccc([nH]5)c(-c5c(F)c(F)c(F)c(F)c5F)c5nc(c(-c6c(F)c(F)c(F)c(F)c6F)c6ccc3[nH]6)C=C5)C=C4)cc2)cc1
REMARK SMILES IDX 24 1 23 2 21 3 22 4 19 5 20 6 18 7 6 8 7 9 8 10 17 11 16 12
REMARK SMILES IDX 5 13 1 14 2 15 3 16 93 17 4 18 92 19 9 20 10 21 11 22 14 23
REMARK SMILES IDX 12 24 13 25 15 26 25 27 26 28 27 29 28 30 29 31 30 32 91 33
REMARK SMILES IDX 31 34 90 35 32 36 33 37 34 38 84 39 35 40 89 41 83 42 85 43
REMARK SMILES IDX 36 44 88 45 82 46 81 47 37 49 69 50 49 51 68 52 50 53 53 54
REMARK SMILES IDX 67 55 86 56 51 57 52 58 66 60 87 61 54 62 38 63 39 64 47 65
REMARK SMILES IDX 40 66 41 67 45 68 48 69 42 70 43 71 46 72 44 73 70 74 71 75
REMARK SMILES IDX 79 76 72 77 73 78 77 79 80 80 74 81 75 82 78 83 76 84 55 85
REMARK SMILES IDX 56 86 64 87 57 88 58 89 62 90 65 91 59 92 60 93 63 94 61 95
REMARK H PARENT 85 48 53 59
REMARK Flexibility Score: inf
ROOT
ATOM      1  C   UNL     1      -6.003  -4.054   1.264  1.00  0.00     0.274 C 
ENDROOT
BRANCH   1   2
ATOM      2  O   UNL     1      -5.427  -2.865   1.850  1.00  0.00    -0.462 OA
BRANCH   2   3
ATOM      3  C   UNL     1      -4.902  -1.968   0.992  1.00  0.00     0.313 C 
ATOM      4  O   UNL     1      -4.875  -2.179  -0.215  1.00  0.00    -0.252 OA
BRANCH   3   5
ATOM      5  C   UNL     1      -4.312  -0.689   1.636  1.00  0.00     0.127 C 
ATOM      6  C   UNL     1      -4.764  -0.314   3.042  1.00  0.00     0.025 C 
BRANCH   5   7
ATOM      7  C   UNL     1      -4.635   0.410   0.632  1.00  0.00    -0.026 A 
ATOM      8  C   UNL     1      -3.747   0.676  -0.435  1.00  0.00    -0.014 A 
ATOM      9  C   UNL     1      -4.309   1.122  -1.640  1.00  0.00     0.012 A 
ATOM     10  C   UNL     1      -5.689   1.360  -1.756  1.00  0.00    -0.047 A 
ATOM     11  C   UNL     1      -5.978   0.824   0.568  1.00  0.00     0.005 A 
ATOM     12  C   UNL     1      -6.492   1.313  -0.616  1.00  0.00     0.004 A 
BRANCH   8  13
ATOM     13  C   UNL     1      -2.288   0.470  -0.335  1.00  0.00    -0.018 A 
ATOM     14  C   UNL     1       2.018   0.010  -0.030  1.00  0.00     0.044 C 
ATOM     15  C   UNL     1       0.529   0.170  -0.134  1.00  0.00    -0.051 A 
ATOM     16  C   UNL     1      -0.280  -0.908  -0.508  1.00  0.00     0.004 A 
ATOM     17  C   UNL     1      -0.080   1.392   0.164  1.00  0.00     0.004 A 
ATOM     18  C   UNL     1      -1.670  -0.755  -0.624  1.00  0.00     0.009 A 
ATOM     19  C   UNL     1      -1.469   1.536   0.067  1.00  0.00     0.009 A 
ENDBRANCH   8  13
BRANCH  10  20
ATOM     20  C   UNL     1      -6.337   1.606  -3.092  1.00  0.00     0.047 C 
BRANCH  20  21
ATOM     21  C   UNL     1      -7.095   0.409  -3.692  1.00  0.00     0.060 C 
ATOM     22  C   UNL     1      -6.244  -0.800  -4.090  1.00  0.00     0.012 C 
ATOM     23  C   UNL     1      -8.147  -0.198  -2.790  1.00  0.00     0.136 C 
ATOM     24  C   UNL     1      -6.586  -1.951  -3.153  1.00  0.00     0.009 C 
ATOM     25  C   UNL     1      -7.947  -1.667  -2.546  1.00  0.00     0.076 C 
ATOM     26  O   UNL     1      -9.101   0.427  -2.337  1.00  0.00    -0.299 OA
ENDBRANCH  20  21
ENDBRANCH  10  20
ENDBRANCH   5   7
ENDBRANCH   3   5
ENDBRANCH   2   3
ENDBRANCH   1   2
BRANCH   1  27
ATOM     27  C   UNL     1      -5.360  -4.782   0.036  1.00  0.00     0.275 C 
BRANCH  27  28
ATOM     28  O   UNL     1      -3.934  -5.006  -0.251  1.00  0.00    -0.458 OA
BRANCH  28  29
ATOM     29  C   UNL     1      -2.794  -4.468   0.243  1.00  0.00     0.338 C 
ATOM     30  O   UNL     1      -1.801  -4.236  -0.433  1.00  0.00    -0.246 OA
BRANCH  29  31
ATOM     31  C   UNL     1      -2.771  -4.293   1.691  1.00  0.00     0.060 A 
ATOM     32  C   UNL     1      -2.102  -3.218   2.302  1.00  0.00     0.016 A 
ATOM     33  C   UNL     1      -3.570  -5.161   2.411  1.00  0.00     0.016 A 
ATOM     34  C   UNL     1      -2.376  -2.921   3.634  1.00  0.00     0.010 A 
ATOM     35  C   UNL     1      -4.016  -4.733   3.623  1.00  0.00     0.010 A 
ATOM     36  C   UNL     1      -3.381  -3.656   4.260  1.00  0.00    -0.014 A 
BRANCH  36  37
ATOM     37  C   UNL     1      -3.643  -3.693   5.685  1.00  0.00     0.031 A 
ATOM     38  C   UNL     1      -4.607  -2.807   6.344  1.00  0.00     0.074 A 
ATOM     39  C   UNL     1      -3.168  -4.853   6.188  1.00  0.00     0.049 A 
ATOM     40  N   UNL     1      -4.502  -2.394   7.559  1.00  0.00    -0.248 NA
ATOM     41  C   UNL     1      -5.792  -2.285   5.665  1.00  0.00     0.031 C 
ATOM     42  C   UNL     1      -3.506  -5.611   7.370  1.00  0.00     0.029 A 
ATOM     43  N   UNL     1      -2.164  -5.625   5.572  1.00  0.00    -0.354 N 
ATOM     44  C   UNL     1      -5.740  -1.886   7.907  1.00  0.00     0.074 A 
ATOM     45  C   UNL     1      -6.419  -1.642   6.658  1.00  0.00     0.031 C 
ATOM     46  C   UNL     1      -2.533  -6.529   7.566  1.00  0.00     0.029 A 
ATOM     47  C   UNL     1      -1.481  -6.292   6.576  1.00  0.00     0.049 A 
ATOM     48  H   UNL     1      -1.982  -5.681   4.606  1.00  0.00     0.167 HD
ATOM     49  C   UNL     1      -6.181  -2.012   9.196  1.00  0.00     0.037 A 
ATOM     50  C   UNL     1      -0.209  -5.852   6.808  1.00  0.00     0.037 A 
ATOM     51  C   UNL     1      -5.261  -2.889   9.923  1.00  0.00     0.049 A 
ATOM     52  C   UNL     1      -0.172  -5.141   8.132  1.00  0.00     0.074 A 
ATOM     53  C   UNL     1      -5.336  -4.251  10.171  1.00  0.00     0.029 A 
ATOM     54  N   UNL     1      -3.942  -2.515  10.146  1.00  0.00    -0.354 N 
ATOM     55  N   UNL     1      -1.171  -4.461   8.629  1.00  0.00    -0.248 NA
ATOM     56  C   UNL     1       0.967  -5.234   9.032  1.00  0.00     0.031 C 
ATOM     57  C   UNL     1      -4.032  -4.708  10.485  1.00  0.00     0.029 A 
ATOM     58  C   UNL     1      -3.168  -3.627  10.430  1.00  0.00     0.049 A 
ATOM     59  H   UNL     1      -3.605  -1.591  10.107  1.00  0.00     0.167 HD
ATOM     60  C   UNL     1      -0.871  -4.115   9.915  1.00  0.00     0.074 A 
ATOM     61  C   UNL     1       0.486  -4.597  10.113  1.00  0.00     0.031 C 
ATOM     62  C   UNL     1      -1.757  -3.495  10.748  1.00  0.00     0.037 A 
BRANCH  49  63
ATOM     63  C   UNL     1      -7.585  -1.719   9.703  1.00  0.00     0.064 A 
ATOM     64  C   UNL     1      -8.066  -2.328  10.887  1.00  0.00     0.173 A 
ATOM     65  C   UNL     1      -8.500  -0.840   9.091  1.00  0.00     0.173 A 
ATOM     66  F   UNL     1      -7.275  -3.090  11.654  1.00  0.00    -0.203 F 
ATOM     67  C   UNL     1      -9.375  -2.163  11.350  1.00  0.00     0.198 A 
ATOM     68  C   UNL     1      -9.824  -0.700   9.536  1.00  0.00     0.198 A 
ATOM     69  F   UNL     1      -8.132  -0.044   8.079  1.00  0.00    -0.203 F 
ATOM     70  F   UNL     1      -9.765  -2.782  12.474  1.00  0.00    -0.200 F 
ATOM     71  C   UNL     1     -10.264  -1.371  10.659  1.00  0.00     0.200 A 
ATOM     72  F   UNL     1     -10.669   0.102   8.871  1.00  0.00    -0.200 F 
ATOM     73  F   UNL     1     -11.525  -1.229  11.090  1.00  0.00    -0.200 F 
ENDBRANCH  49  63
BRANCH  50  74
ATOM     74  C   UNL     1       0.512  -5.416   5.554  1.00  0.00     0.064 A 
ATOM     75  C   UNL     1       0.606  -6.330   4.477  1.00  0.00     0.173 A 
ATOM     76  C   UNL     1       0.823  -4.080   5.263  1.00  0.00     0.173 A 
ATOM     77  F   UNL     1       0.311  -7.626   4.672  1.00  0.00    -0.203 F 
ATOM     78  C   UNL     1       0.894  -5.918   3.173  1.00  0.00     0.198 A 
ATOM     79  C   UNL     1       1.135  -3.673   3.956  1.00  0.00     0.198 A 
ATOM     80  F   UNL     1       0.752  -3.142   6.218  1.00  0.00    -0.203 F 
ATOM     81  F   UNL     1       0.864  -6.806   2.168  1.00  0.00    -0.200 F 
ATOM     82  C   UNL     1       1.144  -4.585   2.910  1.00  0.00     0.200 A 
ATOM     83  F   UNL     1       1.358  -2.376   3.694  1.00  0.00    -0.200 F 
ATOM     84  F   UNL     1       1.359  -4.173   1.653  1.00  0.00    -0.200 F 
ENDBRANCH  50  74
BRANCH  62  85
ATOM     85  C   UNL     1      -1.377  -2.798  12.024  1.00  0.00     0.064 A 
ATOM     86  C   UNL     1      -0.115  -2.220  12.229  1.00  0.00     0.173 A 
ATOM     87  C   UNL     1      -2.346  -2.536  13.021  1.00  0.00     0.173 A 
ATOM     88  F   UNL     1       0.842  -2.278  11.293  1.00  0.00    -0.203 F 
ATOM     89  C   UNL     1       0.184  -1.504  13.385  1.00  0.00     0.198 A 
ATOM     90  C   UNL     1      -2.065  -1.754  14.137  1.00  0.00     0.198 A 
ATOM     91  F   UNL     1      -3.602  -2.998  12.928  1.00  0.00    -0.203 F 
ATOM     92  F   UNL     1       1.422  -1.025  13.561  1.00  0.00    -0.200 F 
ATOM     93  C   UNL     1      -0.793  -1.259  14.331  1.00  0.00     0.200 A 
ATOM     94  F   UNL     1      -3.042  -1.467  15.009  1.00  0.00    -0.200 F 
ATOM     95  F   UNL     1      -0.515  -0.525  15.415  1.00  0.00    -0.200 F 
ENDBRANCH  62  85
ENDBRANCH  36  37
ENDBRANCH  29  31
ENDBRANCH  28  29
ENDBRANCH  27  28
ENDBRANCH   1  27
TORSDOF 15
