REMARK SMILES C[C@H](Nc1ccc(F)cc1Br)[C@@H](C)C(=O)OCCOC(=O)c1ccc(-c2c3nc(c(-c4c(F)c(F)c(F)c(F)c4F)c4ccc([nH]4)c(-c4c(F)c(F)c(F)c(F)c4F)c4nc(c(-c5c(F)c(F)c(F)c(F)c5F)c5ccc2[nH]5)C=C4)C=C3)cc1
REMARK SMILES IDX 17 1 16 2 14 3 15 4 12 5 13 6 2 7 1 8 3 9 4 11 5 12 10 13
REMARK SMILES IDX 6 14 9 15 11 16 7 17 8 18 18 19 19 20 20 21 21 22 22 23
REMARK SMILES IDX 23 24 84 25 24 26 83 27 25 28 26 29 27 30 77 31 28 32 82 33
REMARK SMILES IDX 76 34 78 35 29 36 81 37 75 38 74 39 30 41 62 42 42 43 61 44
REMARK SMILES IDX 43 45 46 46 60 47 79 48 44 49 45 50 59 52 80 53 47 54 31 55
REMARK SMILES IDX 32 56 40 57 33 58 34 59 38 60 41 61 35 62 36 63 39 64 37 65
REMARK SMILES IDX 63 66 64 67 72 68 65 69 66 70 70 71 73 72 67 73 68 74 71 75
REMARK SMILES IDX 69 76 48 77 49 78 57 79 50 80 51 81 55 82 58 83 52 84 53 85
REMARK SMILES IDX 56 86 54 87
REMARK H PARENT 3 10 78 40 46 51
REMARK Flexibility Score: inf
ROOT
ATOM      1  C   UNL     1      -1.509  -0.768   4.782  1.00  0.00     0.274 C 
ENDROOT
BRANCH   1   2
ATOM      2  O   UNL     1      -0.802  -0.900   3.529  1.00  0.00    -0.462 OA
BRANCH   2   3
ATOM      3  C   UNL     1      -1.495  -0.512   2.430  1.00  0.00     0.310 C 
ATOM      4  O   UNL     1      -2.688  -0.222   2.433  1.00  0.00    -0.252 OA
BRANCH   3   5
ATOM      5  C   UNL     1      -0.686  -0.529   1.145  1.00  0.00     0.118 C 
ATOM      6  C   UNL     1      -1.096  -1.825   0.434  1.00  0.00     0.022 C 
BRANCH   5   7
ATOM      7  C   UNL     1       0.853  -0.382   1.263  1.00  0.00     0.090 C 
ATOM      8  C   UNL     1       1.328   0.686   2.250  1.00  0.00     0.031 C 
BRANCH   7   9
ATOM      9  N   UNL     1       1.444  -0.198  -0.091  1.00  0.00    -0.381 N 
ATOM     10  H   UNL     1       1.750  -1.014  -0.550  1.00  0.00     0.160 HD
BRANCH   9  11
ATOM     11  C   UNL     1       1.613   1.000  -0.781  1.00  0.00     0.049 A 
ATOM     12  C   UNL     1       2.463   2.006  -0.295  1.00  0.00     0.030 A 
ATOM     13  C   UNL     1       0.964   1.258  -2.010  1.00  0.00     0.044 A 
ATOM     14  C   UNL     1       2.650   3.212  -0.981  1.00  0.00     0.041 A 
ATOM     15  C   UNL     1       1.145   2.463  -2.702  1.00  0.00     0.057 A 
ATOM     16  Br  UNL     1      -0.173  -0.028  -2.827  1.00  0.00    -0.048 Br
ATOM     17  C   UNL     1       1.986   3.429  -2.176  1.00  0.00     0.124 A 
ATOM     18  F   UNL     1       2.174   4.577  -2.838  1.00  0.00    -0.207 F 
ENDBRANCH   9  11
ENDBRANCH   7   9
ENDBRANCH   5   7
ENDBRANCH   3   5
ENDBRANCH   2   3
ENDBRANCH   1   2
BRANCH   1  19
ATOM     19  C   UNL     1      -1.315   0.628   5.380  1.00  0.00     0.275 C 
BRANCH  19  20
ATOM     20  O   UNL     1      -1.812   1.626   4.470  1.00  0.00    -0.458 OA
BRANCH  20  21
ATOM     21  C   UNL     1      -1.026   2.709   4.273  1.00  0.00     0.338 C 
ATOM     22  O   UNL     1       0.029   2.969   4.823  1.00  0.00    -0.246 OA
BRANCH  21  23
ATOM     23  C   UNL     1      -1.666   3.596   3.283  1.00  0.00     0.060 A 
ATOM     24  C   UNL     1      -2.033   3.120   2.022  1.00  0.00     0.016 A 
ATOM     25  C   UNL     1      -1.868   4.936   3.611  1.00  0.00     0.016 A 
ATOM     26  C   UNL     1      -2.609   3.977   1.086  1.00  0.00     0.010 A 
ATOM     27  C   UNL     1      -2.490   5.784   2.692  1.00  0.00     0.010 A 
ATOM     28  C   UNL     1      -2.869   5.309   1.425  1.00  0.00    -0.014 A 
BRANCH  28  29
ATOM     29  C   UNL     1      -3.578   6.210   0.484  1.00  0.00     0.031 A 
ATOM     30  C   UNL     1      -2.866   7.382  -0.121  1.00  0.00     0.074 A 
ATOM     31  C   UNL     1      -4.883   6.001   0.226  1.00  0.00     0.049 A 
ATOM     32  N   UNL     1      -3.358   8.393  -0.790  1.00  0.00    -0.248 NA
ATOM     33  C   UNL     1      -1.407   7.426   0.056  1.00  0.00     0.031 C 
ATOM     34  C   UNL     1      -5.673   4.876   0.727  1.00  0.00     0.029 A 
ATOM     35  N   UNL     1      -5.780   6.742  -0.503  1.00  0.00    -0.354 N 
ATOM     36  C   UNL     1      -2.276   9.210  -1.089  1.00  0.00     0.074 A 
ATOM     37  C   UNL     1      -1.101   8.579  -0.524  1.00  0.00     0.031 C 
ATOM     38  C   UNL     1      -6.939   5.005   0.300  1.00  0.00     0.029 A 
ATOM     39  C   UNL     1      -7.062   6.253  -0.446  1.00  0.00     0.049 A 
ATOM     40  H   UNL     1      -5.529   7.544  -1.015  1.00  0.00     0.167 HD
ATOM     41  C   UNL     1      -2.272  10.380  -1.771  1.00  0.00     0.037 A 
ATOM     42  C   UNL     1      -8.216   6.777  -0.899  1.00  0.00     0.037 A 
ATOM     43  C   UNL     1      -3.444  10.987  -2.348  1.00  0.00     0.049 A 
ATOM     44  C   UNL     1      -8.194   8.110  -1.591  1.00  0.00     0.074 A 
ATOM     45  C   UNL     1      -3.537  12.149  -3.094  1.00  0.00     0.029 A 
ATOM     46  N   UNL     1      -4.730  10.477  -2.240  1.00  0.00    -0.354 N 
ATOM     47  N   UNL     1      -7.172   8.884  -1.858  1.00  0.00    -0.248 NA
ATOM     48  C   UNL     1      -9.489   8.651  -2.026  1.00  0.00     0.031 C 
ATOM     49  C   UNL     1      -4.885  12.364  -3.403  1.00  0.00     0.029 A 
ATOM     50  C   UNL     1      -5.627  11.316  -2.881  1.00  0.00     0.049 A 
ATOM     51  H   UNL     1      -4.970   9.642  -1.777  1.00  0.00     0.167 HD
ATOM     52  C   UNL     1      -7.695  10.000  -2.494  1.00  0.00     0.074 A 
ATOM     53  C   UNL     1      -9.126   9.793  -2.592  1.00  0.00     0.031 C 
ATOM     54  C   UNL     1      -7.049  11.100  -2.952  1.00  0.00     0.037 A 
BRANCH  41  55
ATOM     55  C   UNL     1      -0.965  11.099  -1.908  1.00  0.00     0.064 A 
ATOM     56  C   UNL     1       0.033  10.656  -2.787  1.00  0.00     0.173 A 
ATOM     57  C   UNL     1      -0.727  12.277  -1.183  1.00  0.00     0.173 A 
ATOM     58  F   UNL     1      -0.142   9.530  -3.495  1.00  0.00    -0.203 F 
ATOM     59  C   UNL     1       1.230  11.356  -2.922  1.00  0.00     0.198 A 
ATOM     60  C   UNL     1       0.461  12.986  -1.336  1.00  0.00     0.198 A 
ATOM     61  F   UNL     1      -1.653  12.745  -0.332  1.00  0.00    -0.203 F 
ATOM     62  F   UNL     1       2.184  10.897  -3.744  1.00  0.00    -0.200 F 
ATOM     63  C   UNL     1       1.440  12.523  -2.202  1.00  0.00     0.200 A 
ATOM     64  F   UNL     1       0.658  14.118  -0.647  1.00  0.00    -0.200 F 
ATOM     65  F   UNL     1       2.589  13.199  -2.339  1.00  0.00    -0.200 F 
ENDBRANCH  41  55
BRANCH  42  66
ATOM     66  C   UNL     1      -9.492   6.055  -0.664  1.00  0.00     0.064 A 
ATOM     67  C   UNL     1     -10.180   5.446  -1.721  1.00  0.00     0.173 A 
ATOM     68  C   UNL     1     -10.039   5.945   0.623  1.00  0.00     0.173 A 
ATOM     69  F   UNL     1      -9.709   5.548  -2.973  1.00  0.00    -0.203 F 
ATOM     70  C   UNL     1     -11.369   4.755  -1.500  1.00  0.00     0.198 A 
ATOM     71  C   UNL     1     -11.214   5.233   0.847  1.00  0.00     0.198 A 
ATOM     72  F   UNL     1      -9.418   6.515   1.667  1.00  0.00    -0.203 F 
ATOM     73  F   UNL     1     -12.025   4.207  -2.532  1.00  0.00    -0.200 F 
ATOM     74  C   UNL     1     -11.881   4.642  -0.215  1.00  0.00     0.200 A 
ATOM     75  F   UNL     1     -11.699   5.117   2.091  1.00  0.00    -0.200 F 
ATOM     76  F   UNL     1     -13.019   3.968  -0.002  1.00  0.00    -0.200 F 
ENDBRANCH  42  66
BRANCH  54  77
ATOM     77  C   UNL     1      -7.888  12.160  -3.599  1.00  0.00     0.064 A 
ATOM     78  C   UNL     1      -8.689  13.021  -2.835  1.00  0.00     0.173 A 
ATOM     79  C   UNL     1      -7.871  12.334  -4.990  1.00  0.00     0.173 A 
ATOM     80  F   UNL     1      -8.753  12.878  -1.502  1.00  0.00    -0.203 F 
ATOM     81  C   UNL     1      -9.458  14.008  -3.444  1.00  0.00     0.198 A 
ATOM     82  C   UNL     1      -8.623  13.338  -5.594  1.00  0.00     0.198 A 
ATOM     83  F   UNL     1      -7.118  11.536  -5.763  1.00  0.00    -0.203 F 
ATOM     84  F   UNL     1     -10.247  14.795  -2.699  1.00  0.00    -0.200 F 
ATOM     85  C   UNL     1      -9.420  14.170  -4.821  1.00  0.00     0.200 A 
ATOM     86  F   UNL     1      -8.580  13.498  -6.923  1.00  0.00    -0.200 F 
ATOM     87  F   UNL     1     -10.158  15.123  -5.405  1.00  0.00    -0.200 F 
ENDBRANCH  54  77
ENDBRANCH  28  29
ENDBRANCH  21  23
ENDBRANCH  20  21
ENDBRANCH  19  20
ENDBRANCH   1  19
TORSDOF 14
