REMARK SMILES CCn1cnc(S(=O)(=O)N2CCC(C)(C(=O)OCCOC(=O)c3ccc(-c4c5nc(c(-c6c(F)c(F)c(F)c(F)c6F)c6ccc([nH]6)c(-c6c(F)c(F)c(F)c(F)c6F)c6nc(c(-c7c(F)c(F)c(F)c(F)c7F)c7ccc4[nH]7)C=C6)C=C5)cc3)CC2)c1
REMARK SMILES IDX 18 1 17 2 15 3 16 4 13 5 10 6 11 7 87 8 12 9 86 10 14 11
REMARK SMILES IDX 7 12 8 13 9 14 6 15 3 16 4 17 88 18 5 19 2 20 1 21 19 22
REMARK SMILES IDX 20 23 21 24 22 25 23 26 24 27 85 28 25 29 84 30 26 31 27 32
REMARK SMILES IDX 28 33 78 34 29 35 83 36 77 37 79 38 30 39 82 40 76 41 75 42
REMARK SMILES IDX 31 44 63 45 43 46 62 47 44 48 47 49 61 50 80 51 45 52 46 53
REMARK SMILES IDX 60 55 81 56 48 57 32 58 33 59 41 60 34 61 35 62 39 63 42 64
REMARK SMILES IDX 36 65 37 66 40 67 38 68 64 69 65 70 73 71 66 72 67 73 71 74
REMARK SMILES IDX 74 75 68 76 69 77 72 78 70 79 49 80 50 81 58 82 51 83 52 84
REMARK SMILES IDX 56 85 59 86 53 87 54 88 57 89 55 90
REMARK H PARENT 79 43 47 54
REMARK Flexibility Score: inf
ROOT
ATOM      1  C   UNL     1       0.774  -2.967  -2.382  1.00  0.00     0.274 C 
ENDROOT
BRANCH   1   2
ATOM      2  O   UNL     1       1.129  -1.577  -2.266  1.00  0.00    -0.462 OA
BRANCH   2   3
ATOM      3  C   UNL     1       2.420  -1.153  -2.465  1.00  0.00     0.312 C 
ATOM      4  O   UNL     1       3.390  -1.891  -2.576  1.00  0.00    -0.252 OA
BRANCH   3   5
ATOM      5  C   UNL     1       2.488   0.374  -2.318  1.00  0.00     0.068 C 
ATOM      6  N   UNL     1       2.451   2.778  -3.914  1.00  0.00    -0.196 NA
ATOM      7  C   UNL     1       1.322   1.899  -4.145  1.00  0.00     0.104 C 
ATOM      8  C   UNL     1       3.726   2.087  -3.934  1.00  0.00     0.104 C 
ATOM      9  C   UNL     1       1.167   1.002  -2.923  1.00  0.00     0.035 C 
ATOM     10  C   UNL     1       3.807   1.068  -2.797  1.00  0.00     0.035 C 
ATOM     11  C   UNL     1       2.538   0.394  -0.767  1.00  0.00     0.024 C 
BRANCH   6  12
ATOM     12  S   UNL     1       2.231   4.338  -3.329  1.00  0.00     0.262 S 
ATOM     13  O   UNL     1       1.395   5.036  -4.273  1.00  0.00    -0.205 OA
ATOM     14  O   UNL     1       3.521   4.859  -2.902  1.00  0.00    -0.205 OA
BRANCH  12  15
ATOM     15  C   UNL     1       1.276   4.272  -1.848  1.00  0.00     0.188 A 
ATOM     16  N   UNL     1       0.356   3.526  -0.002  1.00  0.00    -0.336 N 
ATOM     17  C   UNL     1      -0.396   4.542  -0.531  1.00  0.00     0.201 A 
ATOM     18  C   UNL     1       1.521   3.501  -0.722  1.00  0.00     0.129 A 
ATOM     19  N   UNL     1       0.086   4.958  -1.679  1.00  0.00    -0.224 NA
BRANCH  16  20
ATOM     20  C   UNL     1      -0.035   2.760   1.170  1.00  0.00     0.120 C 
ATOM     21  C   UNL     1      -0.221   1.250   1.023  1.00  0.00     0.027 C 
ENDBRANCH  16  20
ENDBRANCH  12  15
ENDBRANCH   6  12
ENDBRANCH   3   5
ENDBRANCH   2   3
ENDBRANCH   1   2
BRANCH   1  22
ATOM     22  C   UNL     1       0.551  -3.378  -3.832  1.00  0.00     0.275 C 
BRANCH  22  23
ATOM     23  O   UNL     1       1.805  -3.452  -4.497  1.00  0.00    -0.458 OA
BRANCH  23  24
ATOM     24  C   UNL     1       2.182  -2.276  -5.031  1.00  0.00     0.338 C 
ATOM     25  O   UNL     1       1.550  -1.231  -5.072  1.00  0.00    -0.246 OA
BRANCH  24  26
ATOM     26  C   UNL     1       3.506  -2.406  -5.620  1.00  0.00     0.060 A 
ATOM     27  C   UNL     1       4.183  -1.201  -5.806  1.00  0.00     0.016 A 
ATOM     28  C   UNL     1       3.689  -3.519  -6.429  1.00  0.00     0.016 A 
ATOM     29  C   UNL     1       4.728  -0.963  -7.033  1.00  0.00     0.010 A 
ATOM     30  C   UNL     1       4.292  -3.306  -7.633  1.00  0.00     0.010 A 
ATOM     31  C   UNL     1       4.666  -1.999  -7.962  1.00  0.00    -0.014 A 
BRANCH  31  32
ATOM     32  C   UNL     1       5.127  -1.732  -9.299  1.00  0.00     0.031 A 
ATOM     33  C   UNL     1       6.563  -1.373  -9.328  1.00  0.00     0.074 A 
ATOM     34  C   UNL     1       4.310  -1.981 -10.339  1.00  0.00     0.049 A 
ATOM     35  N   UNL     1       7.111  -0.340  -9.871  1.00  0.00    -0.248 NA
ATOM     36  C   UNL     1       7.476  -2.155  -8.469  1.00  0.00     0.031 C 
ATOM     37  C   UNL     1       2.938  -2.506 -10.318  1.00  0.00     0.029 A 
ATOM     38  N   UNL     1       4.619  -1.991 -11.659  1.00  0.00    -0.354 N 
ATOM     39  C   UNL     1       8.469  -0.458  -9.596  1.00  0.00     0.074 A 
ATOM     40  C   UNL     1       8.607  -1.463  -8.579  1.00  0.00     0.031 C 
ATOM     41  C   UNL     1       2.646  -3.034 -11.526  1.00  0.00     0.029 A 
ATOM     42  C   UNL     1       3.753  -2.771 -12.422  1.00  0.00     0.049 A 
ATOM     43  H   UNL     1       5.380  -1.497 -12.040  1.00  0.00     0.167 HD
ATOM     44  C   UNL     1       9.393   0.079 -10.433  1.00  0.00     0.037 A 
ATOM     45  C   UNL     1       4.058  -3.261 -13.649  1.00  0.00     0.037 A 
ATOM     46  C   UNL     1       8.821   1.128 -11.235  1.00  0.00     0.049 A 
ATOM     47  C   UNL     1       5.177  -2.424 -14.175  1.00  0.00     0.074 A 
ATOM     48  C   UNL     1       8.226   2.338 -10.933  1.00  0.00     0.029 A 
ATOM     49  N   UNL     1       8.430   0.824 -12.517  1.00  0.00    -0.354 N 
ATOM     50  N   UNL     1       5.040  -1.157 -14.467  1.00  0.00    -0.248 NA
ATOM     51  C   UNL     1       6.538  -2.847 -13.863  1.00  0.00     0.031 C 
ATOM     52  C   UNL     1       7.134   2.449 -11.843  1.00  0.00     0.029 A 
ATOM     53  C   UNL     1       7.173   1.347 -12.697  1.00  0.00     0.049 A 
ATOM     54  H   UNL     1       8.954   0.325 -13.184  1.00  0.00     0.167 HD
ATOM     55  C   UNL     1       6.187  -0.551 -13.969  1.00  0.00     0.074 A 
ATOM     56  C   UNL     1       7.099  -1.650 -13.657  1.00  0.00     0.031 C 
ATOM     57  C   UNL     1       6.182   0.754 -13.563  1.00  0.00     0.037 A 
BRANCH  44  58
ATOM     58  C   UNL     1      10.672  -0.627 -10.790  1.00  0.00     0.064 A 
ATOM     59  C   UNL     1      11.644   0.064 -11.533  1.00  0.00     0.173 A 
ATOM     60  C   UNL     1      10.847  -2.027 -10.698  1.00  0.00     0.173 A 
ATOM     61  F   UNL     1      11.561   1.392 -11.697  1.00  0.00    -0.203 F 
ATOM     62  C   UNL     1      12.668  -0.610 -12.203  1.00  0.00     0.198 A 
ATOM     63  C   UNL     1      11.900  -2.688 -11.321  1.00  0.00     0.198 A 
ATOM     64  F   UNL     1       9.952  -2.827 -10.108  1.00  0.00    -0.203 F 
ATOM     65  F   UNL     1      13.495   0.071 -13.005  1.00  0.00    -0.200 F 
ATOM     66  C   UNL     1      12.790  -1.985 -12.102  1.00  0.00     0.200 A 
ATOM     67  F   UNL     1      11.988  -4.022 -11.225  1.00  0.00    -0.200 F 
ATOM     68  F   UNL     1      13.730  -2.638 -12.796  1.00  0.00    -0.200 F 
ENDBRANCH  44  58
BRANCH  45  69
ATOM     69  C   UNL     1       3.708  -4.600 -14.182  1.00  0.00     0.064 A 
ATOM     70  C   UNL     1       3.820  -4.889 -15.550  1.00  0.00     0.173 A 
ATOM     71  C   UNL     1       3.482  -5.703 -13.330  1.00  0.00     0.173 A 
ATOM     72  F   UNL     1       4.087  -3.908 -16.425  1.00  0.00    -0.203 F 
ATOM     73  C   UNL     1       3.716  -6.199 -16.036  1.00  0.00     0.198 A 
ATOM     74  C   UNL     1       3.370  -7.006 -13.815  1.00  0.00     0.198 A 
ATOM     75  F   UNL     1       3.454  -5.555 -11.998  1.00  0.00    -0.203 F 
ATOM     76  F   UNL     1       3.878  -6.442 -17.344  1.00  0.00    -0.200 F 
ATOM     77  C   UNL     1       3.497  -7.256 -15.167  1.00  0.00     0.200 A 
ATOM     78  F   UNL     1       3.193  -8.021 -12.957  1.00  0.00    -0.200 F 
ATOM     79  F   UNL     1       3.447  -8.514 -15.625  1.00  0.00    -0.200 F 
ENDBRANCH  45  69
BRANCH  57  80
ATOM     80  C   UNL     1       4.949   1.573 -13.836  1.00  0.00     0.064 A 
ATOM     81  C   UNL     1       3.690   1.304 -13.268  1.00  0.00     0.173 A 
ATOM     82  C   UNL     1       5.082   2.764 -14.558  1.00  0.00     0.173 A 
ATOM     83  F   UNL     1       3.509   0.249 -12.468  1.00  0.00    -0.203 F 
ATOM     84  C   UNL     1       2.606   2.160 -13.459  1.00  0.00     0.198 A 
ATOM     85  C   UNL     1       4.009   3.637 -14.716  1.00  0.00     0.198 A 
ATOM     86  F   UNL     1       6.275   3.108 -15.067  1.00  0.00    -0.203 F 
ATOM     87  F   UNL     1       1.415   1.869 -12.914  1.00  0.00    -0.200 F 
ATOM     88  C   UNL     1       2.769   3.330 -14.178  1.00  0.00     0.200 A 
ATOM     89  F   UNL     1       4.186   4.795 -15.368  1.00  0.00    -0.200 F 
ATOM     90  F   UNL     1       1.740   4.175 -14.330  1.00  0.00    -0.200 F 
ENDBRANCH  57  80
ENDBRANCH  31  32
ENDBRANCH  24  26
ENDBRANCH  23  24
ENDBRANCH  22  23
ENDBRANCH   1  22
TORSDOF 14
