REMARK SMILES COc1ccc(CCN2C(=O)C[C@@H](C(=O)OCCOC(=O)c3ccc(-c4c5nc(c(-c6c(F)c(F)c(F)c(F)c6F)c6ccc([nH]6)c(-c6c(F)c(F)c(F)c(F)c6F)c6nc(c(-c7c(F)c(F)c(F)c(F)c7F)c7ccc4[nH]7)C=C6)C=C5)cc3)S/C2=[NH+]\c2ccc(F)cc2)cc1OC
REMARK SMILES IDX 17 1 16 2 14 3 15 4 13 5 9 6 10 7 86 8 11 9 12 10 85 11
REMARK SMILES IDX 87 12 8 14 7 15 6 16 3 17 4 18 96 19 5 20 95 21 2 22 1 23
REMARK SMILES IDX 97 24 98 25 88 26 89 27 94 28 90 29 93 30 91 31 92 32 18 33
REMARK SMILES IDX 19 34 20 35 21 36 22 37 23 38 84 39 24 40 83 41 25 42 26 43
REMARK SMILES IDX 27 44 77 45 28 46 82 47 76 48 78 49 29 50 81 51 75 52 74 53
REMARK SMILES IDX 30 55 62 56 42 57 61 58 43 59 46 60 60 61 79 62 44 63 45 64
REMARK SMILES IDX 59 66 80 67 47 68 31 69 32 70 40 71 33 72 34 73 38 74 41 75
REMARK SMILES IDX 35 76 36 77 39 78 37 79 63 80 64 81 72 82 65 83 66 84 70 85
REMARK SMILES IDX 73 86 67 87 68 88 71 89 69 90 48 91 49 92 57 93 50 94 51 95
REMARK SMILES IDX 55 96 58 97 52 98 53 99 56 100 54 101
REMARK H PARENT 87 13 78 54 46 65
REMARK Flexibility Score: inf
ROOT
ATOM      1  C   UNL     1      -2.647   2.517 -11.891  1.00  0.00     0.274 C 
ENDROOT
BRANCH   1   2
ATOM      2  O   UNL     1      -1.789   2.727 -10.754  1.00  0.00    -0.461 OA
BRANCH   2   3
ATOM      3  C   UNL     1      -2.272   3.482  -9.732  1.00  0.00     0.320 C 
ATOM      4  O   UNL     1      -3.313   4.130  -9.780  1.00  0.00    -0.251 OA
BRANCH   3   5
ATOM      5  C   UNL     1      -1.383   3.479  -8.496  1.00  0.00     0.180 C 
ATOM      6  N   UNL     1       0.926   3.551  -6.716  1.00  0.00    -0.191 N 
ATOM      7  C   UNL     1       0.548   4.724  -7.372  1.00  0.00     0.311 C 
ATOM      8  C   UNL     1       0.293   2.313  -6.815  1.00  0.00     0.319 C 
ATOM      9  O   UNL     1       1.036   5.821  -7.079  1.00  0.00    -0.247 OA
ATOM     10  C   UNL     1      -0.471   4.675  -8.492  1.00  0.00     0.155 C 
ATOM     11  S   UNL     1      -0.408   1.981  -8.363  1.00  0.00    -0.022 SA
ATOM     12  N   UNL     1       0.281   1.505  -5.807  1.00  0.00    -0.235 N 
ATOM     13  H   UNL     1       0.802   1.746  -5.008  1.00  0.00     0.313 HD
BRANCH   6  14
ATOM     14  C   UNL     1       2.125   3.642  -5.870  1.00  0.00     0.251 C 
BRANCH  14  15
ATOM     15  C   UNL     1       1.927   4.236  -4.467  1.00  0.00     0.082 C 
BRANCH  15  16
ATOM     16  C   UNL     1       1.612   3.188  -3.429  1.00  0.00    -0.040 A 
ATOM     17  C   UNL     1       1.005   1.069  -1.677  1.00  0.00     0.160 A 
ATOM     18  C   UNL     1       0.009   1.959  -2.104  1.00  0.00     0.051 A 
ATOM     19  C   UNL     1       2.323   1.246  -2.116  1.00  0.00     0.160 A 
ATOM     20  C   UNL     1       0.311   3.022  -2.957  1.00  0.00     0.008 A 
ATOM     21  C   UNL     1       2.611   2.305  -2.988  1.00  0.00     0.054 A 
BRANCH  17  22
ATOM     22  O   UNL     1       0.648  -0.055  -0.979  1.00  0.00    -0.493 OA
ATOM     23  C   UNL     1      -0.013   0.217   0.254  1.00  0.00     0.278 C 
ENDBRANCH  17  22
BRANCH  19  24
ATOM     24  O   UNL     1       3.416   0.467  -1.841  1.00  0.00    -0.493 OA
ATOM     25  C   UNL     1       3.386  -0.293  -0.642  1.00  0.00     0.278 C 
ENDBRANCH  19  24
ENDBRANCH  15  16
ENDBRANCH  14  15
ENDBRANCH   6  14
BRANCH  12  26
ATOM     26  C   UNL     1      -0.439   0.300  -5.794  1.00  0.00     0.125 A 
ATOM     27  C   UNL     1      -1.551   0.190  -4.944  1.00  0.00     0.055 A 
ATOM     28  C   UNL     1      -0.034  -0.825  -6.519  1.00  0.00     0.055 A 
ATOM     29  C   UNL     1      -2.253  -1.013  -4.830  1.00  0.00     0.043 A 
ATOM     30  C   UNL     1      -0.745  -2.026  -6.423  1.00  0.00     0.043 A 
ATOM     31  C   UNL     1      -1.844  -2.109  -5.577  1.00  0.00     0.123 A 
ATOM     32  F   UNL     1      -2.511  -3.266  -5.467  1.00  0.00    -0.207 F 
ENDBRANCH  12  26
ENDBRANCH   3   5
ENDBRANCH   2   3
ENDBRANCH   1   2
BRANCH   1  33
ATOM     33  C   UNL     1      -3.393   1.183 -11.776  1.00  0.00     0.275 C 
BRANCH  33  34
ATOM     34  O   UNL     1      -4.399   1.239 -10.747  1.00  0.00    -0.458 OA
BRANCH  34  35
ATOM     35  C   UNL     1      -4.051   0.682  -9.564  1.00  0.00     0.338 C 
ATOM     36  O   UNL     1      -3.011   0.114  -9.287  1.00  0.00    -0.246 OA
BRANCH  35  37
ATOM     37  C   UNL     1      -5.092   0.963  -8.566  1.00  0.00     0.060 A 
ATOM     38  C   UNL     1      -4.780   1.815  -7.504  1.00  0.00     0.016 A 
ATOM     39  C   UNL     1      -6.331   0.326  -8.626  1.00  0.00     0.016 A 
ATOM     40  C   UNL     1      -5.708   2.042  -6.493  1.00  0.00     0.010 A 
ATOM     41  C   UNL     1      -7.264   0.553  -7.611  1.00  0.00     0.010 A 
ATOM     42  C   UNL     1      -6.954   1.405  -6.535  1.00  0.00    -0.014 A 
BRANCH  42  43
ATOM     43  C   UNL     1      -7.910   1.588  -5.419  1.00  0.00     0.031 A 
ATOM     44  C   UNL     1      -8.116   0.482  -4.427  1.00  0.00     0.074 A 
ATOM     45  C   UNL     1      -8.571   2.752  -5.287  1.00  0.00     0.049 A 
ATOM     46  N   UNL     1      -8.962   0.408  -3.431  1.00  0.00    -0.248 NA
ATOM     47  C   UNL     1      -7.254  -0.700  -4.576  1.00  0.00     0.031 C 
ATOM     48  C   UNL     1      -8.408   3.917  -6.155  1.00  0.00     0.029 A 
ATOM     49  N   UNL     1      -9.512   3.144  -4.369  1.00  0.00    -0.354 N 
ATOM     50  C   UNL     1      -8.754  -0.835  -2.851  1.00  0.00     0.074 A 
ATOM     51  C   UNL     1      -7.709  -1.488  -3.612  1.00  0.00     0.031 C 
ATOM     52  C   UNL     1      -9.215   4.900  -5.723  1.00  0.00     0.029 A 
ATOM     53  C   UNL     1      -9.986   4.415  -4.582  1.00  0.00     0.049 A 
ATOM     54  H   UNL     1      -9.817   2.571  -3.629  1.00  0.00     0.167 HD
ATOM     55  C   UNL     1      -9.380  -1.379  -1.780  1.00  0.00     0.037 A 
ATOM     56  C   UNL     1     -10.955   5.097  -3.942  1.00  0.00     0.037 A 
ATOM     57  C   UNL     1     -10.408  -0.718  -1.019  1.00  0.00     0.049 A 
ATOM     58  C   UNL     1     -11.685   4.441  -2.802  1.00  0.00     0.074 A 
ATOM     59  C   UNL     1     -11.092  -1.177   0.093  1.00  0.00     0.029 A 
ATOM     60  N   UNL     1     -10.902   0.549  -1.296  1.00  0.00    -0.354 N 
ATOM     61  N   UNL     1     -11.491   3.262  -2.265  1.00  0.00    -0.248 NA
ATOM     62  C   UNL     1     -12.778   5.209  -2.189  1.00  0.00     0.031 C 
ATOM     63  C   UNL     1     -12.027  -0.204   0.465  1.00  0.00     0.029 A 
ATOM     64  C   UNL     1     -11.897   0.879  -0.390  1.00  0.00     0.049 A 
ATOM     65  H   UNL     1     -10.591   1.129  -2.029  1.00  0.00     0.167 HD
ATOM     66  C   UNL     1     -12.419   3.153  -1.238  1.00  0.00     0.074 A 
ATOM     67  C   UNL     1     -13.169   4.392  -1.221  1.00  0.00     0.031 C 
ATOM     68  C   UNL     1     -12.630   2.120  -0.387  1.00  0.00     0.037 A 
BRANCH  55  69
ATOM     69  C   UNL     1      -8.993  -2.776  -1.395  1.00  0.00     0.064 A 
ATOM     70  C   UNL     1      -7.763  -3.061  -0.786  1.00  0.00     0.173 A 
ATOM     71  C   UNL     1      -9.875  -3.843  -1.626  1.00  0.00     0.173 A 
ATOM     72  F   UNL     1      -6.879  -2.078  -0.557  1.00  0.00    -0.203 F 
ATOM     73  C   UNL     1      -7.417  -4.368  -0.449  1.00  0.00     0.198 A 
ATOM     74  C   UNL     1      -9.537  -5.144  -1.265  1.00  0.00     0.198 A 
ATOM     75  F   UNL     1     -11.067  -3.622  -2.202  1.00  0.00    -0.203 F 
ATOM     76  F   UNL     1      -6.217  -4.624   0.090  1.00  0.00    -0.200 F 
ATOM     77  C   UNL     1      -8.306  -5.407  -0.684  1.00  0.00     0.200 A 
ATOM     78  F   UNL     1     -10.401  -6.145  -1.484  1.00  0.00    -0.200 F 
ATOM     79  F   UNL     1      -7.972  -6.663  -0.358  1.00  0.00    -0.200 F 
ENDBRANCH  55  69
BRANCH  56  80
ATOM     80  C   UNL     1     -11.296   6.476  -4.374  1.00  0.00     0.064 A 
ATOM     81  C   UNL     1     -10.990   7.578  -3.564  1.00  0.00     0.173 A 
ATOM     82  C   UNL     1     -11.931   6.722  -5.600  1.00  0.00     0.173 A 
ATOM     83  F   UNL     1     -10.407   7.389  -2.370  1.00  0.00    -0.203 F 
ATOM     84  C   UNL     1     -11.312   8.874  -3.961  1.00  0.00     0.198 A 
ATOM     85  C   UNL     1     -12.229   8.020  -6.008  1.00  0.00     0.198 A 
ATOM     86  F   UNL     1     -12.248   5.700  -6.409  1.00  0.00    -0.203 F 
ATOM     87  F   UNL     1     -11.040   9.907  -3.152  1.00  0.00    -0.200 F 
ATOM     88  C   UNL     1     -11.925   9.094  -5.186  1.00  0.00     0.200 A 
ATOM     89  F   UNL     1     -12.812   8.229  -7.196  1.00  0.00    -0.200 F 
ATOM     90  F   UNL     1     -12.228  10.341  -5.570  1.00  0.00    -0.200 F 
ENDBRANCH  56  80
BRANCH  68  91
ATOM     91  C   UNL     1     -13.694   2.301   0.655  1.00  0.00     0.064 A 
ATOM     92  C   UNL     1     -15.056   2.253   0.330  1.00  0.00     0.173 A 
ATOM     93  C   UNL     1     -13.343   2.497   2.000  1.00  0.00     0.173 A 
ATOM     94  F   UNL     1     -15.440   2.086  -0.945  1.00  0.00    -0.203 F 
ATOM     95  C   UNL     1     -16.031   2.417   1.310  1.00  0.00     0.198 A 
ATOM     96  C   UNL     1     -14.320   2.635   2.981  1.00  0.00     0.198 A 
ATOM     97  F   UNL     1     -12.053   2.547   2.362  1.00  0.00    -0.203 F 
ATOM     98  F   UNL     1     -17.328   2.411   0.971  1.00  0.00    -0.200 F 
ATOM     99  C   UNL     1     -15.663   2.601   2.635  1.00  0.00     0.200 A 
ATOM    100  F   UNL     1     -13.963   2.804   4.262  1.00  0.00    -0.200 F 
ATOM    101  F   UNL     1     -16.603   2.755   3.578  1.00  0.00    -0.200 F 
ENDBRANCH  68  91
ENDBRANCH  42  43
ENDBRANCH  35  37
ENDBRANCH  34  35
ENDBRANCH  33  34
ENDBRANCH   1  33
TORSDOF 17
