REMARK SMILES CN(C)C(=O)CCc1cccc(NC(=O)[C@H]2CCCC[C@@H]2C(=O)OCCOC(=O)c2ccc(-c3c4nc(c(-c5c(F)c(F)c(F)c(F)c5F)c5ccc([nH]5)c(-c5c(F)c(F)c(F)c(F)c5F)c5nc(c(-c6c(F)c(F)c(F)c(F)c6F)c6ccc3[nH]6)C=C5)C=C4)cc2)c1
REMARK SMILES IDX 24 1 22 2 23 3 21 4 16 5 17 6 18 7 20 8 19 9 14 10 13 11
REMARK SMILES IDX 15 13 12 14 8 15 9 16 93 17 10 18 11 19 7 20 6 21 4 22 1 23
REMARK SMILES IDX 2 24 3 25 5 26 25 27 26 28 27 29 28 30 29 31 30 32 31 33
REMARK SMILES IDX 92 34 32 35 91 36 33 37 34 38 35 39 85 40 36 41 90 42 84 43
REMARK SMILES IDX 86 44 37 45 89 46 83 47 82 48 38 50 70 51 50 52 69 53 51 54
REMARK SMILES IDX 54 55 68 56 87 57 52 58 53 59 67 61 88 62 55 63 39 64 40 65
REMARK SMILES IDX 48 66 41 67 42 68 46 69 49 70 43 71 44 72 47 73 45 74 71 75
REMARK SMILES IDX 72 76 80 77 73 78 74 79 78 80 81 81 75 82 76 83 79 84 77 85
REMARK SMILES IDX 56 86 57 87 65 88 58 89 59 90 63 91 66 92 60 93 61 94 64 95
REMARK SMILES IDX 62 96
REMARK H PARENT 13 12 86 49 54 60
REMARK Flexibility Score: inf
ROOT
ATOM      1  O   UNL     1      -5.704   5.565   3.498  1.00  0.00    -0.462 OA
ENDROOT
BRANCH   1   2
ATOM      2  C   UNL     1      -4.493   4.937   3.511  1.00  0.00     0.309 C 
ATOM      3  O   UNL     1      -4.278   3.826   3.945  1.00  0.00    -0.252 OA
BRANCH   2   4
ATOM      4  C   UNL     1      -3.405   5.932   3.059  1.00  0.00     0.111 C 
ATOM      5  C   UNL     1      -2.090   5.193   2.699  1.00  0.00     0.093 C 
ATOM      6  C   UNL     1      -1.248   4.807   3.908  1.00  0.00     0.014 C 
ATOM      7  C   UNL     1      -0.985   5.940   4.871  1.00  0.00     0.001 C 
ATOM      8  C   UNL     1      -3.336   6.961   4.209  1.00  0.00     0.016 C 
ATOM      9  C   UNL     1      -2.201   6.799   5.230  1.00  0.00     0.001 C 
BRANCH   5  10
ATOM     10  C   UNL     1      -1.264   5.570   1.433  1.00  0.00     0.228 C 
ATOM     11  N   UNL     1      -0.298   6.519   1.267  1.00  0.00    -0.326 N 
ATOM     12  H   UNL     1       0.336   6.275   0.555  1.00  0.00     0.169 HD
ATOM     13  O   UNL     1      -1.443   4.873   0.417  1.00  0.00    -0.274 OA
BRANCH  11  14
ATOM     14  C   UNL     1       0.025   7.756   1.852  1.00  0.00     0.041 A 
ATOM     15  C   UNL     1       1.065   9.936   1.649  1.00  0.00    -0.045 A 
ATOM     16  C   UNL     1       0.367  10.415   2.763  1.00  0.00     0.004 A 
ATOM     17  C   UNL     1       0.995   8.573   1.280  1.00  0.00     0.029 A 
ATOM     18  C   UNL     1      -0.543   9.589   3.374  1.00  0.00     0.002 A 
ATOM     19  C   UNL     1      -0.740   8.322   2.839  1.00  0.00     0.026 A 
BRANCH  15  20
ATOM     20  C   UNL     1       1.622  10.954   0.687  1.00  0.00     0.045 C 
BRANCH  20  21
ATOM     21  C   UNL     1       0.747  11.019  -0.576  1.00  0.00     0.105 C 
BRANCH  21  22
ATOM     22  C   UNL     1      -0.698  11.440  -0.299  1.00  0.00     0.222 C 
ATOM     23  C   UNL     1      -3.112  11.039  -0.441  1.00  0.00     0.146 C 
ATOM     24  N   UNL     1      -1.744  10.546  -0.511  1.00  0.00    -0.349 N 
ATOM     25  C   UNL     1      -1.640   9.118  -0.770  1.00  0.00     0.146 C 
ATOM     26  O   UNL     1      -0.907  12.599   0.076  1.00  0.00    -0.275 OA
ENDBRANCH  21  22
ENDBRANCH  20  21
ENDBRANCH  15  20
ENDBRANCH  11  14
ENDBRANCH   5  10
ENDBRANCH   2   4
ENDBRANCH   1   2
BRANCH   1  27
ATOM     27  C   UNL     1      -6.732   5.301   4.490  1.00  0.00     0.274 C 
BRANCH  27  28
ATOM     28  C   UNL     1      -6.731   3.981   5.272  1.00  0.00     0.275 C 
BRANCH  28  29
ATOM     29  O   UNL     1      -5.698   4.029   6.274  1.00  0.00    -0.458 OA
BRANCH  29  30
ATOM     30  C   UNL     1      -5.293   2.837   6.789  1.00  0.00     0.338 C 
ATOM     31  O   UNL     1      -5.867   1.766   6.662  1.00  0.00    -0.246 OA
BRANCH  30  32
ATOM     32  C   UNL     1      -3.979   3.006   7.482  1.00  0.00     0.060 A 
ATOM     33  C   UNL     1      -3.315   4.222   7.425  1.00  0.00     0.016 A 
ATOM     34  C   UNL     1      -3.330   1.945   8.114  1.00  0.00     0.016 A 
ATOM     35  C   UNL     1      -1.981   4.336   7.833  1.00  0.00     0.010 A 
ATOM     36  C   UNL     1      -2.014   2.101   8.614  1.00  0.00     0.010 A 
ATOM     37  C   UNL     1      -1.274   3.284   8.416  1.00  0.00    -0.014 A 
BRANCH  37  38
ATOM     38  C   UNL     1       0.214   3.375   8.707  1.00  0.00     0.031 A 
ATOM     39  C   UNL     1       1.106   2.182   8.413  1.00  0.00     0.074 A 
ATOM     40  C   UNL     1       0.864   4.487   9.134  1.00  0.00     0.049 A 
ATOM     41  N   UNL     1       2.270   1.859   8.926  1.00  0.00    -0.248 NA
ATOM     42  C   UNL     1       0.617   1.224   7.409  1.00  0.00     0.031 C 
ATOM     43  C   UNL     1       0.292   5.818   9.333  1.00  0.00     0.029 A 
ATOM     44  N   UNL     1       2.197   4.671   9.465  1.00  0.00    -0.354 N 
ATOM     45  C   UNL     1       2.580   0.605   8.410  1.00  0.00     0.074 A 
ATOM     46  C   UNL     1       1.508   0.247   7.506  1.00  0.00     0.031 C 
ATOM     47  C   UNL     1       1.264   6.685   9.654  1.00  0.00     0.029 A 
ATOM     48  C   UNL     1       2.500   5.948   9.879  1.00  0.00     0.049 A 
ATOM     49  H   UNL     1       2.867   3.952   9.410  1.00  0.00     0.167 HD
ATOM     50  C   UNL     1       3.648  -0.185   8.685  1.00  0.00     0.037 A 
ATOM     51  C   UNL     1       3.596   6.471  10.471  1.00  0.00     0.037 A 
ATOM     52  C   UNL     1       4.788   0.217   9.469  1.00  0.00     0.049 A 
ATOM     53  C   UNL     1       4.745   5.574  10.848  1.00  0.00     0.074 A 
ATOM     54  C   UNL     1       5.898  -0.529   9.834  1.00  0.00     0.029 A 
ATOM     55  N   UNL     1       4.992   1.495   9.960  1.00  0.00    -0.354 N 
ATOM     56  N   UNL     1       4.930   4.307  10.580  1.00  0.00    -0.248 NA
ATOM     57  C   UNL     1       5.812   6.174  11.666  1.00  0.00     0.031 C 
ATOM     58  C   UNL     1       6.763   0.293  10.566  1.00  0.00     0.029 A 
ATOM     59  C   UNL     1       6.208   1.560  10.624  1.00  0.00     0.049 A 
ATOM     60  H   UNL     1       4.367   2.248   9.854  1.00  0.00     0.167 HD
ATOM     61  C   UNL     1       6.128   3.959  11.192  1.00  0.00     0.074 A 
ATOM     62  C   UNL     1       6.644   5.154  11.822  1.00  0.00     0.031 C 
ATOM     63  C   UNL     1       6.733   2.748  11.241  1.00  0.00     0.037 A 
BRANCH  50  64
ATOM     64  C   UNL     1       3.607  -1.605   8.200  1.00  0.00     0.064 A 
ATOM     65  C   UNL     1       3.820  -1.956   6.862  1.00  0.00     0.173 A 
ATOM     66  C   UNL     1       3.394  -2.641   9.126  1.00  0.00     0.173 A 
ATOM     67  F   UNL     1       4.018  -1.005   5.937  1.00  0.00    -0.203 F 
ATOM     68  C   UNL     1       3.797  -3.292   6.463  1.00  0.00     0.198 A 
ATOM     69  C   UNL     1       3.400  -3.974   8.729  1.00  0.00     0.198 A 
ATOM     70  F   UNL     1       3.197  -2.357  10.423  1.00  0.00    -0.203 F 
ATOM     71  F   UNL     1       3.961  -3.606   5.170  1.00  0.00    -0.200 F 
ATOM     72  C   UNL     1       3.595  -4.298   7.397  1.00  0.00     0.200 A 
ATOM     73  F   UNL     1       3.222  -4.943   9.638  1.00  0.00    -0.200 F 
ATOM     74  F   UNL     1       3.583  -5.582   7.011  1.00  0.00    -0.200 F 
ENDBRANCH  50  64
BRANCH  51  75
ATOM     75  C   UNL     1       3.617   7.907  10.877  1.00  0.00     0.064 A 
ATOM     76  C   UNL     1       4.537   8.806  10.320  1.00  0.00     0.173 A 
ATOM     77  C   UNL     1       2.744   8.400  11.861  1.00  0.00     0.173 A 
ATOM     78  F   UNL     1       5.428   8.377   9.413  1.00  0.00    -0.203 F 
ATOM     79  C   UNL     1       4.581  10.139  10.729  1.00  0.00     0.198 A 
ATOM     80  C   UNL     1       2.760   9.740  12.238  1.00  0.00     0.198 A 
ATOM     81  F   UNL     1       1.859   7.580  12.446  1.00  0.00    -0.203 F 
ATOM     82  F   UNL     1       5.505  10.964  10.219  1.00  0.00    -0.200 F 
ATOM     83  C   UNL     1       3.684  10.607  11.678  1.00  0.00     0.200 A 
ATOM     84  F   UNL     1       1.881  10.188  13.144  1.00  0.00    -0.200 F 
ATOM     85  F   UNL     1       3.719  11.890  12.062  1.00  0.00    -0.200 F 
ENDBRANCH  51  75
BRANCH  63  86
ATOM     86  C   UNL     1       8.041   2.654  11.968  1.00  0.00     0.064 A 
ATOM     87  C   UNL     1       8.106   2.688  13.368  1.00  0.00     0.173 A 
ATOM     88  C   UNL     1       9.241   2.500  11.258  1.00  0.00     0.173 A 
ATOM     89  F   UNL     1       6.988   2.853  14.092  1.00  0.00    -0.203 F 
ATOM     90  C   UNL     1       9.327   2.591  14.031  1.00  0.00     0.198 A 
ATOM     91  C   UNL     1      10.458   2.379  11.924  1.00  0.00     0.198 A 
ATOM     92  F   UNL     1       9.233   2.460   9.917  1.00  0.00    -0.203 F 
ATOM     93  F   UNL     1       9.370   2.667  15.369  1.00  0.00    -0.200 F 
ATOM     94  C   UNL     1      10.501   2.431  13.309  1.00  0.00     0.200 A 
ATOM     95  F   UNL     1      11.590   2.217  11.226  1.00  0.00    -0.200 F 
ATOM     96  F   UNL     1      11.675   2.334  13.949  1.00  0.00    -0.200 F 
ENDBRANCH  63  86
ENDBRANCH  37  38
ENDBRANCH  30  32
ENDBRANCH  29  30
ENDBRANCH  28  29
ENDBRANCH  27  28
ENDBRANCH   1  27
TORSDOF 16
