REMARK SMILES CSc1ccc(C[NH+]2CCC(CC(=O)OCCOC(=O)c3ccc(-c4c5nc(c(-c6c(F)c(F)c(F)c(F)c6F)c6ccc([nH]6)c(-c6c(F)c(F)c(F)c(F)c6F)c6nc(c(-c7c(F)c(F)c(F)c(F)c7F)c7ccc4[nH]7)C=C6)C=C5)cc3)CC2)cc1
REMARK SMILES IDX 16 1 15 2 13 3 14 4 12 5 11 6 8 7 9 8 85 9 10 11 84 12 7 13
REMARK SMILES IDX 6 14 3 15 4 16 87 17 5 18 86 19 2 20 1 21 17 22 18 23 19 24
REMARK SMILES IDX 20 25 21 26 22 27 83 28 23 29 82 30 24 31 25 32 26 33 76 34
REMARK SMILES IDX 27 35 81 36 75 37 77 38 28 39 80 40 74 41 73 42 29 44 61 45
REMARK SMILES IDX 41 46 60 47 42 48 45 49 59 50 78 51 43 52 44 53 58 55 79 56
REMARK SMILES IDX 46 57 30 58 31 59 39 60 32 61 33 62 37 63 40 64 34 65 35 66
REMARK SMILES IDX 38 67 36 68 62 69 63 70 71 71 64 72 65 73 69 74 72 75 66 76
REMARK SMILES IDX 67 77 70 78 68 79 47 80 48 81 56 82 49 83 50 84 54 85 57 86
REMARK SMILES IDX 51 87 52 88 55 89 53 90
REMARK H PARENT 8 10 77 43 45 54
REMARK Flexibility Score: inf
ROOT
ATOM      1  C   UNL     1       6.139  -8.444   6.059  1.00  0.00     0.274 C 
ENDROOT
BRANCH   1   2
ATOM      2  O   UNL     1       5.291  -8.788   4.947  1.00  0.00    -0.462 OA
BRANCH   2   3
ATOM      3  C   UNL     1       4.275  -9.651   5.191  1.00  0.00     0.306 C 
ATOM      4  O   UNL     1       4.050 -10.181   6.273  1.00  0.00    -0.252 OA
BRANCH   3   5
ATOM      5  C   UNL     1       3.466  -9.955   3.948  1.00  0.00     0.126 C 
BRANCH   5   6
ATOM      6  C   UNL     1       2.984  -8.730   3.153  1.00  0.00     0.011 C 
ATOM      7  N   UNL     1       2.435  -7.560   0.521  1.00  0.00    -0.331 N 
ATOM      8  C   UNL     1       3.557  -7.061   1.318  1.00  0.00     0.262 C 
ATOM      9  C   UNL     1       1.322  -7.965   1.380  1.00  0.00     0.262 C 
ATOM     10  H   UNL     1       2.755  -8.400   0.039  1.00  0.00     0.348 HD
ATOM     11  C   UNL     1       4.084  -8.158   2.244  1.00  0.00     0.066 C 
ATOM     12  C   UNL     1       1.756  -9.105   2.305  1.00  0.00     0.066 C 
BRANCH   7  13
ATOM     13  C   UNL     1       2.044  -6.650  -0.566  1.00  0.00     0.299 C 
BRANCH  13  14
ATOM     14  C   UNL     1       1.652  -5.241  -0.170  1.00  0.00     0.006 A 
ATOM     15  C   UNL     1       0.960  -2.630   0.650  1.00  0.00     0.007 A 
ATOM     16  C   UNL     1       0.020  -3.664   0.698  1.00  0.00     0.015 A 
ATOM     17  C   UNL     1       2.248  -2.907   0.186  1.00  0.00     0.015 A 
ATOM     18  C   UNL     1       0.358  -4.954   0.280  1.00  0.00     0.011 A 
ATOM     19  C   UNL     1       2.590  -4.200  -0.225  1.00  0.00     0.011 A 
BRANCH  15  20
ATOM     20  S   UNL     1       0.481  -1.021   1.259  1.00  0.00    -0.130 SA
ATOM     21  C   UNL     1       1.133   0.051  -0.047  1.00  0.00     0.091 C 
ENDBRANCH  15  20
ENDBRANCH  13  14
ENDBRANCH   7  13
ENDBRANCH   5   6
ENDBRANCH   3   5
ENDBRANCH   2   3
ENDBRANCH   1   2
BRANCH   1  22
ATOM     22  C   UNL     1       5.708  -7.127   6.706  1.00  0.00     0.275 C 
BRANCH  22  23
ATOM     23  O   UNL     1       4.493  -7.291   7.459  1.00  0.00    -0.458 OA
BRANCH  23  24
ATOM     24  C   UNL     1       3.358  -6.939   6.812  1.00  0.00     0.338 C 
ATOM     25  O   UNL     1       3.259  -6.436   5.707  1.00  0.00    -0.246 OA
BRANCH  24  26
ATOM     26  C   UNL     1       2.196  -7.367   7.606  1.00  0.00     0.060 A 
ATOM     27  C   UNL     1       1.330  -8.319   7.059  1.00  0.00     0.016 A 
ATOM     28  C   UNL     1       1.927  -6.790   8.848  1.00  0.00     0.016 A 
ATOM     29  C   UNL     1       0.186  -8.700   7.756  1.00  0.00     0.010 A 
ATOM     30  C   UNL     1       0.777  -7.173   9.546  1.00  0.00     0.010 A 
ATOM     31  C   UNL     1      -0.104  -8.122   9.000  1.00  0.00    -0.014 A 
BRANCH  31  32
ATOM     32  C   UNL     1      -1.359  -8.474   9.708  1.00  0.00     0.031 A 
ATOM     33  C   UNL     1      -2.511  -7.511   9.706  1.00  0.00     0.074 A 
ATOM     34  C   UNL     1      -1.467  -9.657  10.339  1.00  0.00     0.049 A 
ATOM     35  N   UNL     1      -3.664  -7.595  10.320  1.00  0.00    -0.248 NA
ATOM     36  C   UNL     1      -2.342  -6.289   8.904  1.00  0.00     0.031 C 
ATOM     37  C   UNL     1      -0.433 -10.690  10.377  1.00  0.00     0.029 A 
ATOM     38  N   UNL     1      -2.499 -10.186  11.073  1.00  0.00    -0.354 N 
ATOM     39  C   UNL     1      -4.355  -6.439   9.985  1.00  0.00     0.074 A 
ATOM     40  C   UNL     1      -3.483  -5.656   9.135  1.00  0.00     0.031 C 
ATOM     41  C   UNL     1      -0.883 -11.730  11.099  1.00  0.00     0.029 A 
ATOM     42  C   UNL     1      -2.217 -11.420  11.605  1.00  0.00     0.049 A 
ATOM     43  H   UNL     1      -3.358  -9.724  11.206  1.00  0.00     0.167 HD
ATOM     44  C   UNL     1      -5.607  -6.070  10.348  1.00  0.00     0.037 A 
ATOM     45  C   UNL     1      -2.947 -12.199  12.426  1.00  0.00     0.037 A 
ATOM     46  C   UNL     1      -6.473  -6.850  11.193  1.00  0.00     0.049 A 
ATOM     47  C   UNL     1      -4.306 -11.730  12.872  1.00  0.00     0.074 A 
ATOM     48  C   UNL     1      -7.755  -6.556  11.625  1.00  0.00     0.029 A 
ATOM     49  N   UNL     1      -6.142  -8.082  11.737  1.00  0.00    -0.354 N 
ATOM     50  N   UNL     1      -4.952 -10.635  12.554  1.00  0.00    -0.248 NA
ATOM     51  C   UNL     1      -5.038 -12.609  13.797  1.00  0.00     0.031 C 
ATOM     52  C   UNL     1      -8.186  -7.595  12.457  1.00  0.00     0.029 A 
ATOM     53  C   UNL     1      -7.190  -8.555  12.511  1.00  0.00     0.049 A 
ATOM     54  H   UNL     1      -5.288  -8.552  11.594  1.00  0.00     0.167 HD
ATOM     55  C   UNL     1      -6.171 -10.704  13.214  1.00  0.00     0.074 A 
ATOM     56  C   UNL     1      -6.182 -11.955  13.942  1.00  0.00     0.031 C 
ATOM     57  C   UNL     1      -7.189  -9.810  13.218  1.00  0.00     0.037 A 
BRANCH  44  58
ATOM     58  C   UNL     1      -6.111  -4.751   9.843  1.00  0.00     0.064 A 
ATOM     59  C   UNL     1      -6.484  -4.573   8.502  1.00  0.00     0.173 A 
ATOM     60  C   UNL     1      -6.260  -3.664  10.717  1.00  0.00     0.173 A 
ATOM     61  F   UNL     1      -6.348  -5.579   7.625  1.00  0.00    -0.203 F 
ATOM     62  C   UNL     1      -6.967  -3.348   8.050  1.00  0.00     0.198 A 
ATOM     63  C   UNL     1      -6.767  -2.448  10.267  1.00  0.00     0.198 A 
ATOM     64  F   UNL     1      -5.922  -3.784  12.009  1.00  0.00    -0.203 F 
ATOM     65  F   UNL     1      -7.282  -3.189   6.757  1.00  0.00    -0.200 F 
ATOM     66  C   UNL     1      -7.115  -2.289   8.934  1.00  0.00     0.200 A 
ATOM     67  F   UNL     1      -6.919  -1.428  11.124  1.00  0.00    -0.200 F 
ATOM     68  F   UNL     1      -7.588  -1.113   8.499  1.00  0.00    -0.200 F 
ENDBRANCH  44  58
BRANCH  45  69
ATOM     69  C   UNL     1      -2.405 -13.501  12.893  1.00  0.00     0.064 A 
ATOM     70  C   UNL     1      -2.969 -14.711  12.467  1.00  0.00     0.173 A 
ATOM     71  C   UNL     1      -1.329 -13.561  13.791  1.00  0.00     0.173 A 
ATOM     72  F   UNL     1      -4.017 -14.703  11.630  1.00  0.00    -0.203 F 
ATOM     73  C   UNL     1      -2.489 -15.932  12.936  1.00  0.00     0.198 A 
ATOM     74  C   UNL     1      -0.833 -14.784  14.238  1.00  0.00     0.198 A 
ATOM     75  F   UNL     1      -0.758 -12.431  14.233  1.00  0.00    -0.203 F 
ATOM     76  F   UNL     1      -3.078 -17.073  12.550  1.00  0.00    -0.200 F 
ATOM     77  C   UNL     1      -1.419 -15.968  13.816  1.00  0.00     0.200 A 
ATOM     78  F   UNL     1       0.206 -14.814  15.083  1.00  0.00    -0.200 F 
ATOM     79  F   UNL     1      -0.959 -17.142  14.268  1.00  0.00    -0.200 F 
ENDBRANCH  45  69
BRANCH  57  80
ATOM     80  C   UNL     1      -8.417 -10.172  14.001  1.00  0.00     0.064 A 
ATOM     81  C   UNL     1      -8.432 -10.136  15.403  1.00  0.00     0.173 A 
ATOM     82  C   UNL     1      -9.601 -10.528  13.339  1.00  0.00     0.173 A 
ATOM     83  F   UNL     1      -7.319  -9.817  16.082  1.00  0.00    -0.203 F 
ATOM     84  C   UNL     1      -9.582 -10.466  16.114  1.00  0.00     0.198 A 
ATOM     85  C   UNL     1     -10.757 -10.832  14.052  1.00  0.00     0.198 A 
ATOM     86  F   UNL     1      -9.639 -10.572  11.998  1.00  0.00    -0.203 F 
ATOM     87  F   UNL     1      -9.562 -10.468  17.454  1.00  0.00    -0.200 F 
ATOM     88  C   UNL     1     -10.745 -10.808  15.438  1.00  0.00     0.200 A 
ATOM     89  F   UNL     1     -11.882 -11.153  13.398  1.00  0.00    -0.200 F 
ATOM     90  F   UNL     1     -11.852 -11.122  16.125  1.00  0.00    -0.200 F 
ENDBRANCH  57  80
ENDBRANCH  31  32
ENDBRANCH  24  26
ENDBRANCH  23  24
ENDBRANCH  22  23
ENDBRANCH   1  22
TORSDOF 15
