REMARK SMILES C[C@@H](CCO)Sc1cc(C(=O)OCCOC(=O)c2ccc(-c3c4nc(c(-c5c(F)c(F)c(F)c(F)c5F)c5ccc([nH]5)c(-c5c(F)c(F)c(F)c(F)c5F)c5nc(c(-c6c(F)c(F)c(F)c(F)c6F)c6ccc3[nH]6)C=C5)C=C4)cc2)c2ccccc2n1
REMARK SMILES IDX 12 1 10 2 11 3 9 4 7 5 8 6 87 7 86 8 81 9 85 10 82 11 84 12
REMARK SMILES IDX 83 13 6 14 2 15 1 16 3 17 4 18 5 19 13 21 14 22 15 23 16 24
REMARK SMILES IDX 17 25 18 26 19 27 80 28 20 29 79 30 21 31 22 32 23 33 73 34
REMARK SMILES IDX 24 35 78 36 72 37 74 38 25 39 77 40 71 41 70 42 26 44 58 45
REMARK SMILES IDX 38 46 57 47 39 48 42 49 56 50 75 51 40 52 41 53 55 55 76 56
REMARK SMILES IDX 43 57 27 58 28 59 36 60 29 61 30 62 34 63 37 64 31 65 32 66
REMARK SMILES IDX 35 67 33 68 59 69 60 70 68 71 61 72 62 73 66 74 69 75 63 76
REMARK SMILES IDX 64 77 67 78 65 79 44 80 45 81 53 82 46 83 47 84 51 85 54 86
REMARK SMILES IDX 48 87 49 88 52 89 50 90
REMARK H PARENT 5 20 74 43 42 54
REMARK Flexibility Score: inf
ROOT
ATOM      1  O   UNL     1      -0.967   5.386   0.980  1.00  0.00    -0.458 OA
ENDROOT
BRANCH   1   2
ATOM      2  C   UNL     1      -1.092   4.338   0.132  1.00  0.00     0.339 C 
ATOM      3  O   UNL     1      -0.446   4.148  -0.885  1.00  0.00    -0.246 OA
BRANCH   2   4
ATOM      4  C   UNL     1      -2.062   3.341   0.655  1.00  0.00     0.072 A 
ATOM      5  C   UNL     1      -2.534   1.012   0.976  1.00  0.00     0.098 A 
ATOM      6  C   UNL     1      -1.709   1.992   0.472  1.00  0.00     0.052 A 
ATOM      7  N   UNL     1      -3.689   1.333   1.591  1.00  0.00    -0.241 NA
ATOM      8  C   UNL     1      -4.074   2.611   1.703  1.00  0.00     0.072 A 
ATOM      9  C   UNL     1      -3.295   3.691   1.256  1.00  0.00     0.015 A 
ATOM     10  C   UNL     1      -5.316   2.854   2.272  1.00  0.00     0.029 A 
ATOM     11  C   UNL     1      -3.820   5.004   1.408  1.00  0.00     0.011 A 
ATOM     12  C   UNL     1      -5.822   4.145   2.418  1.00  0.00     0.002 A 
ATOM     13  C   UNL     1      -5.068   5.225   1.988  1.00  0.00     0.001 A 
BRANCH   5  14
ATOM     14  S   UNL     1      -2.310  -0.745   0.904  1.00  0.00    -0.103 SA
BRANCH  14  15
ATOM     15  C   UNL     1      -0.525  -1.170   1.002  1.00  0.00     0.052 C 
ATOM     16  C   UNL     1       0.197  -0.908  -0.318  1.00  0.00     0.020 C 
BRANCH  15  17
ATOM     17  C   UNL     1       0.294  -0.843   2.270  1.00  0.00     0.043 C 
BRANCH  17  18
ATOM     18  C   UNL     1       0.114   0.495   2.966  1.00  0.00     0.157 C 
BRANCH  18  19
ATOM     19  O   UNL     1      -1.027   0.500   3.807  1.00  0.00    -0.396 OA
ATOM     20  H   UNL     1      -1.822   0.341   3.274  1.00  0.00     0.210 HD
ENDBRANCH  18  19
ENDBRANCH  17  18
ENDBRANCH  15  17
ENDBRANCH  14  15
ENDBRANCH   5  14
ENDBRANCH   2   4
ENDBRANCH   1   2
BRANCH   1  21
ATOM     21  C   UNL     1      -0.080   6.455   0.585  1.00  0.00     0.275 C 
BRANCH  21  22
ATOM     22  C   UNL     1       1.109   6.526   1.537  1.00  0.00     0.275 C 
BRANCH  22  23
ATOM     23  O   UNL     1       1.929   5.367   1.317  1.00  0.00    -0.458 OA
BRANCH  23  24
ATOM     24  C   UNL     1       2.211   4.616   2.401  1.00  0.00     0.338 C 
ATOM     25  O   UNL     1       1.946   4.852   3.569  1.00  0.00    -0.246 OA
BRANCH  24  26
ATOM     26  C   UNL     1       2.895   3.390   1.958  1.00  0.00     0.060 A 
ATOM     27  C   UNL     1       2.318   2.605   0.965  1.00  0.00     0.016 A 
ATOM     28  C   UNL     1       4.057   2.961   2.600  1.00  0.00     0.016 A 
ATOM     29  C   UNL     1       2.853   1.351   0.686  1.00  0.00     0.010 A 
ATOM     30  C   UNL     1       4.635   1.731   2.251  1.00  0.00     0.010 A 
ATOM     31  C   UNL     1       4.010   0.878   1.325  1.00  0.00    -0.014 A 
BRANCH  31  32
ATOM     32  C   UNL     1       4.488  -0.524   1.089  1.00  0.00     0.031 A 
ATOM     33  C   UNL     1       4.706  -1.466   2.253  1.00  0.00     0.074 A 
ATOM     34  C   UNL     1       4.652  -1.013  -0.160  1.00  0.00     0.049 A 
ATOM     35  N   UNL     1       5.270  -2.651   2.268  1.00  0.00    -0.248 NA
ATOM     36  C   UNL     1       4.233  -1.020   3.572  1.00  0.00     0.031 C 
ATOM     37  C   UNL     1       4.414  -0.276  -1.400  1.00  0.00     0.029 A 
ATOM     38  N   UNL     1       5.021  -2.267  -0.592  1.00  0.00    -0.354 N 
ATOM     39  C   UNL     1       5.296  -3.046   3.601  1.00  0.00     0.074 A 
ATOM     40  C   UNL     1       4.670  -1.988   4.364  1.00  0.00     0.031 C 
ATOM     41  C   UNL     1       4.548  -1.109  -2.443  1.00  0.00     0.029 A 
ATOM     42  C   UNL     1       5.010  -2.406  -1.960  1.00  0.00     0.049 A 
ATOM     43  H   UNL     1       5.271  -2.996   0.021  1.00  0.00     0.167 HD
ATOM     44  C   UNL     1       5.805  -4.180   4.142  1.00  0.00     0.037 A 
ATOM     45  C   UNL     1       5.375  -3.436  -2.749  1.00  0.00     0.037 A 
ATOM     46  C   UNL     1       6.351  -5.278   3.386  1.00  0.00     0.049 A 
ATOM     47  C   UNL     1       5.961  -4.674  -2.131  1.00  0.00     0.074 A 
ATOM     48  C   UNL     1       6.892  -6.465   3.854  1.00  0.00     0.029 A 
ATOM     49  N   UNL     1       6.395  -5.340   2.003  1.00  0.00    -0.354 N 
ATOM     50  N   UNL     1       6.103  -4.979  -0.865  1.00  0.00    -0.248 NA
ATOM     51  C   UNL     1       6.483  -5.691  -3.056  1.00  0.00     0.031 C 
ATOM     52  C   UNL     1       7.290  -7.232   2.754  1.00  0.00     0.029 A 
ATOM     53  C   UNL     1       6.962  -6.540   1.601  1.00  0.00     0.049 A 
ATOM     54  H   UNL     1       6.071  -4.636   1.395  1.00  0.00     0.167 HD
ATOM     55  C   UNL     1       6.739  -6.213  -0.841  1.00  0.00     0.074 A 
ATOM     56  C   UNL     1       6.922  -6.620  -2.218  1.00  0.00     0.031 C 
ATOM     57  C   UNL     1       7.150  -6.934   0.230  1.00  0.00     0.037 A 
BRANCH  44  58
ATOM     58  C   UNL     1       5.848  -4.278   5.639  1.00  0.00     0.064 A 
ATOM     59  C   UNL     1       4.703  -4.532   6.406  1.00  0.00     0.173 A 
ATOM     60  C   UNL     1       7.076  -4.163   6.309  1.00  0.00     0.173 A 
ATOM     61  F   UNL     1       3.504  -4.637   5.813  1.00  0.00    -0.203 F 
ATOM     62  C   UNL     1       4.783  -4.646   7.792  1.00  0.00     0.198 A 
ATOM     63  C   UNL     1       7.157  -4.304   7.691  1.00  0.00     0.198 A 
ATOM     64  F   UNL     1       8.203  -3.928   5.620  1.00  0.00    -0.203 F 
ATOM     65  F   UNL     1       3.671  -4.852   8.511  1.00  0.00    -0.200 F 
ATOM     66  C   UNL     1       6.009  -4.540   8.432  1.00  0.00     0.200 A 
ATOM     67  F   UNL     1       8.345  -4.214   8.305  1.00  0.00    -0.200 F 
ATOM     68  F   UNL     1       6.085  -4.660   9.765  1.00  0.00    -0.200 F 
ENDBRANCH  44  58
BRANCH  45  69
ATOM     69  C   UNL     1       5.258  -3.316  -4.227  1.00  0.00     0.064 A 
ATOM     70  C   UNL     1       4.348  -4.106  -4.944  1.00  0.00     0.173 A 
ATOM     71  C   UNL     1       6.048  -2.412  -4.952  1.00  0.00     0.173 A 
ATOM     72  F   UNL     1       3.596  -5.011  -4.301  1.00  0.00    -0.203 F 
ATOM     73  C   UNL     1       4.234  -3.994  -6.329  1.00  0.00     0.198 A 
ATOM     74  C   UNL     1       5.909  -2.276  -6.331  1.00  0.00     0.198 A 
ATOM     75  F   UNL     1       6.942  -1.641  -4.315  1.00  0.00    -0.203 F 
ATOM     76  F   UNL     1       3.385  -4.787  -6.995  1.00  0.00    -0.200 F 
ATOM     77  C   UNL     1       5.006  -3.071  -7.019  1.00  0.00     0.200 A 
ATOM     78  F   UNL     1       6.646  -1.372  -6.990  1.00  0.00    -0.200 F 
ATOM     79  F   UNL     1       4.884  -2.952  -8.348  1.00  0.00    -0.200 F 
ENDBRANCH  45  69
BRANCH  57  80
ATOM     80  C   UNL     1       7.838  -8.238  -0.044  1.00  0.00     0.064 A 
ATOM     81  C   UNL     1       9.155  -8.280  -0.524  1.00  0.00     0.173 A 
ATOM     82  C   UNL     1       7.186  -9.456   0.198  1.00  0.00     0.173 A 
ATOM     83  F   UNL     1       9.814  -7.141  -0.788  1.00  0.00    -0.203 F 
ATOM     84  C   UNL     1       9.788  -9.495  -0.772  1.00  0.00     0.198 A 
ATOM     85  C   UNL     1       7.830 -10.669  -0.029  1.00  0.00     0.198 A 
ATOM     86  F   UNL     1       5.927  -9.469   0.661  1.00  0.00    -0.203 F 
ATOM     87  F   UNL     1      11.032  -9.512  -1.271  1.00  0.00    -0.200 F 
ATOM     88  C   UNL     1       9.127 -10.688  -0.520  1.00  0.00     0.200 A 
ATOM     89  F   UNL     1       7.193 -11.822   0.223  1.00  0.00    -0.200 F 
ATOM     90  F   UNL     1       9.738 -11.857  -0.758  1.00  0.00    -0.200 F 
ENDBRANCH  57  80
ENDBRANCH  31  32
ENDBRANCH  24  26
ENDBRANCH  23  24
ENDBRANCH  22  23
ENDBRANCH  21  22
ENDBRANCH   1  21
TORSDOF 16
