REMARK SMILES O=C(OCCOC(=O)c1ccc2c(c1)C(=O)O[C@H]2c1ccc(F)cc1)c1ccc(-c2c3nc(c(-c4c(F)c(F)c(F)c(F)c4F)c4ccc([nH]4)c(-c4c(F)c(F)c(F)c(F)c4F)c4nc(c(-c5c(F)c(F)c(F)c(F)c5F)c5ccc2[nH]5)C=C4)C=C3)cc1
REMARK SMILES IDX 4 1 3 2 2 3 1 4 26 5 27 6 88 7 28 8 87 9 29 10 30 11 31 12
REMARK SMILES IDX 81 13 32 14 86 15 80 16 82 17 33 18 85 19 79 20 78 21 34 23
REMARK SMILES IDX 66 24 46 25 65 26 47 27 50 28 64 29 83 30 48 31 49 32 63 34
REMARK SMILES IDX 84 35 51 36 35 37 36 38 44 39 37 40 38 41 42 42 45 43 39 44
REMARK SMILES IDX 40 45 43 46 41 47 67 48 68 49 76 50 69 51 70 52 74 53 77 54
REMARK SMILES IDX 71 55 72 56 75 57 73 58 52 59 53 60 61 61 54 62 55 63 59 64
REMARK SMILES IDX 62 65 56 66 57 67 60 68 58 69 5 70 6 71 7 72 8 73 9 74 10 75
REMARK SMILES IDX 14 76 11 77 13 78 12 79 15 80 18 81 16 82 17 83 19 84 20 85
REMARK SMILES IDX 25 86 21 87 24 88 22 89 23 90
REMARK H PARENT 82 22 50 33
REMARK Flexibility Score: inf
ROOT
ATOM      1  C   UNL     1       4.032   1.615  -0.478  1.00  0.00     0.275 C 
ENDROOT
BRANCH   1   2
ATOM      2  O   UNL     1       2.934   0.762  -0.854  1.00  0.00    -0.458 OA
BRANCH   2   3
ATOM      3  C   UNL     1       2.788  -0.580  -0.770  1.00  0.00     0.338 C 
ATOM      4  O   UNL     1       1.832  -1.109  -1.336  1.00  0.00    -0.246 OA
BRANCH   3   5
ATOM      5  C   UNL     1       3.640  -1.461   0.090  1.00  0.00     0.060 A 
ATOM      6  C   UNL     1       4.971  -1.230   0.431  1.00  0.00     0.016 A 
ATOM      7  C   UNL     1       3.029  -2.631   0.589  1.00  0.00     0.016 A 
ATOM      8  C   UNL     1       5.648  -2.084   1.303  1.00  0.00     0.010 A 
ATOM      9  C   UNL     1       3.696  -3.486   1.472  1.00  0.00     0.010 A 
ATOM     10  C   UNL     1       5.014  -3.207   1.839  1.00  0.00    -0.014 A 
BRANCH  10  11
ATOM     11  C   UNL     1       5.793  -4.113   2.709  1.00  0.00     0.031 A 
ATOM     12  C   UNL     1       6.353  -5.373   2.131  1.00  0.00     0.074 A 
ATOM     13  C   UNL     1       6.094  -3.742   3.966  1.00  0.00     0.049 A 
ATOM     14  N   UNL     1       7.170  -6.232   2.680  1.00  0.00    -0.248 NA
ATOM     15  C   UNL     1       5.987  -5.687   0.741  1.00  0.00     0.031 C 
ATOM     16  C   UNL     1       5.689  -2.482   4.584  1.00  0.00     0.029 A 
ATOM     17  N   UNL     1       6.820  -4.371   4.944  1.00  0.00    -0.354 N 
ATOM     18  C   UNL     1       7.468  -7.148   1.684  1.00  0.00     0.074 A 
ATOM     19  C   UNL     1       6.685  -6.791   0.521  1.00  0.00     0.031 C 
ATOM     20  C   UNL     1       6.137  -2.446   5.849  1.00  0.00     0.029 A 
ATOM     21  C   UNL     1       6.860  -3.678   6.130  1.00  0.00     0.049 A 
ATOM     22  H   UNL     1       7.270  -5.236   4.809  1.00  0.00     0.167 HD
ATOM     23  C   UNL     1       8.354  -8.167   1.729  1.00  0.00     0.037 A 
ATOM     24  C   UNL     1       7.420  -3.998   7.310  1.00  0.00     0.037 A 
ATOM     25  C   UNL     1       9.107  -8.527   2.900  1.00  0.00     0.049 A 
ATOM     26  C   UNL     1       8.260  -5.240   7.385  1.00  0.00     0.074 A 
ATOM     27  C   UNL     1      10.009  -9.563   3.059  1.00  0.00     0.029 A 
ATOM     28  N   UNL     1       9.035  -7.865   4.118  1.00  0.00    -0.354 N 
ATOM     29  N   UNL     1       8.557  -6.088   6.429  1.00  0.00    -0.248 NA
ATOM     30  C   UNL     1       8.876  -5.552   8.681  1.00  0.00     0.031 C 
ATOM     31  C   UNL     1      10.444  -9.559   4.387  1.00  0.00     0.029 A 
ATOM     32  C   UNL     1       9.852  -8.491   5.044  1.00  0.00     0.049 A 
ATOM     33  H   UNL     1       8.484  -7.068   4.297  1.00  0.00     0.167 HD
ATOM     34  C   UNL     1       9.423  -7.010   6.995  1.00  0.00     0.074 A 
ATOM     35  C   UNL     1       9.607  -6.615   8.377  1.00  0.00     0.031 C 
ATOM     36  C   UNL     1      10.018  -8.081   6.416  1.00  0.00     0.037 A 
BRANCH  23  37
ATOM     37  C   UNL     1       8.558  -8.958   0.475  1.00  0.00     0.064 A 
ATOM     38  C   UNL     1       8.066 -10.265   0.366  1.00  0.00     0.173 A 
ATOM     39  C   UNL     1       9.285  -8.433  -0.604  1.00  0.00     0.173 A 
ATOM     40  F   UNL     1       7.359 -10.807   1.369  1.00  0.00    -0.203 F 
ATOM     41  C   UNL     1       8.307 -11.026  -0.774  1.00  0.00     0.198 A 
ATOM     42  C   UNL     1       9.507  -9.189  -1.752  1.00  0.00     0.198 A 
ATOM     43  F   UNL     1       9.756  -7.177  -0.554  1.00  0.00    -0.203 F 
ATOM     44  F   UNL     1       7.846 -12.282  -0.850  1.00  0.00    -0.200 F 
ATOM     45  C   UNL     1       9.026 -10.488  -1.832  1.00  0.00     0.200 A 
ATOM     46  F   UNL     1      10.180  -8.659  -2.782  1.00  0.00    -0.200 F 
ATOM     47  F   UNL     1       9.251 -11.219  -2.932  1.00  0.00    -0.200 F 
ENDBRANCH  23  37
BRANCH  24  48
ATOM     48  C   UNL     1       7.218  -3.124   8.495  1.00  0.00     0.064 A 
ATOM     49  C   UNL     1       5.966  -3.051   9.127  1.00  0.00     0.173 A 
ATOM     50  C   UNL     1       8.264  -2.361   9.028  1.00  0.00     0.173 A 
ATOM     51  F   UNL     1       4.942  -3.785   8.669  1.00  0.00    -0.203 F 
ATOM     52  C   UNL     1       5.769  -2.239  10.243  1.00  0.00     0.198 A 
ATOM     53  C   UNL     1       8.071  -1.567  10.158  1.00  0.00     0.198 A 
ATOM     54  F   UNL     1       9.485  -2.420   8.476  1.00  0.00    -0.203 F 
ATOM     55  F   UNL     1       4.566  -2.189  10.832  1.00  0.00    -0.200 F 
ATOM     56  C   UNL     1       6.823  -1.503  10.761  1.00  0.00     0.200 A 
ATOM     57  F   UNL     1       9.101  -0.884  10.677  1.00  0.00    -0.200 F 
ATOM     58  F   UNL     1       6.645  -0.748  11.854  1.00  0.00    -0.200 F 
ENDBRANCH  24  48
BRANCH  36  59
ATOM     59  C   UNL     1      10.940  -8.896   7.272  1.00  0.00     0.064 A 
ATOM     60  C   UNL     1      12.323  -8.887   7.035  1.00  0.00     0.173 A 
ATOM     61  C   UNL     1      10.448  -9.732   8.283  1.00  0.00     0.173 A 
ATOM     62  F   UNL     1      12.839  -8.108   6.072  1.00  0.00    -0.203 F 
ATOM     63  C   UNL     1      13.178  -9.700   7.771  1.00  0.00     0.198 A 
ATOM     64  C   UNL     1      11.311 -10.520   9.039  1.00  0.00     0.198 A 
ATOM     65  F   UNL     1       9.135  -9.763   8.555  1.00  0.00    -0.203 F 
ATOM     66  F   UNL     1      14.492  -9.703   7.503  1.00  0.00    -0.200 F 
ATOM     67  C   UNL     1      12.673 -10.511   8.776  1.00  0.00     0.200 A 
ATOM     68  F   UNL     1      10.825 -11.283  10.028  1.00  0.00    -0.200 F 
ATOM     69  F   UNL     1      13.500 -11.283   9.494  1.00  0.00    -0.200 F 
ENDBRANCH  36  59
ENDBRANCH  10  11
ENDBRANCH   3   5
ENDBRANCH   2   3
ENDBRANCH   1   2
BRANCH   1  70
ATOM     70  C   UNL     1       4.008   2.105   0.973  1.00  0.00     0.275 C 
BRANCH  70  71
ATOM     71  O   UNL     1       3.618   1.095   1.914  1.00  0.00    -0.458 OA
BRANCH  71  72
ATOM     72  C   UNL     1       2.291   1.078   2.197  1.00  0.00     0.338 C 
ATOM     73  O   UNL     1       1.435   1.831   1.771  1.00  0.00    -0.246 OA
BRANCH  72  74
ATOM     74  C   UNL     1       1.985  -0.103   3.023  1.00  0.00     0.060 A 
ATOM     75  C   UNL     1       0.976  -0.979   2.571  1.00  0.00     0.016 A 
ATOM     76  C   UNL     1       2.648  -0.331   4.230  1.00  0.00     0.031 A 
ATOM     77  C   UNL     1       0.648  -2.123   3.302  1.00  0.00     0.010 A 
ATOM     78  C   UNL     1       2.272  -1.455   4.946  1.00  0.00     0.068 A 
ATOM     79  C   UNL     1       1.308  -2.340   4.501  1.00  0.00     0.012 A 
ATOM     80  C   UNL     1       2.713  -1.876   6.268  1.00  0.00     0.339 C 
ATOM     81  C   UNL     1       1.089  -3.379   5.542  1.00  0.00     0.238 C 
ATOM     82  O   UNL     1       3.495  -1.276   6.986  1.00  0.00    -0.246 OA
ATOM     83  O   UNL     1       2.059  -3.035   6.559  1.00  0.00    -0.449 OA
BRANCH  81  84
ATOM     84  C   UNL     1      -0.298  -3.333   6.149  1.00  0.00    -0.003 A 
ATOM     85  C   UNL     1      -0.814  -2.130   6.673  1.00  0.00     0.011 A 
ATOM     86  C   UNL     1      -1.104  -4.482   6.179  1.00  0.00     0.011 A 
ATOM     87  C   UNL     1      -2.106  -2.070   7.187  1.00  0.00     0.039 A 
ATOM     88  C   UNL     1      -2.397  -4.420   6.704  1.00  0.00     0.039 A 
ATOM     89  C   UNL     1      -2.888  -3.215   7.196  1.00  0.00     0.123 A 
ATOM     90  F   UNL     1      -4.133  -3.158   7.685  1.00  0.00    -0.207 F 
ENDBRANCH  81  84
ENDBRANCH  72  74
ENDBRANCH  71  72
ENDBRANCH  70  71
ENDBRANCH   1  70
TORSDOF 12
