REMARK SMILES O=C(OCCOC(=O)c1ncoc1-c1cc(F)cc(F)c1)c1ccc(-c2c3nc(c(-c4c(F)c(F)c(F)c(F)c4F)c4ccc([nH]4)c(-c4c(F)c(F)c(F)c(F)c4F)c4nc(c(-c5c(F)c(F)c(F)c(F)c5F)c5ccc2[nH]5)C=C4)C=C3)cc1
REMARK SMILES IDX 4 1 3 2 2 3 1 4 22 5 23 6 84 7 24 8 83 9 25 10 26 11 27 12
REMARK SMILES IDX 77 13 28 14 82 15 76 16 78 17 29 18 81 19 75 20 74 21 30 23
REMARK SMILES IDX 62 24 42 25 61 26 43 27 46 28 60 29 79 30 44 31 45 32 59 34
REMARK SMILES IDX 80 35 47 36 31 37 32 38 40 39 33 40 34 41 38 42 41 43 35 44
REMARK SMILES IDX 36 45 39 46 37 47 63 48 64 49 72 50 65 51 66 52 70 53 73 54
REMARK SMILES IDX 67 55 68 56 71 57 69 58 48 59 49 60 57 61 50 62 51 63 55 64
REMARK SMILES IDX 58 65 52 66 53 67 56 68 54 69 5 70 6 71 7 72 8 73 9 74 10 75
REMARK SMILES IDX 13 76 11 77 12 78 14 79 15 80 21 81 16 82 19 83 17 84 18 85
REMARK SMILES IDX 20 86
REMARK H PARENT 78 22 46 33
REMARK Flexibility Score: inf
ROOT
ATOM      1  C   UNL     1       4.956  -1.063  -1.540  1.00  0.00     0.275 C 
ENDROOT
BRANCH   1   2
ATOM      2  O   UNL     1       4.790  -1.438  -0.153  1.00  0.00    -0.458 OA
BRANCH   2   3
ATOM      3  C   UNL     1       3.918  -0.770   0.631  1.00  0.00     0.338 C 
ATOM      4  O   UNL     1       2.824  -1.218   0.941  1.00  0.00    -0.246 OA
BRANCH   3   5
ATOM      5  C   UNL     1       4.424   0.519   1.183  1.00  0.00     0.060 A 
ATOM      6  C   UNL     1       5.640   1.089   0.806  1.00  0.00     0.016 A 
ATOM      7  C   UNL     1       3.609   1.200   2.098  1.00  0.00     0.016 A 
ATOM      8  C   UNL     1       6.022   2.325   1.320  1.00  0.00     0.010 A 
ATOM      9  C   UNL     1       3.958   2.459   2.576  1.00  0.00     0.010 A 
ATOM     10  C   UNL     1       5.190   3.005   2.218  1.00  0.00    -0.014 A 
BRANCH  10  11
ATOM     11  C   UNL     1       5.727   4.176   2.936  1.00  0.00     0.031 A 
ATOM     12  C   UNL     1       6.192   3.979   4.349  1.00  0.00     0.074 A 
ATOM     13  C   UNL     1       5.873   5.350   2.297  1.00  0.00     0.049 A 
ATOM     14  N   UNL     1       6.848   4.799   5.126  1.00  0.00    -0.248 NA
ATOM     15  C   UNL     1       5.875   2.684   4.979  1.00  0.00     0.031 C 
ATOM     16  C   UNL     1       5.426   5.629   0.931  1.00  0.00     0.029 A 
ATOM     17  N   UNL     1       6.467   6.516   2.702  1.00  0.00    -0.354 N 
ATOM     18  C   UNL     1       7.036   4.110   6.317  1.00  0.00     0.074 A 
ATOM     19  C   UNL     1       6.362   2.841   6.198  1.00  0.00     0.031 C 
ATOM     20  C   UNL     1       5.791   6.880   0.601  1.00  0.00     0.029 A 
ATOM     21  C   UNL     1       6.499   7.482   1.728  1.00  0.00     0.049 A 
ATOM     22  H   UNL     1       6.835   6.648   3.606  1.00  0.00     0.167 HD
ATOM     23  C   UNL     1       7.755   4.487   7.397  1.00  0.00     0.037 A 
ATOM     24  C   UNL     1       7.068   8.703   1.747  1.00  0.00     0.037 A 
ATOM     25  C   UNL     1       8.441   5.743   7.486  1.00  0.00     0.049 A 
ATOM     26  C   UNL     1       7.851   9.108   2.969  1.00  0.00     0.074 A 
ATOM     27  C   UNL     1       9.221   6.232   8.515  1.00  0.00     0.029 A 
ATOM     28  N   UNL     1       8.425   6.709   6.489  1.00  0.00    -0.354 N 
ATOM     29  N   UNL     1       8.084   8.423   4.064  1.00  0.00    -0.248 NA
ATOM     30  C   UNL     1       8.463  10.444   2.957  1.00  0.00     0.031 C 
ATOM     31  C   UNL     1       9.656   7.510   8.152  1.00  0.00     0.029 A 
ATOM     32  C   UNL     1       9.171   7.802   6.885  1.00  0.00     0.049 A 
ATOM     33  H   UNL     1       7.953   6.627   5.629  1.00  0.00     0.167 HD
ATOM     34  C   UNL     1       8.878   9.233   4.863  1.00  0.00     0.074 A 
ATOM     35  C   UNL     1       9.104  10.456   4.119  1.00  0.00     0.031 C 
ATOM     36  C   UNL     1       9.372   8.996   6.103  1.00  0.00     0.037 A 
BRANCH  23  37
ATOM     37  C   UNL     1       7.844   3.520   8.538  1.00  0.00     0.064 A 
ATOM     38  C   UNL     1       7.164   3.763   9.739  1.00  0.00     0.173 A 
ATOM     39  C   UNL     1       8.606   2.345   8.438  1.00  0.00     0.173 A 
ATOM     40  F   UNL     1       6.417   4.868   9.882  1.00  0.00    -0.203 F 
ATOM     41  C   UNL     1       7.244   2.864  10.800  1.00  0.00     0.198 A 
ATOM     42  C   UNL     1       8.664   1.437   9.492  1.00  0.00     0.198 A 
ATOM     43  F   UNL     1       9.255   2.057   7.300  1.00  0.00    -0.203 F 
ATOM     44  F   UNL     1       6.593   3.119  11.943  1.00  0.00    -0.200 F 
ATOM     45  C   UNL     1       7.988   1.700  10.673  1.00  0.00     0.200 A 
ATOM     46  F   UNL     1       9.359   0.299   9.355  1.00  0.00    -0.200 F 
ATOM     47  F   UNL     1       8.045   0.825  11.687  1.00  0.00    -0.200 F 
ENDBRANCH  23  37
BRANCH  24  48
ATOM     48  C   UNL     1       6.961   9.591   0.559  1.00  0.00     0.064 A 
ATOM     49  C   UNL     1       5.734  10.163   0.189  1.00  0.00     0.173 A 
ATOM     50  C   UNL     1       8.075   9.868  -0.244  1.00  0.00     0.173 A 
ATOM     51  F   UNL     1       4.636   9.925   0.920  1.00  0.00    -0.203 F 
ATOM     52  C   UNL     1       5.625  10.968  -0.944  1.00  0.00     0.198 A 
ATOM     53  C   UNL     1       7.970  10.692  -1.365  1.00  0.00     0.198 A 
ATOM     54  F   UNL     1       9.274   9.358   0.074  1.00  0.00    -0.203 F 
ATOM     55  F   UNL     1       4.436  11.481  -1.287  1.00  0.00    -0.200 F 
ATOM     56  C   UNL     1       6.744  11.236  -1.717  1.00  0.00     0.200 A 
ATOM     57  F   UNL     1       9.058  10.965  -2.098  1.00  0.00    -0.200 F 
ATOM     58  F   UNL     1       6.642  12.020  -2.799  1.00  0.00    -0.200 F 
ENDBRANCH  24  48
BRANCH  36  59
ATOM     59  C   UNL     1      10.192  10.075   6.737  1.00  0.00     0.064 A 
ATOM     60  C   UNL     1      11.578   9.921   6.886  1.00  0.00     0.173 A 
ATOM     61  C   UNL     1       9.582  11.201   7.306  1.00  0.00     0.173 A 
ATOM     62  F   UNL     1      12.199   8.851   6.367  1.00  0.00    -0.203 F 
ATOM     63  C   UNL     1      12.322  10.849   7.606  1.00  0.00     0.198 A 
ATOM     64  C   UNL     1      10.334  12.138   8.006  1.00  0.00     0.198 A 
ATOM     65  F   UNL     1       8.260  11.388   7.179  1.00  0.00    -0.203 F 
ATOM     66  F   UNL     1      13.639  10.664   7.775  1.00  0.00    -0.200 F 
ATOM     67  C   UNL     1      11.700  11.955   8.166  1.00  0.00     0.200 A 
ATOM     68  F   UNL     1       9.735  13.214   8.534  1.00  0.00    -0.200 F 
ATOM     69  F   UNL     1      12.417  12.846   8.864  1.00  0.00    -0.200 F 
ENDBRANCH  36  59
ENDBRANCH  10  11
ENDBRANCH   3   5
ENDBRANCH   2   3
ENDBRANCH   1   2
BRANCH   1  70
ATOM     70  C   UNL     1       3.759  -0.434  -2.263  1.00  0.00     0.275 C 
BRANCH  70  71
ATOM     71  O   UNL     1       3.354   0.801  -1.650  1.00  0.00    -0.457 OA
BRANCH  71  72
ATOM     72  C   UNL     1       2.003   0.949  -1.476  1.00  0.00     0.361 C 
ATOM     73  O   UNL     1       1.161   0.172  -1.916  1.00  0.00    -0.244 OA
BRANCH  72  74
ATOM     74  C   UNL     1       1.660   2.100  -0.659  1.00  0.00     0.194 A 
ATOM     75  N   UNL     1       2.374   3.292  -0.605  1.00  0.00    -0.209 NA
ATOM     76  C   UNL     1       0.586   2.175   0.208  1.00  0.00     0.169 A 
ATOM     77  C   UNL     1       1.686   4.024   0.242  1.00  0.00     0.309 A 
ATOM     78  O   UNL     1       0.596   3.416   0.785  1.00  0.00    -0.443 OA
BRANCH  76  79
ATOM     79  C   UNL     1      -0.439   1.262   0.675  1.00  0.00     0.026 A 
ATOM     80  C   UNL     1      -0.147   0.313   1.662  1.00  0.00     0.051 A 
ATOM     81  C   UNL     1      -1.731   1.301   0.149  1.00  0.00     0.051 A 
ATOM     82  C   UNL     1      -1.122  -0.569   2.113  1.00  0.00     0.126 A 
ATOM     83  C   UNL     1      -2.693   0.399   0.608  1.00  0.00     0.126 A 
ATOM     84  F   UNL     1      -0.814  -1.453   3.070  1.00  0.00    -0.207 F 
ATOM     85  C   UNL     1      -2.401  -0.538   1.590  1.00  0.00     0.078 A 
ATOM     86  F   UNL     1      -3.927   0.440   0.091  1.00  0.00    -0.207 F 
ENDBRANCH  76  79
ENDBRANCH  72  74
ENDBRANCH  71  72
ENDBRANCH  70  71
ENDBRANCH   1  70
TORSDOF 12
