REMARK SMILES CN(CC(=O)OCCOC(=O)c1ccc(-c2c3nc(c(-c4c(F)c(F)c(F)c(F)c4F)c4ccc([nH]4)c(-c4c(F)c(F)c(F)c(F)c4F)c4nc(c(-c5c(F)c(F)c(F)c(F)c5F)c5ccc2[nH]5)C=C4)C=C3)cc1)C(=O)[C@@H]1CC[C@@H](C[NH3+])O1
REMARK SMILES IDX 6 1 4 2 5 3 3 4 2 5 1 6 75 7 76 8 77 9 78 10 83 11 79 12
REMARK SMILES IDX 80 13 81 14 82 15 7 19 8 20 9 21 10 22 11 23 12 24 13 25
REMARK SMILES IDX 74 26 14 27 73 28 15 29 16 30 17 31 67 32 18 33 72 34 66 35
REMARK SMILES IDX 68 36 19 37 71 38 65 39 64 40 20 42 52 43 32 44 51 45 33 46
REMARK SMILES IDX 36 47 50 48 69 49 34 50 35 51 49 53 70 54 37 55 21 56 22 57
REMARK SMILES IDX 30 58 23 59 24 60 28 61 31 62 25 63 26 64 29 65 27 66 53 67
REMARK SMILES IDX 54 68 62 69 55 70 56 71 60 72 63 73 57 74 58 75 61 76 59 77
REMARK SMILES IDX 38 78 39 79 47 80 40 81 41 82 45 83 48 84 42 85 43 86 46 87
REMARK SMILES IDX 44 88
REMARK H PARENT 82 16 82 17 82 18 68 41 36 52
REMARK Flexibility Score: inf
ROOT
ATOM      1  O   UNL     1      -2.135   1.303   0.656  1.00  0.00    -0.461 OA
ENDROOT
BRANCH   1   2
ATOM      2  C   UNL     1      -1.544   1.679  -0.508  1.00  0.00     0.325 C 
ATOM      3  O   UNL     1      -2.099   2.307  -1.405  1.00  0.00    -0.250 OA
BRANCH   2   4
ATOM      4  C   UNL     1      -0.117   1.159  -0.664  1.00  0.00     0.241 C 
BRANCH   4   5
ATOM      5  N   UNL     1       0.584   0.583   0.487  1.00  0.00    -0.332 N 
ATOM      6  C   UNL     1       0.898  -0.836   0.422  1.00  0.00     0.147 C 
BRANCH   5   7
ATOM      7  C   UNL     1       1.230   1.312   1.489  1.00  0.00     0.251 C 
ATOM      8  O   UNL     1       2.021   0.753   2.255  1.00  0.00    -0.272 OA
BRANCH   7   9
ATOM      9  C   UNL     1       0.919   2.818   1.639  1.00  0.00     0.208 C 
ATOM     10  C   UNL     1       1.588   3.674   0.581  1.00  0.00     0.045 C 
ATOM     11  O   UNL     1       1.392   3.331   2.898  1.00  0.00    -0.359 OA
ATOM     12  C   UNL     1       1.724   5.006   1.261  1.00  0.00     0.041 C 
ATOM     13  C   UNL     1       1.911   4.661   2.723  1.00  0.00     0.174 C 
BRANCH  13  14
ATOM     14  C   UNL     1       1.153   5.616   3.670  1.00  0.00     0.291 C 
BRANCH  14  15
ATOM     15  N   UNL     1       2.007   6.116   4.753  1.00  0.00    -0.355 N 
ATOM     16  H   UNL     1       2.333   5.332   5.318  1.00  0.00     0.344 HD
ATOM     17  H   UNL     1       1.472   6.758   5.339  1.00  0.00     0.344 HD
ATOM     18  H   UNL     1       2.808   6.605   4.356  1.00  0.00     0.344 HD
ENDBRANCH  14  15
ENDBRANCH  13  14
ENDBRANCH   7   9
ENDBRANCH   5   7
ENDBRANCH   4   5
ENDBRANCH   2   4
ENDBRANCH   1   2
BRANCH   1  19
ATOM     19  C   UNL     1      -3.551   1.565   0.742  1.00  0.00     0.274 C 
BRANCH  19  20
ATOM     20  C   UNL     1      -3.850   2.862   1.488  1.00  0.00     0.275 C 
BRANCH  20  21
ATOM     21  O   UNL     1      -3.254   3.984   0.812  1.00  0.00    -0.458 OA
BRANCH  21  22
ATOM     22  C   UNL     1      -2.605   4.851   1.619  1.00  0.00     0.338 C 
ATOM     23  O   UNL     1      -2.483   4.765   2.835  1.00  0.00    -0.246 OA
BRANCH  22  24
ATOM     24  C   UNL     1      -2.002   5.970   0.867  1.00  0.00     0.060 A 
ATOM     25  C   UNL     1      -1.395   5.792  -0.380  1.00  0.00     0.016 A 
ATOM     26  C   UNL     1      -1.883   7.195   1.533  1.00  0.00     0.016 A 
ATOM     27  C   UNL     1      -0.573   6.805  -0.896  1.00  0.00     0.010 A 
ATOM     28  C   UNL     1      -1.114   8.221   0.987  1.00  0.00     0.010 A 
ATOM     29  C   UNL     1      -0.405   8.021  -0.206  1.00  0.00    -0.014 A 
BRANCH  29  30
ATOM     30  C   UNL     1       0.506   9.098  -0.687  1.00  0.00     0.031 A 
ATOM     31  C   UNL     1       1.665   9.569   0.157  1.00  0.00     0.074 A 
ATOM     32  C   UNL     1       0.257   9.712  -1.857  1.00  0.00     0.049 A 
ATOM     33  N   UNL     1       2.405  10.645   0.043  1.00  0.00    -0.248 NA
ATOM     34  C   UNL     1       2.047   8.708   1.282  1.00  0.00     0.031 C 
ATOM     35  C   UNL     1      -0.800   9.347  -2.796  1.00  0.00     0.029 A 
ATOM     36  N   UNL     1       0.861  10.803  -2.432  1.00  0.00    -0.354 N 
ATOM     37  C   UNL     1       3.315  10.597   1.095  1.00  0.00     0.074 A 
ATOM     38  C   UNL     1       3.043   9.386   1.836  1.00  0.00     0.031 C 
ATOM     39  C   UNL     1      -0.787  10.208  -3.823  1.00  0.00     0.029 A 
ATOM     40  C   UNL     1       0.226  11.229  -3.571  1.00  0.00     0.049 A 
ATOM     41  H   UNL     1       1.666  11.235  -2.066  1.00  0.00     0.167 HD
ATOM     42  C   UNL     1       4.285  11.486   1.418  1.00  0.00     0.037 A 
ATOM     43  C   UNL     1       0.386  12.350  -4.296  1.00  0.00     0.037 A 
ATOM     44  C   UNL     1       4.563  12.689   0.677  1.00  0.00     0.049 A 
ATOM     45  C   UNL     1       1.417  13.360  -3.891  1.00  0.00     0.074 A 
ATOM     46  C   UNL     1       5.519  13.659   0.927  1.00  0.00     0.029 A 
ATOM     47  N   UNL     1       3.884  13.081  -0.465  1.00  0.00    -0.354 N 
ATOM     48  N   UNL     1       2.226  13.344  -2.861  1.00  0.00    -0.248 NA
ATOM     49  C   UNL     1       1.548  14.549  -4.743  1.00  0.00     0.031 C 
ATOM     50  C   UNL     1       5.402  14.652  -0.052  1.00  0.00     0.029 A 
ATOM     51  C   UNL     1       4.396  14.281  -0.930  1.00  0.00     0.049 A 
ATOM     52  H   UNL     1       3.147  12.581  -0.884  1.00  0.00     0.167 HD
ATOM     53  C   UNL     1       2.967  14.513  -2.941  1.00  0.00     0.074 A 
ATOM     54  C   UNL     1       2.519  15.212  -4.129  1.00  0.00     0.031 C 
ATOM     55  C   UNL     1       3.933  14.966  -2.106  1.00  0.00     0.037 A 
BRANCH  42  56
ATOM     56  C   UNL     1       5.114  11.215   2.639  1.00  0.00     0.064 A 
ATOM     57  C   UNL     1       6.152  10.274   2.628  1.00  0.00     0.173 A 
ATOM     58  C   UNL     1       4.923  11.972   3.806  1.00  0.00     0.173 A 
ATOM     59  F   UNL     1       6.370   9.523   1.538  1.00  0.00    -0.203 F 
ATOM     60  C   UNL     1       6.971  10.099   3.742  1.00  0.00     0.198 A 
ATOM     61  C   UNL     1       5.755  11.807   4.911  1.00  0.00     0.198 A 
ATOM     62  F   UNL     1       3.948  12.891   3.864  1.00  0.00    -0.203 F 
ATOM     63  F   UNL     1       7.955   9.189   3.713  1.00  0.00    -0.200 F 
ATOM     64  C   UNL     1       6.778  10.872   4.878  1.00  0.00     0.200 A 
ATOM     65  F   UNL     1       5.576  12.566   6.002  1.00  0.00    -0.200 F 
ATOM     66  F   UNL     1       7.582  10.720   5.940  1.00  0.00    -0.200 F 
ENDBRANCH  42  56
BRANCH  43  67
ATOM     67  C   UNL     1      -0.512  12.579  -5.452  1.00  0.00     0.064 A 
ATOM     68  C   UNL     1      -0.056  12.410  -6.764  1.00  0.00     0.173 A 
ATOM     69  C   UNL     1      -1.868  12.886  -5.258  1.00  0.00     0.173 A 
ATOM     70  F   UNL     1       1.236  12.134  -6.993  1.00  0.00    -0.203 F 
ATOM     71  C   UNL     1      -0.928  12.528  -7.843  1.00  0.00     0.198 A 
ATOM     72  C   UNL     1      -2.743  12.979  -6.336  1.00  0.00     0.198 A 
ATOM     73  F   UNL     1      -2.349  13.048  -4.017  1.00  0.00    -0.203 F 
ATOM     74  F   UNL     1      -0.469  12.370  -9.092  1.00  0.00    -0.200 F 
ATOM     75  C   UNL     1      -2.272  12.799  -7.628  1.00  0.00     0.200 A 
ATOM     76  F   UNL     1      -4.043  13.220  -6.122  1.00  0.00    -0.200 F 
ATOM     77  F   UNL     1      -3.115  12.882  -8.666  1.00  0.00    -0.200 F 
ENDBRANCH  43  67
BRANCH  55  78
ATOM     78  C   UNL     1       4.585  16.266  -2.461  1.00  0.00     0.064 A 
ATOM     79  C   UNL     1       3.944  17.491  -2.229  1.00  0.00     0.173 A 
ATOM     80  C   UNL     1       5.872  16.286  -3.018  1.00  0.00     0.173 A 
ATOM     81  F   UNL     1       2.707  17.518  -1.712  1.00  0.00    -0.203 F 
ATOM     82  C   UNL     1       4.562  18.692  -2.563  1.00  0.00     0.198 A 
ATOM     83  C   UNL     1       6.494  17.490  -3.333  1.00  0.00     0.198 A 
ATOM     84  F   UNL     1       6.524  15.138  -3.254  1.00  0.00    -0.203 F 
ATOM     85  F   UNL     1       3.919  19.852  -2.369  1.00  0.00    -0.200 F 
ATOM     86  C   UNL     1       5.837  18.691  -3.111  1.00  0.00     0.200 A 
ATOM     87  F   UNL     1       7.727  17.488  -3.858  1.00  0.00    -0.200 F 
ATOM     88  F   UNL     1       6.429  19.849  -3.435  1.00  0.00    -0.200 F 
ENDBRANCH  55  78
ENDBRANCH  29  30
ENDBRANCH  22  24
ENDBRANCH  21  22
ENDBRANCH  20  21
ENDBRANCH  19  20
ENDBRANCH   1  19
TORSDOF 16
