REMARK SMILES CCc1cccc2c3c([nH]c12)[C@](CC)(CC(=O)OCCOC(=O)c1ccc(-c2c4nc(c(-c5c(F)c(F)c(F)c(F)c5F)c5ccc([nH]5)c(-c5c(F)c(F)c(F)c(F)c5F)c5nc(c(-c6c(F)c(F)c(F)c(F)c6F)c6ccc2[nH]6)C=C5)C=C4)cc1)OCC3
REMARK SMILES IDX 19 1 18 2 16 3 17 4 15 5 12 6 3 7 4 8 11 9 5 10 7 11 10 12
REMARK SMILES IDX 6 13 8 14 9 15 89 17 88 18 87 19 2 20 1 21 13 22 14 23 20 24
REMARK SMILES IDX 21 25 22 26 23 27 24 28 25 29 86 30 26 31 85 32 27 33 28 34
REMARK SMILES IDX 29 35 79 36 30 37 84 38 78 39 80 40 31 41 83 42 77 43 76 44
REMARK SMILES IDX 32 46 64 47 44 48 63 49 45 50 48 51 62 52 81 53 46 54 47 55
REMARK SMILES IDX 61 57 82 58 49 59 33 60 34 61 42 62 35 63 36 64 40 65 43 66
REMARK SMILES IDX 37 67 38 68 41 69 39 70 65 71 66 72 74 73 67 74 68 75 72 76
REMARK SMILES IDX 75 77 69 78 70 79 73 80 71 81 50 82 51 83 59 84 52 85 53 86
REMARK SMILES IDX 57 87 60 88 54 89 55 90 58 91 56 92
REMARK H PARENT 10 16 80 45 48 56
REMARK Flexibility Score: inf
ROOT
ATOM      1  C   UNL     1       3.411   4.354   7.966  1.00  0.00     0.274 C 
ENDROOT
BRANCH   1   2
ATOM      2  O   UNL     1       3.958   3.421   7.000  1.00  0.00    -0.462 OA
BRANCH   2   3
ATOM      3  C   UNL     1       4.280   2.196   7.461  1.00  0.00     0.309 C 
ATOM      4  O   UNL     1       4.062   1.828   8.615  1.00  0.00    -0.252 OA
BRANCH   3   5
ATOM      5  C   UNL     1       5.045   1.284   6.524  1.00  0.00     0.164 C 
BRANCH   5   6
ATOM      6  C   UNL     1       5.250   1.406   4.998  1.00  0.00     0.118 C 
ATOM      7  C   UNL     1       1.248   1.728   1.873  1.00  0.00    -0.024 A 
ATOM      8  C   UNL     1       0.565   2.838   1.333  1.00  0.00     0.006 A 
ATOM      9  C   UNL     1       2.351   2.022   2.708  1.00  0.00     0.049 A 
ATOM     10  C   UNL     1       0.971   4.147   1.577  1.00  0.00     0.001 A 
ATOM     11  C   UNL     1       2.784   3.327   2.959  1.00  0.00     0.003 A 
ATOM     12  N   UNL     1       3.212   1.188   3.403  1.00  0.00    -0.356 N 
ATOM     13  C   UNL     1       2.090   4.401   2.370  1.00  0.00     0.010 A 
ATOM     14  C   UNL     1       3.941   3.236   3.783  1.00  0.00    -0.014 A 
ATOM     15  C   UNL     1       4.114   1.918   4.149  1.00  0.00     0.052 A 
ATOM     16  H   UNL     1       3.184   0.205   3.370  1.00  0.00     0.166 HD
ATOM     17  C   UNL     1       4.924   4.280   4.162  1.00  0.00     0.066 C 
ATOM     18  C   UNL     1       6.122   3.689   4.935  1.00  0.00     0.166 C 
ATOM     19  O   UNL     1       6.366   2.289   4.710  1.00  0.00    -0.368 OA
BRANCH   7  20
ATOM     20  C   UNL     1       0.774   0.341   1.509  1.00  0.00     0.034 C 
ATOM     21  C   UNL     1       1.143  -0.030   0.077  1.00  0.00     0.009 C 
ENDBRANCH   7  20
BRANCH   6  22
ATOM     22  C   UNL     1       5.690  -0.000   4.459  1.00  0.00     0.039 C 
ATOM     23  C   UNL     1       6.797  -0.693   5.252  1.00  0.00     0.007 C 
ENDBRANCH   6  22
ENDBRANCH   5   6
ENDBRANCH   3   5
ENDBRANCH   2   3
ENDBRANCH   1   2
BRANCH   1  24
ATOM     24  C   UNL     1       2.031   4.844   7.522  1.00  0.00     0.275 C 
BRANCH  24  25
ATOM     25  O   UNL     1       1.075   3.809   7.786  1.00  0.00    -0.458 OA
BRANCH  25  26
ATOM     26  C   UNL     1       0.758   3.027   6.721  1.00  0.00     0.338 C 
ATOM     27  O   UNL     1       0.719   3.348   5.560  1.00  0.00    -0.246 OA
BRANCH  26  28
ATOM     28  C   UNL     1       0.843   1.640   7.226  1.00  0.00     0.060 A 
ATOM     29  C   UNL     1       0.440   1.316   8.520  1.00  0.00     0.016 A 
ATOM     30  C   UNL     1       1.585   0.739   6.462  1.00  0.00     0.016 A 
ATOM     31  C   UNL     1       0.911   0.146   9.096  1.00  0.00     0.010 A 
ATOM     32  C   UNL     1       2.087  -0.413   7.047  1.00  0.00     0.010 A 
ATOM     33  C   UNL     1       1.791  -0.681   8.382  1.00  0.00    -0.014 A 
BRANCH  33  34
ATOM     34  C   UNL     1       2.135  -1.968   8.968  1.00  0.00     0.031 A 
ATOM     35  C   UNL     1       1.109  -2.988   8.668  1.00  0.00     0.074 A 
ATOM     36  C   UNL     1       3.228  -2.294   9.682  1.00  0.00     0.049 A 
ATOM     37  N   UNL     1       0.184  -3.409   9.462  1.00  0.00    -0.248 NA
ATOM     38  C   UNL     1       0.987  -3.462   7.282  1.00  0.00     0.031 C 
ATOM     39  C   UNL     1       4.479  -1.557   9.833  1.00  0.00     0.029 A 
ATOM     40  N   UNL     1       3.448  -3.441  10.396  1.00  0.00    -0.354 N 
ATOM     41  C   UNL     1      -0.544  -4.331   8.725  1.00  0.00     0.074 A 
ATOM     42  C   UNL     1      -0.135  -4.177   7.355  1.00  0.00     0.031 C 
ATOM     43  C   UNL     1       5.394  -2.354  10.438  1.00  0.00     0.029 A 
ATOM     44  C   UNL     1       4.752  -3.596  10.845  1.00  0.00     0.049 A 
ATOM     45  H   UNL     1       2.741  -4.101  10.576  1.00  0.00     0.167 HD
ATOM     46  C   UNL     1      -1.227  -5.327   9.344  1.00  0.00     0.037 A 
ATOM     47  C   UNL     1       5.258  -4.686  11.475  1.00  0.00     0.037 A 
ATOM     48  C   UNL     1      -1.397  -5.045  10.747  1.00  0.00     0.049 A 
ATOM     49  C   UNL     1       4.124  -5.417  12.091  1.00  0.00     0.074 A 
ATOM     50  C   UNL     1      -2.067  -4.095  11.487  1.00  0.00     0.029 A 
ATOM     51  N   UNL     1      -0.489  -5.636  11.587  1.00  0.00    -0.354 N 
ATOM     52  N   UNL     1       3.437  -4.984  13.111  1.00  0.00    -0.248 NA
ATOM     53  C   UNL     1       3.536  -6.546  11.381  1.00  0.00     0.031 C 
ATOM     54  C   UNL     1      -1.302  -3.922  12.678  1.00  0.00     0.029 A 
ATOM     55  C   UNL     1      -0.209  -4.789  12.626  1.00  0.00     0.049 A 
ATOM     56  H   UNL     1      -0.099  -6.531  11.463  1.00  0.00     0.167 HD
ATOM     57  C   UNL     1       2.164  -5.483  12.908  1.00  0.00     0.074 A 
ATOM     58  C   UNL     1       2.328  -6.564  11.949  1.00  0.00     0.031 C 
ATOM     59  C   UNL     1       1.070  -4.772  13.303  1.00  0.00     0.037 A 
BRANCH  46  60
ATOM     60  C   UNL     1      -1.351  -6.728   8.793  1.00  0.00     0.064 A 
ATOM     61  C   UNL     1      -2.166  -7.653   9.474  1.00  0.00     0.173 A 
ATOM     62  C   UNL     1      -0.480  -7.281   7.827  1.00  0.00     0.173 A 
ATOM     63  F   UNL     1      -3.009  -7.245  10.435  1.00  0.00    -0.203 F 
ATOM     64  C   UNL     1      -2.061  -9.029   9.256  1.00  0.00     0.198 A 
ATOM     65  C   UNL     1      -0.423  -8.648   7.570  1.00  0.00     0.198 A 
ATOM     66  F   UNL     1       0.433  -6.551   7.178  1.00  0.00    -0.203 F 
ATOM     67  F   UNL     1      -2.760  -9.878  10.021  1.00  0.00    -0.200 F 
ATOM     68  C   UNL     1      -1.188  -9.525   8.306  1.00  0.00     0.200 A 
ATOM     69  F   UNL     1       0.448  -9.109   6.661  1.00  0.00    -0.200 F 
ATOM     70  F   UNL     1      -1.044 -10.845   8.135  1.00  0.00    -0.200 F 
ENDBRANCH  46  60
BRANCH  47  71
ATOM     71  C   UNL     1       6.621  -5.273  11.426  1.00  0.00     0.064 A 
ATOM     72  C   UNL     1       7.012  -6.273  12.337  1.00  0.00     0.173 A 
ATOM     73  C   UNL     1       7.455  -5.091  10.308  1.00  0.00     0.173 A 
ATOM     74  F   UNL     1       6.260  -6.542  13.414  1.00  0.00    -0.203 F 
ATOM     75  C   UNL     1       8.137  -7.075  12.114  1.00  0.00     0.198 A 
ATOM     76  C   UNL     1       8.584  -5.885  10.092  1.00  0.00     0.198 A 
ATOM     77  F   UNL     1       7.138  -4.209   9.350  1.00  0.00    -0.203 F 
ATOM     78  F   UNL     1       8.427  -8.072  12.962  1.00  0.00    -0.200 F 
ATOM     79  C   UNL     1       8.913  -6.889  10.983  1.00  0.00     0.200 A 
ATOM     80  F   UNL     1       9.309  -5.718   8.977  1.00  0.00    -0.200 F 
ATOM     81  F   UNL     1       9.947  -7.703  10.730  1.00  0.00    -0.200 F 
ENDBRANCH  47  71
BRANCH  59  82
ATOM     82  C   UNL     1       1.261  -3.731  14.367  1.00  0.00     0.064 A 
ATOM     83  C   UNL     1       2.037  -2.571  14.216  1.00  0.00     0.173 A 
ATOM     84  C   UNL     1       0.508  -3.862  15.544  1.00  0.00     0.173 A 
ATOM     85  F   UNL     1       2.719  -2.337  13.086  1.00  0.00    -0.203 F 
ATOM     86  C   UNL     1       2.075  -1.600  15.216  1.00  0.00     0.198 A 
ATOM     87  C   UNL     1       0.516  -2.872  16.520  1.00  0.00     0.198 A 
ATOM     88  F   UNL     1      -0.281  -4.933  15.722  1.00  0.00    -0.203 F 
ATOM     89  F   UNL     1       2.830  -0.503  15.059  1.00  0.00    -0.200 F 
ATOM     90  C   UNL     1       1.305  -1.745  16.359  1.00  0.00     0.200 A 
ATOM     91  F   UNL     1      -0.266  -2.996  17.601  1.00  0.00    -0.200 F 
ATOM     92  F   UNL     1       1.301  -0.785  17.295  1.00  0.00    -0.200 F 
ENDBRANCH  59  82
ENDBRANCH  33  34
ENDBRANCH  26  28
ENDBRANCH  25  26
ENDBRANCH  24  25
ENDBRANCH   1  24
TORSDOF 14
