REMARK SMILES C[C@H]1[C@H](C(=O)OCCOC(=O)c2ccc(-c3c4nc(c(-c5c(F)c(F)c(F)c(F)c5F)c5ccc([nH]5)c(-c5c(F)c(F)c(F)c(F)c5F)c5nc(c(-c6c(F)c(F)c(F)c(F)c6F)c6ccc3[nH]6)C=C5)C=C4)cc2)CCN1C(=O)Nc1ccc(F)cc1
REMARK SMILES IDX 7 1 6 2 4 3 5 4 3 5 1 6 2 7 77 8 75 9 76 10 78 11 79 12
REMARK SMILES IDX 80 13 81 15 82 16 87 17 83 18 86 19 84 20 85 21 8 22 9 23
REMARK SMILES IDX 10 24 11 25 12 26 13 27 74 28 14 29 73 30 15 31 16 32 17 33
REMARK SMILES IDX 67 34 18 35 72 36 66 37 68 38 19 39 71 40 65 41 64 42 20 44
REMARK SMILES IDX 52 45 32 46 51 47 33 48 36 49 50 50 69 51 34 52 35 53 49 55
REMARK SMILES IDX 70 56 37 57 21 58 22 59 30 60 23 61 24 62 28 63 31 64 25 65
REMARK SMILES IDX 26 66 29 67 27 68 53 69 54 70 62 71 55 72 56 73 60 74 63 75
REMARK SMILES IDX 57 76 58 77 61 78 59 79 38 80 39 81 47 82 40 83 41 84 45 85
REMARK SMILES IDX 48 86 42 87 43 88 46 89 44 90
REMARK H PARENT 80 14 68 43 36 54
REMARK Flexibility Score: inf
ROOT
ATOM      1  C   UNL     1      -0.580   2.920   3.236  1.00  0.00     0.274 C 
ENDROOT
BRANCH   1   2
ATOM      2  O   UNL     1      -0.523   1.837   2.286  1.00  0.00    -0.462 OA
BRANCH   2   3
ATOM      3  C   UNL     1      -0.820   2.145   0.997  1.00  0.00     0.311 C 
ATOM      4  O   UNL     1      -1.159   3.257   0.607  1.00  0.00    -0.252 OA
BRANCH   3   5
ATOM      5  C   UNL     1      -0.758   0.953   0.066  1.00  0.00     0.123 C 
ATOM      6  C   UNL     1       1.410   0.026  -0.860  1.00  0.00     0.032 C 
ATOM      7  C   UNL     1       0.426  -0.009   0.315  1.00  0.00     0.098 C 
ATOM      8  N   UNL     1      -0.185  -1.335   0.470  1.00  0.00    -0.321 N 
ATOM      9  C   UNL     1      -2.021   0.110   0.218  1.00  0.00     0.039 C 
ATOM     10  C   UNL     1      -1.550  -1.306  -0.021  1.00  0.00     0.122 C 
BRANCH   8  11
ATOM     11  C   UNL     1       0.373  -2.552   0.752  1.00  0.00     0.322 C 
ATOM     12  O   UNL     1      -0.263  -3.597   0.571  1.00  0.00    -0.248 OA
ATOM     13  N   UNL     1       1.681  -2.693   1.076  1.00  0.00    -0.308 N 
ATOM     14  H   UNL     1       2.059  -3.548   0.767  1.00  0.00     0.171 HD
BRANCH  13  15
ATOM     15  C   UNL     1       2.616  -1.900   1.747  1.00  0.00     0.043 A 
ATOM     16  C   UNL     1       3.964  -2.082   1.410  1.00  0.00     0.029 A 
ATOM     17  C   UNL     1       2.277  -0.998   2.757  1.00  0.00     0.029 A 
ATOM     18  C   UNL     1       4.952  -1.288   1.993  1.00  0.00     0.041 A 
ATOM     19  C   UNL     1       3.268  -0.209   3.349  1.00  0.00     0.041 A 
ATOM     20  C   UNL     1       4.592  -0.345   2.946  1.00  0.00     0.123 A 
ATOM     21  F   UNL     1       5.534   0.436   3.490  1.00  0.00    -0.207 F 
ENDBRANCH  13  15
ENDBRANCH   8  11
ENDBRANCH   3   5
ENDBRANCH   2   3
ENDBRANCH   1   2
BRANCH   1  22
ATOM     22  C   UNL     1       0.803   3.523   3.505  1.00  0.00     0.275 C 
BRANCH  22  23
ATOM     23  O   UNL     1       1.303   4.250   2.368  1.00  0.00    -0.458 OA
BRANCH  23  24
ATOM     24  C   UNL     1       2.041   3.517   1.506  1.00  0.00     0.338 C 
ATOM     25  O   UNL     1       2.345   2.342   1.600  1.00  0.00    -0.246 OA
BRANCH  24  26
ATOM     26  C   UNL     1       2.346   4.306   0.309  1.00  0.00     0.060 A 
ATOM     27  C   UNL     1       1.767   3.915  -0.902  1.00  0.00     0.016 A 
ATOM     28  C   UNL     1       3.274   5.344   0.357  1.00  0.00     0.016 A 
ATOM     29  C   UNL     1       2.129   4.547  -2.084  1.00  0.00     0.010 A 
ATOM     30  C   UNL     1       3.625   5.991  -0.828  1.00  0.00     0.010 A 
ATOM     31  C   UNL     1       3.063   5.587  -2.053  1.00  0.00    -0.014 A 
BRANCH  31  32
ATOM     32  C   UNL     1       3.474   6.249  -3.307  1.00  0.00     0.031 A 
ATOM     33  C   UNL     1       4.824   5.965  -3.887  1.00  0.00     0.074 A 
ATOM     34  C   UNL     1       2.635   7.114  -3.902  1.00  0.00     0.049 A 
ATOM     35  N   UNL     1       5.449   6.574  -4.861  1.00  0.00    -0.248 NA
ATOM     36  C   UNL     1       5.572   4.848  -3.291  1.00  0.00     0.031 C 
ATOM     37  C   UNL     1       1.274   7.410  -3.456  1.00  0.00     0.029 A 
ATOM     38  N   UNL     1       2.814   7.918  -4.997  1.00  0.00    -0.354 N 
ATOM     39  C   UNL     1       6.676   5.936  -4.974  1.00  0.00     0.074 A 
ATOM     40  C   UNL     1       6.708   4.890  -3.974  1.00  0.00     0.031 C 
ATOM     41  C   UNL     1       0.746   8.347  -4.260  1.00  0.00     0.029 A 
ATOM     42  C   UNL     1       1.752   8.754  -5.235  1.00  0.00     0.049 A 
ATOM     43  H   UNL     1       3.623   7.898  -5.558  1.00  0.00     0.167 HD
ATOM     44  C   UNL     1       7.684   6.213  -5.834  1.00  0.00     0.037 A 
ATOM     45  C   UNL     1       1.629   9.769  -6.110  1.00  0.00     0.037 A 
ATOM     46  C   UNL     1       7.630   7.249  -6.831  1.00  0.00     0.049 A 
ATOM     47  C   UNL     1       2.786  10.099  -7.011  1.00  0.00     0.074 A 
ATOM     48  C   UNL     1       8.596   7.617  -7.750  1.00  0.00     0.029 A 
ATOM     49  N   UNL     1       6.540   8.084  -7.037  1.00  0.00    -0.354 N 
ATOM     50  N   UNL     1       3.958   9.519  -7.093  1.00  0.00    -0.248 NA
ATOM     51  C   UNL     1       2.609  11.230  -7.931  1.00  0.00     0.031 C 
ATOM     52  C   UNL     1       8.102   8.695  -8.493  1.00  0.00     0.029 A 
ATOM     53  C   UNL     1       6.815   8.975  -8.061  1.00  0.00     0.049 A 
ATOM     54  H   UNL     1       5.697   8.048  -6.531  1.00  0.00     0.167 HD
ATOM     55  C   UNL     1       4.652  10.198  -8.084  1.00  0.00     0.074 A 
ATOM     56  C   UNL     1       3.767  11.233  -8.578  1.00  0.00     0.031 C 
ATOM     57  C   UNL     1       5.909   9.984  -8.543  1.00  0.00     0.037 A 
BRANCH  44  58
ATOM     58  C   UNL     1       8.943   5.412  -5.707  1.00  0.00     0.064 A 
ATOM     59  C   UNL     1       9.022   4.086  -6.158  1.00  0.00     0.173 A 
ATOM     60  C   UNL     1      10.096   5.991  -5.156  1.00  0.00     0.173 A 
ATOM     61  F   UNL     1       7.942   3.484  -6.676  1.00  0.00    -0.203 F 
ATOM     62  C   UNL     1      10.208   3.364  -6.046  1.00  0.00     0.198 A 
ATOM     63  C   UNL     1      11.285   5.273  -5.066  1.00  0.00     0.198 A 
ATOM     64  F   UNL     1      10.070   7.256  -4.712  1.00  0.00    -0.203 F 
ATOM     65  F   UNL     1      10.253   2.087  -6.451  1.00  0.00    -0.200 F 
ATOM     66  C   UNL     1      11.339   3.959  -5.507  1.00  0.00     0.200 A 
ATOM     67  F   UNL     1      12.378   5.852  -4.551  1.00  0.00    -0.200 F 
ATOM     68  F   UNL     1      12.480   3.264  -5.405  1.00  0.00    -0.200 F 
ENDBRANCH  44  58
BRANCH  45  69
ATOM     69  C   UNL     1       0.377  10.564  -6.139  1.00  0.00     0.064 A 
ATOM     70  C   UNL     1      -0.518  10.460  -7.211  1.00  0.00     0.173 A 
ATOM     71  C   UNL     1       0.039  11.425  -5.084  1.00  0.00     0.173 A 
ATOM     72  F   UNL     1      -0.226   9.667  -8.252  1.00  0.00    -0.203 F 
ATOM     73  C   UNL     1      -1.703  11.192  -7.230  1.00  0.00     0.198 A 
ATOM     74  C   UNL     1      -1.158  12.138  -5.093  1.00  0.00     0.198 A 
ATOM     75  F   UNL     1       0.864  11.558  -4.035  1.00  0.00    -0.203 F 
ATOM     76  F   UNL     1      -2.529  11.098  -8.281  1.00  0.00    -0.200 F 
ATOM     77  C   UNL     1      -2.026  12.024  -6.168  1.00  0.00     0.200 A 
ATOM     78  F   UNL     1      -1.470  12.931  -4.059  1.00  0.00    -0.200 F 
ATOM     79  F   UNL     1      -3.171  12.720  -6.182  1.00  0.00    -0.200 F 
ENDBRANCH  45  69
BRANCH  57  80
ATOM     80  C   UNL     1       6.386  10.858  -9.661  1.00  0.00     0.064 A 
ATOM     81  C   UNL     1       6.818  12.171  -9.430  1.00  0.00     0.173 A 
ATOM     82  C   UNL     1       6.471  10.351 -10.966  1.00  0.00     0.173 A 
ATOM     83  F   UNL     1       6.740  12.700  -8.200  1.00  0.00    -0.203 F 
ATOM     84  C   UNL     1       7.312  12.951 -10.471  1.00  0.00     0.198 A 
ATOM     85  C   UNL     1       6.983  11.127 -12.001  1.00  0.00     0.198 A 
ATOM     86  F   UNL     1       6.072   9.098 -11.232  1.00  0.00    -0.203 F 
ATOM     87  F   UNL     1       7.697  14.213 -10.236  1.00  0.00    -0.200 F 
ATOM     88  C   UNL     1       7.401  12.426 -11.753  1.00  0.00     0.200 A 
ATOM     89  F   UNL     1       7.076  10.617 -13.236  1.00  0.00    -0.200 F 
ATOM     90  F   UNL     1       7.887  13.176 -12.752  1.00  0.00    -0.200 F 
ENDBRANCH  57  80
ENDBRANCH  31  32
ENDBRANCH  24  26
ENDBRANCH  23  24
ENDBRANCH  22  23
ENDBRANCH   1  22
TORSDOF 13
