REMARK SMILES C[C@@H](Oc1ccc(I)cc1)C(=O)NCc1ccc(C(=O)OCCOC(=O)c2ccc(-c3c4nc(c(-c5c(F)c(F)c(F)c(F)c5F)c5ccc([nH]5)c(-c5c(F)c(F)c(F)c(F)c5F)c5nc(c(-c6c(F)c(F)c(F)c(F)c6F)c6ccc3[nH]6)C=C5)C=C4)cc2)cc1
REMARK SMILES IDX 21 1 19 2 20 3 18 4 15 5 16 6 91 7 17 8 90 9 14 10 13 11
REMARK SMILES IDX 11 12 12 13 2 15 1 16 3 17 4 18 5 19 10 20 6 21 9 22 7 23
REMARK SMILES IDX 8 24 22 25 23 26 24 27 25 28 26 29 27 30 28 31 89 32 29 33
REMARK SMILES IDX 88 34 30 35 31 36 32 37 82 38 33 39 87 40 81 41 83 42 34 43
REMARK SMILES IDX 86 44 80 45 79 46 35 48 67 49 47 50 66 51 48 52 51 53 65 54
REMARK SMILES IDX 84 55 49 56 50 57 64 59 85 60 52 61 36 62 37 63 45 64 38 65
REMARK SMILES IDX 39 66 43 67 46 68 40 69 41 70 44 71 42 72 68 73 69 74 77 75
REMARK SMILES IDX 70 76 71 77 75 78 78 79 72 80 73 81 76 82 74 83 53 84 54 85
REMARK SMILES IDX 62 86 55 87 56 88 60 89 63 90 57 91 58 92 61 93 59 94
REMARK H PARENT 13 14 83 47 51 58
REMARK Flexibility Score: inf
ROOT
ATOM      1  O   UNL     1      -2.404  -2.819   6.458  1.00  0.00    -0.458 OA
ENDROOT
BRANCH   1   2
ATOM      2  C   UNL     1      -2.948  -1.927   5.596  1.00  0.00     0.338 C 
ATOM      3  O   UNL     1      -3.673  -0.987   5.889  1.00  0.00    -0.246 OA
BRANCH   2   4
ATOM      4  C   UNL     1      -2.480  -2.161   4.209  1.00  0.00     0.060 A 
ATOM      5  C   UNL     1      -1.632  -2.463   1.540  1.00  0.00    -0.029 A 
ATOM      6  C   UNL     1      -1.981  -1.202   2.036  1.00  0.00     0.006 A 
ATOM      7  C   UNL     1      -1.699  -3.570   2.405  1.00  0.00     0.006 A 
ATOM      8  C   UNL     1      -2.434  -1.061   3.345  1.00  0.00     0.016 A 
ATOM      9  C   UNL     1      -2.112  -3.422   3.735  1.00  0.00     0.016 A 
BRANCH   5  10
ATOM     10  C   UNL     1      -1.119  -2.640   0.130  1.00  0.00     0.151 C 
BRANCH  10  11
ATOM     11  N   UNL     1      -1.593  -1.607  -0.776  1.00  0.00    -0.349 N 
ATOM     12  C   UNL     1      -0.906  -0.651  -1.468  1.00  0.00     0.261 C 
ATOM     13  O   UNL     1      -1.562   0.143  -2.149  1.00  0.00    -0.271 OA
ATOM     14  H   UNL     1      -2.568  -1.595  -0.914  1.00  0.00     0.163 HD
BRANCH  12  15
ATOM     15  C   UNL     1       0.620  -0.502  -1.339  1.00  0.00     0.258 C 
ATOM     16  C   UNL     1       0.924   0.230  -0.033  1.00  0.00     0.064 C 
BRANCH  15  17
ATOM     17  O   UNL     1       1.204  -1.804  -1.421  1.00  0.00    -0.481 OA
BRANCH  17  18
ATOM     18  C   UNL     1       2.537  -1.831  -1.699  1.00  0.00     0.120 A 
ATOM     19  C   UNL     1       3.477  -1.652  -0.686  1.00  0.00     0.047 A 
ATOM     20  C   UNL     1       2.935  -2.245  -2.968  1.00  0.00     0.047 A 
ATOM     21  C   UNL     1       4.832  -1.846  -0.953  1.00  0.00     0.018 A 
ATOM     22  C   UNL     1       4.290  -2.453  -3.235  1.00  0.00     0.018 A 
ATOM     23  C   UNL     1       5.233  -2.252  -2.226  1.00  0.00     0.013 A 
ATOM     24  I   UNL     1       7.245  -2.607  -2.604  1.00  0.00    -0.044 I 
ENDBRANCH  17  18
ENDBRANCH  15  17
ENDBRANCH  12  15
ENDBRANCH  10  11
ENDBRANCH   5  10
ENDBRANCH   2   4
ENDBRANCH   1   2
BRANCH   1  25
ATOM     25  C   UNL     1      -2.745  -2.624   7.845  1.00  0.00     0.275 C 
BRANCH  25  26
ATOM     26  C   UNL     1      -1.648  -1.872   8.598  1.00  0.00     0.275 C 
BRANCH  26  27
ATOM     27  O   UNL     1      -1.522  -0.523   8.110  1.00  0.00    -0.458 OA
BRANCH  27  28
ATOM     28  C   UNL     1      -0.366  -0.240   7.469  1.00  0.00     0.338 C 
ATOM     29  O   UNL     1       0.584  -0.978   7.277  1.00  0.00    -0.246 OA
BRANCH  28  30
ATOM     30  C   UNL     1      -0.394   1.146   6.979  1.00  0.00     0.060 A 
ATOM     31  C   UNL     1      -1.126   1.439   5.831  1.00  0.00     0.016 A 
ATOM     32  C   UNL     1       0.426   2.113   7.554  1.00  0.00     0.016 A 
ATOM     33  C   UNL     1      -0.984   2.675   5.202  1.00  0.00     0.010 A 
ATOM     34  C   UNL     1       0.505   3.382   6.968  1.00  0.00     0.010 A 
ATOM     35  C   UNL     1      -0.169   3.667   5.765  1.00  0.00    -0.014 A 
BRANCH  35  36
ATOM     36  C   UNL     1       0.030   4.978   5.084  1.00  0.00     0.031 A 
ATOM     37  C   UNL     1       1.416   5.412   4.684  1.00  0.00     0.074 A 
ATOM     38  C   UNL     1      -1.013   5.791   4.824  1.00  0.00     0.049 A 
ATOM     39  N   UNL     1       1.846   6.592   4.316  1.00  0.00    -0.248 NA
ATOM     40  C   UNL     1       2.461   4.377   4.715  1.00  0.00     0.031 C 
ATOM     41  C   UNL     1      -2.418   5.482   5.090  1.00  0.00     0.029 A 
ATOM     42  N   UNL     1      -1.049   7.055   4.284  1.00  0.00    -0.354 N 
ATOM     43  C   UNL     1       3.218   6.458   4.140  1.00  0.00     0.074 A 
ATOM     44  C   UNL     1       3.549   5.079   4.430  1.00  0.00     0.031 C 
ATOM     45  C   UNL     1      -3.179   6.515   4.695  1.00  0.00     0.029 A 
ATOM     46  C   UNL     1      -2.312   7.595   4.236  1.00  0.00     0.049 A 
ATOM     47  H   UNL     1      -0.248   7.527   3.962  1.00  0.00     0.167 HD
ATOM     48  C   UNL     1       4.118   7.405   3.777  1.00  0.00     0.037 A 
ATOM     49  C   UNL     1      -2.724   8.836   3.913  1.00  0.00     0.037 A 
ATOM     50  C   UNL     1       3.776   8.760   3.430  1.00  0.00     0.049 A 
ATOM     51  C   UNL     1      -1.707   9.878   3.540  1.00  0.00     0.074 A 
ATOM     52  C   UNL     1       4.614   9.792   3.045  1.00  0.00     0.029 A 
ATOM     53  N   UNL     1       2.484   9.264   3.405  1.00  0.00    -0.354 N 
ATOM     54  N   UNL     1      -0.404   9.767   3.454  1.00  0.00    -0.248 NA
ATOM     55  C   UNL     1      -2.216  11.224   3.241  1.00  0.00     0.031 C 
ATOM     56  C   UNL     1       3.832  10.929   2.814  1.00  0.00     0.029 A 
ATOM     57  C   UNL     1       2.503  10.594   3.015  1.00  0.00     0.049 A 
ATOM     58  H   UNL     1       1.673   8.753   3.630  1.00  0.00     0.167 HD
ATOM     59  C   UNL     1       0.061  11.018   3.075  1.00  0.00     0.074 A 
ATOM     60  C   UNL     1      -1.100  11.872   2.936  1.00  0.00     0.031 C 
ATOM     61  C   UNL     1       1.337  11.424   2.865  1.00  0.00     0.037 A 
BRANCH  48  62
ATOM     62  C   UNL     1       5.569   7.023   3.775  1.00  0.00     0.064 A 
ATOM     63  C   UNL     1       6.121   6.194   2.789  1.00  0.00     0.173 A 
ATOM     64  C   UNL     1       6.431   7.534   4.760  1.00  0.00     0.173 A 
ATOM     65  F   UNL     1       5.338   5.668   1.835  1.00  0.00    -0.203 F 
ATOM     66  C   UNL     1       7.476   5.872   2.800  1.00  0.00     0.198 A 
ATOM     67  C   UNL     1       7.790   7.232   4.753  1.00  0.00     0.198 A 
ATOM     68  F   UNL     1       5.955   8.337   5.723  1.00  0.00    -0.203 F 
ATOM     69  F   UNL     1       7.974   5.043   1.872  1.00  0.00    -0.200 F 
ATOM     70  C   UNL     1       8.310   6.397   3.777  1.00  0.00     0.200 A 
ATOM     71  F   UNL     1       8.595   7.751   5.690  1.00  0.00    -0.200 F 
ATOM     72  F   UNL     1       9.615   6.091   3.782  1.00  0.00    -0.200 F 
ENDBRANCH  48  62
BRANCH  49  73
ATOM     73  C   UNL     1      -4.171   9.171   3.977  1.00  0.00     0.064 A 
ATOM     74  C   UNL     1      -4.905   9.425   2.812  1.00  0.00     0.173 A 
ATOM     75  C   UNL     1      -4.850   9.232   5.204  1.00  0.00     0.173 A 
ATOM     76  F   UNL     1      -4.293   9.408   1.618  1.00  0.00    -0.203 F 
ATOM     77  C   UNL     1      -6.263   9.733   2.870  1.00  0.00     0.198 A 
ATOM     78  C   UNL     1      -6.214   9.510   5.258  1.00  0.00     0.198 A 
ATOM     79  F   UNL     1      -4.192   9.001   6.349  1.00  0.00    -0.203 F 
ATOM     80  F   UNL     1      -6.934  10.009   1.744  1.00  0.00    -0.200 F 
ATOM     81  C   UNL     1      -6.918   9.766   4.092  1.00  0.00     0.200 A 
ATOM     82  F   UNL     1      -6.845   9.527   6.441  1.00  0.00    -0.200 F 
ATOM     83  F   UNL     1      -8.226  10.050   4.146  1.00  0.00    -0.200 F 
ENDBRANCH  49  73
BRANCH  61  84
ATOM     84  C   UNL     1       1.542  12.839   2.415  1.00  0.00     0.064 A 
ATOM     85  C   UNL     1       1.422  13.917   3.303  1.00  0.00     0.173 A 
ATOM     86  C   UNL     1       1.907  13.113   1.089  1.00  0.00     0.173 A 
ATOM     87  F   UNL     1       1.060  13.705   4.577  1.00  0.00    -0.203 F 
ATOM     88  C   UNL     1       1.643  15.223   2.873  1.00  0.00     0.198 A 
ATOM     89  C   UNL     1       2.149  14.417   0.668  1.00  0.00     0.198 A 
ATOM     90  F   UNL     1       2.038  12.114   0.204  1.00  0.00    -0.203 F 
ATOM     91  F   UNL     1       1.487  16.243   3.728  1.00  0.00    -0.200 F 
ATOM     92  C   UNL     1       2.012  15.471   1.559  1.00  0.00     0.200 A 
ATOM     93  F   UNL     1       2.515  14.655  -0.599  1.00  0.00    -0.200 F 
ATOM     94  F   UNL     1       2.230  16.728   1.150  1.00  0.00    -0.200 F 
ENDBRANCH  61  84
ENDBRANCH  35  36
ENDBRANCH  28  30
ENDBRANCH  27  28
ENDBRANCH  26  27
ENDBRANCH  25  26
ENDBRANCH   1  25
TORSDOF 16
