REMARK SMILES C[C@H](c1ccoc1)[NH+]1CC[NH+]([C@@H](C)C(=O)OCCOC(=O)c2ccc(-c3c4nc(c(-c5c(F)c(F)c(F)c(F)c5F)c5ccc([nH]5)c(-c5c(F)c(F)c(F)c(F)c5F)c5nc(c(-c6c(F)c(F)c(F)c(F)c6F)c6ccc3[nH]6)C=C5)C=C4)cc2)CC1
REMARK SMILES IDX 17 1 16 2 14 3 15 4 12 5 13 6 11 7 8 8 9 9 86 10 10 12 85 13
REMARK SMILES IDX 2 15 1 16 3 17 4 18 7 19 5 20 6 21 18 22 19 23 20 24 21 25
REMARK SMILES IDX 22 26 23 27 84 28 24 29 83 30 25 31 26 32 27 33 77 34 28 35
REMARK SMILES IDX 82 36 76 37 78 38 29 39 81 40 75 41 74 42 30 44 62 45 42 46
REMARK SMILES IDX 61 47 43 48 46 49 60 50 79 51 44 52 45 53 59 55 80 56 47 57
REMARK SMILES IDX 31 58 32 59 40 60 33 61 34 62 38 63 41 64 35 65 36 66 39 67
REMARK SMILES IDX 37 68 63 69 64 70 72 71 65 72 66 73 70 74 73 75 67 76 68 77
REMARK SMILES IDX 71 78 69 79 48 80 49 81 57 82 50 83 51 84 55 85 58 86 52 87
REMARK SMILES IDX 53 88 56 89 54 90
REMARK H PARENT 8 11 11 14 78 43 46 54
REMARK Flexibility Score: inf
ROOT
ATOM      1  C   UNL     1      -4.111  -6.062   3.162  1.00  0.00     0.274 C 
ENDROOT
BRANCH   1   2
ATOM      2  O   UNL     1      -3.596  -4.806   2.684  1.00  0.00    -0.458 OA
BRANCH   2   3
ATOM      3  C   UNL     1      -4.238  -3.676   3.083  1.00  0.00     0.364 C 
ATOM      4  O   UNL     1      -5.276  -3.671   3.739  1.00  0.00    -0.245 OA
BRANCH   3   5
ATOM      5  C   UNL     1      -3.581  -2.379   2.563  1.00  0.00     0.292 C 
ATOM      6  C   UNL     1      -4.177  -2.044   1.201  1.00  0.00     0.088 C 
BRANCH   5   7
ATOM      7  N   UNL     1      -2.106  -2.362   2.727  1.00  0.00    -0.314 N 
ATOM      8  N   UNL     1      -0.408  -1.151   0.531  1.00  0.00    -0.320 N 
ATOM      9  C   UNL     1      -0.940  -2.514   0.458  1.00  0.00     0.325 C 
ATOM     10  C   UNL     1      -1.127  -0.324   1.507  1.00  0.00     0.325 C 
ATOM     11  H   UNL     1      -0.622  -0.698  -0.357  1.00  0.00     0.348 HD
ATOM     12  C   UNL     1      -1.294  -3.171   1.807  1.00  0.00     0.325 C 
ATOM     13  C   UNL     1      -1.524  -1.013   2.835  1.00  0.00     0.325 C 
ATOM     14  H   UNL     1      -2.042  -2.842   3.625  1.00  0.00     0.349 HD
BRANCH   8  15
ATOM     15  C   UNL     1       1.056  -1.067   0.518  1.00  0.00     0.215 C 
ATOM     16  C   UNL     1       1.767  -1.090   1.873  1.00  0.00     0.081 C 
BRANCH  15  17
ATOM     17  C   UNL     1       1.424   0.134  -0.319  1.00  0.00     0.047 A 
ATOM     18  C   UNL     1       1.520   1.505   0.064  1.00  0.00     0.052 A 
ATOM     19  C   UNL     1       1.729   0.122  -1.668  1.00  0.00     0.204 A 
ATOM     20  C   UNL     1       1.859   2.210  -1.067  1.00  0.00     0.195 A 
ATOM     21  O   UNL     1       1.996   1.371  -2.123  1.00  0.00    -0.472 OA
ENDBRANCH  15  17
ENDBRANCH   8  15
ENDBRANCH   5   7
ENDBRANCH   3   5
ENDBRANCH   2   3
ENDBRANCH   1   2
BRANCH   1  22
ATOM     22  C   UNL     1      -3.352  -6.526   4.407  1.00  0.00     0.275 C 
BRANCH  22  23
ATOM     23  O   UNL     1      -3.643  -5.668   5.525  1.00  0.00    -0.458 OA
BRANCH  23  24
ATOM     24  C   UNL     1      -2.684  -4.764   5.829  1.00  0.00     0.338 C 
ATOM     25  O   UNL     1      -1.563  -4.682   5.350  1.00  0.00    -0.246 OA
BRANCH  24  26
ATOM     26  C   UNL     1      -3.232  -3.767   6.765  1.00  0.00     0.060 A 
ATOM     27  C   UNL     1      -3.126  -2.418   6.417  1.00  0.00     0.016 A 
ATOM     28  C   UNL     1      -3.800  -4.140   7.987  1.00  0.00     0.016 A 
ATOM     29  C   UNL     1      -3.586  -1.433   7.289  1.00  0.00     0.010 A 
ATOM     30  C   UNL     1      -4.249  -3.150   8.869  1.00  0.00     0.010 A 
ATOM     31  C   UNL     1      -4.132  -1.791   8.530  1.00  0.00    -0.014 A 
BRANCH  31  32
ATOM     32  C   UNL     1      -4.500  -0.721   9.489  1.00  0.00     0.031 A 
ATOM     33  C   UNL     1      -3.547  -0.347  10.587  1.00  0.00     0.074 A 
ATOM     34  C   UNL     1      -5.652  -0.045   9.337  1.00  0.00     0.049 A 
ATOM     35  N   UNL     1      -3.647   0.599  11.487  1.00  0.00    -0.248 NA
ATOM     36  C   UNL     1      -2.313  -1.142  10.683  1.00  0.00     0.031 C 
ATOM     37  C   UNL     1      -6.648  -0.300   8.299  1.00  0.00     0.029 A 
ATOM     38  N   UNL     1      -6.170   1.006  10.052  1.00  0.00    -0.354 N 
ATOM     39  C   UNL     1      -2.494   0.514  12.254  1.00  0.00     0.074 A 
ATOM     40  C   UNL     1      -1.719  -0.593  11.733  1.00  0.00     0.031 C 
ATOM     41  C   UNL     1      -7.654   0.581   8.435  1.00  0.00     0.029 A 
ATOM     42  C   UNL     1      -7.380   1.449   9.579  1.00  0.00     0.049 A 
ATOM     43  H   UNL     1      -5.717   1.405  10.830  1.00  0.00     0.167 HD
ATOM     44  C   UNL     1      -2.110   1.295  13.293  1.00  0.00     0.037 A 
ATOM     45  C   UNL     1      -8.175   2.443  10.019  1.00  0.00     0.037 A 
ATOM     46  C   UNL     1      -2.878   2.396  13.814  1.00  0.00     0.049 A 
ATOM     47  C   UNL     1      -7.736   3.279  11.192  1.00  0.00     0.074 A 
ATOM     48  C   UNL     1      -2.571   3.242  14.866  1.00  0.00     0.029 A 
ATOM     49  N   UNL     1      -4.109   2.801  13.322  1.00  0.00    -0.354 N 
ATOM     50  N   UNL     1      -6.633   3.206  11.896  1.00  0.00    -0.248 NA
ATOM     51  C   UNL     1      -8.653   4.344  11.625  1.00  0.00     0.031 C 
ATOM     52  C   UNL     1      -3.633   4.140  15.030  1.00  0.00     0.029 A 
ATOM     53  C   UNL     1      -4.581   3.878  14.056  1.00  0.00     0.049 A 
ATOM     54  H   UNL     1      -4.579   2.385  12.563  1.00  0.00     0.167 HD
ATOM     55  C   UNL     1      -6.711   4.225  12.836  1.00  0.00     0.074 A 
ATOM     56  C   UNL     1      -7.963   4.914  12.603  1.00  0.00     0.031 C 
ATOM     57  C   UNL     1      -5.826   4.558  13.807  1.00  0.00     0.037 A 
BRANCH  44  58
ATOM     58  C   UNL     1      -0.801   0.971  13.948  1.00  0.00     0.064 A 
ATOM     59  C   UNL     1       0.422   1.265  13.328  1.00  0.00     0.173 A 
ATOM     60  C   UNL     1      -0.770   0.383  15.221  1.00  0.00     0.173 A 
ATOM     61  F   UNL     1       0.443   1.814  12.104  1.00  0.00    -0.203 F 
ATOM     62  C   UNL     1       1.630   0.963  13.950  1.00  0.00     0.198 A 
ATOM     63  C   UNL     1       0.440   0.104  15.851  1.00  0.00     0.198 A 
ATOM     64  F   UNL     1      -1.913   0.085  15.857  1.00  0.00    -0.203 F 
ATOM     65  F   UNL     1       2.787   1.216  13.323  1.00  0.00    -0.200 F 
ATOM     66  C   UNL     1       1.638   0.388  15.213  1.00  0.00     0.200 A 
ATOM     67  F   UNL     1       0.447  -0.444  17.074  1.00  0.00    -0.200 F 
ATOM     68  F   UNL     1       2.802   0.101  15.812  1.00  0.00    -0.200 F 
ENDBRANCH  44  58
BRANCH  45  69
ATOM     69  C   UNL     1      -9.463   2.718   9.334  1.00  0.00     0.064 A 
ATOM     70  C   UNL     1      -9.640   3.878   8.568  1.00  0.00     0.173 A 
ATOM     71  C   UNL     1     -10.546   1.834   9.444  1.00  0.00     0.173 A 
ATOM     72  F   UNL     1      -8.641   4.766   8.457  1.00  0.00    -0.203 F 
ATOM     73  C   UNL     1     -10.858   4.151   7.949  1.00  0.00     0.198 A 
ATOM     74  C   UNL     1     -11.755   2.096   8.804  1.00  0.00     0.198 A 
ATOM     75  F   UNL     1     -10.426   0.713  10.169  1.00  0.00    -0.203 F 
ATOM     76  F   UNL     1     -11.015   5.289   7.258  1.00  0.00    -0.200 F 
ATOM     77  C   UNL     1     -11.912   3.257   8.063  1.00  0.00     0.200 A 
ATOM     78  F   UNL     1     -12.769   1.226   8.910  1.00  0.00    -0.200 F 
ATOM     79  F   UNL     1     -13.083   3.520   7.466  1.00  0.00    -0.200 F 
ENDBRANCH  45  69
BRANCH  57  80
ATOM     80  C   UNL     1      -6.166   5.739  14.668  1.00  0.00     0.064 A 
ATOM     81  C   UNL     1      -7.168   5.671  15.647  1.00  0.00     0.173 A 
ATOM     82  C   UNL     1      -5.466   6.947  14.526  1.00  0.00     0.173 A 
ATOM     83  F   UNL     1      -7.875   4.543  15.810  1.00  0.00    -0.203 F 
ATOM     84  C   UNL     1      -7.477   6.778  16.433  1.00  0.00     0.198 A 
ATOM     85  C   UNL     1      -5.760   8.044  15.331  1.00  0.00     0.198 A 
ATOM     86  F   UNL     1      -4.494   7.062  13.609  1.00  0.00    -0.203 F 
ATOM     87  F   UNL     1      -8.471   6.705  17.329  1.00  0.00    -0.200 F 
ATOM     88  C   UNL     1      -6.770   7.961  16.278  1.00  0.00     0.200 A 
ATOM     89  F   UNL     1      -5.071   9.184  15.187  1.00  0.00    -0.200 F 
ATOM     90  F   UNL     1      -7.069   9.026  17.035  1.00  0.00    -0.200 F 
ENDBRANCH  57  80
ENDBRANCH  31  32
ENDBRANCH  24  26
ENDBRANCH  23  24
ENDBRANCH  22  23
ENDBRANCH   1  22
TORSDOF 14
