REMARK SMILES CC[C@@](C)(NC(=O)[C@@H]1CCS(=O)(=O)C1)C(=O)OCCOC(=O)c1ccc(-c2c3nc(c(-c4c(F)c(F)c(F)c(F)c4F)c4ccc([nH]4)c(-c4c(F)c(F)c(F)c(F)c4F)c4nc(c(-c5c(F)c(F)c(F)c(F)c5F)c5ccc2[nH]5)C=C4)C=C3)cc1
REMARK SMILES IDX 18 1 17 2 15 3 16 4 3 5 4 6 2 7 1 8 5 9 6 10 7 12 8 13 9 14
REMARK SMILES IDX 14 15 10 16 11 17 12 18 13 19 19 20 20 21 21 22 22 23 23 24
REMARK SMILES IDX 24 25 85 26 25 27 84 28 26 29 27 30 28 31 78 32 29 33 83 34
REMARK SMILES IDX 77 35 79 36 30 37 82 38 76 39 75 40 31 42 63 43 43 44 62 45
REMARK SMILES IDX 44 46 47 47 61 48 80 49 45 50 46 51 60 53 81 54 48 55 32 56
REMARK SMILES IDX 33 57 41 58 34 59 35 60 39 61 42 62 36 63 37 64 40 65 38 66
REMARK SMILES IDX 64 67 65 68 73 69 66 70 67 71 71 72 74 73 68 74 69 75 72 76
REMARK SMILES IDX 70 77 49 78 50 79 58 80 51 81 52 82 56 83 59 84 53 85 54 86
REMARK SMILES IDX 57 87 55 88
REMARK H PARENT 5 11 79 41 47 52
REMARK Flexibility Score: inf
ROOT
ATOM      1  C   UNL     1       4.805  -0.988  -2.050  1.00  0.00     0.274 C 
ENDROOT
BRANCH   1   2
ATOM      2  O   UNL     1       3.443  -0.824  -2.511  1.00  0.00    -0.460 OA
BRANCH   2   3
ATOM      3  C   UNL     1       2.443  -1.164  -1.667  1.00  0.00     0.331 C 
ATOM      4  O   UNL     1       2.645  -1.546  -0.520  1.00  0.00    -0.249 OA
BRANCH   3   5
ATOM      5  C   UNL     1       1.029  -1.149  -2.343  1.00  0.00     0.135 C 
ATOM      6  C   UNL     1       0.559  -2.615  -2.371  1.00  0.00     0.047 C 
BRANCH   5   7
ATOM      7  C   UNL     1       0.025  -0.335  -1.442  1.00  0.00     0.037 C 
ATOM      8  C   UNL     1       0.035  -0.544   0.066  1.00  0.00     0.007 C 
ENDBRANCH   5   7
BRANCH   5   9
ATOM      9  N   UNL     1       0.815  -0.545  -3.715  1.00  0.00    -0.340 N 
ATOM     10  C   UNL     1       1.332  -0.602  -4.966  1.00  0.00     0.225 C 
ATOM     11  H   UNL     1       0.062   0.089  -3.690  1.00  0.00     0.164 HD
ATOM     12  O   UNL     1       0.547  -0.364  -5.888  1.00  0.00    -0.275 OA
BRANCH  10  13
ATOM     13  C   UNL     1       2.807  -0.789  -5.253  1.00  0.00     0.094 C 
ATOM     14  C   UNL     1       3.213  -0.331  -6.667  1.00  0.00     0.030 C 
ATOM     15  C   UNL     1       3.251  -2.234  -5.141  1.00  0.00     0.150 C 
ATOM     16  C   UNL     1       2.881  -1.438  -7.660  1.00  0.00     0.138 C 
ATOM     17  S   UNL     1       2.941  -2.959  -6.734  1.00  0.00     0.151 S 
ATOM     18  O   UNL     1       1.622  -3.559  -6.706  1.00  0.00    -0.229 OA
ATOM     19  O   UNL     1       4.117  -3.708  -7.120  1.00  0.00    -0.229 OA
ENDBRANCH  10  13
ENDBRANCH   5   9
ENDBRANCH   3   5
ENDBRANCH   2   3
ENDBRANCH   1   2
BRANCH   1  20
ATOM     20  C   UNL     1       5.638   0.210  -2.505  1.00  0.00     0.275 C 
BRANCH  20  21
ATOM     21  O   UNL     1       5.152   1.382  -1.826  1.00  0.00    -0.458 OA
BRANCH  21  22
ATOM     22  C   UNL     1       4.415   2.232  -2.571  1.00  0.00     0.338 C 
ATOM     23  O   UNL     1       4.252   2.226  -3.786  1.00  0.00    -0.246 OA
BRANCH  22  24
ATOM     24  C   UNL     1       3.636   3.066  -1.654  1.00  0.00     0.060 A 
ATOM     25  C   UNL     1       2.398   2.573  -1.246  1.00  0.00     0.016 A 
ATOM     26  C   UNL     1       4.078   4.316  -1.230  1.00  0.00     0.016 A 
ATOM     27  C   UNL     1       1.577   3.332  -0.421  1.00  0.00     0.010 A 
ATOM     28  C   UNL     1       3.266   5.068  -0.372  1.00  0.00     0.010 A 
ATOM     29  C   UNL     1       2.006   4.586   0.031  1.00  0.00    -0.014 A 
BRANCH  29  30
ATOM     30  C   UNL     1       1.112   5.398   0.898  1.00  0.00     0.031 A 
ATOM     31  C   UNL     1       0.504   6.666   0.372  1.00  0.00     0.074 A 
ATOM     32  C   UNL     1       0.812   4.971   2.140  1.00  0.00     0.049 A 
ATOM     33  N   UNL     1      -0.207   7.569   1.000  1.00  0.00    -0.248 NA
ATOM     34  C   UNL     1       0.726   6.960  -1.052  1.00  0.00     0.031 C 
ATOM     35  C   UNL     1       1.297   3.730   2.745  1.00  0.00     0.029 A 
ATOM     36  N   UNL     1       0.023   5.529   3.114  1.00  0.00    -0.354 N 
ATOM     37  C   UNL     1      -0.493   8.549   0.058  1.00  0.00     0.074 A 
ATOM     38  C   UNL     1       0.130   8.137  -1.182  1.00  0.00     0.031 C 
ATOM     39  C   UNL     1       0.780   3.611   3.978  1.00  0.00     0.029 A 
ATOM     40  C   UNL     1      -0.017   4.797   4.276  1.00  0.00     0.049 A 
ATOM     41  H   UNL     1      -0.468   6.374   2.992  1.00  0.00     0.167 HD
ATOM     42  C   UNL     1      -1.209   9.688   0.218  1.00  0.00     0.037 A 
ATOM     43  C   UNL     1      -0.600   5.068   5.459  1.00  0.00     0.037 A 
ATOM     44  C   UNL     1      -1.838  10.084   1.452  1.00  0.00     0.049 A 
ATOM     45  C   UNL     1      -1.361   6.355   5.619  1.00  0.00     0.074 A 
ATOM     46  C   UNL     1      -2.550  11.237   1.732  1.00  0.00     0.029 A 
ATOM     47  N   UNL     1      -1.840   9.324   2.613  1.00  0.00    -0.354 N 
ATOM     48  N   UNL     1      -1.569   7.308   4.741  1.00  0.00    -0.248 NA
ATOM     49  C   UNL     1      -1.961   6.611   6.935  1.00  0.00     0.031 C 
ATOM     50  C   UNL     1      -2.959  11.188   3.070  1.00  0.00     0.029 A 
ATOM     51  C   UNL     1      -2.538   9.985   3.612  1.00  0.00     0.049 A 
ATOM     52  H   UNL     1      -1.409   8.444   2.713  1.00  0.00     0.167 HD
ATOM     53  C   UNL     1      -2.321   8.273   5.397  1.00  0.00     0.074 A 
ATOM     54  C   UNL     1      -2.564   7.773   6.734  1.00  0.00     0.031 C 
ATOM     55  C   UNL     1      -2.759   9.471   4.939  1.00  0.00     0.037 A 
BRANCH  42  56
ATOM     56  C   UNL     1      -1.322  10.604  -0.965  1.00  0.00     0.064 A 
ATOM     57  C   UNL     1      -2.132  10.293  -2.067  1.00  0.00     0.173 A 
ATOM     58  C   UNL     1      -0.627  11.823  -0.986  1.00  0.00     0.173 A 
ATOM     59  F   UNL     1      -2.803   9.131  -2.103  1.00  0.00    -0.203 F 
ATOM     60  C   UNL     1      -2.225  11.157  -3.155  1.00  0.00     0.198 A 
ATOM     61  C   UNL     1      -0.742  12.697  -2.064  1.00  0.00     0.198 A 
ATOM     62  F   UNL     1       0.161  12.171   0.043  1.00  0.00    -0.203 F 
ATOM     63  F   UNL     1      -2.971  10.819  -4.216  1.00  0.00    -0.200 F 
ATOM     64  C   UNL     1      -1.536  12.361  -3.150  1.00  0.00     0.200 A 
ATOM     65  F   UNL     1      -0.082  13.864  -2.054  1.00  0.00    -0.200 F 
ATOM     66  F   UNL     1      -1.629  13.193  -4.197  1.00  0.00    -0.200 F 
ENDBRANCH  42  56
BRANCH  43  67
ATOM     67  C   UNL     1      -0.450   4.121   6.596  1.00  0.00     0.064 A 
ATOM     68  C   UNL     1      -1.547   3.409   7.099  1.00  0.00     0.173 A 
ATOM     69  C   UNL     1       0.796   3.913   7.206  1.00  0.00     0.173 A 
ATOM     70  F   UNL     1      -2.765   3.592   6.568  1.00  0.00    -0.203 F 
ATOM     71  C   UNL     1      -1.406   2.537   8.178  1.00  0.00     0.198 A 
ATOM     72  C   UNL     1       0.942   3.018   8.263  1.00  0.00     0.198 A 
ATOM     73  F   UNL     1       1.878   4.572   6.765  1.00  0.00    -0.203 F 
ATOM     74  F   UNL     1      -2.480   1.904   8.669  1.00  0.00    -0.200 F 
ATOM     75  C   UNL     1      -0.160   2.336   8.753  1.00  0.00     0.200 A 
ATOM     76  F   UNL     1       2.151   2.816   8.805  1.00  0.00    -0.200 F 
ATOM     77  F   UNL     1      -0.024   1.491   9.784  1.00  0.00    -0.200 F 
ENDBRANCH  43  67
BRANCH  55  78
ATOM     78  C   UNL     1      -3.551  10.310   5.898  1.00  0.00     0.064 A 
ATOM     79  C   UNL     1      -2.939  10.956   6.983  1.00  0.00     0.173 A 
ATOM     80  C   UNL     1      -4.934  10.472   5.729  1.00  0.00     0.173 A 
ATOM     81  F   UNL     1      -1.622  10.817   7.195  1.00  0.00    -0.203 F 
ATOM     82  C   UNL     1      -3.690  11.704   7.885  1.00  0.00     0.198 A 
ATOM     83  C   UNL     1      -5.677  11.243   6.618  1.00  0.00     0.198 A 
ATOM     84  F   UNL     1      -5.564   9.878   4.704  1.00  0.00    -0.203 F 
ATOM     85  F   UNL     1      -3.095  12.265   8.946  1.00  0.00    -0.200 F 
ATOM     86  C   UNL     1      -5.057  11.850   7.700  1.00  0.00     0.200 A 
ATOM     87  F   UNL     1      -6.997  11.390   6.434  1.00  0.00    -0.200 F 
ATOM     88  F   UNL     1      -5.779  12.566   8.572  1.00  0.00    -0.200 F 
ENDBRANCH  55  78
ENDBRANCH  29  30
ENDBRANCH  22  24
ENDBRANCH  21  22
ENDBRANCH  20  21
ENDBRANCH   1  20
TORSDOF 14
