REMARK SMILES Cc1oc(C)c(S(=O)(=O)Nn2c(C)ccc2C)c1C(=O)OCCOC(=O)c1ccc(-c2c3nc(c(-c4c(F)c(F)c(F)c(F)c4F)c4ccc([nH]4)c(-c4c(F)c(F)c(F)c(F)c4F)c4nc(c(-c5c(F)c(F)c(F)c(F)c5F)c5ccc2[nH]5)C=C4)C=C3)cc1
REMARK SMILES IDX 22 1 21 2 19 3 20 4 18 5 1 6 2 7 3 8 4 9 6 10 5 11 7 12 8 13
REMARK SMILES IDX 9 14 10 15 11 17 12 18 16 19 13 20 14 21 15 22 17 23 23 24
REMARK SMILES IDX 24 25 25 26 26 27 27 28 28 29 89 30 29 31 88 32 30 33 31 34
REMARK SMILES IDX 32 35 82 36 33 37 87 38 81 39 83 40 34 41 86 42 80 43 79 44
REMARK SMILES IDX 35 46 67 47 47 48 66 49 48 50 51 51 65 52 84 53 49 54 50 55
REMARK SMILES IDX 64 57 85 58 52 59 36 60 37 61 45 62 38 63 39 64 43 65 46 66
REMARK SMILES IDX 40 67 41 68 44 69 42 70 68 71 69 72 77 73 70 74 71 75 75 76
REMARK SMILES IDX 78 77 72 78 73 79 76 80 74 81 53 82 54 83 62 84 55 85 56 86
REMARK SMILES IDX 60 87 63 88 57 89 58 90 61 91 59 92
REMARK H PARENT 10 16 83 45 51 56
REMARK Flexibility Score: inf
ROOT
ATOM      1  C   UNL     1       3.124   4.109  -1.222  1.00  0.00     0.275 C 
ENDROOT
BRANCH   1   2
ATOM      2  O   UNL     1       2.222   2.896  -1.034  1.00  0.00    -0.458 OA
BRANCH   2   3
ATOM      3  C   UNL     1       1.806   2.458   0.250  1.00  0.00     0.343 C 
ATOM      4  O   UNL     1       2.194   2.982   1.288  1.00  0.00    -0.246 OA
BRANCH   3   5
ATOM      5  C   UNL     1       0.882   1.275   0.274  1.00  0.00     0.122 A 
ATOM      6  C   UNL     1       2.631  -0.719  -0.061  1.00  0.00     0.088 C 
ATOM      7  C   UNL     1       1.324  -0.037   0.067  1.00  0.00     0.117 A 
ATOM      8  O   UNL     1       0.287  -0.913   0.013  1.00  0.00    -0.464 OA
ATOM      9  C   UNL     1      -0.844  -0.241   0.307  1.00  0.00     0.122 A 
ATOM     10  C   UNL     1      -0.540   1.072   0.637  1.00  0.00     0.145 A 
ATOM     11  C   UNL     1      -2.094  -1.043   0.234  1.00  0.00     0.089 C 
BRANCH  10  12
ATOM     12  S   UNL     1      -1.816   2.029   1.322  1.00  0.00     0.279 S 
ATOM     13  O   UNL     1      -2.950   1.886   0.397  1.00  0.00    -0.200 OA
ATOM     14  O   UNL     1      -1.942   1.538   2.650  1.00  0.00    -0.200 OA
BRANCH  12  15
ATOM     15  N   UNL     1      -1.589   3.644   1.427  1.00  0.00    -0.216 N 
ATOM     16  H   UNL     1      -1.963   4.135   2.195  1.00  0.00     0.202 HD
BRANCH  15  17
ATOM     17  N   UNL     1      -0.895   4.326   0.474  1.00  0.00    -0.256 N 
ATOM     18  C   UNL     1      -0.666   4.013  -0.835  1.00  0.00     0.038 A 
ATOM     19  C   UNL     1      -0.132   5.397   0.884  1.00  0.00     0.038 A 
ATOM     20  C   UNL     1      -1.154   2.986  -1.804  1.00  0.00     0.067 C 
ATOM     21  C   UNL     1       0.334   4.864  -1.196  1.00  0.00     0.025 A 
ATOM     22  C   UNL     1       0.728   5.688  -0.139  1.00  0.00     0.025 A 
ATOM     23  C   UNL     1      -0.144   5.989   2.245  1.00  0.00     0.067 C 
ENDBRANCH  15  17
ENDBRANCH  12  15
ENDBRANCH  10  12
ENDBRANCH   3   5
ENDBRANCH   2   3
ENDBRANCH   1   2
BRANCH   1  24
ATOM     24  C   UNL     1       2.932   5.148  -2.586  1.00  0.00     0.275 C 
BRANCH  24  25
ATOM     25  O   UNL     1       1.943   6.426  -2.719  1.00  0.00    -0.458 OA
BRANCH  25  26
ATOM     26  C   UNL     1       0.903   6.516  -3.695  1.00  0.00     0.338 C 
ATOM     27  O   UNL     1       0.681   5.536  -4.408  1.00  0.00    -0.246 OA
BRANCH  26  28
ATOM     28  C   UNL     1      -0.149   7.769  -3.859  1.00  0.00     0.060 A 
ATOM     29  C   UNL     1      -1.515   7.567  -3.640  1.00  0.00     0.016 A 
ATOM     30  C   UNL     1       0.024   8.995  -4.565  1.00  0.00     0.016 A 
ATOM     31  C   UNL     1      -2.583   8.532  -4.046  1.00  0.00     0.010 A 
ATOM     32  C   UNL     1      -1.100   9.975  -5.017  1.00  0.00     0.010 A 
ATOM     33  C   UNL     1      -2.480   9.784  -4.792  1.00  0.00    -0.014 A 
BRANCH  33  34
ATOM     34  C   UNL     1      -3.921  10.647  -5.293  1.00  0.00     0.031 A 
ATOM     35  C   UNL     1      -5.008   9.710  -4.902  1.00  0.00     0.074 A 
ATOM     36  C   UNL     1      -4.536  11.755  -5.986  1.00  0.00     0.049 A 
ATOM     37  N   UNL     1      -5.070   8.539  -5.463  1.00  0.00    -0.248 NA
ATOM     38  C   UNL     1      -5.836   9.863  -3.707  1.00  0.00     0.031 C 
ATOM     39  C   UNL     1      -3.899  12.882  -6.708  1.00  0.00     0.029 A 
ATOM     40  N   UNL     1      -5.949  12.141  -6.261  1.00  0.00    -0.354 N 
ATOM     41  C   UNL     1      -6.094   7.864  -4.857  1.00  0.00     0.074 A 
ATOM     42  C   UNL     1      -6.446   8.670  -3.697  1.00  0.00     0.031 C 
ATOM     43  C   UNL     1      -4.797  13.810  -7.183  1.00  0.00     0.029 A 
ATOM     44  C   UNL     1      -6.196  13.430  -6.937  1.00  0.00     0.049 A 
ATOM     45  H   UNL     1      -6.694  11.554  -6.000  1.00  0.00     0.167 HD
ATOM     46  C   UNL     1      -6.857   7.099  -5.683  1.00  0.00     0.037 A 
ATOM     47  C   UNL     1      -7.365  14.108  -7.380  1.00  0.00     0.037 A 
ATOM     48  C   UNL     1      -8.103   7.736  -5.984  1.00  0.00     0.049 A 
ATOM     49  C   UNL     1      -8.408  13.101  -7.631  1.00  0.00     0.074 A 
ATOM     50  C   UNL     1      -8.993   8.466  -5.223  1.00  0.00     0.029 A 
ATOM     51  N   UNL     1      -8.315   8.100  -7.297  1.00  0.00    -0.354 N 
ATOM     52  N   UNL     1      -8.395  12.404  -8.725  1.00  0.00    -0.248 NA
ATOM     53  C   UNL     1      -9.634  12.981  -6.843  1.00  0.00     0.031 C 
ATOM     54  C   UNL     1      -9.256   9.608  -6.008  1.00  0.00     0.029 A 
ATOM     55  C   UNL     1      -8.835   9.369  -7.312  1.00  0.00     0.049 A 
ATOM     56  H   UNL     1      -8.125   7.545  -8.087  1.00  0.00     0.167 HD
ATOM     57  C   UNL     1      -9.258  11.398  -8.454  1.00  0.00     0.074 A 
ATOM     58  C   UNL     1     -10.185  11.941  -7.479  1.00  0.00     0.031 C 
ATOM     59  C   UNL     1      -8.687  10.171  -8.496  1.00  0.00     0.037 A 
BRANCH  46  60
ATOM     60  C   UNL     1      -6.044   6.328  -6.690  1.00  0.00     0.064 A 
ATOM     61  C   UNL     1      -5.936   4.943  -6.553  1.00  0.00     0.173 A 
ATOM     62  C   UNL     1      -5.250   6.946  -7.682  1.00  0.00     0.173 A 
ATOM     63  F   UNL     1      -6.721   4.290  -5.683  1.00  0.00    -0.203 F 
ATOM     64  C   UNL     1      -5.016   4.221  -7.312  1.00  0.00     0.198 A 
ATOM     65  C   UNL     1      -4.277   6.239  -8.375  1.00  0.00     0.198 A 
ATOM     66  F   UNL     1      -5.414   8.245  -7.984  1.00  0.00    -0.203 F 
ATOM     67  F   UNL     1      -4.949   2.889  -7.188  1.00  0.00    -0.200 F 
ATOM     68  C   UNL     1      -4.157   4.875  -8.186  1.00  0.00     0.200 A 
ATOM     69  F   UNL     1      -3.463   6.881  -9.224  1.00  0.00    -0.200 F 
ATOM     70  F   UNL     1      -3.230   4.185  -8.865  1.00  0.00    -0.200 F 
ENDBRANCH  46  60
BRANCH  47  71
ATOM     71  C   UNL     1      -7.992  15.474  -7.970  1.00  0.00     0.064 A 
ATOM     72  C   UNL     1      -9.030  15.471  -8.989  1.00  0.00     0.173 A 
ATOM     73  C   UNL     1      -7.970  16.684  -7.255  1.00  0.00     0.173 A 
ATOM     74  F   UNL     1      -9.194  14.434  -9.819  1.00  0.00    -0.203 F 
ATOM     75  C   UNL     1      -9.990  16.494  -9.172  1.00  0.00     0.198 A 
ATOM     76  C   UNL     1      -8.912  17.738  -7.477  1.00  0.00     0.198 A 
ATOM     77  F   UNL     1      -7.094  16.847  -6.256  1.00  0.00    -0.203 F 
ATOM     78  F   UNL     1     -10.996  16.334 -10.050  1.00  0.00    -0.200 F 
ATOM     79  C   UNL     1      -9.939  17.627  -8.403  1.00  0.00     0.200 A 
ATOM     80  F   UNL     1      -8.861  18.850  -6.727  1.00  0.00    -0.200 F 
ATOM     81  F   UNL     1     -10.877  18.581  -8.530  1.00  0.00    -0.200 F 
ENDBRANCH  47  71
BRANCH  59  82
ATOM     82  C   UNL     1      -7.726   9.917  -9.654  1.00  0.00     0.064 A 
ATOM     83  C   UNL     1      -6.620  10.722 -10.036  1.00  0.00     0.173 A 
ATOM     84  C   UNL     1      -8.011   8.841 -10.502  1.00  0.00     0.173 A 
ATOM     85  F   UNL     1      -6.155  11.711  -9.264  1.00  0.00    -0.203 F 
ATOM     86  C   UNL     1      -5.932  10.522 -11.235  1.00  0.00     0.198 A 
ATOM     87  C   UNL     1      -7.284   8.607 -11.671  1.00  0.00     0.198 A 
ATOM     88  F   UNL     1      -9.000   7.991 -10.186  1.00  0.00    -0.203 F 
ATOM     89  F   UNL     1      -4.947  11.360 -11.594  1.00  0.00    -0.200 F 
ATOM     90  C   UNL     1      -6.265   9.463 -12.053  1.00  0.00     0.200 A 
ATOM     91  F   UNL     1      -7.579   7.545 -12.431  1.00  0.00    -0.200 F 
ATOM     92  F   UNL     1      -5.598   9.256 -13.197  1.00  0.00    -0.200 F 
ENDBRANCH  59  82
ENDBRANCH  33  34
ENDBRANCH  26  28
ENDBRANCH  25  26
ENDBRANCH  24  25
ENDBRANCH   1  24
TORSDOF 14
