REMARK SMILES CS(=O)(=O)c1ccc(/C=C(/C(=O)OCCOC(=O)c2ccc(-c3c4nc(c(-c5c(F)c(F)c(F)c(F)c5F)c5ccc([nH]5)c(-c5c(F)c(F)c(F)c(F)c5F)c5nc(c(-c6c(F)c(F)c(F)c(F)c6F)c6ccc3[nH]6)C=C5)C=C4)cc2)c2cccc(Br)c2)cc1
REMARK SMILES IDX 14 1 13 2 11 3 12 4 10 5 9 6 8 7 5 8 6 9 90 10 7 11 89 12
REMARK SMILES IDX 2 13 1 14 3 15 4 16 82 17 83 18 88 19 84 20 86 21 85 22
REMARK SMILES IDX 87 23 15 24 16 25 17 26 18 27 19 28 20 29 81 30 21 31 80 32
REMARK SMILES IDX 22 33 23 34 24 35 74 36 25 37 79 38 73 39 75 40 26 41 78 42
REMARK SMILES IDX 72 43 71 44 27 46 59 47 39 48 58 49 40 50 43 51 57 52 76 53
REMARK SMILES IDX 41 54 42 55 56 57 77 58 44 59 28 60 29 61 37 62 30 63 31 64
REMARK SMILES IDX 35 65 38 66 32 67 33 68 36 69 34 70 60 71 61 72 69 73 62 74
REMARK SMILES IDX 63 75 67 76 70 77 64 78 65 79 68 80 66 81 45 82 46 83 54 84
REMARK SMILES IDX 47 85 48 86 52 87 55 88 49 89 50 90 53 91 51 92
REMARK H PARENT 75 45 43 56
REMARK Flexibility Score: inf
ROOT
ATOM      1  C   UNL     1       3.834 -10.096   2.262  1.00  0.00     0.275 C 
ENDROOT
BRANCH   1   2
ATOM      2  O   UNL     1       3.150  -8.831   2.389  1.00  0.00    -0.458 OA
BRANCH   2   3
ATOM      3  C   UNL     1       2.452  -8.435   1.294  1.00  0.00     0.338 C 
ATOM      4  O   UNL     1       2.396  -9.036   0.229  1.00  0.00    -0.246 OA
BRANCH   3   5
ATOM      5  C   UNL     1       1.690  -7.173   1.539  1.00  0.00     0.067 C 
ATOM      6  C   UNL     1       2.316  -6.139   2.149  1.00  0.00     0.024 C 
BRANCH   6   7
ATOM      7  C   UNL     1       1.865  -4.728   2.242  1.00  0.00    -0.025 A 
ATOM      8  C   UNL     1       1.127  -2.022   2.056  1.00  0.00     0.067 A 
ATOM      9  C   UNL     1       0.146  -2.992   2.213  1.00  0.00     0.021 A 
ATOM     10  C   UNL     1       2.479  -2.370   2.094  1.00  0.00     0.021 A 
ATOM     11  C   UNL     1       0.525  -4.329   2.343  1.00  0.00     0.009 A 
ATOM     12  C   UNL     1       2.840  -3.721   2.177  1.00  0.00     0.009 A 
BRANCH   8  13
ATOM     13  S   UNL     1       0.663  -0.329   1.799  1.00  0.00     0.175 S 
ATOM     14  C   UNL     1       1.109  -0.038   0.104  1.00  0.00     0.163 C 
ATOM     15  O   UNL     1       1.507   0.480   2.646  1.00  0.00    -0.224 OA
ATOM     16  O   UNL     1      -0.787  -0.250   1.887  1.00  0.00    -0.224 OA
ENDBRANCH   8  13
ENDBRANCH   6   7
BRANCH   5  17
ATOM     17  C   UNL     1       0.343  -7.057   0.948  1.00  0.00    -0.010 A 
ATOM     18  C   UNL     1      -0.780  -7.368   1.735  1.00  0.00     0.009 A 
ATOM     19  C   UNL     1       0.160  -6.554  -0.345  1.00  0.00     0.024 A 
ATOM     20  C   UNL     1      -2.069  -7.132   1.252  1.00  0.00     0.002 A 
ATOM     21  C   UNL     1      -1.133  -6.332  -0.822  1.00  0.00     0.018 A 
ATOM     22  C   UNL     1      -2.246  -6.610  -0.028  1.00  0.00     0.016 A 
ATOM     23  Br  UNL     1      -1.378  -5.611  -2.552  1.00  0.00    -0.051 Br
ENDBRANCH   5  17
ENDBRANCH   3   5
ENDBRANCH   2   3
ENDBRANCH   1   2
BRANCH   1  24
ATOM     24  C   UNL     1       3.051 -11.211   2.954  1.00  0.00     0.275 C 
BRANCH  24  25
ATOM     25  O   UNL     1       1.788 -11.407   2.292  1.00  0.00    -0.458 OA
BRANCH  25  26
ATOM     26  C   UNL     1       0.689 -11.139   3.032  1.00  0.00     0.338 C 
ATOM     27  O   UNL     1       0.646 -10.805   4.206  1.00  0.00    -0.246 OA
BRANCH  26  28
ATOM     28  C   UNL     1      -0.528 -11.257   2.209  1.00  0.00     0.060 A 
ATOM     29  C   UNL     1      -0.633 -10.537   1.026  1.00  0.00     0.016 A 
ATOM     30  C   UNL     1      -1.643 -11.928   2.712  1.00  0.00     0.016 A 
ATOM     31  C   UNL     1      -1.882 -10.362   0.432  1.00  0.00     0.010 A 
ATOM     32  C   UNL     1      -2.870 -11.849   2.038  1.00  0.00     0.010 A 
ATOM     33  C   UNL     1      -3.028 -11.008   0.923  1.00  0.00    -0.014 A 
BRANCH  33  34
ATOM     34  C   UNL     1      -4.377 -10.750   0.320  1.00  0.00     0.031 A 
ATOM     35  C   UNL     1      -5.555 -10.376   1.194  1.00  0.00     0.074 A 
ATOM     36  C   UNL     1      -4.569 -10.808  -1.015  1.00  0.00     0.049 A 
ATOM     37  N   UNL     1      -6.833 -10.342   0.898  1.00  0.00    -0.248 NA
ATOM     38  C   UNL     1      -5.263 -10.005   2.587  1.00  0.00     0.031 C 
ATOM     39  C   UNL     1      -3.538 -11.094  -2.012  1.00  0.00     0.029 A 
ATOM     40  N   UNL     1      -5.704 -10.612  -1.769  1.00  0.00    -0.354 N 
ATOM     41  C   UNL     1      -7.496 -10.039   2.083  1.00  0.00     0.074 A 
ATOM     42  C   UNL     1      -6.479  -9.878   3.100  1.00  0.00     0.031 C 
ATOM     43  C   UNL     1      -4.062 -10.980  -3.239  1.00  0.00     0.029 A 
ATOM     44  C   UNL     1      -5.496 -10.750  -3.120  1.00  0.00     0.049 A 
ATOM     45  H   UNL     1      -6.580 -10.393  -1.377  1.00  0.00     0.167 HD
ATOM     46  C   UNL     1      -8.828  -9.914   2.302  1.00  0.00     0.037 A 
ATOM     47  C   UNL     1      -6.359 -10.758  -4.154  1.00  0.00     0.037 A 
ATOM     48  C   UNL     1      -9.836  -9.978   1.272  1.00  0.00     0.049 A 
ATOM     49  C   UNL     1      -7.831 -10.632  -3.889  1.00  0.00     0.074 A 
ATOM     50  C   UNL     1     -11.208  -9.837   1.397  1.00  0.00     0.029 A 
ATOM     51  N   UNL     1      -9.578 -10.171  -0.076  1.00  0.00    -0.354 N 
ATOM     52  N   UNL     1      -8.454 -10.458  -2.751  1.00  0.00    -0.248 NA
ATOM     53  C   UNL     1      -8.723 -10.741  -5.053  1.00  0.00     0.031 C 
ATOM     54  C   UNL     1     -11.784  -9.977   0.129  1.00  0.00     0.029 A 
ATOM     55  C   UNL     1     -10.766 -10.160  -0.792  1.00  0.00     0.049 A 
ATOM     56  H   UNL     1      -8.684 -10.296  -0.468  1.00  0.00     0.167 HD
ATOM     57  C   UNL     1      -9.807 -10.438  -3.057  1.00  0.00     0.074 A 
ATOM     58  C   UNL     1      -9.915 -10.588  -4.493  1.00  0.00     0.031 C 
ATOM     59  C   UNL     1     -10.865 -10.316  -2.219  1.00  0.00     0.037 A 
BRANCH  46  60
ATOM     60  C   UNL     1      -9.296  -9.735   3.719  1.00  0.00     0.064 A 
ATOM     61  C   UNL     1      -9.127  -8.532   4.419  1.00  0.00     0.173 A 
ATOM     62  C   UNL     1      -9.987 -10.775   4.364  1.00  0.00     0.173 A 
ATOM     63  F   UNL     1      -8.465  -7.511   3.855  1.00  0.00    -0.203 F 
ATOM     64  C   UNL     1      -9.611  -8.385   5.718  1.00  0.00     0.198 A 
ATOM     65  C   UNL     1     -10.496 -10.614   5.650  1.00  0.00     0.198 A 
ATOM     66  F   UNL     1     -10.187 -11.944   3.736  1.00  0.00    -0.203 F 
ATOM     67  F   UNL     1      -9.403  -7.240   6.383  1.00  0.00    -0.200 F 
ATOM     68  C   UNL     1     -10.302  -9.421   6.328  1.00  0.00     0.200 A 
ATOM     69  F   UNL     1     -11.177 -11.612   6.230  1.00  0.00    -0.200 F 
ATOM     70  F   UNL     1     -10.779  -9.272   7.572  1.00  0.00    -0.200 F 
ENDBRANCH  46  60
BRANCH  47  71
ATOM     71  C   UNL     1      -5.847 -10.961  -5.535  1.00  0.00     0.064 A 
ATOM     72  C   UNL     1      -5.897  -9.931  -6.482  1.00  0.00     0.173 A 
ATOM     73  C   UNL     1      -5.273 -12.181  -5.926  1.00  0.00     0.173 A 
ATOM     74  F   UNL     1      -6.465  -8.758  -6.167  1.00  0.00    -0.203 F 
ATOM     75  C   UNL     1      -5.390 -10.112  -7.768  1.00  0.00     0.198 A 
ATOM     76  C   UNL     1      -4.735 -12.349  -7.199  1.00  0.00     0.198 A 
ATOM     77  F   UNL     1      -5.207 -13.201  -5.058  1.00  0.00    -0.203 F 
ATOM     78  F   UNL     1      -5.481  -9.123  -8.667  1.00  0.00    -0.200 F 
ATOM     79  C   UNL     1      -4.797 -11.316  -8.120  1.00  0.00     0.200 A 
ATOM     80  F   UNL     1      -4.148 -13.508  -7.527  1.00  0.00    -0.200 F 
ATOM     81  F   UNL     1      -4.292 -11.482  -9.350  1.00  0.00    -0.200 F 
ENDBRANCH  47  71
BRANCH  59  82
ATOM     82  C   UNL     1     -12.230 -10.320  -2.840  1.00  0.00     0.064 A 
ATOM     83  C   UNL     1     -12.804 -11.497  -3.340  1.00  0.00     0.173 A 
ATOM     84  C   UNL     1     -12.978  -9.136  -2.921  1.00  0.00     0.173 A 
ATOM     85  F   UNL     1     -12.120 -12.651  -3.302  1.00  0.00    -0.203 F 
ATOM     86  C   UNL     1     -14.068 -11.484  -3.924  1.00  0.00     0.198 A 
ATOM     87  C   UNL     1     -14.252  -9.131  -3.482  1.00  0.00     0.198 A 
ATOM     88  F   UNL     1     -12.474  -7.984  -2.452  1.00  0.00    -0.203 F 
ATOM     89  F   UNL     1     -14.578 -12.611  -4.439  1.00  0.00    -0.200 F 
ATOM     90  C   UNL     1     -14.792 -10.303  -3.990  1.00  0.00     0.200 A 
ATOM     91  F   UNL     1     -14.954  -7.991  -3.537  1.00  0.00    -0.200 F 
ATOM     92  F   UNL     1     -16.009 -10.292  -4.552  1.00  0.00    -0.200 F 
ENDBRANCH  59  82
ENDBRANCH  33  34
ENDBRANCH  26  28
ENDBRANCH  25  26
ENDBRANCH  24  25
ENDBRANCH   1  24
TORSDOF 14
