REMARK SMILES CCCN(CCC)c1ccc(C(=O)OCCOC(=O)c2ccc(-c3c4nc(c(-c5c(F)c(F)c(F)c(F)c5F)c5ccc([nH]5)c(-c5c(F)c(F)c(F)c(F)c5F)c5nc(c(-c6c(F)c(F)c(F)c(F)c6F)c6ccc3[nH]6)C=C5)C=C4)cc2)cc1[N+](=O)[O-]
REMARK SMILES IDX 15 1 14 2 12 3 13 4 11 5 8 6 9 7 84 8 10 9 83 10 4 11 3 12
REMARK SMILES IDX 2 13 1 14 5 15 6 16 7 17 85 18 86 19 87 20 16 21 17 22 18 23
REMARK SMILES IDX 19 24 20 25 21 26 82 27 22 28 81 29 23 30 24 31 25 32 75 33
REMARK SMILES IDX 26 34 80 35 74 36 76 37 27 38 79 39 73 40 72 41 28 43 60 44
REMARK SMILES IDX 40 45 59 46 41 47 44 48 58 49 77 50 42 51 43 52 57 54 78 55
REMARK SMILES IDX 45 56 29 57 30 58 38 59 31 60 32 61 36 62 39 63 33 64 34 65
REMARK SMILES IDX 37 66 35 67 61 68 62 69 70 70 63 71 64 72 68 73 71 74 65 75
REMARK SMILES IDX 66 76 69 77 67 78 46 79 47 80 55 81 48 82 49 83 53 84 56 85
REMARK SMILES IDX 50 86 51 87 54 88 52 89
REMARK H PARENT 76 42 44 53
REMARK Flexibility Score: inf
ROOT
ATOM      1  C   UNL     1       2.538  -0.756  -6.710  1.00  0.00     0.275 C 
ENDROOT
BRANCH   1   2
ATOM      2  O   UNL     1       2.086  -0.397  -5.391  1.00  0.00    -0.458 OA
BRANCH   2   3
ATOM      3  C   UNL     1       2.830   0.534  -4.748  1.00  0.00     0.338 C 
ATOM      4  O   UNL     1       3.873   1.023  -5.146  1.00  0.00    -0.246 OA
BRANCH   3   5
ATOM      5  C   UNL     1       2.173   0.975  -3.487  1.00  0.00     0.067 A 
ATOM      6  C   UNL     1       0.986   2.025  -1.120  1.00  0.00     0.116 A 
ATOM      7  C   UNL     1       2.222   2.495  -1.589  1.00  0.00     0.034 A 
ATOM      8  C   UNL     1       0.371   1.012  -1.879  1.00  0.00     0.293 A 
ATOM      9  C   UNL     1       2.809   1.982  -2.748  1.00  0.00     0.018 A 
ATOM     10  C   UNL     1       0.946   0.479  -3.048  1.00  0.00     0.103 A 
BRANCH   6  11
ATOM     11  N   UNL     1       0.470   2.532   0.062  1.00  0.00    -0.366 N 
BRANCH  11  12
ATOM     12  C   UNL     1       1.199   2.301   1.318  1.00  0.00     0.116 C 
BRANCH  12  13
ATOM     13  C   UNL     1       1.005   0.867   1.824  1.00  0.00     0.018 C 
ATOM     14  C   UNL     1       2.033  -0.118   1.282  1.00  0.00     0.006 C 
ENDBRANCH  12  13
ENDBRANCH  11  12
BRANCH  11  15
ATOM     15  C   UNL     1      -0.503   3.635   0.004  1.00  0.00     0.116 C 
BRANCH  15  16
ATOM     16  C   UNL     1       0.151   4.988  -0.303  1.00  0.00     0.018 C 
ATOM     17  C   UNL     1       0.010   5.386  -1.768  1.00  0.00     0.006 C 
ENDBRANCH  15  16
ENDBRANCH  11  15
ENDBRANCH   6  11
BRANCH   8  18
ATOM     18  N   UNL     1      -0.851   0.386  -1.409  1.00  0.00     0.065 N 
ATOM     19  O   UNL     1      -0.770  -0.805  -1.073  1.00  0.00    -0.258 OA
ATOM     20  O   UNL     1      -1.893   1.054  -1.443  1.00  0.00    -0.258 OA
ENDBRANCH   8  18
ENDBRANCH   3   5
ENDBRANCH   2   3
ENDBRANCH   1   2
BRANCH   1  21
ATOM     21  C   UNL     1       1.683  -0.086  -7.790  1.00  0.00     0.275 C 
BRANCH  21  22
ATOM     22  O   UNL     1       1.829   1.349  -7.792  1.00  0.00    -0.458 OA
BRANCH  22  23
ATOM     23  C   UNL     1       0.937   2.018  -7.027  1.00  0.00     0.338 C 
ATOM     24  O   UNL     1       0.035   1.546  -6.353  1.00  0.00    -0.246 OA
BRANCH  23  25
ATOM     25  C   UNL     1       1.275   3.450  -6.997  1.00  0.00     0.060 A 
ATOM     26  C   UNL     1       1.600   4.016  -5.763  1.00  0.00     0.016 A 
ATOM     27  C   UNL     1       1.187   4.250  -8.139  1.00  0.00     0.016 A 
ATOM     28  C   UNL     1       1.841   5.383  -5.658  1.00  0.00     0.010 A 
ATOM     29  C   UNL     1       1.429   5.626  -8.033  1.00  0.00     0.010 A 
ATOM     30  C   UNL     1       1.750   6.203  -6.790  1.00  0.00    -0.014 A 
BRANCH  30  31
ATOM     31  C   UNL     1       1.946   7.668  -6.649  1.00  0.00     0.031 A 
ATOM     32  C   UNL     1       0.768   8.597  -6.721  1.00  0.00     0.074 A 
ATOM     33  C   UNL     1       3.175   8.162  -6.414  1.00  0.00     0.049 A 
ATOM     34  N   UNL     1       0.742   9.905  -6.687  1.00  0.00    -0.248 NA
ATOM     35  C   UNL     1      -0.556   7.971  -6.849  1.00  0.00     0.031 C 
ATOM     36  C   UNL     1       4.393   7.363  -6.277  1.00  0.00     0.029 A 
ATOM     37  N   UNL     1       3.602   9.456  -6.243  1.00  0.00    -0.354 N 
ATOM     38  C   UNL     1      -0.594  10.261  -6.817  1.00  0.00     0.074 A 
ATOM     39  C   UNL     1      -1.348   9.030  -6.937  1.00  0.00     0.031 C 
ATOM     40  C   UNL     1       5.427   8.182  -6.028  1.00  0.00     0.029 A 
ATOM     41  C   UNL     1       4.955   9.565  -6.037  1.00  0.00     0.049 A 
ATOM     42  H   UNL     1       2.995  10.231  -6.266  1.00  0.00     0.167 HD
ATOM     43  C   UNL     1      -1.139  11.500  -6.834  1.00  0.00     0.037 A 
ATOM     44  C   UNL     1       5.730  10.657  -5.895  1.00  0.00     0.037 A 
ATOM     45  C   UNL     1      -0.395  12.723  -6.682  1.00  0.00     0.049 A 
ATOM     46  C   UNL     1       5.104  12.023  -5.957  1.00  0.00     0.074 A 
ATOM     47  C   UNL     1      -0.866  14.025  -6.664  1.00  0.00     0.029 A 
ATOM     48  N   UNL     1       0.980  12.794  -6.516  1.00  0.00    -0.354 N 
ATOM     49  N   UNL     1       3.843  12.349  -6.100  1.00  0.00    -0.248 NA
ATOM     50  C   UNL     1       6.013  13.174  -5.851  1.00  0.00     0.031 C 
ATOM     51  C   UNL     1       0.228  14.886  -6.521  1.00  0.00     0.029 A 
ATOM     52  C   UNL     1       1.376  14.119  -6.414  1.00  0.00     0.049 A 
ATOM     53  H   UNL     1       1.586  12.019  -6.477  1.00  0.00     0.167 HD
ATOM     54  C   UNL     1       3.804  13.736  -6.095  1.00  0.00     0.074 A 
ATOM     55  C   UNL     1       5.166  14.193  -5.913  1.00  0.00     0.031 C 
ATOM     56  C   UNL     1       2.736  14.557  -6.237  1.00  0.00     0.037 A 
BRANCH  43  57
ATOM     57  C   UNL     1      -2.619  11.602  -7.052  1.00  0.00     0.064 A 
ATOM     58  C   UNL     1      -3.537  11.289  -6.040  1.00  0.00     0.173 A 
ATOM     59  C   UNL     1      -3.121  12.059  -8.280  1.00  0.00     0.173 A 
ATOM     60  F   UNL     1      -3.105  10.836  -4.854  1.00  0.00    -0.203 F 
ATOM     61  C   UNL     1      -4.907  11.413  -6.256  1.00  0.00     0.198 A 
ATOM     62  C   UNL     1      -4.490  12.202  -8.485  1.00  0.00     0.198 A 
ATOM     63  F   UNL     1      -2.281  12.375  -9.278  1.00  0.00    -0.203 F 
ATOM     64  F   UNL     1      -5.770  11.075  -5.288  1.00  0.00    -0.200 F 
ATOM     65  C   UNL     1      -5.382  11.875  -7.475  1.00  0.00     0.200 A 
ATOM     66  F   UNL     1      -4.946  12.658  -9.660  1.00  0.00    -0.200 F 
ATOM     67  F   UNL     1      -6.701  11.999  -7.679  1.00  0.00    -0.200 F 
ENDBRANCH  43  57
BRANCH  44  68
ATOM     68  C   UNL     1       7.194  10.502  -5.706  1.00  0.00     0.064 A 
ATOM     69  C   UNL     1       7.798  10.799  -4.477  1.00  0.00     0.173 A 
ATOM     70  C   UNL     1       8.018  10.055  -6.750  1.00  0.00     0.173 A 
ATOM     71  F   UNL     1       7.054  11.255  -3.459  1.00  0.00    -0.203 F 
ATOM     72  C   UNL     1       9.173  10.661  -4.301  1.00  0.00     0.198 A 
ATOM     73  C   UNL     1       9.389   9.894  -6.565  1.00  0.00     0.198 A 
ATOM     74  F   UNL     1       7.487   9.763  -7.946  1.00  0.00    -0.203 F 
ATOM     75  F   UNL     1       9.732  10.986  -3.127  1.00  0.00    -0.200 F 
ATOM     76  C   UNL     1       9.966  10.202  -5.343  1.00  0.00     0.200 A 
ATOM     77  F   UNL     1      10.149   9.442  -7.571  1.00  0.00    -0.200 F 
ATOM     78  F   UNL     1      11.288  10.064  -5.171  1.00  0.00    -0.200 F 
ENDBRANCH  44  68
BRANCH  56  79
ATOM     79  C   UNL     1       2.996  16.033  -6.191  1.00  0.00     0.064 A 
ATOM     80  C   UNL     1       3.574  16.705  -7.277  1.00  0.00     0.173 A 
ATOM     81  C   UNL     1       2.629  16.788  -5.067  1.00  0.00     0.173 A 
ATOM     82  F   UNL     1       3.957  16.023  -8.367  1.00  0.00    -0.203 F 
ATOM     83  C   UNL     1       3.792  18.080  -7.233  1.00  0.00     0.198 A 
ATOM     84  C   UNL     1       2.828  18.165  -5.035  1.00  0.00     0.198 A 
ATOM     85  F   UNL     1       2.069  16.190  -4.005  1.00  0.00    -0.203 F 
ATOM     86  F   UNL     1       4.380  18.697  -8.267  1.00  0.00    -0.200 F 
ATOM     87  C   UNL     1       3.414  18.809  -6.115  1.00  0.00     0.200 A 
ATOM     88  F   UNL     1       2.455  18.870  -3.958  1.00  0.00    -0.200 F 
ATOM     89  F   UNL     1       3.620  20.133  -6.076  1.00  0.00    -0.200 F 
ENDBRANCH  56  79
ENDBRANCH  30  31
ENDBRANCH  23  25
ENDBRANCH  22  23
ENDBRANCH  21  22
ENDBRANCH   1  21
TORSDOF 17
