REMARK SMILES O=C(OCCOC(=O)c1ccccc1Nc1cccc(S(F)(F)(F)(F)F)c1)c1ccc(-c2c3nc(c(-c4c(F)c(F)c(F)c(F)c4F)c4ccc([nH]4)c(-c4c(F)c(F)c(F)c(F)c4F)c4nc(c(-c5c(F)c(F)c(F)c(F)c5F)c5ccc2[nH]5)C=C4)C=C3)cc1
REMARK SMILES IDX 5 1 4 2 3 3 2 4 1 5 28 6 29 7 90 8 30 9 89 10 31 11 32 12
REMARK SMILES IDX 33 13 83 14 34 15 88 16 82 17 84 18 35 19 87 20 81 21 80 22
REMARK SMILES IDX 36 24 68 25 48 26 67 27 49 28 52 29 66 30 85 31 50 32 51 33
REMARK SMILES IDX 65 35 86 36 53 37 37 38 38 39 46 40 39 41 40 42 44 43 47 44
REMARK SMILES IDX 41 45 42 46 45 47 43 48 69 49 70 50 78 51 71 52 72 53 76 54
REMARK SMILES IDX 79 55 73 56 74 57 77 58 75 59 54 60 55 61 63 62 56 63 57 64
REMARK SMILES IDX 61 65 64 66 58 67 59 68 62 69 60 70 6 71 7 72 8 73 9 74
REMARK SMILES IDX 10 75 14 76 11 77 13 78 12 79 15 80 16 82 17 83 27 84 18 85
REMARK SMILES IDX 20 86 19 87 21 88 22 89 23 90 24 91 25 92 26 93
REMARK H PARENT 84 23 52 34 15 81
REMARK Flexibility Score: inf
ROOT
ATOM      1  C   UNL     1       4.960  -1.272   0.014  1.00  0.00     0.275 C 
ENDROOT
BRANCH   1   2
ATOM      2  C   UNL     1       4.454  -0.346   1.108  1.00  0.00     0.275 C 
BRANCH   2   3
ATOM      3  O   UNL     1       3.034  -0.346   1.108  1.00  0.00    -0.458 OA
BRANCH   3   4
ATOM      4  C   UNL     1       2.324   0.069  -0.049  1.00  0.00     0.338 C 
ATOM      5  O   UNL     1       1.053   0.069  -0.049  1.00  0.00    -0.246 OA
BRANCH   4   6
ATOM      6  C   UNL     1       3.084   0.514  -1.288  1.00  0.00     0.060 A 
ATOM      7  C   UNL     1       4.122  -0.255  -1.786  1.00  0.00     0.016 A 
ATOM      8  C   UNL     1       2.683   1.617  -1.911  1.00  0.00     0.016 A 
ATOM      9  C   UNL     1       4.872   0.383  -2.803  1.00  0.00     0.010 A 
ATOM     10  C   UNL     1       3.386   2.110  -2.983  1.00  0.00     0.010 A 
ATOM     11  C   UNL     1       4.459   1.432  -3.491  1.00  0.00    -0.014 A 
BRANCH  11  12
ATOM     12  C   UNL     1       5.140   1.861  -4.780  1.00  0.00     0.031 A 
ATOM     13  C   UNL     1       5.689   3.145  -4.809  1.00  0.00     0.074 A 
ATOM     14  C   UNL     1       5.121   1.004  -5.867  1.00  0.00     0.049 A 
ATOM     15  N   UNL     1       6.300   3.746  -5.831  1.00  0.00    -0.248 NA
ATOM     16  C   UNL     1       5.680   4.070  -3.667  1.00  0.00     0.031 C 
ATOM     17  C   UNL     1       4.577  -0.296  -5.843  1.00  0.00     0.029 A 
ATOM     18  N   UNL     1       5.606   1.235  -7.135  1.00  0.00    -0.354 N 
ATOM     19  C   UNL     1       6.708   4.965  -5.472  1.00  0.00     0.074 A 
ATOM     20  C   UNL     1       6.310   5.193  -4.076  1.00  0.00     0.031 C 
ATOM     21  C   UNL     1       4.722  -0.835  -7.082  1.00  0.00     0.029 A 
ATOM     22  C   UNL     1       5.359   0.117  -7.900  1.00  0.00     0.049 A 
ATOM     23  H   UNL     1       6.052   2.057  -7.441  1.00  0.00     0.167 HD
ATOM     24  C   UNL     1       7.399   5.893  -6.253  1.00  0.00     0.037 A 
ATOM     25  C   UNL     1       5.662  -0.080  -9.238  1.00  0.00     0.037 A 
ATOM     26  C   UNL     1       7.741   5.679  -7.579  1.00  0.00     0.049 A 
ATOM     27  C   UNL     1       6.301   0.872 -10.036  1.00  0.00     0.074 A 
ATOM     28  C   UNL     1       8.443   6.602  -8.377  1.00  0.00     0.029 A 
ATOM     29  N   UNL     1       7.472   4.571  -8.351  1.00  0.00    -0.354 N 
ATOM     30  N   UNL     1       6.744   2.075  -9.666  1.00  0.00    -0.248 NA
ATOM     31  C   UNL     1       6.599   0.687 -11.463  1.00  0.00     0.031 C 
ATOM     32  C   UNL     1       8.588   6.061  -9.617  1.00  0.00     0.029 A 
ATOM     33  C   UNL     1       7.977   4.793  -9.613  1.00  0.00     0.049 A 
ATOM     34  H   UNL     1       7.000   3.760  -8.052  1.00  0.00     0.167 HD
ATOM     35  C   UNL     1       7.319   2.691 -10.700  1.00  0.00     0.074 A 
ATOM     36  C   UNL     1       7.227   1.811 -11.873  1.00  0.00     0.031 C 
ATOM     37  C   UNL     1       7.919   3.951 -10.713  1.00  0.00     0.037 A 
BRANCH  24  38
ATOM     38  C   UNL     1       7.798   7.213  -5.613  1.00  0.00     0.064 A 
ATOM     39  C   UNL     1       8.518   7.231  -4.430  1.00  0.00     0.173 A 
ATOM     40  C   UNL     1       7.325   8.332  -6.149  1.00  0.00     0.173 A 
ATOM     41  F   UNL     1       9.219   6.189  -3.992  1.00  0.00    -0.203 F 
ATOM     42  C   UNL     1       8.441   8.458  -3.730  1.00  0.00     0.198 A 
ATOM     43  C   UNL     1       7.405   9.522  -5.466  1.00  0.00     0.198 A 
ATOM     44  F   UNL     1       6.770   8.302  -7.357  1.00  0.00    -0.203 F 
ATOM     45  F   UNL     1       8.784   8.460  -2.445  1.00  0.00    -0.200 F 
ATOM     46  C   UNL     1       8.051   9.601  -4.264  1.00  0.00     0.200 A 
ATOM     47  F   UNL     1       6.846  10.613  -5.983  1.00  0.00    -0.200 F 
ATOM     48  F   UNL     1       8.276  10.767  -3.664  1.00  0.00    -0.200 F 
ENDBRANCH  24  38
BRANCH  25  49
ATOM     49  C   UNL     1       5.278  -1.407  -9.873  1.00  0.00     0.064 A 
ATOM     50  C   UNL     1       6.199  -2.319 -10.362  1.00  0.00     0.173 A 
ATOM     51  C   UNL     1       3.980  -1.683  -9.851  1.00  0.00     0.173 A 
ATOM     52  F   UNL     1       7.510  -2.198 -10.175  1.00  0.00    -0.203 F 
ATOM     53  C   UNL     1       5.617  -3.392 -11.079  1.00  0.00     0.198 A 
ATOM     54  C   UNL     1       3.496  -2.819 -10.454  1.00  0.00     0.198 A 
ATOM     55  F   UNL     1       3.140  -0.852  -9.240  1.00  0.00    -0.203 F 
ATOM     56  F   UNL     1       6.408  -4.104 -11.877  1.00  0.00    -0.200 F 
ATOM     57  C   UNL     1       4.344  -3.736 -11.009  1.00  0.00     0.200 A 
ATOM     58  F   UNL     1       2.183  -3.029 -10.497  1.00  0.00    -0.200 F 
ATOM     59  F   UNL     1       3.910  -4.911 -11.457  1.00  0.00    -0.200 F 
ENDBRANCH  25  49
BRANCH  37  60
ATOM     60  C   UNL     1       8.547   4.430 -12.012  1.00  0.00     0.064 A 
ATOM     61  C   UNL     1       7.766   4.654 -13.133  1.00  0.00     0.173 A 
ATOM     62  C   UNL     1       9.846   4.709 -12.009  1.00  0.00     0.173 A 
ATOM     63  F   UNL     1       6.437   4.632 -13.108  1.00  0.00    -0.203 F 
ATOM     64  C   UNL     1       8.511   4.907 -14.309  1.00  0.00     0.198 A 
ATOM     65  C   UNL     1      10.483   5.083 -13.168  1.00  0.00     0.198 A 
ATOM     66  F   UNL     1      10.535   4.626 -10.875  1.00  0.00    -0.203 F 
ATOM     67  F   UNL     1       7.888   4.777 -15.477  1.00  0.00    -0.200 F 
ATOM     68  C   UNL     1       9.783   5.265 -14.328  1.00  0.00     0.200 A 
ATOM     69  F   UNL     1      11.800   5.270 -13.161  1.00  0.00    -0.200 F 
ATOM     70  F   UNL     1      10.351   5.776 -15.417  1.00  0.00    -0.200 F 
ENDBRANCH  37  60
ENDBRANCH  11  12
ENDBRANCH   4   6
ENDBRANCH   3   4
ENDBRANCH   2   3
ENDBRANCH   1   2
BRANCH   1  71
ATOM     71  O   UNL     1       4.487  -0.819  -1.246  1.00  0.00    -0.458 OA
BRANCH  71  72
ATOM     72  C   UNL     1       3.091  -0.732  -1.490  1.00  0.00     0.340 C 
ATOM     73  O   UNL     1       2.265  -1.058  -0.581  1.00  0.00    -0.246 OA
BRANCH  72  74
ATOM     74  C   UNL     1       2.584  -0.247  -2.838  1.00  0.00     0.083 A 
ATOM     75  C   UNL     1       1.624   0.751  -2.841  1.00  0.00     0.018 A 
ATOM     76  C   UNL     1       3.115  -0.696  -3.970  1.00  0.00     0.053 A 
ATOM     77  C   UNL     1       1.075   1.015  -4.118  1.00  0.00     0.001 A 
ATOM     78  C   UNL     1       2.616  -0.291  -5.185  1.00  0.00     0.027 A 
ATOM     79  C   UNL     1       1.627   0.650  -5.261  1.00  0.00     0.002 A 
BRANCH  76  80
ATOM     80  N   UNL     1       4.245  -1.634  -3.923  1.00  0.00    -0.355 N 
ATOM     81  H   UNL     1       4.606  -1.927  -3.055  1.00  0.00     0.167 HD
BRANCH  80  82
ATOM     82  C   UNL     1       4.838  -2.134  -5.172  1.00  0.00     0.040 A 
ATOM     83  C   UNL     1       4.730  -3.490  -5.431  1.00  0.00     0.026 A 
ATOM     84  C   UNL     1       5.370  -1.303  -6.060  1.00  0.00     0.050 A 
ATOM     85  C   UNL     1       5.481  -3.922  -6.550  1.00  0.00     0.004 A 
ATOM     86  C   UNL     1       5.970  -1.786  -7.198  1.00  0.00     0.109 A 
ATOM     87  C   UNL     1       5.952  -3.122  -7.489  1.00  0.00     0.024 A 
BRANCH  86  88
ATOM     88  S   UNL     1       6.793  -0.638  -8.329  1.00  0.00     0.310 S 
ATOM     89  F   UNL     1       8.127  -0.413  -7.500  1.00  0.00    -0.094 F 
ATOM     90  F   UNL     1       6.143   0.506  -7.463  1.00  0.00    -0.094 F 
ATOM     91  F   UNL     1       7.328   0.402  -9.354  1.00  0.00    -0.094 F 
ATOM     92  F   UNL     1       7.556  -1.782  -9.106  1.00  0.00    -0.094 F 
ATOM     93  F   UNL     1       6.354  -1.693  -7.237  1.00  0.00    -0.094 F 
ENDBRANCH  86  88
ENDBRANCH  80  82
ENDBRANCH  76  80
ENDBRANCH  72  74
ENDBRANCH  71  72
ENDBRANCH   1  71
TORSDOF 14
