REMARK SMILES [NH3+][C@@H](CCCC(=O)OCCOC(=O)c1ccc(-c2c3nc(c(-c4c(F)c(F)c(F)c(F)c4F)c4ccc([nH]4)c(-c4c(F)c(F)c(F)c(F)c4F)c4nc(c(-c5c(F)c(F)c(F)c(F)c5F)c5ccc2[nH]5)C=C4)C=C3)cc1)c1cnc2[nH]ccc2c1
REMARK SMILES IDX 9 1 8 2 6 3 7 4 5 5 4 6 3 7 2 8 1 9 77 13 78 14 85 15 79 16
REMARK SMILES IDX 84 17 80 18 83 19 81 20 82 21 10 23 11 24 12 25 13 26 14 27
REMARK SMILES IDX 15 28 76 29 16 30 75 31 17 32 18 33 19 34 69 35 20 36 74 37
REMARK SMILES IDX 68 38 70 39 21 40 73 41 67 42 66 43 22 45 54 46 34 47 53 48
REMARK SMILES IDX 35 49 38 50 52 51 71 52 36 53 37 54 51 56 72 57 39 58 23 59
REMARK SMILES IDX 24 60 32 61 25 62 26 63 30 64 33 65 27 66 28 67 31 68 29 69
REMARK SMILES IDX 55 70 56 71 64 72 57 73 58 74 62 75 65 76 59 77 60 78 63 79
REMARK SMILES IDX 61 80 40 81 41 82 49 83 42 84 43 85 47 86 50 87 44 88 45 89
REMARK SMILES IDX 48 90 46 91
REMARK H PARENT 1 10 1 11 1 12 81 22 70 44 38 55
REMARK Flexibility Score: inf
ROOT
ATOM      1  C   UNL     1      -1.984   1.758   5.727  1.00  0.00     0.274 C 
ENDROOT
BRANCH   1   2
ATOM      2  O   UNL     1      -0.931   1.486   4.796  1.00  0.00    -0.462 OA
BRANCH   2   3
ATOM      3  C   UNL     1      -1.148   1.953   3.539  1.00  0.00     0.305 C 
ATOM      4  O   UNL     1      -2.233   2.061   2.989  1.00  0.00    -0.252 OA
BRANCH   3   5
ATOM      5  C   UNL     1       0.159   2.427   2.963  1.00  0.00     0.123 C 
BRANCH   5   6
ATOM      6  C   UNL     1       1.159   1.317   2.643  1.00  0.00     0.018 C 
BRANCH   6   7
ATOM      7  C   UNL     1       0.620  -0.128   2.633  1.00  0.00     0.071 C 
BRANCH   7   8
ATOM      8  C   UNL     1       0.293  -0.854   1.305  1.00  0.00     0.213 C 
BRANCH   8   9
ATOM      9  N   UNL     1       1.620  -1.252   0.774  1.00  0.00    -0.351 N 
ATOM     10  H   UNL     1       2.172  -1.676   1.520  1.00  0.00     0.345 HD
ATOM     11  H   UNL     1       2.105  -0.428   0.419  1.00  0.00     0.345 HD
ATOM     12  H   UNL     1       1.496  -1.925   0.018  1.00  0.00     0.345 HD
ENDBRANCH   8   9
BRANCH   8  13
ATOM     13  C   UNL     1      -0.533  -0.213   0.167  1.00  0.00     0.028 A 
ATOM     14  C   UNL     1      -0.612  -0.992  -0.990  1.00  0.00     0.123 A 
ATOM     15  C   UNL     1      -0.467   1.157  -0.049  1.00  0.00     0.023 A 
ATOM     16  N   UNL     1      -0.008  -0.657  -2.156  1.00  0.00    -0.238 NA
ATOM     17  C   UNL     1       0.403   1.498  -1.085  1.00  0.00     0.019 A 
ATOM     18  C   UNL     1       0.604   0.540  -2.069  1.00  0.00     0.137 A 
ATOM     19  C   UNL     1       1.272   2.584  -1.358  1.00  0.00     0.029 A 
ATOM     20  N   UNL     1       1.614   0.985  -2.875  1.00  0.00    -0.346 N 
ATOM     21  C   UNL     1       2.079   2.191  -2.406  1.00  0.00     0.085 A 
ATOM     22  H   UNL     1       1.957   0.514  -3.668  1.00  0.00     0.167 HD
ENDBRANCH   8  13
ENDBRANCH   7   8
ENDBRANCH   6   7
ENDBRANCH   5   6
ENDBRANCH   3   5
ENDBRANCH   2   3
ENDBRANCH   1   2
BRANCH   1  23
ATOM     23  C   UNL     1      -1.739   3.171   6.250  1.00  0.00     0.275 C 
BRANCH  23  24
ATOM     24  O   UNL     1      -2.102   4.115   5.219  1.00  0.00    -0.458 OA
BRANCH  24  25
ATOM     25  C   UNL     1      -1.228   5.120   4.983  1.00  0.00     0.338 C 
ATOM     26  O   UNL     1      -0.187   5.348   5.570  1.00  0.00    -0.246 OA
BRANCH  25  27
ATOM     27  C   UNL     1      -1.762   5.986   3.913  1.00  0.00     0.060 A 
ATOM     28  C   UNL     1      -2.117   5.479   2.659  1.00  0.00     0.016 A 
ATOM     29  C   UNL     1      -1.887   7.349   4.179  1.00  0.00     0.016 A 
ATOM     30  C   UNL     1      -2.604   6.336   1.669  1.00  0.00     0.010 A 
ATOM     31  C   UNL     1      -2.437   8.191   3.213  1.00  0.00     0.010 A 
ATOM     32  C   UNL     1      -2.811   7.692   1.952  1.00  0.00    -0.014 A 
BRANCH  32  33
ATOM     33  C   UNL     1      -3.473   8.607   0.987  1.00  0.00     0.031 A 
ATOM     34  C   UNL     1      -2.749   9.820   0.481  1.00  0.00     0.074 A 
ATOM     35  C   UNL     1      -4.766   8.409   0.661  1.00  0.00     0.049 A 
ATOM     36  N   UNL     1      -3.227  10.889  -0.104  1.00  0.00    -0.248 NA
ATOM     37  C   UNL     1      -1.292   9.838   0.676  1.00  0.00     0.031 C 
ATOM     38  C   UNL     1      -5.573   7.255   1.058  1.00  0.00     0.029 A 
ATOM     39  N   UNL     1      -5.640   9.199  -0.046  1.00  0.00    -0.354 N 
ATOM     40  C   UNL     1      -2.137  11.725  -0.310  1.00  0.00     0.074 A 
ATOM     41  C   UNL     1      -0.974  11.041   0.216  1.00  0.00     0.031 C 
ATOM     42  C   UNL     1      -6.824   7.416   0.602  1.00  0.00     0.029 A 
ATOM     43  C   UNL     1      -6.927   8.718  -0.046  1.00  0.00     0.049 A 
ATOM     44  H   UNL     1      -5.370  10.026  -0.507  1.00  0.00     0.167 HD
ATOM     45  C   UNL     1      -2.119  12.954  -0.881  1.00  0.00     0.037 A 
ATOM     46  C   UNL     1      -8.074   9.288  -0.460  1.00  0.00     0.037 A 
ATOM     47  C   UNL     1      -3.281  13.613  -1.420  1.00  0.00     0.049 A 
ATOM     48  C   UNL     1      -8.040  10.680  -1.024  1.00  0.00     0.074 A 
ATOM     49  C   UNL     1      -3.363  14.841  -2.053  1.00  0.00     0.029 A 
ATOM     50  N   UNL     1      -4.568  13.095  -1.388  1.00  0.00    -0.354 N 
ATOM     51  N   UNL     1      -7.014  11.476  -1.200  1.00  0.00    -0.248 NA
ATOM     52  C   UNL     1      -9.328  11.261  -1.428  1.00  0.00     0.031 C 
ATOM     53  C   UNL     1      -4.705  15.087  -2.362  1.00  0.00     0.029 A 
ATOM     54  C   UNL     1      -5.455  13.992  -1.964  1.00  0.00     0.049 A 
ATOM     55  H   UNL     1      -4.816  12.220  -1.011  1.00  0.00     0.167 HD
ATOM     56  C   UNL     1      -7.526  12.644  -1.744  1.00  0.00     0.074 A 
ATOM     57  C   UNL     1      -8.954  12.447  -1.889  1.00  0.00     0.031 C 
ATOM     58  C   UNL     1      -6.874  13.781  -2.090  1.00  0.00     0.037 A 
BRANCH  45  59
ATOM     59  C   UNL     1      -0.808  13.684  -0.924  1.00  0.00     0.064 A 
ATOM     60  C   UNL     1       0.229  13.296  -1.785  1.00  0.00     0.173 A 
ATOM     61  C   UNL     1      -0.605  14.818  -0.122  1.00  0.00     0.173 A 
ATOM     62  F   UNL     1       0.089  12.213  -2.564  1.00  0.00    -0.203 F 
ATOM     63  C   UNL     1       1.429  14.002  -1.824  1.00  0.00     0.198 A 
ATOM     64  C   UNL     1       0.586  15.537  -0.183  1.00  0.00     0.198 A 
ATOM     65  F   UNL     1      -1.566  15.236   0.715  1.00  0.00    -0.203 F 
ATOM     66  F   UNL     1       2.422  13.589  -2.624  1.00  0.00    -0.200 F 
ATOM     67  C   UNL     1       1.604  15.125  -1.029  1.00  0.00     0.200 A 
ATOM     68  F   UNL     1       0.749  16.629   0.577  1.00  0.00    -0.200 F 
ATOM     69  F   UNL     1       2.757  15.807  -1.074  1.00  0.00    -0.200 F 
ENDBRANCH  45  59
BRANCH  46  70
ATOM     70  C   UNL     1      -9.359   8.556  -0.306  1.00  0.00     0.064 A 
ATOM     71  C   UNL     1     -10.052   8.079  -1.426  1.00  0.00     0.173 A 
ATOM     72  C   UNL     1      -9.913   8.309   0.960  1.00  0.00     0.173 A 
ATOM     73  F   UNL     1      -9.576   8.316  -2.657  1.00  0.00    -0.203 F 
ATOM     74  C   UNL     1     -11.255   7.390  -1.287  1.00  0.00     0.198 A 
ATOM     75  C   UNL     1     -11.100   7.594   1.099  1.00  0.00     0.198 A 
ATOM     76  F   UNL     1      -9.289   8.746   2.064  1.00  0.00    -0.203 F 
ATOM     77  F   UNL     1     -11.918   6.979  -2.376  1.00  0.00    -0.200 F 
ATOM     78  C   UNL     1     -11.773   7.140  -0.025  1.00  0.00     0.200 A 
ATOM     79  F   UNL     1     -11.589   7.343   2.321  1.00  0.00    -0.200 F 
ATOM     80  F   UNL     1     -12.925   6.468   0.108  1.00  0.00    -0.200 F 
ENDBRANCH  46  70
BRANCH  58  81
ATOM     81  C   UNL     1      -7.700  14.890  -2.671  1.00  0.00     0.064 A 
ATOM     82  C   UNL     1      -8.556  15.661  -1.871  1.00  0.00     0.173 A 
ATOM     83  C   UNL     1      -7.613  15.204  -4.036  1.00  0.00     0.173 A 
ATOM     84  F   UNL     1      -8.688  15.387  -0.565  1.00  0.00    -0.203 F 
ATOM     85  C   UNL     1      -9.312  16.693  -2.422  1.00  0.00     0.198 A 
ATOM     86  C   UNL     1      -8.350  16.253  -4.577  1.00  0.00     0.198 A 
ATOM     87  F   UNL     1      -6.806  14.497  -4.841  1.00  0.00    -0.203 F 
ATOM     88  F   UNL     1     -10.158  17.387  -1.648  1.00  0.00    -0.200 F 
ATOM     89  C   UNL     1      -9.203  16.992  -3.772  1.00  0.00     0.200 A 
ATOM     90  F   UNL     1      -8.236  16.547  -5.880  1.00  0.00    -0.200 F 
ATOM     91  F   UNL     1      -9.928  17.988  -4.299  1.00  0.00    -0.200 F 
ENDBRANCH  58  81
ENDBRANCH  32  33
ENDBRANCH  25  27
ENDBRANCH  24  25
ENDBRANCH  23  24
ENDBRANCH   1  23
TORSDOF 16
