REMARK SMILES O=C(OCCOC(=O)c1ccc([C@H]2CCC[N@@H+](CCN3CCCC3=O)C2)cc1)c1ccc(-c2c3nc(c(-c4c(F)c(F)c(F)c(F)c4F)c4ccc([nH]4)c(-c4c(F)c(F)c(F)c(F)c4F)c4nc(c(-c5c(F)c(F)c(F)c(F)c5F)c5ccc2[nH]5)C=C4)C=C3)cc1
REMARK SMILES IDX 5 1 4 2 3 3 2 4 1 5 29 6 30 7 91 8 31 9 90 10 32 11 33 12
REMARK SMILES IDX 34 13 84 14 35 15 89 16 83 17 85 18 36 19 88 20 82 21 81 22
REMARK SMILES IDX 37 24 69 25 49 26 68 27 50 28 53 29 67 30 86 31 51 32 52 33
REMARK SMILES IDX 66 35 87 36 54 37 38 38 39 39 47 40 40 41 41 42 45 43 48 44
REMARK SMILES IDX 42 45 43 46 46 47 44 48 70 49 71 50 79 51 72 52 73 53 77 54
REMARK SMILES IDX 80 55 74 56 75 57 78 58 76 59 55 60 56 61 64 62 57 63 58 64
REMARK SMILES IDX 62 65 65 66 59 67 60 68 63 69 61 70 6 71 7 72 8 73 9 74
REMARK SMILES IDX 10 75 28 76 11 77 27 78 12 79 13 80 14 81 26 82 15 83 17 84
REMARK SMILES IDX 16 85 18 87 19 88 20 89 21 90 24 91 22 92 23 93 25 94
REMARK H PARENT 85 23 53 34 17 86
REMARK Flexibility Score: inf
ROOT
ATOM      1  C   UNL     1      -5.364  -6.838   4.072  1.00  0.00     0.275 C 
ENDROOT
BRANCH   1   2
ATOM      2  C   UNL     1      -6.682  -6.287   4.628  1.00  0.00     0.275 C 
BRANCH   2   3
ATOM      3  O   UNL     1      -6.753  -4.864   4.828  1.00  0.00    -0.458 OA
BRANCH   3   4
ATOM      4  C   UNL     1      -6.159  -4.084   5.759  1.00  0.00     0.338 C 
ATOM      5  O   UNL     1      -6.330  -2.867   5.720  1.00  0.00    -0.246 OA
BRANCH   4   6
ATOM      6  C   UNL     1      -5.221  -4.619   6.790  1.00  0.00     0.060 A 
ATOM      7  C   UNL     1      -5.328  -5.872   7.395  1.00  0.00     0.016 A 
ATOM      8  C   UNL     1      -4.192  -3.763   7.220  1.00  0.00     0.016 A 
ATOM      9  C   UNL     1      -4.407  -6.288   8.361  1.00  0.00     0.010 A 
ATOM     10  C   UNL     1      -3.253  -4.183   8.168  1.00  0.00     0.010 A 
ATOM     11  C   UNL     1      -3.369  -5.449   8.764  1.00  0.00    -0.014 A 
BRANCH  11  12
ATOM     12  C   UNL     1      -2.533  -5.811   9.938  1.00  0.00     0.031 A 
ATOM     13  C   UNL     1      -2.721  -5.023  11.206  1.00  0.00     0.074 A 
ATOM     14  C   UNL     1      -1.678  -6.856   9.922  1.00  0.00     0.049 A 
ATOM     15  N   UNL     1      -2.090  -5.138  12.344  1.00  0.00    -0.248 NA
ATOM     16  C   UNL     1      -3.829  -4.048  11.234  1.00  0.00     0.031 C 
ATOM     17  C   UNL     1      -1.533  -7.847   8.852  1.00  0.00     0.029 A 
ATOM     18  N   UNL     1      -0.671  -7.190  10.799  1.00  0.00    -0.354 N 
ATOM     19  C   UNL     1      -2.805  -4.363  13.244  1.00  0.00     0.074 A 
ATOM     20  C   UNL     1      -3.822  -3.659  12.499  1.00  0.00     0.031 C 
ATOM     21  C   UNL     1      -0.372  -8.509   9.018  1.00  0.00     0.029 A 
ATOM     22  C   UNL     1       0.264  -8.038  10.238  1.00  0.00     0.049 A 
ATOM     23  H   UNL     1      -0.622  -6.860  11.725  1.00  0.00     0.167 HD
ATOM     24  C   UNL     1      -2.681  -4.339  14.590  1.00  0.00     0.037 A 
ATOM     25  C   UNL     1       1.515  -8.317  10.651  1.00  0.00     0.037 A 
ATOM     26  C   UNL     1      -1.622  -5.005  15.296  1.00  0.00     0.049 A 
ATOM     27  C   UNL     1       1.885  -7.910  12.043  1.00  0.00     0.074 A 
ATOM     28  C   UNL     1      -1.401  -5.096  16.657  1.00  0.00     0.029 A 
ATOM     29  N   UNL     1      -0.573  -5.669  14.673  1.00  0.00    -0.354 N 
ATOM     30  N   UNL     1       1.209  -7.193  12.903  1.00  0.00    -0.248 NA
ATOM     31  C   UNL     1       3.142  -8.463  12.562  1.00  0.00     0.031 C 
ATOM     32  C   UNL     1      -0.185  -5.763  16.856  1.00  0.00     0.029 A 
ATOM     33  C   UNL     1       0.321  -6.136  15.621  1.00  0.00     0.049 A 
ATOM     34  H   UNL     1      -0.479  -5.789  13.701  1.00  0.00     0.167 HD
ATOM     35  C   UNL     1       1.902  -7.289  14.095  1.00  0.00     0.074 A 
ATOM     36  C   UNL     1       3.098  -8.063  13.822  1.00  0.00     0.031 C 
ATOM     37  C   UNL     1       1.528  -6.860  15.324  1.00  0.00     0.037 A 
BRANCH  24  38
ATOM     38  C   UNL     1      -3.747  -3.626  15.365  1.00  0.00     0.064 A 
ATOM     39  C   UNL     1      -5.054  -4.141  15.435  1.00  0.00     0.173 A 
ATOM     40  C   UNL     1      -3.467  -2.452  16.075  1.00  0.00     0.173 A 
ATOM     41  F   UNL     1      -5.378  -5.258  14.765  1.00  0.00    -0.203 F 
ATOM     42  C   UNL     1      -6.043  -3.494  16.170  1.00  0.00     0.198 A 
ATOM     43  C   UNL     1      -4.454  -1.820  16.828  1.00  0.00     0.198 A 
ATOM     44  F   UNL     1      -2.237  -1.919  16.042  1.00  0.00    -0.203 F 
ATOM     45  F   UNL     1      -7.290  -3.985  16.192  1.00  0.00    -0.200 F 
ATOM     46  C   UNL     1      -5.740  -2.338  16.872  1.00  0.00     0.200 A 
ATOM     47  F   UNL     1      -4.160  -0.707  17.514  1.00  0.00    -0.200 F 
ATOM     48  F   UNL     1      -6.690  -1.720  17.588  1.00  0.00    -0.200 F 
ENDBRANCH  24  38
BRANCH  25  49
ATOM     49  C   UNL     1       2.533  -8.980   9.794  1.00  0.00     0.064 A 
ATOM     50  C   UNL     1       2.486 -10.330   9.441  1.00  0.00     0.173 A 
ATOM     51  C   UNL     1       3.655  -8.243   9.377  1.00  0.00     0.173 A 
ATOM     52  F   UNL     1       1.475 -11.100   9.865  1.00  0.00    -0.203 F 
ATOM     53  C   UNL     1       3.498 -10.907   8.668  1.00  0.00     0.198 A 
ATOM     54  C   UNL     1       4.655  -8.812   8.590  1.00  0.00     0.198 A 
ATOM     55  F   UNL     1       3.788  -6.962   9.750  1.00  0.00    -0.203 F 
ATOM     56  F   UNL     1       3.437 -12.208   8.352  1.00  0.00    -0.200 F 
ATOM     57  C   UNL     1       4.572 -10.145   8.231  1.00  0.00     0.200 A 
ATOM     58  F   UNL     1       5.684  -8.062   8.170  1.00  0.00    -0.200 F 
ATOM     59  F   UNL     1       5.528 -10.695   7.470  1.00  0.00    -0.200 F 
ENDBRANCH  25  49
BRANCH  37  60
ATOM     60  C   UNL     1       2.386  -7.319  16.458  1.00  0.00     0.064 A 
ATOM     61  C   UNL     1       3.679  -6.821  16.663  1.00  0.00     0.173 A 
ATOM     62  C   UNL     1       1.924  -8.340  17.303  1.00  0.00     0.173 A 
ATOM     63  F   UNL     1       4.177  -5.878  15.849  1.00  0.00    -0.203 F 
ATOM     64  C   UNL     1       4.499  -7.366  17.645  1.00  0.00     0.198 A 
ATOM     65  C   UNL     1       2.732  -8.852  18.309  1.00  0.00     0.198 A 
ATOM     66  F   UNL     1       0.698  -8.857  17.134  1.00  0.00    -0.203 F 
ATOM     67  F   UNL     1       5.766  -6.945  17.764  1.00  0.00    -0.200 F 
ATOM     68  C   UNL     1       4.024  -8.377  18.469  1.00  0.00     0.200 A 
ATOM     69  F   UNL     1       2.270  -9.827  19.104  1.00  0.00    -0.200 F 
ATOM     70  F   UNL     1       4.822  -8.912  19.402  1.00  0.00    -0.200 F 
ENDBRANCH  37  60
ENDBRANCH  11  12
ENDBRANCH   4   6
ENDBRANCH   3   4
ENDBRANCH   2   3
ENDBRANCH   1   2
BRANCH   1  71
ATOM     71  O   UNL     1      -4.204  -6.037   4.346  1.00  0.00    -0.458 OA
BRANCH  71  72
ATOM     72  C   UNL     1      -3.946  -5.079   3.415  1.00  0.00     0.338 C 
ATOM     73  O   UNL     1      -4.591  -4.849   2.408  1.00  0.00    -0.246 OA
BRANCH  72  74
ATOM     74  C   UNL     1      -2.765  -4.293   3.825  1.00  0.00     0.060 A 
ATOM     75  C   UNL     1      -2.921  -2.967   4.222  1.00  0.00     0.016 A 
ATOM     76  C   UNL     1      -1.488  -4.839   3.752  1.00  0.00     0.016 A 
ATOM     77  C   UNL     1      -1.814  -2.230   4.675  1.00  0.00     0.005 A 
ATOM     78  C   UNL     1      -0.378  -4.061   4.125  1.00  0.00     0.005 A 
ATOM     79  C   UNL     1      -0.520  -2.782   4.695  1.00  0.00    -0.039 A 
BRANCH  79  80
ATOM     80  C   UNL     1       0.667  -2.012   5.330  1.00  0.00     0.074 C 
ATOM     81  C   UNL     1       0.260  -1.351   6.664  1.00  0.00     0.020 C 
ATOM     82  C   UNL     1       1.944  -2.882   5.562  1.00  0.00     0.270 C 
ATOM     83  C   UNL     1       1.452  -0.674   7.329  1.00  0.00     0.062 C 
ATOM     84  N   UNL     1       3.002  -2.408   6.469  1.00  0.00    -0.333 N 
ATOM     85  C   UNL     1       2.536  -1.689   7.654  1.00  0.00     0.262 C 
ATOM     86  H   UNL     1       3.491  -1.709   5.909  1.00  0.00     0.348 HD
BRANCH  84  87
ATOM     87  C   UNL     1       3.975  -3.473   6.833  1.00  0.00     0.284 C 
BRANCH  87  88
ATOM     88  C   UNL     1       3.616  -4.555   7.905  1.00  0.00     0.180 C 
BRANCH  88  89
ATOM     89  N   UNL     1       2.458  -5.366   7.562  1.00  0.00    -0.337 N 
ATOM     90  C   UNL     1       2.512  -6.418   6.586  1.00  0.00     0.120 C 
ATOM     91  C   UNL     1       1.171  -5.072   7.989  1.00  0.00     0.222 C 
ATOM     92  C   UNL     1       1.084  -6.629   6.137  1.00  0.00     0.031 C 
ATOM     93  C   UNL     1       0.232  -5.745   7.030  1.00  0.00     0.102 C 
ATOM     94  O   UNL     1       0.833  -4.316   8.872  1.00  0.00    -0.275 OA
ENDBRANCH  88  89
ENDBRANCH  87  88
ENDBRANCH  84  87
ENDBRANCH  79  80
ENDBRANCH  72  74
ENDBRANCH  71  72
ENDBRANCH   1  71
TORSDOF 15
