REMARK SMILES C[C@@H](Nc1cccc(C(=O)OCCOC(=O)c2ccc(-c3c4nc(c(-c5c(F)c(F)c(F)c(F)c5F)c5ccc([nH]5)c(-c5c(F)c(F)c(F)c(F)c5F)c5nc(c(-c6c(F)c(F)c(F)c(F)c6F)c6ccc3[nH]6)C=C5)C=C4)cc2)c1)C1CC[NH+](C)CC1
REMARK SMILES IDX 12 1 11 2 9 3 10 4 8 5 4 6 5 7 80 8 6 9 7 10 3 11 2 13 1 14
REMARK SMILES IDX 81 15 82 16 87 17 83 18 86 19 84 20 85 21 13 23 14 24 15 25
REMARK SMILES IDX 16 26 17 27 18 28 79 29 19 30 78 31 20 32 21 33 22 34 72 35
REMARK SMILES IDX 23 36 77 37 71 38 73 39 24 40 76 41 70 42 69 43 25 45 57 46
REMARK SMILES IDX 37 47 56 48 38 49 41 50 55 51 74 52 39 53 40 54 54 56 75 57
REMARK SMILES IDX 42 58 26 59 27 60 35 61 28 62 29 63 33 64 36 65 30 66 31 67
REMARK SMILES IDX 34 68 32 69 58 70 59 71 67 72 60 73 61 74 65 75 68 76 62 77
REMARK SMILES IDX 63 78 66 79 64 80 43 81 44 82 52 83 45 84 46 85 50 86 53 87
REMARK SMILES IDX 47 88 48 89 51 90 49 91
REMARK H PARENT 3 12 84 22 73 44 41 55
REMARK Flexibility Score: inf
ROOT
ATOM      1  C   UNL     1      -3.966   1.777  -5.417  1.00  0.00     0.275 C 
ENDROOT
BRANCH   1   2
ATOM      2  O   UNL     1      -2.805   1.029  -5.003  1.00  0.00    -0.458 OA
BRANCH   2   3
ATOM      3  C   UNL     1      -3.027  -0.269  -4.680  1.00  0.00     0.338 C 
ATOM      4  O   UNL     1      -4.106  -0.840  -4.677  1.00  0.00    -0.246 OA
BRANCH   3   5
ATOM      5  C   UNL     1      -1.756  -0.969  -4.365  1.00  0.00     0.062 A 
ATOM      6  C   UNL     1       0.394  -0.971  -3.265  1.00  0.00     0.035 A 
ATOM      7  C   UNL     1       0.469  -2.358  -3.444  1.00  0.00     0.026 A 
ATOM      8  C   UNL     1      -0.660  -0.272  -3.857  1.00  0.00     0.041 A 
ATOM      9  C   UNL     1      -0.575  -3.058  -4.038  1.00  0.00     0.003 A 
ATOM     10  C   UNL     1      -1.717  -2.369  -4.430  1.00  0.00     0.016 A 
BRANCH   6  11
ATOM     11  N   UNL     1       1.222  -0.397  -2.322  1.00  0.00    -0.382 N 
ATOM     12  H   UNL     1       2.168  -0.669  -2.336  1.00  0.00     0.160 HD
BRANCH  11  13
ATOM     13  C   UNL     1       0.826   0.586  -1.293  1.00  0.00     0.079 C 
ATOM     14  C   UNL     1       1.788   0.380  -0.117  1.00  0.00     0.031 C 
BRANCH  13  15
ATOM     15  C   UNL     1      -0.697   0.552  -0.893  1.00  0.00     0.022 C 
ATOM     16  C   UNL     1      -1.290   1.971  -0.856  1.00  0.00     0.067 C 
ATOM     17  C   UNL     1      -1.116  -0.216   0.367  1.00  0.00     0.067 C 
ATOM     18  C   UNL     1      -0.977   2.684   0.450  1.00  0.00     0.262 C 
ATOM     19  C   UNL     1      -0.972   0.568   1.670  1.00  0.00     0.262 C 
ATOM     20  N   UNL     1      -1.516   1.929   1.584  1.00  0.00    -0.337 N 
ATOM     21  C   UNL     1      -1.274   2.649   2.834  1.00  0.00     0.332 C 
ATOM     22  H   UNL     1      -2.520   1.838   1.430  1.00  0.00     0.347 HD
ENDBRANCH  13  15
ENDBRANCH  11  13
ENDBRANCH   6  11
ENDBRANCH   3   5
ENDBRANCH   2   3
ENDBRANCH   1   2
BRANCH   1  23
ATOM     23  C   UNL     1      -4.021   1.876  -6.940  1.00  0.00     0.275 C 
BRANCH  23  24
ATOM     24  O   UNL     1      -4.191   0.564  -7.507  1.00  0.00    -0.458 OA
BRANCH  24  25
ATOM     25  C   UNL     1      -3.176   0.113  -8.275  1.00  0.00     0.338 C 
ATOM     26  O   UNL     1      -2.169   0.712  -8.621  1.00  0.00    -0.246 OA
BRANCH  25  27
ATOM     27  C   UNL     1      -3.439  -1.285  -8.645  1.00  0.00     0.060 A 
ATOM     28  C   UNL     1      -3.360  -2.269  -7.663  1.00  0.00     0.016 A 
ATOM     29  C   UNL     1      -3.652  -1.640  -9.972  1.00  0.00     0.016 A 
ATOM     30  C   UNL     1      -3.437  -3.617  -7.995  1.00  0.00     0.010 A 
ATOM     31  C   UNL     1      -3.801  -2.991 -10.302  1.00  0.00     0.010 A 
ATOM     32  C   UNL     1      -3.669  -3.994  -9.320  1.00  0.00    -0.014 A 
BRANCH  32  33
ATOM     33  C   UNL     1      -3.704  -5.428  -9.701  1.00  0.00     0.031 A 
ATOM     34  C   UNL     1      -2.676  -5.958 -10.659  1.00  0.00     0.074 A 
ATOM     35  C   UNL     1      -4.638  -6.258  -9.198  1.00  0.00     0.049 A 
ATOM     36  N   UNL     1      -2.664  -7.083 -11.326  1.00  0.00    -0.248 NA
ATOM     37  C   UNL     1      -1.508  -5.098 -10.906  1.00  0.00     0.031 C 
ATOM     38  C   UNL     1      -5.640  -5.902  -8.194  1.00  0.00     0.029 A 
ATOM     39  N   UNL     1      -4.897  -7.578  -9.473  1.00  0.00    -0.354 N 
ATOM     40  C   UNL     1      -1.529  -7.034 -12.124  1.00  0.00     0.074 A 
ATOM     41  C   UNL     1      -0.865  -5.779 -11.845  1.00  0.00     0.031 C 
ATOM     42  C   UNL     1      -6.397  -6.978  -7.928  1.00  0.00     0.029 A 
ATOM     43  C   UNL     1      -5.990  -8.072  -8.804  1.00  0.00     0.049 A 
ATOM     44  H   UNL     1      -4.352  -8.119 -10.090  1.00  0.00     0.167 HD
ATOM     45  C   UNL     1      -1.094  -7.952 -13.018  1.00  0.00     0.037 A 
ATOM     46  C   UNL     1      -6.626  -9.253  -8.923  1.00  0.00     0.037 A 
ATOM     47  C   UNL     1      -1.729  -9.223 -13.245  1.00  0.00     0.049 A 
ATOM     48  C   UNL     1      -6.141 -10.248  -9.941  1.00  0.00     0.074 A 
ATOM     49  C   UNL     1      -1.375 -10.221 -14.136  1.00  0.00     0.029 A 
ATOM     50  N   UNL     1      -2.840  -9.680 -12.552  1.00  0.00    -0.354 N 
ATOM     51  N   UNL     1      -5.126 -10.160 -10.765  1.00  0.00    -0.248 NA
ATOM     52  C   UNL     1      -6.906 -11.498 -10.063  1.00  0.00     0.031 C 
ATOM     53  C   UNL     1      -2.285 -11.274 -13.996  1.00  0.00     0.029 A 
ATOM     54  C   UNL     1      -3.185 -10.946 -12.995  1.00  0.00     0.049 A 
ATOM     55  H   UNL     1      -3.314  -9.179 -11.850  1.00  0.00     0.167 HD
ATOM     56  C   UNL     1      -5.120 -11.341 -11.492  1.00  0.00     0.074 A 
ATOM     57  C   UNL     1      -6.226 -12.139 -11.004  1.00  0.00     0.031 C 
ATOM     58  C   UNL     1      -4.278 -11.728 -12.481  1.00  0.00     0.037 A 
BRANCH  45  59
ATOM     59  C   UNL     1       0.098  -7.596 -13.852  1.00  0.00     0.064 A 
ATOM     60  C   UNL     1       1.399  -7.601 -13.331  1.00  0.00     0.173 A 
ATOM     61  C   UNL     1      -0.067  -7.273 -15.209  1.00  0.00     0.173 A 
ATOM     62  F   UNL     1       1.605  -7.885 -12.036  1.00  0.00    -0.203 F 
ATOM     63  C   UNL     1       2.491  -7.279 -14.133  1.00  0.00     0.198 A 
ATOM     64  C   UNL     1       1.029  -6.975 -16.013  1.00  0.00     0.198 A 
ATOM     65  F   UNL     1      -1.292  -7.256 -15.755  1.00  0.00    -0.203 F 
ATOM     66  F   UNL     1       3.723  -7.253 -13.606  1.00  0.00    -0.200 F 
ATOM     67  C   UNL     1       2.306  -6.973 -15.474  1.00  0.00     0.200 A 
ATOM     68  F   UNL     1       0.848  -6.689 -17.310  1.00  0.00    -0.200 F 
ATOM     69  F   UNL     1       3.359  -6.670 -16.245  1.00  0.00    -0.200 F 
ENDBRANCH  45  59
BRANCH  46  70
ATOM     70  C   UNL     1      -7.823  -9.535  -8.090  1.00  0.00     0.064 A 
ATOM     71  C   UNL     1      -7.781 -10.494  -7.070  1.00  0.00     0.173 A 
ATOM     72  C   UNL     1      -9.029  -8.847  -8.291  1.00  0.00     0.173 A 
ATOM     73  F   UNL     1      -6.659 -11.197  -6.858  1.00  0.00    -0.203 F 
ATOM     74  C   UNL     1      -8.902 -10.758  -6.285  1.00  0.00     0.198 A 
ATOM     75  C   UNL     1     -10.141  -9.093  -7.489  1.00  0.00     0.198 A 
ATOM     76  F   UNL     1      -9.122  -7.923  -9.259  1.00  0.00    -0.203 F 
ATOM     77  F   UNL     1      -8.846 -11.706  -5.340  1.00  0.00    -0.200 F 
ATOM     78  C   UNL     1     -10.078 -10.052  -6.490  1.00  0.00     0.200 A 
ATOM     79  F   UNL     1     -11.271  -8.400  -7.683  1.00  0.00    -0.200 F 
ATOM     80  F   UNL     1     -11.152 -10.301  -5.729  1.00  0.00    -0.200 F 
ENDBRANCH  46  70
BRANCH  58  81
ATOM     81  C   UNL     1      -4.493 -13.088 -13.070  1.00  0.00     0.064 A 
ATOM     82  C   UNL     1      -5.524 -13.333 -13.988  1.00  0.00     0.173 A 
ATOM     83  C   UNL     1      -3.624 -14.142 -12.752  1.00  0.00     0.173 A 
ATOM     84  F   UNL     1      -6.387 -12.358 -14.310  1.00  0.00    -0.203 F 
ATOM     85  C   UNL     1      -5.686 -14.593 -14.557  1.00  0.00     0.198 A 
ATOM     86  C   UNL     1      -3.777 -15.394 -13.338  1.00  0.00     0.198 A 
ATOM     87  F   UNL     1      -2.621 -13.951 -11.882  1.00  0.00    -0.203 F 
ATOM     88  F   UNL     1      -6.696 -14.817 -15.409  1.00  0.00    -0.200 F 
ATOM     89  C   UNL     1      -4.809 -15.620 -14.237  1.00  0.00     0.200 A 
ATOM     90  F   UNL     1      -2.925 -16.383 -13.034  1.00  0.00    -0.200 F 
ATOM     91  F   UNL     1      -4.963 -16.830 -14.791  1.00  0.00    -0.200 F 
ENDBRANCH  58  81
ENDBRANCH  32  33
ENDBRANCH  25  27
ENDBRANCH  24  25
ENDBRANCH  23  24
ENDBRANCH   1  23
TORSDOF 14
