REMARK SMILES Cc1cc(/C=C2/C(=O)NC(=S)N=C2OCCOC(=O)c2ccc(-c3c4nc(c(-c5c(F)c(F)c(F)c(F)c5F)c5ccc([nH]5)c(-c5c(F)c(F)c(F)c(F)c5F)c5nc(c(-c6c(F)c(F)c(F)c(F)c6F)c6ccc3[nH]6)C=C5)C=C4)cc2)c(C)n1-c1cccc(C(=O)[O-])c1
REMARK SMILES IDX 15 1 14 2 13 3 5 4 6 5 7 6 8 7 9 8 12 9 10 10 11 12 4 13
REMARK SMILES IDX 1 14 2 15 3 16 85 17 83 18 84 19 86 20 87 21 94 22 88 23
REMARK SMILES IDX 90 24 89 25 91 26 92 27 93 28 16 29 17 30 18 31 19 32 20 33
REMARK SMILES IDX 21 34 82 35 22 36 81 37 23 38 24 39 25 40 75 41 26 42 80 43
REMARK SMILES IDX 74 44 76 45 27 46 79 47 73 48 72 49 28 51 60 52 40 53 59 54
REMARK SMILES IDX 41 55 44 56 58 57 77 58 42 59 43 60 57 62 78 63 45 64 29 65
REMARK SMILES IDX 30 66 38 67 31 68 32 69 36 70 39 71 33 72 34 73 37 74 35 75
REMARK SMILES IDX 61 76 62 77 70 78 63 79 64 80 68 81 71 82 65 83 66 84 69 85
REMARK SMILES IDX 67 86 46 87 47 88 55 89 48 90 49 91 53 92 56 93 50 94 51 95
REMARK SMILES IDX 54 96 52 97
REMARK H PARENT 9 11 76 50 44 61
REMARK Flexibility Score: inf
ROOT
ATOM      1  C   UNL     1      -0.481   4.700   6.184  1.00  0.00     0.273 C 
ENDROOT
BRANCH   1   2
ATOM      2  O   UNL     1      -0.384   3.314   5.704  1.00  0.00    -0.473 OA
BRANCH   2   3
ATOM      3  C   UNL     1      -0.648   2.335   6.598  1.00  0.00     0.229 C 
ATOM      4  C   UNL     1      -0.740   0.342   4.869  1.00  0.00     0.029 C 
ATOM      5  C   UNL     1      -0.903   0.971   6.056  1.00  0.00     0.103 C 
ATOM      6  C   UNL     1      -1.421   0.022   7.106  1.00  0.00     0.262 C 
ATOM      7  O   UNL     1      -1.816  -1.120   6.885  1.00  0.00    -0.269 OA
ATOM      8  N   UNL     1      -1.413   0.495   8.384  1.00  0.00    -0.297 N 
ATOM      9  N   UNL     1      -0.711   2.660   7.844  1.00  0.00    -0.184 NA
ATOM     10  C   UNL     1      -1.047   1.744   8.786  1.00  0.00     0.203 C 
ATOM     11  H   UNL     1      -1.702  -0.130   9.088  1.00  0.00     0.172 HD
ATOM     12  S   UNL     1      -1.073   2.086  10.425  1.00  0.00    -0.038 S 
BRANCH   4  13
ATOM     13  C   UNL     1      -0.228   0.669   3.574  1.00  0.00    -0.003 A 
ATOM     14  C   UNL     1       1.110  -0.331   0.214  1.00  0.00     0.065 C 
ATOM     15  C   UNL     1       0.613   0.277   1.479  1.00  0.00     0.020 A 
ATOM     16  C   UNL     1       0.322  -0.320   2.693  1.00  0.00     0.031 A 
ATOM     17  N   UNL     1       0.400   1.626   1.661  1.00  0.00    -0.318 N 
ATOM     18  C   UNL     1      -0.339   1.819   2.823  1.00  0.00     0.027 A 
ATOM     19  C   UNL     1      -1.127   3.066   3.012  1.00  0.00     0.065 C 
BRANCH  17  20
ATOM     20  C   UNL     1       0.818   2.673   0.818  1.00  0.00     0.046 A 
ATOM     21  C   UNL     1       1.845   3.507   1.275  1.00  0.00     0.026 A 
ATOM     22  C   UNL     1       0.052   2.998  -0.301  1.00  0.00     0.036 A 
ATOM     23  C   UNL     1       2.114   4.692   0.598  1.00  0.00     0.003 A 
ATOM     24  C   UNL     1       0.299   4.212  -0.951  1.00  0.00    -0.001 A 
ATOM     25  C   UNL     1       1.335   5.051  -0.504  1.00  0.00     0.010 A 
BRANCH  24  26
ATOM     26  C   UNL     1      -0.563   4.684  -2.052  1.00  0.00     0.072 C 
ATOM     27  O   UNL     1      -0.441   5.756  -2.648  1.00  0.00    -0.545 OA
ATOM     28  O   UNL     1      -1.562   3.842  -2.340  1.00  0.00    -0.545 OA
ENDBRANCH  24  26
ENDBRANCH  17  20
ENDBRANCH   4  13
ENDBRANCH   2   3
ENDBRANCH   1   2
BRANCH   1  29
ATOM     29  C   UNL     1      -1.940   5.213   6.126  1.00  0.00     0.274 C 
BRANCH  29  30
ATOM     30  O   UNL     1      -2.319   6.109   7.219  1.00  0.00    -0.458 OA
BRANCH  30  31
ATOM     31  C   UNL     1      -3.546   5.865   7.773  1.00  0.00     0.338 C 
ATOM     32  O   UNL     1      -4.262   4.910   7.498  1.00  0.00    -0.246 OA
BRANCH  31  33
ATOM     33  C   UNL     1      -3.972   6.834   8.839  1.00  0.00     0.060 A 
ATOM     34  C   UNL     1      -3.891   6.405  10.154  1.00  0.00     0.016 A 
ATOM     35  C   UNL     1      -4.717   8.006   8.593  1.00  0.00     0.016 A 
ATOM     36  C   UNL     1      -4.534   7.131  11.180  1.00  0.00     0.010 A 
ATOM     37  C   UNL     1      -5.419   8.712   9.643  1.00  0.00     0.010 A 
ATOM     38  C   UNL     1      -5.381   8.270  10.972  1.00  0.00    -0.014 A 
BRANCH  38  39
ATOM     39  C   UNL     1      -6.362   8.627  12.125  1.00  0.00     0.031 A 
ATOM     40  C   UNL     1      -6.757   7.347  12.785  1.00  0.00     0.074 A 
ATOM     41  C   UNL     1      -6.995   9.713  12.692  1.00  0.00     0.049 A 
ATOM     42  N   UNL     1      -7.332   6.356  12.159  1.00  0.00    -0.248 NA
ATOM     43  C   UNL     1      -6.242   7.029  14.121  1.00  0.00     0.031 C 
ATOM     44  C   UNL     1      -6.929  11.126  12.306  1.00  0.00     0.029 A 
ATOM     45  N   UNL     1      -7.861   9.783  13.812  1.00  0.00    -0.354 N 
ATOM     46  C   UNL     1      -7.490   5.381  13.114  1.00  0.00     0.074 A 
ATOM     47  C   UNL     1      -6.637   5.761  14.222  1.00  0.00     0.031 C 
ATOM     48  C   UNL     1      -7.610  11.904  13.195  1.00  0.00     0.029 A 
ATOM     49  C   UNL     1      -8.237  11.082  14.226  1.00  0.00     0.049 A 
ATOM     50  H   UNL     1      -8.182   8.975  14.274  1.00  0.00     0.167 HD
ATOM     51  C   UNL     1      -8.624   4.632  13.139  1.00  0.00     0.037 A 
ATOM     52  C   UNL     1      -9.017  11.484  15.286  1.00  0.00     0.037 A 
ATOM     53  C   UNL     1      -9.355   4.762  14.366  1.00  0.00     0.049 A 
ATOM     54  C   UNL     1      -9.745  10.332  15.853  1.00  0.00     0.074 A 
ATOM     55  C   UNL     1      -9.041   4.720  15.709  1.00  0.00     0.029 A 
ATOM     56  N   UNL     1     -10.547   5.449  14.284  1.00  0.00    -0.354 N 
ATOM     57  N   UNL     1     -10.836   9.869  15.328  1.00  0.00    -0.248 NA
ATOM     58  C   UNL     1      -9.349   9.701  17.111  1.00  0.00     0.031 C 
ATOM     59  C   UNL     1      -9.752   5.810  16.291  1.00  0.00     0.029 A 
ATOM     60  C   UNL     1     -10.598   6.348  15.328  1.00  0.00     0.049 A 
ATOM     61  H   UNL     1     -11.242   5.319  13.599  1.00  0.00     0.167 HD
ATOM     62  C   UNL     1     -10.978   8.642  15.896  1.00  0.00     0.074 A 
ATOM     63  C   UNL     1     -10.232   8.700  17.134  1.00  0.00     0.031 C 
ATOM     64  C   UNL     1     -11.283   7.598  15.090  1.00  0.00     0.037 A 
BRANCH  51  65
ATOM     65  C   UNL     1      -9.259   4.378  11.810  1.00  0.00     0.064 A 
ATOM     66  C   UNL     1      -9.225   3.088  11.272  1.00  0.00     0.173 A 
ATOM     67  C   UNL     1      -9.819   5.400  11.023  1.00  0.00     0.173 A 
ATOM     68  F   UNL     1      -8.761   2.065  12.006  1.00  0.00    -0.203 F 
ATOM     69  C   UNL     1      -9.676   2.842   9.976  1.00  0.00     0.198 A 
ATOM     70  C   UNL     1     -10.225   5.163   9.715  1.00  0.00     0.198 A 
ATOM     71  F   UNL     1     -10.000   6.629  11.535  1.00  0.00    -0.203 F 
ATOM     72  F   UNL     1      -9.656   1.594   9.488  1.00  0.00    -0.200 F 
ATOM     73  C   UNL     1     -10.146   3.884   9.189  1.00  0.00     0.200 A 
ATOM     74  F   UNL     1     -10.705   6.170   8.972  1.00  0.00    -0.200 F 
ATOM     75  F   UNL     1     -10.546   3.651   7.931  1.00  0.00    -0.200 F 
ENDBRANCH  51  65
BRANCH  52  76
ATOM     76  C   UNL     1      -9.405  12.769  15.986  1.00  0.00     0.064 A 
ATOM     77  C   UNL     1     -10.698  12.912  16.572  1.00  0.00     0.173 A 
ATOM     78  C   UNL     1      -8.449  13.690  16.427  1.00  0.00     0.173 A 
ATOM     79  F   UNL     1     -11.716  12.119  16.209  1.00  0.00    -0.203 F 
ATOM     80  C   UNL     1     -10.974  13.819  17.599  1.00  0.00     0.198 A 
ATOM     81  C   UNL     1      -8.740  14.631  17.434  1.00  0.00     0.198 A 
ATOM     82  F   UNL     1      -7.194  13.627  15.962  1.00  0.00    -0.203 F 
ATOM     83  F   UNL     1     -12.176  13.813  18.197  1.00  0.00    -0.200 F 
ATOM     84  C   UNL     1      -9.988  14.671  18.042  1.00  0.00     0.200 A 
ATOM     85  F   UNL     1      -7.780  15.459  17.869  1.00  0.00    -0.200 F 
ATOM     86  F   UNL     1     -10.225  15.500  19.069  1.00  0.00    -0.200 F 
ENDBRANCH  52  76
BRANCH  64  87
ATOM     87  C   UNL     1     -12.116   7.906  13.848  1.00  0.00     0.064 A 
ATOM     88  C   UNL     1     -11.904   8.963  12.928  1.00  0.00     0.173 A 
ATOM     89  C   UNL     1     -13.235   7.098  13.597  1.00  0.00     0.173 A 
ATOM     90  F   UNL     1     -10.784   9.698  12.936  1.00  0.00    -0.203 F 
ATOM     91  C   UNL     1     -12.827   9.268  11.924  1.00  0.00     0.198 A 
ATOM     92  C   UNL     1     -14.113   7.357  12.543  1.00  0.00     0.198 A 
ATOM     93  F   UNL     1     -13.465   6.019  14.360  1.00  0.00    -0.203 F 
ATOM     94  F   UNL     1     -12.636  10.337  11.137  1.00  0.00    -0.200 F 
ATOM     95  C   UNL     1     -13.932   8.462  11.732  1.00  0.00     0.200 A 
ATOM     96  F   UNL     1     -15.137   6.523  12.315  1.00  0.00    -0.200 F 
ATOM     97  F   UNL     1     -14.803   8.732  10.750  1.00  0.00    -0.200 F 
ENDBRANCH  64  87
ENDBRANCH  38  39
ENDBRANCH  31  33
ENDBRANCH  30  31
ENDBRANCH  29  30
ENDBRANCH   1  29
TORSDOF 13
