REMARK SMILES CC1=C(C)C[C@@H](C(=O)OCCOC(=O)c2ccc(-c3c4nc(c(-c5c(F)c(F)c(F)c(F)c5F)c5ccc([nH]5)c(-c5c(F)c(F)c(F)c(F)c5F)c5nc(c(-c6c(F)c(F)c(F)c(F)c6F)c6ccc3[nH]6)C=C5)C=C4)cc2)[C@@H](C(=O)N2CCN(c3cccc(C(F)(F)F)c3)CC2)C1
REMARK SMILES IDX 10 1 9 2 7 3 8 4 6 5 1 6 2 7 3 8 97 9 4 10 5 11 78 12 79 13
REMARK SMILES IDX 80 14 81 15 82 16 96 17 83 18 95 19 84 20 85 21 86 22 94 23
REMARK SMILES IDX 87 24 89 25 88 26 90 27 91 28 92 29 93 30 11 31 12 32 13 33
REMARK SMILES IDX 14 34 15 35 16 36 77 37 17 38 76 39 18 40 19 41 20 42 70 43
REMARK SMILES IDX 21 44 75 45 69 46 71 47 22 48 74 49 68 50 67 51 23 53 55 54
REMARK SMILES IDX 35 55 54 56 36 57 39 58 53 59 72 60 37 61 38 62 52 64 73 65
REMARK SMILES IDX 40 66 24 67 25 68 33 69 26 70 27 71 31 72 34 73 28 74 29 75
REMARK SMILES IDX 32 76 30 77 56 78 57 79 65 80 58 81 59 82 63 83 66 84 60 85
REMARK SMILES IDX 61 86 64 87 62 88 41 89 42 90 50 91 43 92 44 93 48 94 51 95
REMARK SMILES IDX 45 96 46 97 49 98 47 99
REMARK H PARENT 71 52 39 63
REMARK Flexibility Score: inf
ROOT
ATOM      1  C   UNL     1      -2.839   5.746   2.160  1.00  0.00     0.274 C 
ENDROOT
BRANCH   1   2
ATOM      2  O   UNL     1      -1.841   4.852   1.601  1.00  0.00    -0.462 OA
BRANCH   2   3
ATOM      3  C   UNL     1      -1.764   4.708   0.270  1.00  0.00     0.310 C 
ATOM      4  O   UNL     1      -2.547   5.248  -0.508  1.00  0.00    -0.252 OA
BRANCH   3   5
ATOM      5  C   UNL     1      -0.688   3.745  -0.235  1.00  0.00     0.116 C 
ATOM      6  C   UNL     1       1.197  -0.293  -0.178  1.00  0.00     0.039 C 
ATOM      7  C   UNL     1       0.512   1.041  -0.318  1.00  0.00    -0.074 C 
ATOM      8  C   UNL     1      -0.782   1.175  -0.665  1.00  0.00    -0.073 C 
ATOM      9  C   UNL     1       1.393   2.251  -0.103  1.00  0.00     0.045 C 
ATOM     10  C   UNL     1      -1.710   0.038  -1.014  1.00  0.00     0.039 C 
ATOM     11  C   UNL     1      -1.439   2.518  -0.779  1.00  0.00     0.046 C 
ATOM     12  C   UNL     1       0.686   3.508   0.445  1.00  0.00     0.097 C 
BRANCH  12  13
ATOM     13  C   UNL     1       0.976   3.574   1.954  1.00  0.00     0.227 C 
ATOM     14  O   UNL     1       2.000   4.113   2.381  1.00  0.00    -0.275 OA
ATOM     15  N   UNL     1       0.213   2.800   2.775  1.00  0.00    -0.339 N 
ATOM     16  C   UNL     1      -0.706   3.422   3.699  1.00  0.00     0.141 C 
ATOM     17  C   UNL     1       0.586   1.458   3.201  1.00  0.00     0.141 C 
ATOM     18  C   UNL     1      -2.033   2.687   3.516  1.00  0.00     0.138 C 
ATOM     19  C   UNL     1      -0.672   0.562   3.299  1.00  0.00     0.138 C 
ATOM     20  N   UNL     1      -1.848   1.268   3.855  1.00  0.00    -0.368 N 
BRANCH  20  21
ATOM     21  C   UNL     1      -2.516   0.881   4.994  1.00  0.00     0.037 A 
ATOM     22  C   UNL     1      -3.918   0.858   4.980  1.00  0.00     0.026 A 
ATOM     23  C   UNL     1      -1.851   0.681   6.202  1.00  0.00     0.039 A 
ATOM     24  C   UNL     1      -4.648   0.657   6.145  1.00  0.00     0.003 A 
ATOM     25  C   UNL     1      -2.572   0.507   7.393  1.00  0.00     0.058 A 
ATOM     26  C   UNL     1      -3.976   0.488   7.351  1.00  0.00     0.013 A 
BRANCH  25  27
ATOM     27  C   UNL     1      -1.853   0.367   8.707  1.00  0.00     0.416 C 
ATOM     28  F   UNL     1      -2.375   1.172   9.675  1.00  0.00    -0.166 F 
ATOM     29  F   UNL     1      -1.914  -0.900   9.199  1.00  0.00    -0.166 F 
ATOM     30  F   UNL     1      -0.529   0.681   8.640  1.00  0.00    -0.166 F 
ENDBRANCH  25  27
ENDBRANCH  20  21
ENDBRANCH  12  13
ENDBRANCH   3   5
ENDBRANCH   2   3
ENDBRANCH   1   2
BRANCH   1  31
ATOM     31  C   UNL     1      -2.164   6.894   2.920  1.00  0.00     0.275 C 
BRANCH  31  32
ATOM     32  O   UNL     1      -1.588   7.817   1.992  1.00  0.00    -0.458 OA
BRANCH  32  33
ATOM     33  C   UNL     1      -0.407   7.427   1.460  1.00  0.00     0.338 C 
ATOM     34  O   UNL     1       0.301   6.495   1.788  1.00  0.00    -0.246 OA
BRANCH  33  35
ATOM     35  C   UNL     1      -0.236   8.184   0.228  1.00  0.00     0.060 A 
ATOM     36  C   UNL     1      -0.203   7.494  -0.988  1.00  0.00     0.016 A 
ATOM     37  C   UNL     1      -0.189   9.572   0.287  1.00  0.00     0.016 A 
ATOM     38  C   UNL     1      -0.162   8.194  -2.177  1.00  0.00     0.010 A 
ATOM     39  C   UNL     1      -0.150  10.276  -0.901  1.00  0.00     0.010 A 
ATOM     40  C   UNL     1      -0.145   9.587  -2.128  1.00  0.00    -0.014 A 
BRANCH  40  41
ATOM     41  C   UNL     1      -0.063  10.375  -3.360  1.00  0.00     0.031 A 
ATOM     42  C   UNL     1       1.212  11.097  -3.634  1.00  0.00     0.074 A 
ATOM     43  C   UNL     1      -1.163  10.508  -4.116  1.00  0.00     0.049 A 
ATOM     44  N   UNL     1       1.446  12.070  -4.466  1.00  0.00    -0.248 NA
ATOM     45  C   UNL     1       2.373  10.694  -2.821  1.00  0.00     0.031 C 
ATOM     46  C   UNL     1      -2.427   9.799  -3.904  1.00  0.00     0.029 A 
ATOM     47  N   UNL     1      -1.407  11.320  -5.188  1.00  0.00    -0.354 N 
ATOM     48  C   UNL     1       2.769  12.426  -4.251  1.00  0.00     0.074 A 
ATOM     49  C   UNL     1       3.279  11.585  -3.191  1.00  0.00     0.031 C 
ATOM     50  C   UNL     1      -3.325  10.229  -4.804  1.00  0.00     0.029 A 
ATOM     51  C   UNL     1      -2.713  11.281  -5.607  1.00  0.00     0.049 A 
ATOM     52  H   UNL     1      -0.716  11.876  -5.615  1.00  0.00     0.167 HD
ATOM     53  C   UNL     1       3.477  13.381  -4.893  1.00  0.00     0.037 A 
ATOM     54  C   UNL     1      -3.341  12.055  -6.507  1.00  0.00     0.037 A 
ATOM     55  C   UNL     1       2.916  14.189  -5.942  1.00  0.00     0.049 A 
ATOM     56  C   UNL     1      -2.538  13.133  -7.184  1.00  0.00     0.074 A 
ATOM     57  C   UNL     1       3.522  15.175  -6.695  1.00  0.00     0.029 A 
ATOM     58  N   UNL     1       1.598  14.097  -6.380  1.00  0.00    -0.354 N 
ATOM     59  N   UNL     1      -1.283  13.470  -6.996  1.00  0.00    -0.248 NA
ATOM     60  C   UNL     1      -3.233  13.936  -8.194  1.00  0.00     0.031 C 
ATOM     61  C   UNL     1       2.557  15.716  -7.551  1.00  0.00     0.029 A 
ATOM     62  C   UNL     1       1.367  15.021  -7.383  1.00  0.00     0.049 A 
ATOM     63  H   UNL     1       0.929  13.467  -6.027  1.00  0.00     0.167 HD
ATOM     64  C   UNL     1      -1.024  14.498  -7.890  1.00  0.00     0.074 A 
ATOM     65  C   UNL     1      -2.255  14.722  -8.624  1.00  0.00     0.031 C 
ATOM     66  C   UNL     1       0.123  15.193  -8.094  1.00  0.00     0.037 A 
BRANCH  53  67
ATOM     67  C   UNL     1       4.893  13.611  -4.453  1.00  0.00     0.064 A 
ATOM     68  C   UNL     1       5.895  12.645  -4.639  1.00  0.00     0.173 A 
ATOM     69  C   UNL     1       5.255  14.814  -3.829  1.00  0.00     0.173 A 
ATOM     70  F   UNL     1       5.601  11.467  -5.210  1.00  0.00    -0.203 F 
ATOM     71  C   UNL     1       7.195  12.863  -4.189  1.00  0.00     0.198 A 
ATOM     72  C   UNL     1       6.564  15.043  -3.412  1.00  0.00     0.198 A 
ATOM     73  F   UNL     1       4.338  15.770  -3.619  1.00  0.00    -0.203 F 
ATOM     74  F   UNL     1       8.118  11.900  -4.323  1.00  0.00    -0.200 F 
ATOM     75  C   UNL     1       7.530  14.063  -3.583  1.00  0.00     0.200 A 
ATOM     76  F   UNL     1       6.888  16.208  -2.836  1.00  0.00    -0.200 F 
ATOM     77  F   UNL     1       8.783  14.274  -3.156  1.00  0.00    -0.200 F 
ENDBRANCH  53  67
BRANCH  54  78
ATOM     78  C   UNL     1      -4.779  11.835  -6.808  1.00  0.00     0.064 A 
ATOM     79  C   UNL     1      -5.180  11.344  -8.057  1.00  0.00     0.173 A 
ATOM     80  C   UNL     1      -5.779  12.084  -5.856  1.00  0.00     0.173 A 
ATOM     81  F   UNL     1      -4.263  11.099  -9.005  1.00  0.00    -0.203 F 
ATOM     82  C   UNL     1      -6.525  11.132  -8.352  1.00  0.00     0.198 A 
ATOM     83  C   UNL     1      -7.122  11.842  -6.140  1.00  0.00     0.198 A 
ATOM     84  F   UNL     1      -5.452  12.543  -4.639  1.00  0.00    -0.203 F 
ATOM     85  F   UNL     1      -6.882  10.703  -9.570  1.00  0.00    -0.200 F 
ATOM     86  C   UNL     1      -7.495  11.375  -7.391  1.00  0.00     0.200 A 
ATOM     87  F   UNL     1      -8.054  12.059  -5.202  1.00  0.00    -0.200 F 
ATOM     88  F   UNL     1      -8.788  11.164  -7.673  1.00  0.00    -0.200 F 
ENDBRANCH  54  78
BRANCH  66  89
ATOM     89  C   UNL     1       0.108  16.212  -9.194  1.00  0.00     0.064 A 
ATOM     90  C   UNL     1      -0.595  17.419  -9.076  1.00  0.00     0.173 A 
ATOM     91  C   UNL     1       0.856  15.993 -10.361  1.00  0.00     0.173 A 
ATOM     92  F   UNL     1      -1.336  17.666  -7.985  1.00  0.00    -0.203 F 
ATOM     93  C   UNL     1      -0.570  18.360 -10.101  1.00  0.00     0.198 A 
ATOM     94  C   UNL     1       0.909  16.951 -11.366  1.00  0.00     0.198 A 
ATOM     95  F   UNL     1       1.552  14.856 -10.515  1.00  0.00    -0.203 F 
ATOM     96  F   UNL     1      -1.291  19.484  -9.992  1.00  0.00    -0.200 F 
ATOM     97  C   UNL     1       0.190  18.130 -11.239  1.00  0.00     0.200 A 
ATOM     98  F   UNL     1       1.659  16.736 -12.455  1.00  0.00    -0.200 F 
ATOM     99  F   UNL     1       0.223  19.044 -12.218  1.00  0.00    -0.200 F 
ENDBRANCH  66  89
ENDBRANCH  40  41
ENDBRANCH  33  35
ENDBRANCH  32  33
ENDBRANCH  31  32
ENDBRANCH   1  31
TORSDOF 14
