REMARK SMILES Cc1nc2ccc(Cl)cc2cc1C(=O)N1CCC(C(=O)OCCOC(=O)c2ccc(-c3c4nc(c(-c5c(F)c(F)c(F)c(F)c5F)c5ccc([nH]5)c(-c5c(F)c(F)c(F)c(F)c5F)c5nc(c(-c6c(F)c(F)c(F)c(F)c6F)c6ccc3[nH]6)C=C5)C=C4)cc2)CC1
REMARK SMILES IDX 23 1 22 2 21 3 19 4 20 5 18 6 13 7 14 8 15 9 16 10 91 11
REMARK SMILES IDX 17 12 90 13 12 14 1 15 2 16 3 17 4 18 11 19 5 20 10 21 6 22
REMARK SMILES IDX 9 23 7 24 8 25 24 26 25 27 26 28 27 29 28 30 89 31 29 32
REMARK SMILES IDX 88 33 30 34 31 35 32 36 82 37 33 38 87 39 81 40 83 41 34 42
REMARK SMILES IDX 86 43 80 44 79 45 35 47 67 48 47 49 66 50 48 51 51 52 65 53
REMARK SMILES IDX 84 54 49 55 50 56 64 58 85 59 52 60 36 61 37 62 45 63 38 64
REMARK SMILES IDX 39 65 43 66 46 67 40 68 41 69 44 70 42 71 68 72 69 73 77 74
REMARK SMILES IDX 70 75 71 76 75 77 78 78 72 79 73 80 76 81 74 82 53 83 54 84
REMARK SMILES IDX 62 85 55 86 56 87 60 88 63 89 57 90 58 91 61 92 59 93
REMARK H PARENT 83 46 51 57
REMARK Flexibility Score: inf
ROOT
ATOM      1  C   UNL     1      -4.889 -10.464   0.882  1.00  0.00     0.275 C 
ENDROOT
BRANCH   1   2
ATOM      2  C   UNL     1      -5.062  -9.407   1.976  1.00  0.00     0.274 C 
BRANCH   2   3
ATOM      3  O   UNL     1      -4.749  -8.095   1.473  1.00  0.00    -0.462 OA
BRANCH   3   4
ATOM      4  C   UNL     1      -3.559  -7.565   1.847  1.00  0.00     0.309 C 
ATOM      5  O   UNL     1      -2.779  -8.075   2.643  1.00  0.00    -0.252 OA
BRANCH   4   6
ATOM      6  C   UNL     1      -3.245  -6.263   1.137  1.00  0.00     0.103 C 
ATOM      7  C   UNL     1      -3.567  -2.305  -0.432  1.00  0.00     0.255 C 
ATOM      8  O   UNL     1      -4.412  -2.061  -1.289  1.00  0.00    -0.269 OA
ATOM      9  N   UNL     1      -3.380  -3.579   0.112  1.00  0.00    -0.339 N 
ATOM     10  C   UNL     1      -3.637  -4.709  -0.777  1.00  0.00     0.120 C 
ATOM     11  C   UNL     1      -2.692  -3.842   1.381  1.00  0.00     0.120 C 
ATOM     12  C   UNL     1      -4.146  -5.943  -0.054  1.00  0.00     0.037 C 
ATOM     13  C   UNL     1      -3.243  -5.076   2.097  1.00  0.00     0.037 C 
BRANCH   7  14
ATOM     14  C   UNL     1      -2.602  -1.235  -0.090  1.00  0.00     0.061 A 
ATOM     15  C   UNL     1      -4.431   0.499   0.198  1.00  0.00     0.067 C 
ATOM     16  C   UNL     1      -2.991   0.081   0.144  1.00  0.00     0.051 A 
ATOM     17  N   UNL     1      -2.082   1.090   0.283  1.00  0.00    -0.252 NA
ATOM     18  C   UNL     1      -0.770   0.815   0.171  1.00  0.00     0.071 A 
ATOM     19  C   UNL     1      -1.236  -1.513  -0.197  1.00  0.00     0.026 A 
ATOM     20  C   UNL     1       0.163   1.841   0.252  1.00  0.00     0.030 A 
ATOM     21  C   UNL     1      -0.295  -0.492  -0.054  1.00  0.00     0.002 A 
ATOM     22  C   UNL     1       1.537   1.598   0.133  1.00  0.00     0.023 A 
ATOM     23  C   UNL     1       1.082  -0.748  -0.162  1.00  0.00     0.030 A 
ATOM     24  C   UNL     1       1.991   0.300  -0.065  1.00  0.00     0.041 A 
ATOM     25  Cl  UNL     1       3.676  -0.015  -0.197  1.00  0.00    -0.084 Cl
ENDBRANCH   7  14
ENDBRANCH   4   6
ENDBRANCH   3   4
ENDBRANCH   2   3
ENDBRANCH   1   2
BRANCH   1  26
ATOM     26  O   UNL     1      -3.503 -10.628   0.521  1.00  0.00    -0.458 OA
BRANCH  26  27
ATOM     27  C   UNL     1      -3.108  -9.944  -0.577  1.00  0.00     0.338 C 
ATOM     28  O   UNL     1      -3.785  -9.230  -1.295  1.00  0.00    -0.246 OA
BRANCH  27  29
ATOM     29  C   UNL     1      -1.655 -10.081  -0.750  1.00  0.00     0.060 A 
ATOM     30  C   UNL     1      -0.865  -8.941  -0.583  1.00  0.00     0.016 A 
ATOM     31  C   UNL     1      -1.086 -11.283  -1.174  1.00  0.00     0.016 A 
ATOM     32  C   UNL     1       0.502  -8.993  -0.841  1.00  0.00     0.010 A 
ATOM     33  C   UNL     1       0.288 -11.335  -1.431  1.00  0.00     0.010 A 
ATOM     34  C   UNL     1       1.087 -10.188  -1.277  1.00  0.00    -0.014 A 
BRANCH  34  35
ATOM     35  C   UNL     1       2.530 -10.217  -1.618  1.00  0.00     0.031 A 
ATOM     36  C   UNL     1       2.959 -10.249  -3.056  1.00  0.00     0.074 A 
ATOM     37  C   UNL     1       3.450 -10.192  -0.638  1.00  0.00     0.049 A 
ATOM     38  N   UNL     1       4.161 -10.361  -3.560  1.00  0.00    -0.248 NA
ATOM     39  C   UNL     1       1.891 -10.138  -4.062  1.00  0.00     0.031 C 
ATOM     40  C   UNL     1       3.156 -10.112   0.792  1.00  0.00     0.029 A 
ATOM     41  N   UNL     1       4.820 -10.235  -0.698  1.00  0.00    -0.354 N 
ATOM     42  C   UNL     1       3.996 -10.356  -4.938  1.00  0.00     0.074 A 
ATOM     43  C   UNL     1       2.575 -10.241  -5.193  1.00  0.00     0.031 C 
ATOM     44  C   UNL     1       4.312 -10.114   1.476  1.00  0.00     0.029 A 
ATOM     45  C   UNL     1       5.422 -10.241   0.536  1.00  0.00     0.049 A 
ATOM     46  H   UNL     1       5.323 -10.259  -1.544  1.00  0.00     0.167 HD
ATOM     47  C   UNL     1       4.945 -10.440  -5.900  1.00  0.00     0.037 A 
ATOM     48  C   UNL     1       6.721 -10.365   0.869  1.00  0.00     0.037 A 
ATOM     49  C   UNL     1       6.358 -10.538  -5.643  1.00  0.00     0.049 A 
ATOM     50  C   UNL     1       7.750 -10.512  -0.219  1.00  0.00     0.074 A 
ATOM     51  C   UNL     1       7.399 -10.616  -6.552  1.00  0.00     0.029 A 
ATOM     52  N   UNL     1       6.928 -10.572  -4.379  1.00  0.00    -0.354 N 
ATOM     53  N   UNL     1       7.584 -10.519  -1.519  1.00  0.00    -0.248 NA
ATOM     54  C   UNL     1       9.146 -10.677   0.209  1.00  0.00     0.031 C 
ATOM     55  C   UNL     1       8.597 -10.733  -5.838  1.00  0.00     0.029 A 
ATOM     56  C   UNL     1       8.305 -10.688  -4.484  1.00  0.00     0.049 A 
ATOM     57  H   UNL     1       6.429 -10.520  -3.532  1.00  0.00     0.167 HD
ATOM     58  C   UNL     1       8.851 -10.671  -2.064  1.00  0.00     0.074 A 
ATOM     59  C   UNL     1       9.779 -10.738  -0.955  1.00  0.00     0.031 C 
ATOM     60  C   UNL     1       9.213 -10.750  -3.368  1.00  0.00     0.037 A 
BRANCH  47  61
ATOM     61  C   UNL     1       4.483 -10.458  -7.327  1.00  0.00     0.064 A 
ATOM     62  C   UNL     1       4.015  -9.300  -7.965  1.00  0.00     0.173 A 
ATOM     63  C   UNL     1       4.543 -11.644  -8.074  1.00  0.00     0.173 A 
ATOM     64  F   UNL     1       3.925  -8.146  -7.288  1.00  0.00    -0.203 F 
ATOM     65  C   UNL     1       3.605  -9.334  -9.295  1.00  0.00     0.198 A 
ATOM     66  C   UNL     1       4.154 -11.668  -9.411  1.00  0.00     0.198 A 
ATOM     67  F   UNL     1       4.986 -12.777  -7.510  1.00  0.00    -0.203 F 
ATOM     68  F   UNL     1       3.124  -8.225  -9.875  1.00  0.00    -0.200 F 
ATOM     69  C   UNL     1       3.680 -10.516 -10.018  1.00  0.00     0.200 A 
ATOM     70  F   UNL     1       4.236 -12.809 -10.110  1.00  0.00    -0.200 F 
ATOM     71  F   UNL     1       3.289 -10.545 -11.300  1.00  0.00    -0.200 F 
ENDBRANCH  47  61
BRANCH  48  72
ATOM     72  C   UNL     1       7.117 -10.380   2.299  1.00  0.00     0.064 A 
ATOM     73  C   UNL     1       7.824  -9.311   2.864  1.00  0.00     0.173 A 
ATOM     74  C   UNL     1       6.798 -11.465   3.129  1.00  0.00     0.173 A 
ATOM     75  F   UNL     1       8.174  -8.264   2.103  1.00  0.00    -0.203 F 
ATOM     76  C   UNL     1       8.207  -9.330   4.204  1.00  0.00     0.198 A 
ATOM     77  C   UNL     1       7.158 -11.472   4.475  1.00  0.00     0.198 A 
ATOM     78  F   UNL     1       6.124 -12.514   2.635  1.00  0.00    -0.203 F 
ATOM     79  F   UNL     1       8.915  -8.312   4.710  1.00  0.00    -0.200 F 
ATOM     80  C   UNL     1       7.867 -10.407   5.009  1.00  0.00     0.200 A 
ATOM     81  F   UNL     1       6.819 -12.510   5.252  1.00  0.00    -0.200 F 
ATOM     82  F   UNL     1       8.230 -10.422   6.299  1.00  0.00    -0.200 F 
ENDBRANCH  48  72
BRANCH  60  83
ATOM     83  C   UNL     1      10.676 -10.892  -3.665  1.00  0.00     0.064 A 
ATOM     84  C   UNL     1      11.350 -12.104  -3.460  1.00  0.00     0.173 A 
ATOM     85  C   UNL     1      11.402  -9.813  -4.192  1.00  0.00     0.173 A 
ATOM     86  F   UNL     1      10.702 -13.158  -2.942  1.00  0.00    -0.203 F 
ATOM     87  C   UNL     1      12.706 -12.226  -3.755  1.00  0.00     0.198 A 
ATOM     88  C   UNL     1      12.751  -9.946  -4.509  1.00  0.00     0.198 A 
ATOM     89  F   UNL     1      10.800  -8.635  -4.410  1.00  0.00    -0.203 F 
ATOM     90  F   UNL     1      13.340 -13.381  -3.515  1.00  0.00    -0.200 F 
ATOM     91  C   UNL     1      13.403 -11.150  -4.285  1.00  0.00     0.200 A 
ATOM     92  F   UNL     1      13.421  -8.908  -5.029  1.00  0.00    -0.200 F 
ATOM     93  F   UNL     1      14.706 -11.270  -4.572  1.00  0.00    -0.200 F 
ENDBRANCH  60  83
ENDBRANCH  34  35
ENDBRANCH  27  29
ENDBRANCH  26  27
ENDBRANCH   1  26
TORSDOF 12
