REMARK SMILES CC(C)CCN(C(=O)N[C@H](C(=O)OCCOC(=O)c1ccc(-c2c3nc(c(-c4c(F)c(F)c(F)c(F)c4F)c4ccc([nH]4)c(-c4c(F)c(F)c(F)c(F)c4F)c4nc(c(-c5c(F)c(F)c(F)c(F)c5F)c5ccc2[nH]5)C=C4)C=C3)cc1)[C@H](C)O)C1CCCC1
REMARK SMILES IDX 13 1 11 2 12 3 10 4 9 5 7 6 8 7 6 9 5 10 4 11 2 12 1 13 3 14
REMARK SMILES IDX 85 15 86 16 89 17 87 18 88 19 82 20 83 21 84 22 14 24 15 25
REMARK SMILES IDX 16 26 17 27 18 28 19 29 20 30 81 31 21 32 80 33 22 34 23 35
REMARK SMILES IDX 24 36 74 37 25 38 79 39 73 40 75 41 26 42 78 43 72 44 71 45
REMARK SMILES IDX 27 47 59 48 39 49 58 50 40 51 43 52 57 53 76 54 41 55 42 56
REMARK SMILES IDX 56 58 77 59 44 60 28 61 29 62 37 63 30 64 31 65 35 66 38 67
REMARK SMILES IDX 32 68 33 69 36 70 34 71 60 72 61 73 69 74 62 75 63 76 67 77
REMARK SMILES IDX 70 78 64 79 65 80 68 81 66 82 45 83 46 84 54 85 47 86 48 87
REMARK SMILES IDX 52 88 55 89 49 90 50 91 53 92 51 93
REMARK H PARENT 9 8 84 23 75 46 43 57
REMARK Flexibility Score: inf
ROOT
ATOM      1  O   UNL     1      -3.518  -4.228  -3.510  1.00  0.00    -0.460 OA
ENDROOT
BRANCH   1   2
ATOM      2  C   UNL     1      -2.993  -3.232  -2.744  1.00  0.00     0.331 C 
ATOM      3  O   UNL     1      -2.052  -2.514  -3.062  1.00  0.00    -0.250 OA
BRANCH   2   4
ATOM      4  C   UNL     1      -3.713  -3.141  -1.396  1.00  0.00     0.222 C 
BRANCH   4   5
ATOM      5  N   UNL     1      -2.677  -3.116  -0.362  1.00  0.00    -0.322 N 
ATOM      6  C   UNL     1      -2.447  -3.631   0.848  1.00  0.00     0.318 C 
ATOM      7  O   UNL     1      -1.400  -3.216   1.353  1.00  0.00    -0.249 OA
ATOM      8  H   UNL     1      -1.924  -2.548  -0.644  1.00  0.00     0.166 HD
BRANCH   6   9
ATOM      9  N   UNL     1      -3.268  -4.528   1.472  1.00  0.00    -0.322 N 
BRANCH   9  10
ATOM     10  C   UNL     1      -4.598  -4.968   1.039  1.00  0.00     0.122 C 
BRANCH  10  11
ATOM     11  C   UNL     1      -4.576  -6.233   0.170  1.00  0.00     0.024 C 
BRANCH  11  12
ATOM     12  C   UNL     1      -4.532  -7.567   0.939  1.00  0.00    -0.016 C 
ATOM     13  C   UNL     1      -5.752  -7.762   1.842  1.00  0.00     0.007 C 
ATOM     14  C   UNL     1      -4.441  -8.734  -0.049  1.00  0.00     0.007 C 
ENDBRANCH  11  12
ENDBRANCH  10  11
ENDBRANCH   9  10
BRANCH   9  15
ATOM     15  C   UNL     1      -2.831  -5.096   2.755  1.00  0.00     0.087 C 
ATOM     16  C   UNL     1      -1.459  -5.773   2.773  1.00  0.00     0.025 C 
ATOM     17  C   UNL     1      -2.759  -4.103   3.912  1.00  0.00     0.025 C 
ATOM     18  C   UNL     1      -1.160  -5.929   4.261  1.00  0.00     0.002 C 
ATOM     19  C   UNL     1      -1.986  -4.863   4.986  1.00  0.00     0.002 C 
ENDBRANCH   9  15
ENDBRANCH   6   9
ENDBRANCH   4   5
BRANCH   4  20
ATOM     20  C   UNL     1      -4.601  -1.876  -1.333  1.00  0.00     0.145 C 
ATOM     21  C   UNL     1      -3.847  -0.574  -1.055  1.00  0.00     0.041 C 
BRANCH  20  22
ATOM     22  O   UNL     1      -5.597  -2.006  -0.309  1.00  0.00    -0.391 OA
ATOM     23  H   UNL     1      -5.164  -2.061   0.557  1.00  0.00     0.211 HD
ENDBRANCH  20  22
ENDBRANCH   4  20
ENDBRANCH   2   4
ENDBRANCH   1   2
BRANCH   1  24
ATOM     24  C   UNL     1      -2.866  -4.503  -4.767  1.00  0.00     0.274 C 
BRANCH  24  25
ATOM     25  C   UNL     1      -3.798  -4.160  -5.924  1.00  0.00     0.275 C 
BRANCH  25  26
ATOM     26  O   UNL     1      -3.986  -2.734  -5.955  1.00  0.00    -0.458 OA
BRANCH  26  27
ATOM     27  C   UNL     1      -5.229  -2.298  -5.664  1.00  0.00     0.338 C 
ATOM     28  O   UNL     1      -6.233  -2.966  -5.472  1.00  0.00    -0.246 OA
BRANCH  27  29
ATOM     29  C   UNL     1      -5.209  -0.835  -5.520  1.00  0.00     0.060 A 
ATOM     30  C   UNL     1      -4.407  -0.265  -4.534  1.00  0.00     0.016 A 
ATOM     31  C   UNL     1      -6.101  -0.044  -6.240  1.00  0.00     0.016 A 
ATOM     32  C   UNL     1      -4.591   1.067  -4.172  1.00  0.00     0.010 A 
ATOM     33  C   UNL     1      -6.194   1.323  -5.953  1.00  0.00     0.010 A 
ATOM     34  C   UNL     1      -5.482   1.887  -4.877  1.00  0.00    -0.014 A 
BRANCH  34  35
ATOM     35  C   UNL     1      -5.737   3.292  -4.440  1.00  0.00     0.031 A 
ATOM     36  C   UNL     1      -7.150   3.744  -4.165  1.00  0.00     0.074 A 
ATOM     37  C   UNL     1      -4.731   4.169  -4.243  1.00  0.00     0.049 A 
ATOM     38  N   UNL     1      -7.628   4.958  -4.055  1.00  0.00    -0.248 NA
ATOM     39  C   UNL     1      -8.165   2.688  -4.014  1.00  0.00     0.031 C 
ATOM     40  C   UNL     1      -3.303   3.877  -4.378  1.00  0.00     0.029 A 
ATOM     41  N   UNL     1      -4.760   5.491  -3.866  1.00  0.00    -0.354 N 
ATOM     42  C   UNL     1      -9.003   4.814  -3.928  1.00  0.00     0.074 A 
ATOM     43  C   UNL     1      -9.284   3.395  -3.937  1.00  0.00     0.031 C 
ATOM     44  C   UNL     1      -2.595   4.961  -4.025  1.00  0.00     0.029 A 
ATOM     45  C   UNL     1      -3.514   6.060  -3.754  1.00  0.00     0.049 A 
ATOM     46  H   UNL     1      -5.595   5.983  -3.693  1.00  0.00     0.167 HD
ATOM     47  C   UNL     1      -9.945   5.783  -3.829  1.00  0.00     0.037 A 
ATOM     48  C   UNL     1      -3.148   7.334  -3.512  1.00  0.00     0.037 A 
ATOM     49  C   UNL     1      -9.655   7.188  -3.709  1.00  0.00     0.049 A 
ATOM     50  C   UNL     1      -4.208   8.392  -3.380  1.00  0.00     0.074 A 
ATOM     51  C   UNL     1     -10.537   8.250  -3.618  1.00  0.00     0.029 A 
ATOM     52  N   UNL     1      -8.378   7.719  -3.616  1.00  0.00    -0.354 N 
ATOM     53  N   UNL     1      -5.511   8.266  -3.415  1.00  0.00    -0.248 NA
ATOM     54  C   UNL     1      -3.742   9.777  -3.215  1.00  0.00     0.031 C 
ATOM     55  C   UNL     1      -9.794   9.428  -3.478  1.00  0.00     0.029 A 
ATOM     56  C   UNL     1      -8.450   9.093  -3.455  1.00  0.00     0.049 A 
ATOM     57  H   UNL     1      -7.544   7.198  -3.657  1.00  0.00     0.167 HD
ATOM     58  C   UNL     1      -6.021   9.550  -3.280  1.00  0.00     0.074 A 
ATOM     59  C   UNL     1      -4.888  10.438  -3.131  1.00  0.00     0.031 C 
ATOM     60  C   UNL     1      -7.312   9.958  -3.296  1.00  0.00     0.037 A 
BRANCH  47  61
ATOM     61  C   UNL     1     -11.383   5.368  -3.897  1.00  0.00     0.064 A 
ATOM     62  C   UNL     1     -12.042   4.768  -2.816  1.00  0.00     0.173 A 
ATOM     63  C   UNL     1     -12.127   5.625  -5.061  1.00  0.00     0.173 A 
ATOM     64  F   UNL     1     -11.371   4.487  -1.690  1.00  0.00    -0.203 F 
ATOM     65  C   UNL     1     -13.390   4.427  -2.902  1.00  0.00     0.198 A 
ATOM     66  C   UNL     1     -13.479   5.306  -5.135  1.00  0.00     0.198 A 
ATOM     67  F   UNL     1     -11.542   6.202  -6.122  1.00  0.00    -0.203 F 
ATOM     68  F   UNL     1     -13.994   3.824  -1.869  1.00  0.00    -0.200 F 
ATOM     69  C   UNL     1     -14.108   4.703  -4.057  1.00  0.00     0.200 A 
ATOM     70  F   UNL     1     -14.172   5.583  -6.247  1.00  0.00    -0.200 F 
ATOM     71  F   UNL     1     -15.408   4.384  -4.133  1.00  0.00    -0.200 F 
ENDBRANCH  47  61
BRANCH  48  72
ATOM     72  C   UNL     1      -1.708   7.693  -3.439  1.00  0.00     0.064 A 
ATOM     73  C   UNL     1      -1.131   8.104  -2.229  1.00  0.00     0.173 A 
ATOM     74  C   UNL     1      -0.883   7.644  -4.572  1.00  0.00     0.173 A 
ATOM     75  F   UNL     1      -1.886   8.198  -1.125  1.00  0.00    -0.203 F 
ATOM     76  C   UNL     1       0.215   8.459  -2.159  1.00  0.00     0.198 A 
ATOM     77  C   UNL     1       0.469   7.968  -4.494  1.00  0.00     0.198 A 
ATOM     78  F   UNL     1      -1.388   7.264  -5.755  1.00  0.00    -0.203 F 
ATOM     79  F   UNL     1       0.732   8.890  -1.000  1.00  0.00    -0.200 F 
ATOM     80  C   UNL     1       1.015   8.383  -3.289  1.00  0.00     0.200 A 
ATOM     81  F   UNL     1       1.241   7.881  -5.585  1.00  0.00    -0.200 F 
ATOM     82  F   UNL     1       2.311   8.717  -3.219  1.00  0.00    -0.200 F 
ENDBRANCH  48  72
BRANCH  60  83
ATOM     83  C   UNL     1      -7.566  11.424  -3.122  1.00  0.00     0.064 A 
ATOM     84  C   UNL     1      -7.352  12.330  -4.170  1.00  0.00     0.173 A 
ATOM     85  C   UNL     1      -8.059  11.921  -1.907  1.00  0.00     0.173 A 
ATOM     86  F   UNL     1      -6.867  11.901  -5.345  1.00  0.00    -0.203 F 
ATOM     87  C   UNL     1      -7.603  13.689  -4.000  1.00  0.00     0.198 A 
ATOM     88  C   UNL     1      -8.327  13.277  -1.747  1.00  0.00     0.198 A 
ATOM     89  F   UNL     1      -8.282  11.090  -0.878  1.00  0.00    -0.203 F 
ATOM     90  F   UNL     1      -7.356  14.544  -5.001  1.00  0.00    -0.200 F 
ATOM     91  C   UNL     1      -8.095  14.160  -2.791  1.00  0.00     0.200 A 
ATOM     92  F   UNL     1      -8.808  13.730  -0.581  1.00  0.00    -0.200 F 
ATOM     93  F   UNL     1      -8.337  15.468  -2.630  1.00  0.00    -0.200 F 
ENDBRANCH  60  83
ENDBRANCH  34  35
ENDBRANCH  27  29
ENDBRANCH  26  27
ENDBRANCH  25  26
ENDBRANCH  24  25
ENDBRANCH   1  24
TORSDOF 19
