REMARK SMILES O=C(OCCOC(=O)c1c(S(=O)(=O)N2CCO[C@@H](CCO)C2)sc2c1CC[NH2+]C2)c1ccc(-c2c3nc(c(-c4c(F)c(F)c(F)c(F)c4F)c4ccc([nH]4)c(-c4c(F)c(F)c(F)c(F)c4F)c4nc(c(-c5c(F)c(F)c(F)c(F)c5F)c5ccc2[nH]5)C=C4)C=C3)cc1
REMARK SMILES IDX 6 1 5 2 4 3 3 4 2 5 1 6 30 7 31 8 92 9 32 10 91 11 33 12
REMARK SMILES IDX 34 13 35 14 85 15 36 16 90 17 84 18 86 19 37 20 89 21 83 22
REMARK SMILES IDX 82 23 38 25 70 26 50 27 69 28 51 29 54 30 68 31 87 32 52 33
REMARK SMILES IDX 53 34 67 36 88 37 55 38 39 39 40 40 48 41 41 42 42 43 46 44
REMARK SMILES IDX 49 45 43 46 44 47 47 48 45 49 71 50 72 51 80 52 73 53 74 54
REMARK SMILES IDX 78 55 81 56 75 57 76 58 79 59 77 60 56 61 57 62 65 63 58 64
REMARK SMILES IDX 59 65 63 66 66 67 60 68 61 69 64 70 62 71 7 72 8 73 9 74
REMARK SMILES IDX 10 75 25 76 23 77 24 78 26 79 29 80 27 81 28 82 11 85 12 86
REMARK SMILES IDX 13 87 14 88 15 89 22 90 16 91 18 92 17 93 19 94 20 95 21 96
REMARK H PARENT 86 24 54 35 28 83 28 84 21 97
REMARK Flexibility Score: inf
ROOT
ATOM      1  O   UNL     1       3.810  -1.171  -1.306  1.00  0.00    -0.458 OA
ENDROOT
BRANCH   1   2
ATOM      2  C   UNL     1       4.223  -1.686  -0.029  1.00  0.00     0.275 C 
BRANCH   2   3
ATOM      3  C   UNL     1       4.787  -0.542   0.823  1.00  0.00     0.275 C 
BRANCH   3   4
ATOM      4  O   UNL     1       3.897   0.498   1.274  1.00  0.00    -0.458 OA
BRANCH   4   5
ATOM      5  C   UNL     1       2.663   0.593   0.749  1.00  0.00     0.338 C 
ATOM      6  O   UNL     1       1.761  -0.217   0.858  1.00  0.00    -0.246 OA
BRANCH   5   7
ATOM      7  C   UNL     1       2.529   1.886   0.052  1.00  0.00     0.060 A 
ATOM      8  C   UNL     1       3.603   2.454  -0.641  1.00  0.00     0.016 A 
ATOM      9  C   UNL     1       1.273   2.490   0.020  1.00  0.00     0.016 A 
ATOM     10  C   UNL     1       3.422   3.650  -1.328  1.00  0.00     0.010 A 
ATOM     11  C   UNL     1       1.082   3.650  -0.721  1.00  0.00     0.010 A 
ATOM     12  C   UNL     1       2.161   4.266  -1.362  1.00  0.00    -0.014 A 
BRANCH  12  13
ATOM     13  C   UNL     1       2.012   5.520  -2.116  1.00  0.00     0.031 A 
ATOM     14  C   UNL     1       2.637   5.564  -3.475  1.00  0.00     0.074 A 
ATOM     15  C   UNL     1       1.284   6.585  -1.717  1.00  0.00     0.049 A 
ATOM     16  N   UNL     1       3.668   6.241  -3.867  1.00  0.00    -0.248 NA
ATOM     17  C   UNL     1       2.087   4.689  -4.512  1.00  0.00     0.031 C 
ATOM     18  C   UNL     1       0.380   6.718  -0.572  1.00  0.00     0.029 A 
ATOM     19  N   UNL     1       1.164   7.797  -2.337  1.00  0.00    -0.354 N 
ATOM     20  C   UNL     1       3.807   5.995  -5.236  1.00  0.00     0.074 A 
ATOM     21  C   UNL     1       2.893   4.929  -5.546  1.00  0.00     0.031 C 
ATOM     22  C   UNL     1      -0.349   7.849  -0.699  1.00  0.00     0.029 A 
ATOM     23  C   UNL     1       0.160   8.605  -1.827  1.00  0.00     0.049 A 
ATOM     24  H   UNL     1       1.744   8.073  -3.084  1.00  0.00     0.167 HD
ATOM     25  C   UNL     1       4.525   6.823  -6.048  1.00  0.00     0.037 A 
ATOM     26  C   UNL     1      -0.228   9.818  -2.289  1.00  0.00     0.037 A 
ATOM     27  C   UNL     1       5.396   7.676  -5.283  1.00  0.00     0.049 A 
ATOM     28  C   UNL     1       0.899  10.380  -3.068  1.00  0.00     0.074 A 
ATOM     29  C   UNL     1       6.419   7.456  -4.380  1.00  0.00     0.029 A 
ATOM     30  N   UNL     1       5.034   8.988  -5.108  1.00  0.00    -0.354 N 
ATOM     31  N   UNL     1       2.018  10.785  -2.538  1.00  0.00    -0.248 NA
ATOM     32  C   UNL     1       0.942  10.120  -4.498  1.00  0.00     0.031 C 
ATOM     33  C   UNL     1       6.234   8.451  -3.375  1.00  0.00     0.029 A 
ATOM     34  C   UNL     1       5.162   9.252  -3.770  1.00  0.00     0.049 A 
ATOM     35  H   UNL     1       4.741   9.617  -5.807  1.00  0.00     0.167 HD
ATOM     36  C   UNL     1       2.991  10.403  -3.446  1.00  0.00     0.074 A 
ATOM     37  C   UNL     1       2.265  10.104  -4.677  1.00  0.00     0.031 C 
ATOM     38  C   UNL     1       4.257  10.103  -3.036  1.00  0.00     0.037 A 
BRANCH  25  39
ATOM     39  C   UNL     1       4.214   7.108  -7.500  1.00  0.00     0.064 A 
ATOM     40  C   UNL     1       5.117   7.883  -8.260  1.00  0.00     0.173 A 
ATOM     41  C   UNL     1       2.941   6.923  -8.080  1.00  0.00     0.173 A 
ATOM     42  F   UNL     1       6.355   8.132  -7.806  1.00  0.00    -0.203 F 
ATOM     43  C   UNL     1       4.740   8.503  -9.455  1.00  0.00     0.198 A 
ATOM     44  C   UNL     1       2.586   7.500  -9.300  1.00  0.00     0.198 A 
ATOM     45  F   UNL     1       1.957   6.278  -7.444  1.00  0.00    -0.203 F 
ATOM     46  F   UNL     1       5.590   9.339 -10.068  1.00  0.00    -0.200 F 
ATOM     47  C   UNL     1       3.471   8.319  -9.969  1.00  0.00     0.200 A 
ATOM     48  F   UNL     1       1.346   7.321  -9.777  1.00  0.00    -0.200 F 
ATOM     49  F   UNL     1       3.084   8.966 -11.076  1.00  0.00    -0.200 F 
ENDBRANCH  25  39
BRANCH  26  50
ATOM     50  C   UNL     1      -1.567  10.443  -2.270  1.00  0.00     0.064 A 
ATOM     51  C   UNL     1      -1.727  11.824  -2.467  1.00  0.00     0.173 A 
ATOM     52  C   UNL     1      -2.732   9.656  -2.349  1.00  0.00     0.173 A 
ATOM     53  F   UNL     1      -0.662  12.638  -2.441  1.00  0.00    -0.203 F 
ATOM     54  C   UNL     1      -2.974  12.380  -2.768  1.00  0.00     0.198 A 
ATOM     55  C   UNL     1      -3.977  10.213  -2.644  1.00  0.00     0.198 A 
ATOM     56  F   UNL     1      -2.667   8.321  -2.239  1.00  0.00    -0.203 F 
ATOM     57  F   UNL     1      -3.076  13.692  -3.020  1.00  0.00    -0.200 F 
ATOM     58  C   UNL     1      -4.094  11.572  -2.871  1.00  0.00     0.200 A 
ATOM     59  F   UNL     1      -5.048   9.418  -2.773  1.00  0.00    -0.200 F 
ATOM     60  F   UNL     1      -5.275  12.095  -3.229  1.00  0.00    -0.200 F 
ENDBRANCH  26  50
BRANCH  38  61
ATOM     61  C   UNL     1       4.656  10.467  -1.634  1.00  0.00     0.064 A 
ATOM     62  C   UNL     1       4.022   9.984  -0.476  1.00  0.00     0.173 A 
ATOM     63  C   UNL     1       5.819  11.231  -1.458  1.00  0.00     0.173 A 
ATOM     64  F   UNL     1       2.970   9.159  -0.553  1.00  0.00    -0.203 F 
ATOM     65  C   UNL     1       4.501  10.299   0.795  1.00  0.00     0.198 A 
ATOM     66  C   UNL     1       6.320  11.507  -0.190  1.00  0.00     0.198 A 
ATOM     67  F   UNL     1       6.502  11.672  -2.527  1.00  0.00    -0.203 F 
ATOM     68  F   UNL     1       3.866   9.843   1.885  1.00  0.00    -0.200 F 
ATOM     69  C   UNL     1       5.654  11.054   0.936  1.00  0.00     0.200 A 
ATOM     70  F   UNL     1       7.465  12.192  -0.061  1.00  0.00    -0.200 F 
ATOM     71  F   UNL     1       6.138  11.322   2.157  1.00  0.00    -0.200 F 
ENDBRANCH  38  61
ENDBRANCH  12  13
ENDBRANCH   5   7
ENDBRANCH   4   5
ENDBRANCH   3   4
ENDBRANCH   2   3
ENDBRANCH   1   2
BRANCH   1  72
ATOM     72  C   UNL     1       2.594  -1.552  -1.793  1.00  0.00     0.340 C 
ATOM     73  O   UNL     1       1.832  -2.367  -1.292  1.00  0.00    -0.246 OA
BRANCH  72  74
ATOM     74  C   UNL     1       2.282  -0.756  -2.964  1.00  0.00     0.095 A 
ATOM     75  C   UNL     1       3.118  -0.756  -4.073  1.00  0.00     0.150 A 
ATOM     76  C   UNL     1       1.126   0.060  -3.228  1.00  0.00    -0.007 A 
ATOM     77  S   UNL     1       2.892   0.697  -4.938  1.00  0.00    -0.120 S 
ATOM     78  C   UNL     1       1.284   0.756  -4.410  1.00  0.00     0.064 A 
ATOM     79  C   UNL     1      -0.124   0.247  -2.420  1.00  0.00     0.099 C 
ATOM     80  C   UNL     1       0.209   1.527  -5.093  1.00  0.00     0.308 C 
ATOM     81  C   UNL     1      -1.199   1.077  -3.177  1.00  0.00     0.265 C 
ATOM     82  N   UNL     1      -0.674   2.127  -4.081  1.00  0.00    -0.342 N 
ATOM     83  H   UNL     1      -0.147   2.809  -3.535  1.00  0.00     0.346 HD
ATOM     84  H   UNL     1      -1.455   2.587  -4.549  1.00  0.00     0.346 HD
BRANCH  75  85
ATOM     85  S   UNL     1       4.359  -1.892  -4.635  1.00  0.00     0.253 S 
ATOM     86  O   UNL     1       5.620  -1.253  -4.331  1.00  0.00    -0.206 OA
ATOM     87  O   UNL     1       3.979  -3.138  -4.000  1.00  0.00    -0.206 OA
BRANCH  85  88
ATOM     88  N   UNL     1       4.252  -2.140  -6.305  1.00  0.00    -0.192 NA
ATOM     89  C   UNL     1       4.891  -1.215  -7.266  1.00  0.00     0.131 C 
ATOM     90  C   UNL     1       3.062  -2.821  -6.880  1.00  0.00     0.134 C 
ATOM     91  C   UNL     1       3.882  -0.337  -8.027  1.00  0.00     0.177 C 
ATOM     92  C   UNL     1       2.070  -1.766  -7.389  1.00  0.00     0.135 C 
ATOM     93  O   UNL     1       2.689  -1.012  -8.451  1.00  0.00    -0.375 OA
BRANCH  92  94
ATOM     94  C   UNL     1       0.735  -2.315  -7.904  1.00  0.00     0.061 C 
BRANCH  94  95
ATOM     95  C   UNL     1       0.102  -3.360  -6.995  1.00  0.00     0.159 C 
BRANCH  95  96
ATOM     96  O   UNL     1       0.181  -2.927  -5.645  1.00  0.00    -0.396 OA
ATOM     97  H   UNL     1       1.111  -2.806  -5.397  1.00  0.00     0.210 HD
ENDBRANCH  95  96
ENDBRANCH  94  95
ENDBRANCH  92  94
ENDBRANCH  85  88
ENDBRANCH  75  85
ENDBRANCH  72  74
ENDBRANCH   1  72
TORSDOF 16
