REMARK SMILES O=C(CCC(=O)OCCOC(=O)c1ccc(-c2c3nc(c(-c4c(F)c(F)c(F)c(F)c4F)c4ccc([nH]4)c(-c4c(F)c(F)c(F)c(F)c4F)c4nc(c(-c5c(F)c(F)c(F)c(F)c5F)c5ccc2[nH]5)C=C4)C=C3)cc1)Nc1ccc(C(=O)N2CCOCC2)cc1
REMARK SMILES IDX 8 1 7 2 5 3 6 4 4 5 3 6 2 7 1 8 76 9 77 11 78 12 90 13 79 14
REMARK SMILES IDX 89 15 80 16 81 17 82 18 83 19 84 20 88 21 85 22 87 23 86 24
REMARK SMILES IDX 9 25 10 26 11 27 12 28 13 29 14 30 75 31 15 32 74 33 16 34
REMARK SMILES IDX 17 35 18 36 68 37 19 38 73 39 67 40 69 41 20 42 72 43 66 44
REMARK SMILES IDX 65 45 21 47 53 48 33 49 52 50 34 51 37 52 51 53 70 54 35 55
REMARK SMILES IDX 36 56 50 58 71 59 38 60 22 61 23 62 31 63 24 64 25 65 29 66
REMARK SMILES IDX 32 67 26 68 27 69 30 70 28 71 54 72 55 73 63 74 56 75 57 76
REMARK SMILES IDX 61 77 64 78 58 79 59 80 62 81 60 82 39 83 40 84 48 85 41 86
REMARK SMILES IDX 42 87 46 88 49 89 43 90 44 91 47 92 45 93
REMARK H PARENT 76 10 69 46 37 57
REMARK Flexibility Score: inf
ROOT
ATOM      1  C   UNL     1       5.981   2.205   0.925  1.00  0.00     0.274 C 
ENDROOT
BRANCH   1   2
ATOM      2  O   UNL     1       4.789   1.775   0.224  1.00  0.00    -0.462 OA
BRANCH   2   3
ATOM      3  C   UNL     1       4.784   1.818  -1.134  1.00  0.00     0.306 C 
ATOM      4  O   UNL     1       5.715   2.223  -1.817  1.00  0.00    -0.252 OA
BRANCH   3   5
ATOM      5  C   UNL     1       3.460   1.354  -1.718  1.00  0.00     0.132 C 
BRANCH   5   6
ATOM      6  C   UNL     1       2.959  -0.016  -1.262  1.00  0.00     0.112 C 
BRANCH   6   7
ATOM      7  C   UNL     1       2.045   0.046  -0.051  1.00  0.00     0.224 C 
ATOM      8  O   UNL     1       0.862  -0.270  -0.140  1.00  0.00    -0.275 OA
ATOM      9  N   UNL     1       2.678   0.523   1.075  1.00  0.00    -0.326 N 
ATOM     10  H   UNL     1       3.646   0.684   0.996  1.00  0.00     0.169 HD
BRANCH   9  11
ATOM     11  C   UNL     1       2.104   0.805   2.318  1.00  0.00     0.041 A 
ATOM     12  C   UNL     1       2.733   1.764   3.123  1.00  0.00     0.027 A 
ATOM     13  C   UNL     1       0.931   0.208   2.751  1.00  0.00     0.027 A 
ATOM     14  C   UNL     1       2.159   2.165   4.331  1.00  0.00     0.016 A 
ATOM     15  C   UNL     1       0.361   0.606   3.957  1.00  0.00     0.016 A 
ATOM     16  C   UNL     1       0.963   1.583   4.758  1.00  0.00     0.040 A 
BRANCH  16  17
ATOM     17  C   UNL     1       0.253   2.180   5.925  1.00  0.00     0.254 C 
ATOM     18  O   UNL     1       0.537   3.325   6.267  1.00  0.00    -0.269 OA
ATOM     19  N   UNL     1      -0.831   1.501   6.446  1.00  0.00    -0.334 N 
ATOM     20  C   UNL     1      -0.855   0.098   6.867  1.00  0.00     0.148 C 
ATOM     21  C   UNL     1      -2.061   2.234   6.701  1.00  0.00     0.148 C 
ATOM     22  C   UNL     1      -2.119  -0.619   6.361  1.00  0.00     0.181 C 
ATOM     23  C   UNL     1      -3.208   1.469   6.037  1.00  0.00     0.181 C 
ATOM     24  O   UNL     1      -3.313   0.147   6.597  1.00  0.00    -0.378 OA
ENDBRANCH  16  17
ENDBRANCH   9  11
ENDBRANCH   6   7
ENDBRANCH   5   6
ENDBRANCH   3   5
ENDBRANCH   2   3
ENDBRANCH   1   2
BRANCH   1  25
ATOM     25  C   UNL     1       6.715   1.003   1.524  1.00  0.00     0.275 C 
BRANCH  25  26
ATOM     26  O   UNL     1       7.404   0.285   0.487  1.00  0.00    -0.458 OA
BRANCH  26  27
ATOM     27  C   UNL     1       6.690  -0.708  -0.093  1.00  0.00     0.338 C 
ATOM     28  O   UNL     1       5.604  -1.128   0.248  1.00  0.00    -0.246 OA
BRANCH  27  29
ATOM     29  C   UNL     1       7.366  -1.084  -1.344  1.00  0.00     0.060 A 
ATOM     30  C   UNL     1       6.728  -0.817  -2.560  1.00  0.00     0.016 A 
ATOM     31  C   UNL     1       8.623  -1.683  -1.313  1.00  0.00     0.016 A 
ATOM     32  C   UNL     1       7.360  -1.128  -3.759  1.00  0.00     0.010 A 
ATOM     33  C   UNL     1       9.257  -1.992  -2.516  1.00  0.00     0.010 A 
ATOM     34  C   UNL     1       8.632  -1.711  -3.744  1.00  0.00    -0.014 A 
BRANCH  34  35
ATOM     35  C   UNL     1       9.313  -2.048  -5.013  1.00  0.00     0.031 A 
ATOM     36  C   UNL     1       9.467  -3.483  -5.412  1.00  0.00     0.074 A 
ATOM     37  C   UNL     1       9.818  -1.064  -5.779  1.00  0.00     0.049 A 
ATOM     38  N   UNL     1      10.143  -4.000  -6.405  1.00  0.00    -0.248 NA
ATOM     39  C   UNL     1       8.774  -4.472  -4.572  1.00  0.00     0.031 C 
ATOM     40  C   UNL     1       9.698   0.367  -5.500  1.00  0.00     0.029 A 
ATOM     41  N   UNL     1      10.551  -1.120  -6.937  1.00  0.00    -0.354 N 
ATOM     42  C   UNL     1       9.974  -5.374  -6.299  1.00  0.00     0.074 A 
ATOM     43  C   UNL     1       9.154  -5.612  -5.130  1.00  0.00     0.031 C 
ATOM     44  C   UNL     1      10.346   1.054  -6.454  1.00  0.00     0.029 A 
ATOM     45  C   UNL     1      10.971   0.111  -7.377  1.00  0.00     0.049 A 
ATOM     46  H   UNL     1      10.756  -1.961  -7.407  1.00  0.00     0.167 HD
ATOM     47  C   UNL     1      10.461  -6.343  -7.110  1.00  0.00     0.037 A 
ATOM     48  C   UNL     1      11.801   0.436  -8.386  1.00  0.00     0.037 A 
ATOM     49  C   UNL     1      11.275  -6.086  -8.270  1.00  0.00     0.049 A 
ATOM     50  C   UNL     1      12.386  -0.665  -9.231  1.00  0.00     0.074 A 
ATOM     51  C   UNL     1      11.796  -6.993  -9.176  1.00  0.00     0.029 A 
ATOM     52  N   UNL     1      11.694  -4.827  -8.678  1.00  0.00    -0.354 N 
ATOM     53  N   UNL     1      12.205  -1.961  -9.143  1.00  0.00    -0.248 NA
ATOM     54  C   UNL     1      13.292  -0.259 -10.313  1.00  0.00     0.031 C 
ATOM     55  C   UNL     1      12.583  -6.290 -10.093  1.00  0.00     0.029 A 
ATOM     56  C   UNL     1      12.498  -4.937  -9.802  1.00  0.00     0.049 A 
ATOM     57  H   UNL     1      11.456  -3.981  -8.235  1.00  0.00     0.167 HD
ATOM     58  C   UNL     1      12.952  -2.523 -10.169  1.00  0.00     0.074 A 
ATOM     59  C   UNL     1      13.575  -1.424 -10.878  1.00  0.00     0.031 C 
ATOM     60  C   UNL     1      13.108  -3.830 -10.496  1.00  0.00     0.037 A 
BRANCH  47  61
ATOM     61  C   UNL     1      10.159  -7.769  -6.747  1.00  0.00     0.064 A 
ATOM     62  C   UNL     1       8.865  -8.301  -6.840  1.00  0.00     0.173 A 
ATOM     63  C   UNL     1      11.189  -8.623  -6.322  1.00  0.00     0.173 A 
ATOM     64  F   UNL     1       7.841  -7.526  -7.229  1.00  0.00    -0.203 F 
ATOM     65  C   UNL     1       8.607  -9.625  -6.491  1.00  0.00     0.198 A 
ATOM     66  C   UNL     1      10.934  -9.954  -6.006  1.00  0.00     0.198 A 
ATOM     67  F   UNL     1      12.447  -8.167  -6.218  1.00  0.00    -0.203 F 
ATOM     68  F   UNL     1       7.353 -10.095  -6.535  1.00  0.00    -0.200 F 
ATOM     69  C   UNL     1       9.642 -10.452  -6.081  1.00  0.00     0.200 A 
ATOM     70  F   UNL     1      11.938 -10.755  -5.623  1.00  0.00    -0.200 F 
ATOM     71  F   UNL     1       9.393 -11.726  -5.750  1.00  0.00    -0.200 F 
ENDBRANCH  47  61
BRANCH  48  72
ATOM     72  C   UNL     1      12.147   1.860  -8.633  1.00  0.00     0.064 A 
ATOM     73  C   UNL     1      11.726   2.517  -9.796  1.00  0.00     0.173 A 
ATOM     74  C   UNL     1      12.909   2.594  -7.710  1.00  0.00     0.173 A 
ATOM     75  F   UNL     1      11.015   1.853 -10.720  1.00  0.00    -0.203 F 
ATOM     76  C   UNL     1      12.068   3.847 -10.037  1.00  0.00     0.198 A 
ATOM     77  C   UNL     1      13.222   3.933  -7.936  1.00  0.00     0.198 A 
ATOM     78  F   UNL     1      13.338   2.014  -6.579  1.00  0.00    -0.203 F 
ATOM     79  F   UNL     1      11.693   4.436 -11.180  1.00  0.00    -0.200 F 
ATOM     80  C   UNL     1      12.809   4.556  -9.103  1.00  0.00     0.200 A 
ATOM     81  F   UNL     1      13.925   4.617  -7.023  1.00  0.00    -0.200 F 
ATOM     82  F   UNL     1      13.132   5.836  -9.332  1.00  0.00    -0.200 F 
ENDBRANCH  48  72
BRANCH  60  83
ATOM     83  C   UNL     1      13.960  -4.144 -11.693  1.00  0.00     0.064 A 
ATOM     84  C   UNL     1      15.352  -3.981 -11.672  1.00  0.00     0.173 A 
ATOM     85  C   UNL     1      13.377  -4.660 -12.861  1.00  0.00     0.173 A 
ATOM     86  F   UNL     1      15.957  -3.476 -10.587  1.00  0.00    -0.203 F 
ATOM     87  C   UNL     1      16.127  -4.302 -12.784  1.00  0.00     0.198 A 
ATOM     88  C   UNL     1      14.158  -5.013 -13.958  1.00  0.00     0.198 A 
ATOM     89  F   UNL     1      12.049  -4.842 -12.932  1.00  0.00    -0.203 F 
ATOM     90  F   UNL     1      17.451  -4.093 -12.759  1.00  0.00    -0.200 F 
ATOM     91  C   UNL     1      15.531  -4.826 -13.921  1.00  0.00     0.200 A 
ATOM     92  F   UNL     1      13.581  -5.535 -15.049  1.00  0.00    -0.200 F 
ATOM     93  F   UNL     1      16.280  -5.146 -14.986  1.00  0.00    -0.200 F 
ENDBRANCH  60  83
ENDBRANCH  34  35
ENDBRANCH  27  29
ENDBRANCH  26  27
ENDBRANCH  25  26
ENDBRANCH   1  25
TORSDOF 15
