REMARK SMILES N#Cc1cc([N+](=O)[O-])cnc1Oc1csc(C(=O)OCCOC(=O)c2ccc(-c3c4nc(c(-c5c(F)c(F)c(F)c(F)c5F)c5ccc([nH]5)c(-c5c(F)c(F)c(F)c(F)c5F)c5nc(c(-c6c(F)c(F)c(F)c(F)c6F)c6ccc3[nH]6)C=C5)C=C4)cc2)c1
REMARK SMILES IDX 20 1 19 2 17 3 18 4 16 5 13 6 14 7 88 8 15 9 12 10 11 11
REMARK SMILES IDX 3 12 4 13 5 14 10 15 9 16 2 17 1 18 6 19 7 20 8 21 21 22
REMARK SMILES IDX 22 23 23 24 24 25 25 26 26 27 87 28 27 29 86 30 28 31 29 32
REMARK SMILES IDX 30 33 80 34 31 35 85 36 79 37 81 38 32 39 84 40 78 41 77 42
REMARK SMILES IDX 33 44 65 45 45 46 64 47 46 48 49 49 63 50 82 51 47 52 48 53
REMARK SMILES IDX 62 55 83 56 50 57 34 58 35 59 43 60 36 61 37 62 41 63 44 64
REMARK SMILES IDX 38 65 39 66 42 67 40 68 66 69 67 70 75 71 68 72 69 73 73 74
REMARK SMILES IDX 76 75 70 76 71 77 74 78 72 79 51 80 52 81 60 82 53 83 54 84
REMARK SMILES IDX 58 85 61 86 55 87 56 88 59 89 57 90
REMARK H PARENT 81 43 49 54
REMARK Flexibility Score: inf
ROOT
ATOM      1  C   UNL     1       5.672  -5.065  -2.996  1.00  0.00     0.275 C 
ENDROOT
BRANCH   1   2
ATOM      2  O   UNL     1       4.547  -4.547  -2.260  1.00  0.00    -0.458 OA
BRANCH   2   3
ATOM      3  C   UNL     1       4.660  -4.519  -0.897  1.00  0.00     0.348 C 
ATOM      4  O   UNL     1       5.631  -4.940  -0.280  1.00  0.00    -0.245 OA
BRANCH   3   5
ATOM      5  C   UNL     1       3.493  -3.874  -0.318  1.00  0.00     0.116 A 
ATOM      6  C   UNL     1       1.483  -2.718  -0.056  1.00  0.00     0.141 A 
ATOM      7  C   UNL     1       1.954  -2.695   1.236  1.00  0.00     0.112 A 
ATOM      8  C   UNL     1       2.341  -3.431  -0.937  1.00  0.00     0.074 A 
ATOM      9  S   UNL     1       3.433  -3.554   1.372  1.00  0.00    -0.133 S 
BRANCH   6  10
ATOM     10  O   UNL     1       0.304  -2.215  -0.474  1.00  0.00    -0.437 OA
BRANCH  10  11
ATOM     11  C   UNL     1      -0.198  -0.984  -0.139  1.00  0.00     0.237 A 
ATOM     12  C   UNL     1       0.530   0.206  -0.118  1.00  0.00     0.121 A 
ATOM     13  C   UNL     1      -0.177   1.416  -0.004  1.00  0.00     0.112 A 
ATOM     14  C   UNL     1      -1.572   1.392   0.071  1.00  0.00     0.289 A 
ATOM     15  N   UNL     1      -1.556  -1.006  -0.040  1.00  0.00    -0.213 NA
ATOM     16  C   UNL     1      -2.218   0.171   0.064  1.00  0.00     0.200 A 
BRANCH  12  17
ATOM     17  C   UNL     1       1.954   0.269  -0.249  1.00  0.00     0.105 C 
ATOM     18  N   UNL     1       3.105   0.375  -0.314  1.00  0.00    -0.192 NA
ENDBRANCH  12  17
BRANCH  14  19
ATOM     19  N   UNL     1      -2.348   2.623   0.118  1.00  0.00     0.064 N 
ATOM     20  O   UNL     1      -3.582   2.526   0.121  1.00  0.00    -0.258 OA
ATOM     21  O   UNL     1      -1.722   3.690   0.142  1.00  0.00    -0.258 OA
ENDBRANCH  14  19
ENDBRANCH  10  11
ENDBRANCH   6  10
ENDBRANCH   3   5
ENDBRANCH   2   3
ENDBRANCH   1   2
BRANCH   1  22
ATOM     22  C   UNL     1       6.554  -3.949  -3.569  1.00  0.00     0.275 C 
BRANCH  22  23
ATOM     23  O   UNL     1       7.252  -3.226  -2.536  1.00  0.00    -0.458 OA
BRANCH  23  24
ATOM     24  C   UNL     1       6.596  -2.131  -2.087  1.00  0.00     0.338 C 
ATOM     25  O   UNL     1       5.524  -1.708  -2.487  1.00  0.00    -0.246 OA
BRANCH  24  26
ATOM     26  C   UNL     1       7.278  -1.560  -0.914  1.00  0.00     0.060 A 
ATOM     27  C   UNL     1       6.546  -1.503   0.271  1.00  0.00     0.016 A 
ATOM     28  C   UNL     1       8.537  -0.962  -0.991  1.00  0.00     0.016 A 
ATOM     29  C   UNL     1       7.036  -0.812   1.372  1.00  0.00     0.010 A 
ATOM     30  C   UNL     1       9.040  -0.278   0.126  1.00  0.00     0.010 A 
ATOM     31  C   UNL     1       8.277  -0.168   1.305  1.00  0.00    -0.014 A 
BRANCH  31  32
ATOM     32  C   UNL     1       8.689   0.705   2.439  1.00  0.00     0.031 A 
ATOM     33  C   UNL     1       8.745   2.198   2.253  1.00  0.00     0.074 A 
ATOM     34  C   UNL     1       8.921   0.174   3.655  1.00  0.00     0.049 A 
ATOM     35  N   UNL     1       9.097   3.131   3.105  1.00  0.00    -0.248 NA
ATOM     36  C   UNL     1       8.356   2.712   0.931  1.00  0.00     0.031 C 
ATOM     37  C   UNL     1       8.851  -1.250   3.980  1.00  0.00     0.029 A 
ATOM     38  N   UNL     1       9.249   0.773   4.847  1.00  0.00    -0.354 N 
ATOM     39  C   UNL     1       8.985   4.334   2.418  1.00  0.00     0.074 A 
ATOM     40  C   UNL     1       8.578   4.011   1.068  1.00  0.00     0.031 C 
ATOM     41  C   UNL     1       9.114  -1.415   5.286  1.00  0.00     0.029 A 
ATOM     42  C   UNL     1       9.425  -0.117   5.878  1.00  0.00     0.049 A 
ATOM     43  H   UNL     1       9.348   1.747   4.952  1.00  0.00     0.167 HD
ATOM     44  C   UNL     1       9.184   5.595   2.877  1.00  0.00     0.037 A 
ATOM     45  C   UNL     1       9.820   0.086   7.150  1.00  0.00     0.037 A 
ATOM     46  C   UNL     1       9.576   5.915   4.226  1.00  0.00     0.049 A 
ATOM     47  C   UNL     1      10.097   1.492   7.615  1.00  0.00     0.074 A 
ATOM     48  C   UNL     1       9.819   7.159   4.784  1.00  0.00     0.029 A 
ATOM     49  N   UNL     1       9.777   4.982   5.234  1.00  0.00    -0.354 N 
ATOM     50  N   UNL     1      10.006   2.621   6.954  1.00  0.00    -0.248 NA
ATOM     51  C   UNL     1      10.523   1.652   9.012  1.00  0.00     0.031 C 
ATOM     52  C   UNL     1      10.217   6.975   6.112  1.00  0.00     0.029 A 
ATOM     53  C   UNL     1      10.152   5.623   6.406  1.00  0.00     0.049 A 
ATOM     54  H   UNL     1       9.669   4.009   5.132  1.00  0.00     0.167 HD
ATOM     55  C   UNL     1      10.329   3.623   7.859  1.00  0.00     0.074 A 
ATOM     56  C   UNL     1      10.593   2.970   9.124  1.00  0.00     0.031 C 
ATOM     57  C   UNL     1      10.403   4.963   7.663  1.00  0.00     0.037 A 
BRANCH  44  58
ATOM     58  C   UNL     1       9.000   6.725   1.902  1.00  0.00     0.064 A 
ATOM     59  C   UNL     1       7.736   7.071   1.399  1.00  0.00     0.173 A 
ATOM     60  C   UNL     1      10.099   7.494   1.488  1.00  0.00     0.173 A 
ATOM     61  F   UNL     1       6.652   6.364   1.753  1.00  0.00    -0.203 F 
ATOM     62  C   UNL     1       7.584   8.121   0.496  1.00  0.00     0.198 A 
ATOM     63  C   UNL     1       9.939   8.566   0.613  1.00  0.00     0.198 A 
ATOM     64  F   UNL     1      11.330   7.214   1.941  1.00  0.00    -0.203 F 
ATOM     65  F   UNL     1       6.375   8.397  -0.012  1.00  0.00    -0.200 F 
ATOM     66  C   UNL     1       8.684   8.872   0.110  1.00  0.00     0.200 A 
ATOM     67  F   UNL     1      11.001   9.301   0.255  1.00  0.00    -0.200 F 
ATOM     68  F   UNL     1       8.535   9.888  -0.752  1.00  0.00    -0.200 F 
ENDBRANCH  44  58
BRANCH  45  69
ATOM     69  C   UNL     1      10.012  -1.070   8.068  1.00  0.00     0.064 A 
ATOM     70  C   UNL     1       9.222  -1.234   9.214  1.00  0.00     0.173 A 
ATOM     71  C   UNL     1      11.023  -2.015   7.836  1.00  0.00     0.173 A 
ATOM     72  F   UNL     1       8.257  -0.345   9.496  1.00  0.00    -0.203 F 
ATOM     73  C   UNL     1       9.459  -2.275  10.110  1.00  0.00     0.198 A 
ATOM     74  C   UNL     1      11.232  -3.079   8.711  1.00  0.00     0.198 A 
ATOM     75  F   UNL     1      11.809  -1.908   6.755  1.00  0.00    -0.203 F 
ATOM     76  F   UNL     1       8.735  -2.366  11.235  1.00  0.00    -0.200 F 
ATOM     77  C   UNL     1      10.460  -3.200   9.855  1.00  0.00     0.200 A 
ATOM     78  F   UNL     1      12.191  -3.978   8.450  1.00  0.00    -0.200 F 
ATOM     79  F   UNL     1      10.689  -4.199  10.718  1.00  0.00    -0.200 F 
ENDBRANCH  45  69
BRANCH  57  80
ATOM     80  C   UNL     1      10.723   5.816   8.861  1.00  0.00     0.064 A 
ATOM     81  C   UNL     1      11.975   5.775   9.494  1.00  0.00     0.173 A 
ATOM     82  C   UNL     1       9.753   6.683   9.389  1.00  0.00     0.173 A 
ATOM     83  F   UNL     1      12.936   4.957   9.038  1.00  0.00    -0.203 F 
ATOM     84  C   UNL     1      12.224   6.526  10.640  1.00  0.00     0.198 A 
ATOM     85  C   UNL     1      10.020   7.464  10.510  1.00  0.00     0.198 A 
ATOM     86  F   UNL     1       8.542   6.773   8.819  1.00  0.00    -0.203 F 
ATOM     87  F   UNL     1      13.399   6.407  11.274  1.00  0.00    -0.200 F 
ATOM     88  C   UNL     1      11.249   7.372  11.145  1.00  0.00     0.200 A 
ATOM     89  F   UNL     1       9.083   8.297  10.984  1.00  0.00    -0.200 F 
ATOM     90  F   UNL     1      11.489   8.090  12.251  1.00  0.00    -0.200 F 
ENDBRANCH  57  80
ENDBRANCH  31  32
ENDBRANCH  24  26
ENDBRANCH  23  24
ENDBRANCH  22  23
ENDBRANCH   1  22
TORSDOF 15
