REMARK SMILES C[N@@H+]1CCN(C(=O)c2cnn3c2CCCC3)C[C@@H]1C(=O)OCCOC(=O)c1ccc(-c2c3nc(c(-c4c(F)c(F)c(F)c(F)c4F)c4ccc([nH]4)c(-c4c(F)c(F)c(F)c(F)c4F)c4nc(c(-c5c(F)c(F)c(F)c(F)c5F)c5ccc2[nH]5)C=C4)C=C3)cc1
REMARK SMILES IDX 22 1 21 2 19 3 20 4 18 5 1 6 2 7 3 8 4 10 17 11 5 12 6 13
REMARK SMILES IDX 7 14 8 15 9 16 12 17 10 18 11 19 13 20 16 21 14 22 15 23
REMARK SMILES IDX 23 24 24 25 25 26 26 27 27 28 28 29 89 30 29 31 88 32 30 33
REMARK SMILES IDX 31 34 32 35 82 36 33 37 87 38 81 39 83 40 34 41 86 42 80 43
REMARK SMILES IDX 79 44 35 46 67 47 47 48 66 49 48 50 51 51 65 52 84 53 49 54
REMARK SMILES IDX 50 55 64 57 85 58 52 59 36 60 37 61 45 62 38 63 39 64 43 65
REMARK SMILES IDX 46 66 40 67 41 68 44 69 42 70 68 71 69 72 77 73 70 74 71 75
REMARK SMILES IDX 75 76 78 77 72 78 73 79 76 80 74 81 53 82 54 83 62 84 55 85
REMARK SMILES IDX 56 86 60 87 63 88 57 89 58 90 61 91 59 92
REMARK H PARENT 2 9 83 45 51 56
REMARK Flexibility Score: inf
ROOT
ATOM      1  C   UNL     1       1.613  -2.280   3.581  1.00  0.00     0.274 C 
ENDROOT
BRANCH   1   2
ATOM      2  O   UNL     1       1.663  -1.989   2.163  1.00  0.00    -0.458 OA
BRANCH   2   3
ATOM      3  C   UNL     1       0.490  -1.578   1.593  1.00  0.00     0.366 C 
ATOM      4  O   UNL     1      -0.509  -1.301   2.248  1.00  0.00    -0.245 OA
BRANCH   3   5
ATOM      5  C   UNL     1       0.519  -1.645   0.054  1.00  0.00     0.314 C 
ATOM      6  C   UNL     1       2.618  -0.370  -0.257  1.00  0.00     0.333 C 
ATOM      7  N   UNL     1       1.228  -0.546  -0.660  1.00  0.00    -0.323 N 
ATOM      8  C   UNL     1       0.503   0.733  -0.632  1.00  0.00     0.284 C 
ATOM      9  H   UNL     1       1.247  -0.863  -1.630  1.00  0.00     0.348 HD
ATOM     10  C   UNL     1      -0.987   0.627  -1.021  1.00  0.00     0.181 C 
ATOM     11  C   UNL     1      -0.950  -1.760  -0.443  1.00  0.00     0.197 C 
ATOM     12  N   UNL     1      -1.671  -0.481  -0.353  1.00  0.00    -0.326 N 
BRANCH  12  13
ATOM     13  C   UNL     1      -2.957  -0.268   0.161  1.00  0.00     0.257 C 
ATOM     14  O   UNL     1      -3.480   0.838   0.124  1.00  0.00    -0.269 OA
BRANCH  13  15
ATOM     15  C   UNL     1      -3.715  -1.408   0.668  1.00  0.00     0.081 A 
ATOM     16  C   UNL     1      -3.417  -2.360   1.671  1.00  0.00     0.149 A 
ATOM     17  C   UNL     1      -5.016  -1.728   0.306  1.00  0.00     0.051 A 
ATOM     18  N   UNL     1      -4.377  -3.277   1.834  1.00  0.00    -0.180 NA
ATOM     19  N   UNL     1      -5.336  -2.865   0.995  1.00  0.00    -0.269 N 
ATOM     20  C   UNL     1      -5.999  -1.069  -0.598  1.00  0.00     0.057 C 
ATOM     21  C   UNL     1      -6.538  -3.653   0.803  1.00  0.00     0.144 C 
ATOM     22  C   UNL     1      -7.077  -2.049  -1.068  1.00  0.00     0.008 C 
ATOM     23  C   UNL     1      -7.640  -2.857   0.105  1.00  0.00     0.024 C 
ENDBRANCH  13  15
ENDBRANCH  12  13
ENDBRANCH   3   5
ENDBRANCH   2   3
ENDBRANCH   1   2
BRANCH   1  24
ATOM     24  C   UNL     1       1.907  -1.092   4.502  1.00  0.00     0.275 C 
BRANCH  24  25
ATOM     25  O   UNL     1       0.794  -0.195   4.592  1.00  0.00    -0.458 OA
BRANCH  25  26
ATOM     26  C   UNL     1       0.810   0.736   3.623  1.00  0.00     0.338 C 
ATOM     27  O   UNL     1       1.662   0.876   2.750  1.00  0.00    -0.246 OA
BRANCH  26  28
ATOM     28  C   UNL     1      -0.287   1.690   3.755  1.00  0.00     0.060 A 
ATOM     29  C   UNL     1      -0.812   2.168   2.553  1.00  0.00     0.016 A 
ATOM     30  C   UNL     1      -0.323   2.443   4.925  1.00  0.00     0.016 A 
ATOM     31  C   UNL     1      -1.045   3.516   2.420  1.00  0.00     0.010 A 
ATOM     32  C   UNL     1      -0.648   3.778   4.814  1.00  0.00     0.010 A 
ATOM     33  C   UNL     1      -0.853   4.324   3.537  1.00  0.00    -0.014 A 
BRANCH  33  34
ATOM     34  C   UNL     1      -0.843   5.771   3.344  1.00  0.00     0.031 A 
ATOM     35  C   UNL     1      -2.143   6.385   2.937  1.00  0.00     0.074 A 
ATOM     36  C   UNL     1       0.257   6.462   3.719  1.00  0.00     0.049 A 
ATOM     37  N   UNL     1      -2.371   7.421   2.190  1.00  0.00    -0.248 NA
ATOM     38  C   UNL     1      -3.371   5.711   3.403  1.00  0.00     0.031 C 
ATOM     39  C   UNL     1       1.478   5.931   4.345  1.00  0.00     0.029 A 
ATOM     40  N   UNL     1       0.439   7.806   3.809  1.00  0.00    -0.354 N 
ATOM     41  C   UNL     1      -3.755   7.610   2.209  1.00  0.00     0.074 A 
ATOM     42  C   UNL     1      -4.325   6.480   2.888  1.00  0.00     0.031 C 
ATOM     43  C   UNL     1       2.091   6.924   5.022  1.00  0.00     0.029 A 
ATOM     44  C   UNL     1       1.369   8.159   4.778  1.00  0.00     0.049 A 
ATOM     45  H   UNL     1      -0.037   8.459   3.248  1.00  0.00     0.167 HD
ATOM     46  C   UNL     1      -4.351   8.767   1.815  1.00  0.00     0.037 A 
ATOM     47  C   UNL     1       1.421   9.335   5.449  1.00  0.00     0.037 A 
ATOM     48  C   UNL     1      -3.547   9.496   0.879  1.00  0.00     0.049 A 
ATOM     49  C   UNL     1       0.605  10.322   4.697  1.00  0.00     0.074 A 
ATOM     50  C   UNL     1      -3.076   9.223  -0.391  1.00  0.00     0.029 A 
ATOM     51  N   UNL     1      -2.839  10.591   1.304  1.00  0.00    -0.354 N 
ATOM     52  N   UNL     1       0.914  10.790   3.519  1.00  0.00    -0.248 NA
ATOM     53  C   UNL     1      -0.798  10.448   5.071  1.00  0.00     0.031 C 
ATOM     54  C   UNL     1      -1.791   9.832  -0.448  1.00  0.00     0.029 A 
ATOM     55  C   UNL     1      -1.578  10.457   0.780  1.00  0.00     0.049 A 
ATOM     56  H   UNL     1      -3.170  11.326   1.869  1.00  0.00     0.167 HD
ATOM     57  C   UNL     1      -0.297  10.901   2.851  1.00  0.00     0.074 A 
ATOM     58  C   UNL     1      -1.321  10.754   3.882  1.00  0.00     0.031 C 
ATOM     59  C   UNL     1      -0.376  10.814   1.490  1.00  0.00     0.037 A 
BRANCH  46  60
ATOM     60  C   UNL     1      -5.563   9.351   2.494  1.00  0.00     0.064 A 
ATOM     61  C   UNL     1      -6.228  10.450   1.918  1.00  0.00     0.173 A 
ATOM     62  C   UNL     1      -5.922   9.051   3.827  1.00  0.00     0.173 A 
ATOM     63  F   UNL     1      -5.948  10.840   0.666  1.00  0.00    -0.203 F 
ATOM     64  C   UNL     1      -7.136  11.226   2.645  1.00  0.00     0.198 A 
ATOM     65  C   UNL     1      -6.867   9.794   4.531  1.00  0.00     0.198 A 
ATOM     66  F   UNL     1      -5.299   8.098   4.534  1.00  0.00    -0.203 F 
ATOM     67  F   UNL     1      -7.656  12.330   2.094  1.00  0.00    -0.200 F 
ATOM     68  C   UNL     1      -7.451  10.900   3.952  1.00  0.00     0.200 A 
ATOM     69  F   UNL     1      -7.146   9.472   5.803  1.00  0.00    -0.200 F 
ATOM     70  F   UNL     1      -8.275  11.676   4.668  1.00  0.00    -0.200 F 
ENDBRANCH  46  60
BRANCH  47  71
ATOM     71  C   UNL     1       1.799   9.506   6.875  1.00  0.00     0.064 A 
ATOM     72  C   UNL     1       2.209  10.748   7.378  1.00  0.00     0.173 A 
ATOM     73  C   UNL     1       1.567   8.492   7.830  1.00  0.00     0.173 A 
ATOM     74  F   UNL     1       2.384  11.785   6.547  1.00  0.00    -0.203 F 
ATOM     75  C   UNL     1       2.397  10.957   8.750  1.00  0.00     0.198 A 
ATOM     76  C   UNL     1       1.774   8.694   9.194  1.00  0.00     0.198 A 
ATOM     77  F   UNL     1       1.054   7.306   7.470  1.00  0.00    -0.203 F 
ATOM     78  F   UNL     1       2.748  12.169   9.200  1.00  0.00    -0.200 F 
ATOM     79  C   UNL     1       2.183   9.929   9.656  1.00  0.00     0.200 A 
ATOM     80  F   UNL     1       1.526   7.699  10.059  1.00  0.00    -0.200 F 
ATOM     81  F   UNL     1       2.333  10.138  10.971  1.00  0.00    -0.200 F 
ENDBRANCH  47  71
BRANCH  59  82
ATOM     82  C   UNL     1       0.902  10.782   0.701  1.00  0.00     0.064 A 
ATOM     83  C   UNL     1       1.843   9.742   0.808  1.00  0.00     0.173 A 
ATOM     84  C   UNL     1       1.090  11.712  -0.329  1.00  0.00     0.173 A 
ATOM     85  F   UNL     1       1.671   8.747   1.684  1.00  0.00    -0.203 F 
ATOM     86  C   UNL     1       2.942   9.664  -0.044  1.00  0.00     0.198 A 
ATOM     87  C   UNL     1       2.169  11.611  -1.204  1.00  0.00     0.198 A 
ATOM     88  F   UNL     1       0.188  12.686  -0.528  1.00  0.00    -0.203 F 
ATOM     89  F   UNL     1       3.822   8.661   0.086  1.00  0.00    -0.200 F 
ATOM     90  C   UNL     1       3.099  10.594  -1.056  1.00  0.00     0.200 A 
ATOM     91  F   UNL     1       2.287  12.479  -2.219  1.00  0.00    -0.200 F 
ATOM     92  F   UNL     1       4.127  10.490  -1.910  1.00  0.00    -0.200 F 
ENDBRANCH  59  82
ENDBRANCH  33  34
ENDBRANCH  26  28
ENDBRANCH  25  26
ENDBRANCH  24  25
ENDBRANCH   1  24
TORSDOF 13
