REMARK SMILES CCOc1ccc(C(=O)NCC(=O)OCCOC(=O)c2ccc(-c3c4nc(c(-c5c(F)c(F)c(F)c(F)c5F)c5ccc([nH]5)c(-c5c(F)c(F)c(F)c(F)c5F)c5nc(c(-c6c(F)c(F)c(F)c(F)c6F)c6ccc3[nH]6)C=C5)C=C4)cc2)c2ccccc12
REMARK SMILES IDX 15 1 14 2 12 3 13 4 11 5 10 6 8 7 9 8 7 10 4 11 5 12 88 13
REMARK SMILES IDX 6 14 83 15 87 16 84 17 86 18 85 19 3 20 2 21 1 22 16 23
REMARK SMILES IDX 17 24 18 25 19 26 20 27 21 28 82 29 22 30 81 31 23 32 24 33
REMARK SMILES IDX 25 34 75 35 26 36 80 37 74 38 76 39 27 40 79 41 73 42 72 43
REMARK SMILES IDX 28 45 60 46 40 47 59 48 41 49 44 50 58 51 77 52 42 53 43 54
REMARK SMILES IDX 57 56 78 57 45 58 29 59 30 60 38 61 31 62 32 63 36 64 39 65
REMARK SMILES IDX 33 66 34 67 37 68 35 69 61 70 62 71 70 72 63 73 64 74 68 75
REMARK SMILES IDX 71 76 65 77 66 78 69 79 67 80 46 81 47 82 55 83 48 84 49 85
REMARK SMILES IDX 53 86 56 87 50 88 51 89 54 90 52 91
REMARK H PARENT 10 9 76 44 44 55
REMARK Flexibility Score: inf
ROOT
ATOM      1  C   UNL     1       7.266  -2.672   3.595  1.00  0.00     0.274 C 
ENDROOT
BRANCH   1   2
ATOM      2  O   UNL     1       7.057  -2.629   2.172  1.00  0.00    -0.461 OA
BRANCH   2   3
ATOM      3  C   UNL     1       6.723  -1.431   1.619  1.00  0.00     0.325 C 
ATOM      4  O   UNL     1       6.460  -0.417   2.253  1.00  0.00    -0.250 OA
BRANCH   3   5
ATOM      5  C   UNL     1       6.788  -1.468   0.085  1.00  0.00     0.239 C 
BRANCH   5   6
ATOM      6  N   UNL     1       6.996  -2.804  -0.448  1.00  0.00    -0.341 N 
ATOM      7  C   UNL     1       6.100  -3.747  -0.882  1.00  0.00     0.252 C 
ATOM      8  O   UNL     1       6.533  -4.855  -1.188  1.00  0.00    -0.269 OA
ATOM      9  H   UNL     1       7.940  -3.079  -0.507  1.00  0.00     0.164 HD
BRANCH   7  10
ATOM     10  C   UNL     1       4.640  -3.439  -0.984  1.00  0.00     0.047 A 
ATOM     11  C   UNL     1       1.930  -2.762  -1.085  1.00  0.00     0.127 A 
ATOM     12  C   UNL     1       2.682  -2.429   0.033  1.00  0.00     0.048 A 
ATOM     13  C   UNL     1       2.474  -3.552  -2.120  1.00  0.00     0.025 A 
ATOM     14  C   UNL     1       4.017  -2.793   0.094  1.00  0.00     0.018 A 
ATOM     15  C   UNL     1       3.860  -3.879  -2.094  1.00  0.00    -0.002 A 
ATOM     16  C   UNL     1       1.665  -4.052  -3.162  1.00  0.00     0.012 A 
ATOM     17  C   UNL     1       4.367  -4.652  -3.170  1.00  0.00     0.010 A 
ATOM     18  C   UNL     1       2.188  -4.862  -4.169  1.00  0.00     0.001 A 
ATOM     19  C   UNL     1       3.542  -5.153  -4.179  1.00  0.00     0.001 A 
BRANCH  11  20
ATOM     20  O   UNL     1       0.603  -2.407  -1.082  1.00  0.00    -0.493 OA
BRANCH  20  21
ATOM     21  C   UNL     1       0.405  -1.072  -1.573  1.00  0.00     0.226 C 
ATOM     22  C   UNL     1       0.421  -0.053  -0.443  1.00  0.00     0.049 C 
ENDBRANCH  20  21
ENDBRANCH  11  20
ENDBRANCH   7  10
ENDBRANCH   5   6
ENDBRANCH   3   5
ENDBRANCH   2   3
ENDBRANCH   1   2
BRANCH   1  23
ATOM     23  C   UNL     1       8.763  -2.637   3.918  1.00  0.00     0.275 C 
BRANCH  23  24
ATOM     24  O   UNL     1       9.328  -1.335   3.668  1.00  0.00    -0.458 OA
BRANCH  24  25
ATOM     25  C   UNL     1       9.779  -1.134   2.412  1.00  0.00     0.338 C 
ATOM     26  O   UNL     1       9.786  -1.929   1.481  1.00  0.00    -0.246 OA
BRANCH  25  27
ATOM     27  C   UNL     1      10.142   0.275   2.233  1.00  0.00     0.060 A 
ATOM     28  C   UNL     1       9.306   1.074   1.450  1.00  0.00     0.016 A 
ATOM     29  C   UNL     1      11.351   0.771   2.716  1.00  0.00     0.016 A 
ATOM     30  C   UNL     1       9.693   2.358   1.100  1.00  0.00     0.010 A 
ATOM     31  C   UNL     1      11.726   2.078   2.392  1.00  0.00     0.010 A 
ATOM     32  C   UNL     1      10.909   2.869   1.563  1.00  0.00    -0.014 A 
BRANCH  32  33
ATOM     33  C   UNL     1      11.347   4.209   1.114  1.00  0.00     0.031 A 
ATOM     34  C   UNL     1      12.505   4.329   0.170  1.00  0.00     0.074 A 
ATOM     35  C   UNL     1      10.674   5.303   1.514  1.00  0.00     0.049 A 
ATOM     36  N   UNL     1      13.141   5.399  -0.230  1.00  0.00    -0.248 NA
ATOM     37  C   UNL     1      13.019   3.074  -0.403  1.00  0.00     0.031 C 
ATOM     38  C   UNL     1       9.482   5.298   2.363  1.00  0.00     0.029 A 
ATOM     39  N   UNL     1      10.896   6.630   1.255  1.00  0.00    -0.354 N 
ATOM     40  C   UNL     1      14.153   4.946  -1.064  1.00  0.00     0.074 A 
ATOM     41  C   UNL     1      14.049   3.504  -1.118  1.00  0.00     0.031 C 
ATOM     42  C   UNL     1       9.069   6.563   2.545  1.00  0.00     0.029 A 
ATOM     43  C   UNL     1      10.007   7.465   1.885  1.00  0.00     0.049 A 
ATOM     44  H   UNL     1      11.621   6.953   0.673  1.00  0.00     0.167 HD
ATOM     45  C   UNL     1      15.087   5.676  -1.718  1.00  0.00     0.037 A 
ATOM     46  C   UNL     1       9.980   8.809   1.954  1.00  0.00     0.037 A 
ATOM     47  C   UNL     1      15.158   7.112  -1.681  1.00  0.00     0.049 A 
ATOM     48  C   UNL     1      11.059   9.593   1.260  1.00  0.00     0.074 A 
ATOM     49  C   UNL     1      16.078   7.950  -2.285  1.00  0.00     0.029 A 
ATOM     50  N   UNL     1      14.256   7.925  -1.008  1.00  0.00    -0.354 N 
ATOM     51  N   UNL     1      12.058   9.158   0.532  1.00  0.00    -0.248 NA
ATOM     52  C   UNL     1      11.015  11.053   1.410  1.00  0.00     0.031 C 
ATOM     53  C   UNL     1      15.747   9.270  -1.957  1.00  0.00     0.029 A 
ATOM     54  C   UNL     1      14.600   9.255  -1.179  1.00  0.00     0.049 A 
ATOM     55  H   UNL     1      13.486   7.603  -0.486  1.00  0.00     0.167 HD
ATOM     56  C   UNL     1      12.753  10.286   0.124  1.00  0.00     0.074 A 
ATOM     57  C   UNL     1      12.052  11.429   0.673  1.00  0.00     0.031 C 
ATOM     58  C   UNL     1      13.873  10.372  -0.633  1.00  0.00     0.037 A 
BRANCH  45  59
ATOM     59  C   UNL     1      16.127   4.930  -2.498  1.00  0.00     0.064 A 
ATOM     60  C   UNL     1      15.836   4.320  -3.726  1.00  0.00     0.173 A 
ATOM     61  C   UNL     1      17.444   4.849  -2.019  1.00  0.00     0.173 A 
ATOM     62  F   UNL     1      14.587   4.352  -4.216  1.00  0.00    -0.203 F 
ATOM     63  C   UNL     1      16.821   3.641  -4.439  1.00  0.00     0.198 A 
ATOM     64  C   UNL     1      18.432   4.190  -2.745  1.00  0.00     0.198 A 
ATOM     65  F   UNL     1      17.773   5.416  -0.849  1.00  0.00    -0.203 F 
ATOM     66  F   UNL     1      16.513   3.032  -5.592  1.00  0.00    -0.200 F 
ATOM     67  C   UNL     1      18.119   3.583  -3.952  1.00  0.00     0.200 A 
ATOM     68  F   UNL     1      19.686   4.141  -2.276  1.00  0.00    -0.200 F 
ATOM     69  F   UNL     1      19.067   2.934  -4.642  1.00  0.00    -0.200 F 
ENDBRANCH  45  59
BRANCH  46  70
ATOM     70  C   UNL     1       8.921   9.490   2.741  1.00  0.00     0.064 A 
ATOM     71  C   UNL     1       7.928  10.249   2.108  1.00  0.00     0.173 A 
ATOM     72  C   UNL     1       8.877   9.392   4.140  1.00  0.00     0.173 A 
ATOM     73  F   UNL     1       7.942  10.391   0.775  1.00  0.00    -0.203 F 
ATOM     74  C   UNL     1       6.938  10.895   2.846  1.00  0.00     0.198 A 
ATOM     75  C   UNL     1       7.871  10.016   4.874  1.00  0.00     0.198 A 
ATOM     76  F   UNL     1       9.805   8.678   4.793  1.00  0.00    -0.203 F 
ATOM     77  F   UNL     1       6.023  11.647   2.220  1.00  0.00    -0.200 F 
ATOM     78  C   UNL     1       6.906  10.772   4.227  1.00  0.00     0.200 A 
ATOM     79  F   UNL     1       7.837   9.883   6.207  1.00  0.00    -0.200 F 
ATOM     80  F   UNL     1       5.950  11.388   4.935  1.00  0.00    -0.200 F 
ENDBRANCH  46  70
BRANCH  58  81
ATOM     81  C   UNL     1      14.382  11.746  -0.942  1.00  0.00     0.064 A 
ATOM     82  C   UNL     1      15.061  12.508   0.019  1.00  0.00     0.173 A 
ATOM     83  C   UNL     1      14.220  12.288  -2.225  1.00  0.00     0.173 A 
ATOM     84  F   UNL     1      15.224  12.036   1.264  1.00  0.00    -0.203 F 
ATOM     85  C   UNL     1      15.544  13.776  -0.290  1.00  0.00     0.198 A 
ATOM     86  C   UNL     1      14.725  13.547  -2.537  1.00  0.00     0.198 A 
ATOM     87  F   UNL     1      13.580  11.593  -3.177  1.00  0.00    -0.203 F 
ATOM     88  F   UNL     1      16.157  14.506   0.652  1.00  0.00    -0.200 F 
ATOM     89  C   UNL     1      15.381  14.291  -1.568  1.00  0.00     0.200 A 
ATOM     90  F   UNL     1      14.573  14.040  -3.773  1.00  0.00    -0.200 F 
ATOM     91  F   UNL     1      15.851  15.511  -1.865  1.00  0.00    -0.200 F 
ENDBRANCH  58  81
ENDBRANCH  32  33
ENDBRANCH  25  27
ENDBRANCH  24  25
ENDBRANCH  23  24
ENDBRANCH   1  23
TORSDOF 15
