REMARK SMILES CC(C)OCCS(=O)(=O)Nc1ccc(O)c(C(=O)OCCOC(=O)c2ccc(-c3c4nc(c(-c5c(F)c(F)c(F)c(F)c5F)c5ccc([nH]5)c(-c5c(F)c(F)c(F)c(F)c5F)c5nc(c(-c6c(F)c(F)c(F)c(F)c6F)c6ccc3[nH]6)C=C5)C=C4)cc2)c1
REMARK SMILES IDX 17 1 18 2 16 3 11 4 12 5 88 6 13 7 14 8 10 9 7 11 8 12 9 13
REMARK SMILES IDX 6 14 5 15 4 16 2 17 1 18 3 19 15 20 19 22 20 23 21 24 22 25
REMARK SMILES IDX 23 26 24 27 25 28 26 29 87 30 27 31 86 32 28 33 29 34 30 35
REMARK SMILES IDX 80 36 31 37 85 38 79 39 81 40 32 41 84 42 78 43 77 44 33 46
REMARK SMILES IDX 65 47 45 48 64 49 46 50 49 51 63 52 82 53 47 54 48 55 62 57
REMARK SMILES IDX 83 58 50 59 34 60 35 61 43 62 36 63 37 64 41 65 44 66 38 67
REMARK SMILES IDX 39 68 42 69 40 70 66 71 67 72 75 73 68 74 69 75 73 76 76 77
REMARK SMILES IDX 70 78 71 79 74 80 72 81 51 82 52 83 60 84 53 85 54 86 58 87
REMARK SMILES IDX 61 88 55 89 56 90 59 91 57 92
REMARK H PARENT 10 10 15 21 81 45 49 56
REMARK Flexibility Score: inf
ROOT
ATOM      1  C   UNL     1      -1.081   2.142   6.897  1.00  0.00     0.342 C 
ATOM      2  O   UNL     1      -0.963   3.311   7.229  1.00  0.00    -0.246 OA
ENDROOT
BRANCH   1   3
ATOM      3  C   UNL     1      -1.105   1.665   5.491  1.00  0.00     0.103 A 
ATOM      4  C   UNL     1       0.110   1.753   3.421  1.00  0.00     0.050 A 
ATOM      5  C   UNL     1      -0.228   0.418   3.188  1.00  0.00     0.030 A 
ATOM      6  C   UNL     1      -0.360   2.400   4.557  1.00  0.00     0.046 A 
ATOM      7  C   UNL     1      -1.129  -0.243   4.016  1.00  0.00     0.049 A 
ATOM      8  C   UNL     1      -1.591   0.395   5.157  1.00  0.00     0.130 A 
BRANCH   4   9
ATOM      9  N   UNL     1       1.023   2.397   2.549  1.00  0.00    -0.283 N 
ATOM     10  H   UNL     1       1.974   2.148   2.587  1.00  0.00     0.180 HD
BRANCH   9  11
ATOM     11  S   UNL     1       0.536   3.563   1.460  1.00  0.00     0.235 S 
ATOM     12  O   UNL     1       1.607   3.650   0.488  1.00  0.00    -0.207 OA
ATOM     13  O   UNL     1       0.163   4.730   2.231  1.00  0.00    -0.207 OA
BRANCH  11  14
ATOM     14  C   UNL     1      -0.942   2.944   0.646  1.00  0.00     0.188 C 
BRANCH  14  15
ATOM     15  C   UNL     1      -0.708   2.104  -0.605  1.00  0.00     0.178 C 
BRANCH  15  16
ATOM     16  O   UNL     1      -0.921   0.719  -0.316  1.00  0.00    -0.378 OA
BRANCH  16  17
ATOM     17  C   UNL     1       0.128  -0.205  -0.618  1.00  0.00     0.112 C 
ATOM     18  C   UNL     1       0.258  -0.535  -2.097  1.00  0.00     0.038 C 
ATOM     19  C   UNL     1       1.473   0.216  -0.056  1.00  0.00     0.038 C 
ENDBRANCH  16  17
ENDBRANCH  15  16
ENDBRANCH  14  15
ENDBRANCH  11  14
ENDBRANCH   9  11
ENDBRANCH   4   9
BRANCH   8  20
ATOM     20  O   UNL     1      -2.509  -0.232   5.950  1.00  0.00    -0.507 OA
ATOM     21  H   UNL     1      -2.827  -1.081   5.716  1.00  0.00     0.293 HD
ENDBRANCH   8  20
ENDBRANCH   1   3
BRANCH   1  22
ATOM     22  O   UNL     1      -0.932   1.054   7.688  1.00  0.00    -0.458 OA
BRANCH  22  23
ATOM     23  C   UNL     1      -0.505   1.224   9.046  1.00  0.00     0.275 C 
BRANCH  23  24
ATOM     24  C   UNL     1       0.785   0.428   9.255  1.00  0.00     0.275 C 
BRANCH  24  25
ATOM     25  O   UNL     1       1.890   1.059   8.572  1.00  0.00    -0.458 OA
BRANCH  25  26
ATOM     26  C   UNL     1       2.306   0.451   7.439  1.00  0.00     0.338 C 
ATOM     27  O   UNL     1       1.882  -0.575   6.934  1.00  0.00    -0.246 OA
BRANCH  26  28
ATOM     28  C   UNL     1       3.349   1.266   6.796  1.00  0.00     0.060 A 
ATOM     29  C   UNL     1       2.966   2.098   5.750  1.00  0.00     0.016 A 
ATOM     30  C   UNL     1       4.697   1.116   7.110  1.00  0.00     0.016 A 
ATOM     31  C   UNL     1       3.920   2.737   4.963  1.00  0.00     0.010 A 
ATOM     32  C   UNL     1       5.656   1.818   6.365  1.00  0.00     0.010 A 
ATOM     33  C   UNL     1       5.283   2.617   5.265  1.00  0.00    -0.014 A 
BRANCH  33  34
ATOM     34  C   UNL     1       6.310   3.293   4.417  1.00  0.00     0.031 A 
ATOM     35  C   UNL     1       7.381   2.485   3.731  1.00  0.00     0.074 A 
ATOM     36  C   UNL     1       6.285   4.630   4.242  1.00  0.00     0.049 A 
ATOM     37  N   UNL     1       8.464   2.888   3.113  1.00  0.00    -0.248 NA
ATOM     38  C   UNL     1       7.217   1.023   3.752  1.00  0.00     0.031 C 
ATOM     39  C   UNL     1       5.276   5.540   4.786  1.00  0.00     0.029 A 
ATOM     40  N   UNL     1       7.137   5.461   3.551  1.00  0.00    -0.354 N 
ATOM     41  C   UNL     1       9.134   1.735   2.722  1.00  0.00     0.074 A 
ATOM     42  C   UNL     1       8.340   0.614   3.178  1.00  0.00     0.031 C 
ATOM     43  C   UNL     1       5.546   6.790   4.384  1.00  0.00     0.029 A 
ATOM     44  C   UNL     1       6.798   6.790   3.637  1.00  0.00     0.049 A 
ATOM     45  H   UNL     1       7.915   5.135   3.044  1.00  0.00     0.167 HD
ATOM     46  C   UNL     1      10.303   1.624   2.044  1.00  0.00     0.037 A 
ATOM     47  C   UNL     1       7.443   7.893   3.210  1.00  0.00     0.037 A 
ATOM     48  C   UNL     1      11.066   2.742   1.548  1.00  0.00     0.049 A 
ATOM     49  C   UNL     1       8.769   7.747   2.514  1.00  0.00     0.074 A 
ATOM     50  C   UNL     1      12.259   2.730   0.845  1.00  0.00     0.029 A 
ATOM     51  N   UNL     1      10.702   4.073   1.692  1.00  0.00    -0.354 N 
ATOM     52  N   UNL     1       9.423   6.656   2.199  1.00  0.00    -0.248 NA
ATOM     53  C   UNL     1       9.455   8.988   2.130  1.00  0.00     0.031 C 
ATOM     54  C   UNL     1      12.640   4.054   0.603  1.00  0.00     0.029 A 
ATOM     55  C   UNL     1      11.656   4.890   1.105  1.00  0.00     0.049 A 
ATOM     56  H   UNL     1       9.887   4.391   2.143  1.00  0.00     0.167 HD
ATOM     57  C   UNL     1      10.581   7.076   1.560  1.00  0.00     0.074 A 
ATOM     58  C   UNL     1      10.535   8.522   1.519  1.00  0.00     0.031 C 
ATOM     59  C   UNL     1      11.592   6.329   1.055  1.00  0.00     0.037 A 
BRANCH  46  60
ATOM     60  C   UNL     1      10.857   0.243   1.827  1.00  0.00     0.064 A 
ATOM     61  C   UNL     1      10.265  -0.667   0.939  1.00  0.00     0.173 A 
ATOM     62  C   UNL     1      12.027  -0.159   2.491  1.00  0.00     0.173 A 
ATOM     63  F   UNL     1       9.140  -0.339   0.286  1.00  0.00    -0.203 F 
ATOM     64  C   UNL     1      10.806  -1.937   0.747  1.00  0.00     0.198 A 
ATOM     65  C   UNL     1      12.583  -1.417   2.272  1.00  0.00     0.198 A 
ATOM     66  F   UNL     1      12.640   0.674   3.346  1.00  0.00    -0.203 F 
ATOM     67  F   UNL     1      10.194  -2.807  -0.068  1.00  0.00    -0.200 F 
ATOM     68  C   UNL     1      11.968  -2.308   1.407  1.00  0.00     0.200 A 
ATOM     69  F   UNL     1      13.715  -1.767   2.900  1.00  0.00    -0.200 F 
ATOM     70  F   UNL     1      12.490  -3.527   1.215  1.00  0.00    -0.200 F 
ENDBRANCH  46  60
BRANCH  47  71
ATOM     71  C   UNL     1       6.867   9.240   3.473  1.00  0.00     0.064 A 
ATOM     72  C   UNL     1       6.426  10.057   2.422  1.00  0.00     0.173 A 
ATOM     73  C   UNL     1       6.754   9.742   4.779  1.00  0.00     0.173 A 
ATOM     74  F   UNL     1       6.544   9.638   1.153  1.00  0.00    -0.203 F 
ATOM     75  C   UNL     1       5.908  11.327   2.667  1.00  0.00     0.198 A 
ATOM     76  C   UNL     1       6.203  10.997   5.024  1.00  0.00     0.198 A 
ATOM     77  F   UNL     1       7.168   9.006   5.820  1.00  0.00    -0.203 F 
ATOM     78  F   UNL     1       5.544  12.108   1.641  1.00  0.00    -0.200 F 
ATOM     79  C   UNL     1       5.788  11.793   3.967  1.00  0.00     0.200 A 
ATOM     80  F   UNL     1       6.079  11.437   6.284  1.00  0.00    -0.200 F 
ATOM     81  F   UNL     1       5.286  13.012   4.202  1.00  0.00    -0.200 F 
ENDBRANCH  47  71
BRANCH  59  82
ATOM     82  C   UNL     1      12.710   7.056   0.365  1.00  0.00     0.064 A 
ATOM     83  C   UNL     1      13.652   7.811   1.077  1.00  0.00     0.173 A 
ATOM     84  C   UNL     1      12.859   6.963  -1.028  1.00  0.00     0.173 A 
ATOM     85  F   UNL     1      13.544   7.944   2.408  1.00  0.00    -0.203 F 
ATOM     86  C   UNL     1      14.691   8.464   0.418  1.00  0.00     0.198 A 
ATOM     87  C   UNL     1      13.916   7.592  -1.679  1.00  0.00     0.198 A 
ATOM     88  F   UNL     1      11.988   6.248  -1.756  1.00  0.00    -0.203 F 
ATOM     89  F   UNL     1      15.554   9.217   1.114  1.00  0.00    -0.200 F 
ATOM     90  C   UNL     1      14.826   8.348  -0.957  1.00  0.00     0.200 A 
ATOM     91  F   UNL     1      14.053   7.467  -3.007  1.00  0.00    -0.200 F 
ATOM     92  F   UNL     1      15.832   8.970  -1.588  1.00  0.00    -0.200 F 
ENDBRANCH  59  82
ENDBRANCH  33  34
ENDBRANCH  26  28
ENDBRANCH  25  26
ENDBRANCH  24  25
ENDBRANCH  23  24
ENDBRANCH  22  23
ENDBRANCH   1  22
TORSDOF 18
