REMARK SMILES O=C1C[N@@H+](Cc2ccc(C(=O)OCCOC(=O)c3ccc(-c4c5nc(c(-c6c(F)c(F)c(F)c(F)c6F)c6ccc([nH]6)c(-c6c(F)c(F)c(F)c(F)c6F)c6nc(c(-c7c(F)c(F)c(F)c(F)c7F)c7ccc4[nH]7)C=C6)C=C5)cc3)cc2)CCN1
REMARK SMILES IDX 13 1 12 2 10 3 11 4 9 5 6 6 7 7 82 8 8 9 81 10 5 11 4 12
REMARK SMILES IDX 1 13 2 14 3 15 85 16 84 17 83 19 14 21 15 22 16 23 17 24
REMARK SMILES IDX 18 25 19 26 80 27 20 28 79 29 21 30 22 31 23 32 73 33 24 34
REMARK SMILES IDX 78 35 72 36 74 37 25 38 77 39 71 40 70 41 26 43 58 44 38 45
REMARK SMILES IDX 57 46 39 47 42 48 56 49 75 50 40 51 41 52 55 54 76 55 43 56
REMARK SMILES IDX 27 57 28 58 36 59 29 60 30 61 34 62 37 63 31 64 32 65 35 66
REMARK SMILES IDX 33 67 59 68 60 69 68 70 61 71 62 72 66 73 69 74 63 75 64 76
REMARK SMILES IDX 67 77 65 78 44 79 45 80 53 81 46 82 47 83 51 84 54 85 48 86
REMARK SMILES IDX 49 87 52 88 50 89
REMARK H PARENT 85 18 4 20 74 42 42 53
REMARK Flexibility Score: inf
ROOT
ATOM      1  C   UNL     1       0.822   5.915   4.302  1.00  0.00     0.275 C 
ENDROOT
BRANCH   1   2
ATOM      2  O   UNL     1       0.129   4.791   3.727  1.00  0.00    -0.458 OA
BRANCH   2   3
ATOM      3  C   UNL     1       0.889   3.682   3.556  1.00  0.00     0.338 C 
ATOM      4  O   UNL     1       2.085   3.586   3.785  1.00  0.00    -0.246 OA
BRANCH   3   5
ATOM      5  C   UNL     1       0.072   2.530   3.099  1.00  0.00     0.060 A 
ATOM      6  C   UNL     1      -1.291   0.287   2.102  1.00  0.00     0.006 A 
ATOM      7  C   UNL     1       0.002   0.155   2.622  1.00  0.00     0.010 A 
ATOM      8  C   UNL     1      -1.940   1.528   2.203  1.00  0.00     0.010 A 
ATOM      9  C   UNL     1       0.690   1.273   3.080  1.00  0.00     0.016 A 
ATOM     10  C   UNL     1      -1.263   2.647   2.701  1.00  0.00     0.016 A 
BRANCH   6  11
ATOM     11  C   UNL     1      -1.932  -0.867   1.368  1.00  0.00     0.299 C 
BRANCH  11  12
ATOM     12  N   UNL     1      -1.509  -1.080  -0.023  1.00  0.00    -0.322 N 
ATOM     13  O   UNL     1       2.099  -0.575   0.019  1.00  0.00    -0.269 OA
ATOM     14  C   UNL     1       0.919  -0.403  -0.290  1.00  0.00     0.275 C 
ATOM     15  C   UNL     1      -0.116  -1.530  -0.203  1.00  0.00     0.363 C 
ATOM     16  N   UNL     1       0.521   0.798  -0.807  1.00  0.00    -0.346 N 
ATOM     17  C   UNL     1      -0.860   1.159  -1.039  1.00  0.00     0.177 C 
ATOM     18  H   UNL     1       1.216   1.457  -1.036  1.00  0.00     0.163 HD
ATOM     19  C   UNL     1      -1.845  -0.020  -0.977  1.00  0.00     0.284 C 
ATOM     20  H   UNL     1      -2.108  -1.869  -0.266  1.00  0.00     0.348 HD
ENDBRANCH  11  12
ENDBRANCH   6  11
ENDBRANCH   3   5
ENDBRANCH   2   3
ENDBRANCH   1   2
BRANCH   1  21
ATOM     21  C   UNL     1       0.568   5.982   5.807  1.00  0.00     0.275 C 
BRANCH  21  22
ATOM     22  O   UNL     1       1.025   4.771   6.440  1.00  0.00    -0.458 OA
BRANCH  22  23
ATOM     23  C   UNL     1       0.115   4.114   7.188  1.00  0.00     0.338 C 
ATOM     24  O   UNL     1      -1.033   4.465   7.452  1.00  0.00    -0.246 OA
BRANCH  23  25
ATOM     25  C   UNL     1       0.681   2.848   7.670  1.00  0.00     0.060 A 
ATOM     26  C   UNL     1       0.886   1.805   6.769  1.00  0.00     0.016 A 
ATOM     27  C   UNL     1       0.877   2.643   9.035  1.00  0.00     0.016 A 
ATOM     28  C   UNL     1       1.241   0.537   7.229  1.00  0.00     0.010 A 
ATOM     29  C   UNL     1       1.286   1.384   9.493  1.00  0.00     0.010 A 
ATOM     30  C   UNL     1       1.437   0.309   8.598  1.00  0.00    -0.014 A 
BRANCH  30  31
ATOM     31  C   UNL     1       1.704  -1.072   9.088  1.00  0.00     0.031 A 
ATOM     32  C   UNL     1       0.690  -1.775   9.953  1.00  0.00     0.074 A 
ATOM     33  C   UNL     1       2.824  -1.725   8.721  1.00  0.00     0.049 A 
ATOM     34  N   UNL     1       0.769  -2.940  10.547  1.00  0.00    -0.248 NA
ATOM     35  C   UNL     1      -0.579  -1.069  10.188  1.00  0.00     0.031 C 
ATOM     36  C   UNL     1       3.874  -1.185   7.859  1.00  0.00     0.029 A 
ATOM     37  N   UNL     1       3.254  -2.997   9.013  1.00  0.00    -0.354 N 
ATOM     38  C   UNL     1      -0.410  -3.081  11.267  1.00  0.00     0.074 A 
ATOM     39  C   UNL     1      -1.191  -1.884  11.035  1.00  0.00     0.031 C 
ATOM     40  C   UNL     1       4.803  -2.133   7.653  1.00  0.00     0.029 A 
ATOM     41  C   UNL     1       4.445  -3.327   8.415  1.00  0.00     0.049 A 
ATOM     42  H   UNL     1       2.756  -3.614   9.597  1.00  0.00     0.167 HD
ATOM     43  C   UNL     1      -0.807  -4.114  12.049  1.00  0.00     0.037 A 
ATOM     44  C   UNL     1       5.174  -4.457   8.480  1.00  0.00     0.037 A 
ATOM     45  C   UNL     1      -0.067  -5.334  12.232  1.00  0.00     0.049 A 
ATOM     46  C   UNL     1       4.697  -5.601   9.333  1.00  0.00     0.074 A 
ATOM     47  C   UNL     1      -0.393  -6.436  13.005  1.00  0.00     0.029 A 
ATOM     48  N   UNL     1       1.139  -5.624  11.613  1.00  0.00    -0.354 N 
ATOM     49  N   UNL     1       3.608  -5.697  10.055  1.00  0.00    -0.248 NA
ATOM     50  C   UNL     1       5.560  -6.790   9.389  1.00  0.00     0.031 C 
ATOM     51  C   UNL     1       0.625  -7.386  12.868  1.00  0.00     0.029 A 
ATOM     52  C   UNL     1       1.569  -6.888  11.985  1.00  0.00     0.049 A 
ATOM     53  H   UNL     1       1.620  -5.021  11.001  1.00  0.00     0.167 HD
ATOM     54  C   UNL     1       3.651  -6.952  10.645  1.00  0.00     0.074 A 
ATOM     55  C   UNL     1       4.861  -7.595  10.177  1.00  0.00     0.031 C 
ATOM     56  C   UNL     1       2.773  -7.517  11.508  1.00  0.00     0.037 A 
BRANCH  43  57
ATOM     57  C   UNL     1      -2.099  -3.957  12.794  1.00  0.00     0.064 A 
ATOM     58  C   UNL     1      -3.341  -4.061  12.153  1.00  0.00     0.173 A 
ATOM     59  C   UNL     1      -2.089  -3.736  14.180  1.00  0.00     0.173 A 
ATOM     60  F   UNL     1      -3.402  -4.257  10.828  1.00  0.00    -0.203 F 
ATOM     61  C   UNL     1      -4.528  -3.928  12.870  1.00  0.00     0.198 A 
ATOM     62  C   UNL     1      -3.277  -3.627  14.897  1.00  0.00     0.198 A 
ATOM     63  F   UNL     1      -0.925  -3.634  14.840  1.00  0.00    -0.203 F 
ATOM     64  F   UNL     1      -5.705  -3.992  12.232  1.00  0.00    -0.200 F 
ATOM     65  C   UNL     1      -4.495  -3.718  14.241  1.00  0.00     0.200 A 
ATOM     66  F   UNL     1      -3.243  -3.434  16.223  1.00  0.00    -0.200 F 
ATOM     67  F   UNL     1      -5.638  -3.597  14.930  1.00  0.00    -0.200 F 
ENDBRANCH  43  57
BRANCH  44  68
ATOM     68  C   UNL     1       6.442  -4.564   7.715  1.00  0.00     0.064 A 
ATOM     69  C   UNL     1       6.541  -5.409   6.601  1.00  0.00     0.173 A 
ATOM     70  C   UNL     1       7.578  -3.827   8.081  1.00  0.00     0.173 A 
ATOM     71  F   UNL     1       5.490  -6.156   6.233  1.00  0.00    -0.203 F 
ATOM     72  C   UNL     1       7.732  -5.520   5.887  1.00  0.00     0.198 A 
ATOM     73  C   UNL     1       8.760  -3.919   7.350  1.00  0.00     0.198 A 
ATOM     74  F   UNL     1       7.534  -3.009   9.143  1.00  0.00    -0.203 F 
ATOM     75  F   UNL     1       7.813  -6.365   4.851  1.00  0.00    -0.200 F 
ATOM     76  C   UNL     1       8.838  -4.769   6.258  1.00  0.00     0.200 A 
ATOM     77  F   UNL     1       9.824  -3.187   7.707  1.00  0.00    -0.200 F 
ATOM     78  F   UNL     1       9.982  -4.873   5.568  1.00  0.00    -0.200 F 
ENDBRANCH  44  68
BRANCH  56  79
ATOM     79  C   UNL     1       3.080  -8.903  11.987  1.00  0.00     0.064 A 
ATOM     80  C   UNL     1       4.081  -9.142  12.940  1.00  0.00     0.173 A 
ATOM     81  C   UNL     1       2.352 -10.001  11.505  1.00  0.00     0.173 A 
ATOM     82  F   UNL     1       4.813  -8.124  13.418  1.00  0.00    -0.203 F 
ATOM     83  C   UNL     1       4.359 -10.434  13.376  1.00  0.00     0.198 A 
ATOM     84  C   UNL     1       2.619 -11.290  11.960  1.00  0.00     0.198 A 
ATOM     85  F   UNL     1       1.382  -9.823  10.597  1.00  0.00    -0.203 F 
ATOM     86  F   UNL     1       5.347 -10.645  14.256  1.00  0.00    -0.200 F 
ATOM     87  C   UNL     1       3.625 -11.506  12.889  1.00  0.00     0.200 A 
ATOM     88  F   UNL     1       1.905 -12.324  11.493  1.00  0.00    -0.200 F 
ATOM     89  F   UNL     1       3.895 -12.750  13.309  1.00  0.00    -0.200 F 
ENDBRANCH  56  79
ENDBRANCH  30  31
ENDBRANCH  23  25
ENDBRANCH  22  23
ENDBRANCH  21  22
ENDBRANCH   1  21
TORSDOF 13
