REMARK SMILES COc1cc(/C=C2/CCc3cc(OC(C)(C)C(=O)OCCOC(=O)c4ccc(-c5c6nc(c(-c7c(F)c(F)c(F)c(F)c7F)c7ccc([nH]7)c(-c7c(F)c(F)c(F)c(F)c7F)c7nc(c(-c8c(F)c(F)c(F)c(F)c8F)c8ccc5[nH]8)C=C7)C=C6)cc4)ccc3C2=O)cc(OC)c1O
REMARK SMILES IDX 20 1 19 2 17 3 18 4 14 5 15 6 16 7 13 8 12 9 6 10 7 11 8 12
REMARK SMILES IDX 91 13 9 14 90 15 92 16 10 17 89 18 11 19 88 20 5 21 3 22
REMARK SMILES IDX 4 23 97 24 94 25 93 26 2 27 1 28 98 29 95 31 96 32 21 33
REMARK SMILES IDX 22 34 23 35 24 36 25 37 26 38 87 39 27 40 86 41 28 42 29 43
REMARK SMILES IDX 30 44 80 45 31 46 85 47 79 48 81 49 32 50 84 51 78 52 77 53
REMARK SMILES IDX 33 55 65 56 45 57 64 58 46 59 49 60 63 61 82 62 47 63 48 64
REMARK SMILES IDX 62 66 83 67 50 68 34 69 35 70 43 71 36 72 37 73 41 74 44 75
REMARK SMILES IDX 38 76 39 77 42 78 40 79 66 80 67 81 75 82 68 83 69 84 73 85
REMARK SMILES IDX 76 86 70 87 71 88 74 89 72 90 51 91 52 92 60 93 53 94 54 95
REMARK SMILES IDX 58 96 61 97 55 98 56 99 59 100 57 101
REMARK H PARENT 98 30 81 54 49 65
REMARK Flexibility Score: inf
ROOT
ATOM      1  C   UNL     1       0.137  -4.572  -0.319  1.00  0.00     0.274 C 
ENDROOT
BRANCH   1   2
ATOM      2  O   UNL     1      -0.999  -3.890   0.709  1.00  0.00    -0.459 OA
BRANCH   2   3
ATOM      3  C   UNL     1      -2.350  -4.364   1.060  1.00  0.00     0.350 C 
ATOM      4  O   UNL     1      -2.936  -5.184   0.359  1.00  0.00    -0.247 OA
BRANCH   3   5
ATOM      5  C   UNL     1      -2.907  -3.918   2.705  1.00  0.00     0.200 C 
ATOM      6  C   UNL     1      -3.005  -2.410   2.504  1.00  0.00     0.069 C 
ATOM      7  C   UNL     1      -1.781  -4.548   3.454  1.00  0.00     0.069 C 
BRANCH   5   8
ATOM      8  O   UNL     1      -4.088  -4.292   3.570  1.00  0.00    -0.476 OA
BRANCH   8   9
ATOM      9  C   UNL     1      -3.935  -4.094   4.998  1.00  0.00     0.121 A 
ATOM     10  C   UNL     1       0.644  -1.076   5.925  1.00  0.00     0.016 C 
ATOM     11  C   UNL     1      -0.519  -1.381   6.551  1.00  0.00     0.001 C 
ATOM     12  C   UNL     1      -1.459  -0.653   7.504  1.00  0.00     0.044 C 
ATOM     13  C   UNL     1      -1.279  -2.453   5.947  1.00  0.00     0.189 C 
ATOM     14  C   UNL     1      -3.043  -0.956   7.180  1.00  0.00     0.041 C 
ATOM     15  C   UNL     1      -2.201  -3.204   6.874  1.00  0.00     0.026 A 
ATOM     16  O   UNL     1      -1.529  -2.308   4.754  1.00  0.00    -0.289 OA
ATOM     17  C   UNL     1      -3.321  -2.405   6.696  1.00  0.00    -0.033 A 
ATOM     18  C   UNL     1      -2.296  -4.581   6.684  1.00  0.00     0.016 A 
ATOM     19  C   UNL     1      -4.173  -2.831   5.628  1.00  0.00     0.051 A 
ATOM     20  C   UNL     1      -3.217  -5.056   5.739  1.00  0.00     0.047 A 
BRANCH  10  21
ATOM     21  C   UNL     1       0.963  -1.562   4.520  1.00  0.00    -0.018 A 
ATOM     22  C   UNL     1       0.976  -0.806   2.195  1.00  0.00     0.165 A 
ATOM     23  C   UNL     1       0.884  -0.546   3.559  1.00  0.00     0.058 A 
ATOM     24  C   UNL     1       1.104  -2.145   1.770  1.00  0.00     0.200 A 
ATOM     25  C   UNL     1       1.012  -3.251   2.682  1.00  0.00     0.165 A 
ATOM     26  C   UNL     1       1.063  -2.912   4.061  1.00  0.00     0.058 A 
BRANCH  22  27
ATOM     27  O   UNL     1       0.965   0.355   1.467  1.00  0.00    -0.493 OA
ATOM     28  C   UNL     1       0.803   0.399   0.058  1.00  0.00     0.278 C 
ENDBRANCH  22  27
BRANCH  24  29
ATOM     29  O   UNL     1       1.447  -2.318   0.455  1.00  0.00    -0.502 OA
ATOM     30  H   UNL     1       1.500  -1.578  -0.117  1.00  0.00     0.293 HD
ENDBRANCH  24  29
BRANCH  25  31
ATOM     31  O   UNL     1       1.081  -4.610   2.336  1.00  0.00    -0.493 OA
ATOM     32  C   UNL     1       0.120  -5.749   2.071  1.00  0.00     0.278 C 
ENDBRANCH  25  31
ENDBRANCH  10  21
ENDBRANCH   8   9
ENDBRANCH   5   8
ENDBRANCH   3   5
ENDBRANCH   2   3
ENDBRANCH   1   2
BRANCH   1  33
ATOM     33  C   UNL     1       1.870  -5.036   0.072  1.00  0.00     0.275 C 
BRANCH  33  34
ATOM     34  O   UNL     1       2.282  -6.330   0.916  1.00  0.00    -0.458 OA
BRANCH  34  35
ATOM     35  C   UNL     1       2.921  -6.356   2.181  1.00  0.00     0.338 C 
ATOM     36  O   UNL     1       3.744  -5.510   2.560  1.00  0.00    -0.246 OA
BRANCH  35  37
ATOM     37  C   UNL     1       2.336  -7.394   3.222  1.00  0.00     0.060 A 
ATOM     38  C   UNL     1       1.339  -7.026   4.155  1.00  0.00     0.016 A 
ATOM     39  C   UNL     1       2.768  -8.706   3.381  1.00  0.00     0.016 A 
ATOM     40  C   UNL     1       0.514  -7.951   4.854  1.00  0.00     0.010 A 
ATOM     41  C   UNL     1       2.071  -9.622   4.251  1.00  0.00     0.010 A 
ATOM     42  C   UNL     1       0.871  -9.289   4.924  1.00  0.00    -0.014 A 
BRANCH  42  43
ATOM     43  C   UNL     1       0.163 -10.210   5.898  1.00  0.00     0.031 A 
ATOM     44  C   UNL     1       0.789 -10.414   7.259  1.00  0.00     0.074 A 
ATOM     45  C   UNL     1      -1.045 -10.795   5.704  1.00  0.00     0.049 A 
ATOM     46  N   UNL     1       0.533 -11.304   8.188  1.00  0.00    -0.248 NA
ATOM     47  C   UNL     1       1.842  -9.456   7.620  1.00  0.00     0.031 C 
ATOM     48  C   UNL     1      -1.933 -10.583   4.564  1.00  0.00     0.029 A 
ATOM     49  N   UNL     1      -1.739 -11.711   6.485  1.00  0.00    -0.354 N 
ATOM     50  C   UNL     1       1.439 -11.053   9.212  1.00  0.00     0.074 A 
ATOM     51  C   UNL     1       2.230  -9.913   8.800  1.00  0.00     0.031 C 
ATOM     52  C   UNL     1      -3.025 -11.363   4.700  1.00  0.00     0.029 A 
ATOM     53  C   UNL     1      -2.896 -12.189   5.903  1.00  0.00     0.049 A 
ATOM     54  H   UNL     1      -1.433 -11.994   7.376  1.00  0.00     0.167 HD
ATOM     55  C   UNL     1       1.613 -11.716  10.382  1.00  0.00     0.037 A 
ATOM     56  C   UNL     1      -3.724 -13.203   6.256  1.00  0.00     0.037 A 
ATOM     57  C   UNL     1       0.808 -12.822  10.835  1.00  0.00     0.049 A 
ATOM     58  C   UNL     1      -3.435 -14.032   7.494  1.00  0.00     0.074 A 
ATOM     59  C   UNL     1       0.943 -13.567  11.996  1.00  0.00     0.029 A 
ATOM     60  N   UNL     1      -0.287 -13.334  10.161  1.00  0.00    -0.354 N 
ATOM     61  N   UNL     1      -2.503 -13.873   8.401  1.00  0.00    -0.248 NA
ATOM     62  C   UNL     1      -4.304 -15.198   7.744  1.00  0.00     0.031 C 
ATOM     63  C   UNL     1      -0.037 -14.564  11.996  1.00  0.00     0.029 A 
ATOM     64  C   UNL     1      -0.823 -14.399  10.869  1.00  0.00     0.049 A 
ATOM     65  H   UNL     1      -0.635 -12.992   9.306  1.00  0.00     0.167 HD
ATOM     66  C   UNL     1      -2.692 -14.889   9.334  1.00  0.00     0.074 A 
ATOM     67  C   UNL     1      -3.835 -15.657   8.896  1.00  0.00     0.031 C 
ATOM     68  C   UNL     1      -1.975 -15.158  10.454  1.00  0.00     0.037 A 
BRANCH  55  69
ATOM     69  C   UNL     1       2.781 -11.311  11.235  1.00  0.00     0.064 A 
ATOM     70  C   UNL     1       2.808 -10.107  11.951  1.00  0.00     0.173 A 
ATOM     71  C   UNL     1       3.886 -12.170  11.353  1.00  0.00     0.173 A 
ATOM     72  F   UNL     1       1.785  -9.243  11.858  1.00  0.00    -0.203 F 
ATOM     73  C   UNL     1       3.910  -9.764  12.731  1.00  0.00     0.198 A 
ATOM     74  C   UNL     1       4.970 -11.841  12.162  1.00  0.00     0.198 A 
ATOM     75  F   UNL     1       3.909 -13.339  10.694  1.00  0.00    -0.203 F 
ATOM     76  F   UNL     1       3.938  -8.583  13.364  1.00  0.00    -0.200 F 
ATOM     77  C   UNL     1       4.985 -10.634  12.842  1.00  0.00     0.200 A 
ATOM     78  F   UNL     1       5.999 -12.691  12.280  1.00  0.00    -0.200 F 
ATOM     79  F   UNL     1       6.040 -10.305  13.600  1.00  0.00    -0.200 F 
ENDBRANCH  55  69
BRANCH  56  80
ATOM     80  C   UNL     1      -4.882 -13.586   5.387  1.00  0.00     0.064 A 
ATOM     81  C   UNL     1      -6.207 -13.513   5.848  1.00  0.00     0.173 A 
ATOM     82  C   UNL     1      -4.679 -14.119   4.104  1.00  0.00     0.173 A 
ATOM     83  F   UNL     1      -6.461 -13.070   7.088  1.00  0.00    -0.203 F 
ATOM     84  C   UNL     1      -7.274 -13.962   5.067  1.00  0.00     0.198 A 
ATOM     85  C   UNL     1      -5.749 -14.536   3.311  1.00  0.00     0.198 A 
ATOM     86  F   UNL     1      -3.435 -14.252   3.622  1.00  0.00    -0.203 F 
ATOM     87  F   UNL     1      -8.521 -13.939   5.560  1.00  0.00    -0.200 F 
ATOM     88  C   UNL     1      -7.045 -14.464   3.795  1.00  0.00     0.200 A 
ATOM     89  F   UNL     1      -5.520 -15.023   2.083  1.00  0.00    -0.200 F 
ATOM     90  F   UNL     1      -8.069 -14.897   3.046  1.00  0.00    -0.200 F 
ENDBRANCH  56  80
BRANCH  68  91
ATOM     91  C   UNL     1      -2.426 -16.293  11.334  1.00  0.00     0.064 A 
ATOM     92  C   UNL     1      -2.287 -17.634  10.949  1.00  0.00     0.173 A 
ATOM     93  C   UNL     1      -2.955 -16.033  12.610  1.00  0.00     0.173 A 
ATOM     94  F   UNL     1      -1.797 -17.941   9.738  1.00  0.00    -0.203 F 
ATOM     95  C   UNL     1      -2.680 -18.670  11.795  1.00  0.00     0.198 A 
ATOM     96  C   UNL     1      -3.318 -17.071  13.465  1.00  0.00     0.198 A 
ATOM     97  F   UNL     1      -3.102 -14.770  13.036  1.00  0.00    -0.203 F 
ATOM     98  F   UNL     1      -2.576 -19.943  11.387  1.00  0.00    -0.200 F 
ATOM     99  C   UNL     1      -3.187 -18.388  13.055  1.00  0.00     0.200 A 
ATOM    100  F   UNL     1      -3.791 -16.796  14.688  1.00  0.00    -0.200 F 
ATOM    101  F   UNL     1      -3.554 -19.386  13.871  1.00  0.00    -0.200 F 
ENDBRANCH  68  91
ENDBRANCH  42  43
ENDBRANCH  35  37
ENDBRANCH  34  35
ENDBRANCH  33  34
ENDBRANCH   1  33
TORSDOF 17
