REMARK SMILES CN(/N=C/c1ccccc1C(=O)OCCOC(=O)c1ccc(-c2c3nc(c(-c4c(F)c(F)c(F)c(F)c4F)c4ccc([nH]4)c(-c4c(F)c(F)c(F)c(F)c4F)c4nc(c(-c5c(F)c(F)c(F)c(F)c5F)c5ccc2[nH]5)C=C4)C=C3)cc1)C1=[NH+]CCCCN1
REMARK SMILES IDX 13 1 11 2 12 3 10 4 5 5 6 6 7 7 9 8 8 9 4 10 3 11 2 12 1 13
REMARK SMILES IDX 82 14 83 15 88 16 84 19 85 20 87 22 86 23 14 25 15 26 16 27
REMARK SMILES IDX 17 28 18 29 19 30 20 31 81 32 21 33 80 34 22 35 23 36 24 37
REMARK SMILES IDX 74 38 25 39 79 40 73 41 75 42 26 43 78 44 72 45 71 46 27 48
REMARK SMILES IDX 59 49 39 50 58 51 40 52 43 53 57 54 76 55 41 56 42 57 56 59
REMARK SMILES IDX 77 60 44 61 28 62 29 63 37 64 30 65 31 66 35 67 38 68 32 69
REMARK SMILES IDX 33 70 36 71 34 72 60 73 61 74 69 75 62 76 63 77 67 78 70 79
REMARK SMILES IDX 64 80 65 81 68 82 66 83 45 84 46 85 54 86 47 87 48 88 52 89
REMARK SMILES IDX 55 90 49 91 50 92 53 93 51 94
REMARK H PARENT 83 17 88 18 75 47 43 58
REMARK Flexibility Score: 90.00
ROOT
ATOM      1  O   UNL     1       0.356   2.066   3.325  1.00  0.00    -0.458 OA
ENDROOT
BRANCH   1   2
ATOM      2  C   UNL     1      -0.937   2.151   3.727  1.00  0.00     0.338 C 
ATOM      3  O   UNL     1      -1.384   1.856   4.819  1.00  0.00    -0.246 OA
BRANCH   2   4
ATOM      4  C   UNL     1      -1.752   2.816   2.682  1.00  0.00     0.068 A 
ATOM      5  C   UNL     1      -1.660   2.505   1.321  1.00  0.00     0.010 A 
ATOM      6  C   UNL     1      -2.402   3.226   0.376  1.00  0.00     0.011 A 
ATOM      7  C   UNL     1      -3.249   4.255   0.793  1.00  0.00     0.001 A 
ATOM      8  C   UNL     1      -2.636   3.828   3.091  1.00  0.00     0.016 A 
ATOM      9  C   UNL     1      -3.364   4.557   2.149  1.00  0.00     0.001 A 
BRANCH   5  10
ATOM     10  C   UNL     1      -0.758   1.457   0.824  1.00  0.00     0.159 C 
ATOM     11  N   UNL     1      -0.764   0.269   1.335  1.00  0.00    -0.118 NA
BRANCH  11  12
ATOM     12  N   UNL     1       0.240  -0.614   0.938  1.00  0.00    -0.147 N 
ATOM     13  C   UNL     1       0.888  -0.480  -0.368  1.00  0.00     0.279 C 
BRANCH  12  14
ATOM     14  C   UNL     1       0.794  -1.522   1.851  1.00  0.00     0.369 C 
ATOM     15  N   UNL     1       1.982  -1.990   1.688  1.00  0.00    -0.276 N 
ATOM     16  N   UNL     1      -0.081  -1.755   2.875  1.00  0.00    -0.276 N 
ATOM     17  H   UNL     1       2.498  -1.722   0.894  1.00  0.00     0.260 HD
ATOM     18  H   UNL     1      -1.016  -1.495   2.714  1.00  0.00     0.260 HD
BRANCH  15  19
ATOM     19  C   UNL     1       2.584  -2.906   2.647  1.00  0.00     0.197 C 
BRANCH  19  20
ATOM     20  C   UNL     1       1.678  -4.085   2.967  1.00  0.00     0.041 CG0
ATOM     21  G   UNL     1       0.650  -3.785   4.058  1.00  0.00     0.000 G0
ENDBRANCH  19  20
ENDBRANCH  15  19
BRANCH  16  22
ATOM     22  C   UNL     1       0.202  -2.333   4.155  1.00  0.00     0.197 C 
BRANCH  22  23
ATOM     23  C   UNL     1       0.650  -3.785   4.058  1.00  0.00     0.041 CG0
ATOM     24  G   UNL     1       1.678  -4.085   2.967  1.00  0.00     0.000 G0
ENDBRANCH  22  23
ENDBRANCH  16  22
ENDBRANCH  12  14
ENDBRANCH  11  12
ENDBRANCH   5  10
ENDBRANCH   2   4
ENDBRANCH   1   2
BRANCH   1  25
ATOM     25  C   UNL     1       1.250   1.318   4.173  1.00  0.00     0.275 C 
BRANCH  25  26
ATOM     26  C   UNL     1       2.439   2.171   4.600  1.00  0.00     0.275 C 
BRANCH  26  27
ATOM     27  O   UNL     1       1.987   3.243   5.443  1.00  0.00    -0.458 OA
BRANCH  27  28
ATOM     28  C   UNL     1       1.841   4.430   4.818  1.00  0.00     0.338 C 
ATOM     29  O   UNL     1       2.148   4.731   3.677  1.00  0.00    -0.246 OA
BRANCH  28  30
ATOM     30  C   UNL     1       1.116   5.339   5.707  1.00  0.00     0.060 A 
ATOM     31  C   UNL     1      -0.276   5.328   5.650  1.00  0.00     0.016 A 
ATOM     32  C   UNL     1       1.791   6.274   6.484  1.00  0.00     0.016 A 
ATOM     33  C   UNL     1      -1.008   6.303   6.316  1.00  0.00     0.010 A 
ATOM     34  C   UNL     1       1.052   7.213   7.209  1.00  0.00     0.010 A 
ATOM     35  C   UNL     1      -0.353   7.258   7.106  1.00  0.00    -0.014 A 
BRANCH  35  36
ATOM     36  C   UNL     1      -1.125   8.339   7.775  1.00  0.00     0.031 A 
ATOM     37  C   UNL     1      -0.855   9.777   7.423  1.00  0.00     0.074 A 
ATOM     38  C   UNL     1      -2.071   8.042   8.686  1.00  0.00     0.049 A 
ATOM     39  N   UNL     1      -1.261  10.870   8.019  1.00  0.00    -0.248 NA
ATOM     40  C   UNL     1      -0.002  10.018   6.248  1.00  0.00     0.031 C 
ATOM     41  C   UNL     1      -2.477   6.691   9.077  1.00  0.00     0.029 A 
ATOM     42  N   UNL     1      -2.866   8.860   9.451  1.00  0.00    -0.354 N 
ATOM     43  C   UNL     1      -0.667  11.920   7.332  1.00  0.00     0.074 A 
ATOM     44  C   UNL     1       0.128  11.336   6.272  1.00  0.00     0.031 C 
ATOM     45  C   UNL     1      -3.459   6.772   9.987  1.00  0.00     0.029 A 
ATOM     46  C   UNL     1      -3.691   8.176  10.310  1.00  0.00     0.049 A 
ATOM     47  H   UNL     1      -2.846   9.843   9.389  1.00  0.00     0.167 HD
ATOM     48  C   UNL     1      -0.774  13.250   7.569  1.00  0.00     0.037 A 
ATOM     49  C   UNL     1      -4.505   8.625  11.284  1.00  0.00     0.037 A 
ATOM     50  C   UNL     1      -1.611  13.823   8.590  1.00  0.00     0.049 A 
ATOM     51  C   UNL     1      -4.578  10.102  11.554  1.00  0.00     0.074 A 
ATOM     52  C   UNL     1      -1.804  15.158   8.901  1.00  0.00     0.029 A 
ATOM     53  N   UNL     1      -2.410  13.092   9.458  1.00  0.00    -0.354 N 
ATOM     54  N   UNL     1      -3.968  11.086  10.939  1.00  0.00    -0.248 NA
ATOM     55  C   UNL     1      -5.436  10.530  12.667  1.00  0.00     0.031 C 
ATOM     56  C   UNL     1      -2.691  15.233   9.980  1.00  0.00     0.029 A 
ATOM     57  C   UNL     1      -3.086  13.947  10.313  1.00  0.00     0.049 A 
ATOM     58  H   UNL     1      -2.484  12.110   9.465  1.00  0.00     0.167 HD
ATOM     59  C   UNL     1      -4.375  12.247  11.581  1.00  0.00     0.074 A 
ATOM     60  C   UNL     1      -5.301  11.847  12.620  1.00  0.00     0.031 C 
ATOM     61  C   UNL     1      -4.009  13.529  11.336  1.00  0.00     0.037 A 
BRANCH  48  62
ATOM     62  C   UNL     1       0.060  14.178   6.733  1.00  0.00     0.064 A 
ATOM     63  C   UNL     1      -0.229  14.428   5.384  1.00  0.00     0.173 A 
ATOM     64  C   UNL     1       1.146  14.857   7.308  1.00  0.00     0.173 A 
ATOM     65  F   UNL     1      -1.247  13.794   4.783  1.00  0.00    -0.203 F 
ATOM     66  C   UNL     1       0.553  15.305   4.636  1.00  0.00     0.198 A 
ATOM     67  C   UNL     1       1.907  15.755   6.565  1.00  0.00     0.198 A 
ATOM     68  F   UNL     1       1.462  14.658   8.597  1.00  0.00    -0.203 F 
ATOM     69  F   UNL     1       0.285  15.496   3.336  1.00  0.00    -0.200 F 
ATOM     70  C   UNL     1       1.615  15.973   5.228  1.00  0.00     0.200 A 
ATOM     71  F   UNL     1       2.925  16.408   7.143  1.00  0.00    -0.200 F 
ATOM     72  F   UNL     1       2.360  16.822   4.507  1.00  0.00    -0.200 F 
ENDBRANCH  48  62
BRANCH  49  73
ATOM     73  C   UNL     1      -5.279   7.657  12.105  1.00  0.00     0.064 A 
ATOM     74  C   UNL     1      -6.676   7.590  12.015  1.00  0.00     0.173 A 
ATOM     75  C   UNL     1      -4.639   6.776  12.991  1.00  0.00     0.173 A 
ATOM     76  F   UNL     1      -7.335   8.430  11.204  1.00  0.00    -0.203 F 
ATOM     77  C   UNL     1      -7.404   6.683  12.783  1.00  0.00     0.198 A 
ATOM     78  C   UNL     1      -5.365   5.849  13.734  1.00  0.00     0.198 A 
ATOM     79  F   UNL     1      -3.305   6.803  13.117  1.00  0.00    -0.203 F 
ATOM     80  F   UNL     1      -8.741   6.666  12.707  1.00  0.00    -0.200 F 
ATOM     81  C   UNL     1      -6.747   5.807  13.635  1.00  0.00     0.200 A 
ATOM     82  F   UNL     1      -4.725   4.995  14.545  1.00  0.00    -0.200 F 
ATOM     83  F   UNL     1      -7.446   4.928  14.365  1.00  0.00    -0.200 F 
ENDBRANCH  49  73
BRANCH  61  84
ATOM     84  C   UNL     1      -4.636  14.592  12.187  1.00  0.00     0.064 A 
ATOM     85  C   UNL     1      -4.255  14.783  13.523  1.00  0.00     0.173 A 
ATOM     86  C   UNL     1      -5.605  15.452  11.648  1.00  0.00     0.173 A 
ATOM     87  F   UNL     1      -3.345  13.974  14.087  1.00  0.00    -0.203 F 
ATOM     88  C   UNL     1      -4.837  15.784  14.296  1.00  0.00     0.198 A 
ATOM     89  C   UNL     1      -6.165  16.469  12.416  1.00  0.00     0.198 A 
ATOM     90  F   UNL     1      -5.999  15.312  10.374  1.00  0.00    -0.203 F 
ATOM     91  F   UNL     1      -4.490  15.922  15.583  1.00  0.00    -0.200 F 
ATOM     92  C   UNL     1      -5.786  16.630  13.740  1.00  0.00     0.200 A 
ATOM     93  F   UNL     1      -7.074  17.291  11.875  1.00  0.00    -0.200 F 
ATOM     94  F   UNL     1      -6.341  17.596  14.484  1.00  0.00    -0.200 F 
ENDBRANCH  61  84
ENDBRANCH  35  36
ENDBRANCH  28  30
ENDBRANCH  27  28
ENDBRANCH  26  27
ENDBRANCH  25  26
ENDBRANCH   1  25
TORSDOF 14
