REMARK SMILES COc1ccc(S(=O)(=O)N2CCC[C@H](C(=O)N3CCC[C@H](C(=O)OCCOC(=O)c4ccc(-c5c6nc(c(-c7c(F)c(F)c(F)c(F)c7F)c7ccc([nH]7)c(-c7c(F)c(F)c(F)c(F)c7F)c7nc(c(-c8c(F)c(F)c(F)c(F)c8F)c8ccc5[nH]8)C=C7)C=C6)cc4)C3)C2)cc1
REMARK SMILES IDX 24 1 22 2 23 3 21 4 17 5 18 6 93 7 19 8 20 9 15 10 16 11
REMARK SMILES IDX 14 12 10 13 11 14 94 15 12 16 13 17 7 18 8 19 9 20 6 21 3 22
REMARK SMILES IDX 4 23 96 24 5 25 95 26 2 27 1 28 25 29 26 30 27 31 28 32
REMARK SMILES IDX 29 33 30 34 31 35 92 36 32 37 91 38 33 39 34 40 35 41 85 42
REMARK SMILES IDX 36 43 90 44 84 45 86 46 37 47 89 48 83 49 82 50 38 52 70 53
REMARK SMILES IDX 50 54 69 55 51 56 54 57 68 58 87 59 52 60 53 61 67 63 88 64
REMARK SMILES IDX 55 65 39 66 40 67 48 68 41 69 42 70 46 71 49 72 43 73 44 74
REMARK SMILES IDX 47 75 45 76 71 77 72 78 80 79 73 80 74 81 78 82 81 83 75 84
REMARK SMILES IDX 76 85 79 86 77 87 56 88 57 89 65 90 58 91 59 92 63 93 66 94
REMARK SMILES IDX 60 95 61 96 64 97 62 98
REMARK H PARENT 86 51 54 62
REMARK Flexibility Score: inf
ROOT
ATOM      1  O   UNL     1       8.326  10.552   0.785  1.00  0.00    -0.462 OA
ENDROOT
BRANCH   1   2
ATOM      2  C   UNL     1       7.742   9.708   1.667  1.00  0.00     0.310 C 
ATOM      3  O   UNL     1       8.306   8.762   2.210  1.00  0.00    -0.252 OA
BRANCH   2   4
ATOM      4  C   UNL     1       6.279  10.030   1.936  1.00  0.00     0.119 C 
ATOM      5  N   UNL     1       5.371   8.903  -0.031  1.00  0.00    -0.342 N 
ATOM      6  C   UNL     1       4.800  10.127  -0.584  1.00  0.00     0.119 C 
ATOM      7  C   UNL     1       5.433   8.873   1.419  1.00  0.00     0.134 C 
ATOM      8  C   UNL     1       5.543  11.372  -0.110  1.00  0.00     0.022 C 
ATOM      9  C   UNL     1       5.767  11.372   1.404  1.00  0.00     0.019 C 
BRANCH   5  10
ATOM     10  C   UNL     1       6.135   8.091  -0.845  1.00  0.00     0.227 C 
ATOM     11  O   UNL     1       6.772   8.562  -1.793  1.00  0.00    -0.275 OA
BRANCH  10  12
ATOM     12  C   UNL     1       6.028   6.566  -0.712  1.00  0.00     0.094 C 
ATOM     13  N   UNL     1       3.639   6.283  -0.128  1.00  0.00    -0.197 NA
ATOM     14  C   UNL     1       3.926   5.865   1.252  1.00  0.00     0.102 C 
ATOM     15  C   UNL     1       4.655   6.113  -1.178  1.00  0.00     0.116 C 
ATOM     16  C   UNL     1       5.360   5.427   1.525  1.00  0.00     0.018 C 
ATOM     17  C   UNL     1       6.466   5.866   0.564  1.00  0.00     0.016 C 
BRANCH  13  18
ATOM     18  S   UNL     1       2.008   6.338  -0.597  1.00  0.00     0.243 S 
ATOM     19  O   UNL     1       1.924   6.954  -1.897  1.00  0.00    -0.207 OA
ATOM     20  O   UNL     1       1.260   6.851   0.538  1.00  0.00    -0.207 OA
BRANCH  18  21
ATOM     21  C   UNL     1       1.501   4.641  -0.797  1.00  0.00     0.082 A 
ATOM     22  C   UNL     1       0.571   2.012  -0.959  1.00  0.00     0.118 A 
ATOM     23  C   UNL     1      -0.315   3.080  -1.117  1.00  0.00     0.048 A 
ATOM     24  C   UNL     1       1.929   2.261  -0.774  1.00  0.00     0.048 A 
ATOM     25  C   UNL     1       0.144   4.396  -1.026  1.00  0.00     0.025 A 
ATOM     26  C   UNL     1       2.393   3.573  -0.685  1.00  0.00     0.025 A 
BRANCH  22  27
ATOM     27  O   UNL     1       0.023   0.761  -1.022  1.00  0.00    -0.497 OA
ATOM     28  C   UNL     1       0.657  -0.202  -0.182  1.00  0.00     0.278 C 
ENDBRANCH  22  27
ENDBRANCH  18  21
ENDBRANCH  13  18
ENDBRANCH  10  12
ENDBRANCH   5  10
ENDBRANCH   2   4
ENDBRANCH   1   2
BRANCH   1  29
ATOM     29  C   UNL     1       9.708  10.318   0.465  1.00  0.00     0.274 C 
BRANCH  29  30
ATOM     30  C   UNL     1      10.606  11.320   1.191  1.00  0.00     0.275 C 
BRANCH  30  31
ATOM     31  O   UNL     1      10.588  11.101   2.615  1.00  0.00    -0.458 OA
BRANCH  31  32
ATOM     32  C   UNL     1       9.654  11.809   3.289  1.00  0.00     0.338 C 
ATOM     33  O   UNL     1       8.876  12.637   2.848  1.00  0.00    -0.246 OA
BRANCH  32  34
ATOM     34  C   UNL     1       9.599  11.346   4.680  1.00  0.00     0.060 A 
ATOM     35  C   UNL     1       8.508  10.570   5.072  1.00  0.00     0.016 A 
ATOM     36  C   UNL     1      10.541  11.772   5.615  1.00  0.00     0.016 A 
ATOM     37  C   UNL     1       8.328  10.234   6.406  1.00  0.00     0.010 A 
ATOM     38  C   UNL     1      10.373  11.416   6.956  1.00  0.00     0.010 A 
ATOM     39  C   UNL     1       9.256  10.662   7.360  1.00  0.00    -0.014 A 
BRANCH  39  40
ATOM     40  C   UNL     1       9.012  10.373   8.790  1.00  0.00     0.031 A 
ATOM     41  C   UNL     1       8.606  11.485   9.710  1.00  0.00     0.074 A 
ATOM     42  C   UNL     1       9.122   9.113   9.245  1.00  0.00     0.049 A 
ATOM     43  N   UNL     1       8.460  11.473  11.010  1.00  0.00    -0.248 NA
ATOM     44  C   UNL     1       8.327  12.786   9.082  1.00  0.00     0.031 C 
ATOM     45  C   UNL     1       9.442   7.944   8.425  1.00  0.00     0.029 A 
ATOM     46  N   UNL     1       8.976   8.606  10.511  1.00  0.00    -0.354 N 
ATOM     47  C   UNL     1       8.107  12.769  11.360  1.00  0.00     0.074 A 
ATOM     48  C   UNL     1       8.066  13.544  10.138  1.00  0.00     0.031 C 
ATOM     49  C   UNL     1       9.466   6.854   9.209  1.00  0.00     0.029 A 
ATOM     50  C   UNL     1       9.221   7.258  10.590  1.00  0.00     0.049 A 
ATOM     51  H   UNL     1       8.720   9.156  11.286  1.00  0.00     0.167 HD
ATOM     52  C   UNL     1       7.845  13.262  12.593  1.00  0.00     0.037 A 
ATOM     53  C   UNL     1       9.277   6.450  11.665  1.00  0.00     0.037 A 
ATOM     54  C   UNL     1       7.867  12.476  13.798  1.00  0.00     0.049 A 
ATOM     55  C   UNL     1       9.038   7.036  13.030  1.00  0.00     0.074 A 
ATOM     56  C   UNL     1       7.618  12.877  15.098  1.00  0.00     0.029 A 
ATOM     57  N   UNL     1       8.152  11.118  13.845  1.00  0.00    -0.354 N 
ATOM     58  N   UNL     1       8.741   8.269  13.360  1.00  0.00    -0.248 NA
ATOM     59  C   UNL     1       9.153   6.118  14.171  1.00  0.00     0.031 C 
ATOM     60  C   UNL     1       7.787  11.769  15.937  1.00  0.00     0.029 A 
ATOM     61  C   UNL     1       8.099  10.669  15.155  1.00  0.00     0.049 A 
ATOM     62  H   UNL     1       8.361  10.557  13.064  1.00  0.00     0.167 HD
ATOM     63  C   UNL     1       8.616   8.274  14.742  1.00  0.00     0.074 A 
ATOM     64  C   UNL     1       8.853   6.915  15.187  1.00  0.00     0.031 C 
ATOM     65  C   UNL     1       8.335   9.310  15.571  1.00  0.00     0.037 A 
BRANCH  52  66
ATOM     66  C   UNL     1       7.551  14.729  12.701  1.00  0.00     0.064 A 
ATOM     67  C   UNL     1       6.336  15.276  12.263  1.00  0.00     0.173 A 
ATOM     68  C   UNL     1       8.495  15.598  13.271  1.00  0.00     0.173 A 
ATOM     69  F   UNL     1       5.409  14.490  11.695  1.00  0.00    -0.203 F 
ATOM     70  C   UNL     1       6.087  16.642  12.369  1.00  0.00     0.198 A 
ATOM     71  C   UNL     1       8.232  16.959  13.399  1.00  0.00     0.198 A 
ATOM     72  F   UNL     1       9.672  15.125  13.706  1.00  0.00    -0.203 F 
ATOM     73  F   UNL     1       4.937  17.150  11.903  1.00  0.00    -0.200 F 
ATOM     74  C   UNL     1       7.032  17.481  12.942  1.00  0.00     0.200 A 
ATOM     75  F   UNL     1       9.143  17.766  13.960  1.00  0.00    -0.200 F 
ATOM     76  F   UNL     1       6.788  18.795  13.046  1.00  0.00    -0.200 F 
ENDBRANCH  52  66
BRANCH  53  77
ATOM     77  C   UNL     1       9.601   5.011  11.494  1.00  0.00     0.064 A 
ATOM     78  C   UNL     1       8.636   4.023  11.729  1.00  0.00     0.173 A 
ATOM     79  C   UNL     1      10.879   4.596  11.091  1.00  0.00     0.173 A 
ATOM     80  F   UNL     1       7.407   4.371  12.138  1.00  0.00    -0.203 F 
ATOM     81  C   UNL     1       8.941   2.672  11.578  1.00  0.00     0.198 A 
ATOM     82  C   UNL     1      11.174   3.246  10.914  1.00  0.00     0.198 A 
ATOM     83  F   UNL     1      11.837   5.503  10.854  1.00  0.00    -0.203 F 
ATOM     84  F   UNL     1       8.011   1.744  11.846  1.00  0.00    -0.200 F 
ATOM     85  C   UNL     1      10.207   2.285  11.164  1.00  0.00     0.200 A 
ATOM     86  F   UNL     1      12.394   2.878  10.501  1.00  0.00    -0.200 F 
ATOM     87  F   UNL     1      10.496   0.985  11.012  1.00  0.00    -0.200 F 
ENDBRANCH  53  77
BRANCH  65  88
ATOM     88  C   UNL     1       8.237   9.001  17.035  1.00  0.00     0.064 A 
ATOM     89  C   UNL     1       9.378   8.740  17.807  1.00  0.00     0.173 A 
ATOM     90  C   UNL     1       6.990   8.992  17.676  1.00  0.00     0.173 A 
ATOM     91  F   UNL     1      10.591   8.720  17.234  1.00  0.00    -0.203 F 
ATOM     92  C   UNL     1       9.271   8.454  19.165  1.00  0.00     0.198 A 
ATOM     93  C   UNL     1       6.889   8.732  19.039  1.00  0.00     0.198 A 
ATOM     94  F   UNL     1       5.870   9.240  16.980  1.00  0.00    -0.203 F 
ATOM     95  F   UNL     1      10.369   8.160  19.875  1.00  0.00    -0.200 F 
ATOM     96  C   UNL     1       8.028   8.457  19.781  1.00  0.00     0.200 A 
ATOM     97  F   UNL     1       5.688   8.744  19.635  1.00  0.00    -0.200 F 
ATOM     98  F   UNL     1       7.927   8.183  21.089  1.00  0.00    -0.200 F 
ENDBRANCH  65  88
ENDBRANCH  39  40
ENDBRANCH  32  34
ENDBRANCH  31  32
ENDBRANCH  30  31
ENDBRANCH  29  30
ENDBRANCH   1  29
TORSDOF 16
