REMARK SMILES CC[C@H]1CC(=O)N(CCn2cc(C(=O)OCCOC(=O)c3ccc(-c4c5nc(c(-c6c(F)c(F)c(F)c(F)c6F)c6ccc([nH]6)c(-c6c(F)c(F)c(F)c(F)c6F)c6nc(c(-c7c(F)c(F)c(F)c(F)c7F)c7ccc4[nH]7)C=C6)C=C5)cc3)nn2)C1
REMARK SMILES IDX 16 1 15 2 13 3 14 4 12 5 10 6 11 7 85 8 84 9 9 10 8 11 7 12
REMARK SMILES IDX 3 13 4 14 86 15 5 16 6 17 2 18 1 19 17 20 18 21 19 22 20 23
REMARK SMILES IDX 21 24 22 25 83 26 23 27 82 28 24 29 25 30 26 31 76 32 27 33
REMARK SMILES IDX 81 34 75 35 77 36 28 37 80 38 74 39 73 40 29 42 61 43 41 44
REMARK SMILES IDX 60 45 42 46 45 47 59 48 78 49 43 50 44 51 58 53 79 54 46 55
REMARK SMILES IDX 30 56 31 57 39 58 32 59 33 60 37 61 40 62 34 63 35 64 38 65
REMARK SMILES IDX 36 66 62 67 63 68 71 69 64 70 65 71 69 72 72 73 66 74 67 75
REMARK SMILES IDX 70 76 68 77 47 78 48 79 56 80 49 81 50 82 54 83 57 84 51 85
REMARK SMILES IDX 52 86 55 87 53 88
REMARK H PARENT 77 41 45 52
REMARK Flexibility Score: inf
ROOT
ATOM      1  C   UNL     1      -1.150   3.713  -3.160  1.00  0.00     0.275 C 
ENDROOT
BRANCH   1   2
ATOM      2  O   UNL     1      -0.737   4.499  -2.027  1.00  0.00    -0.457 OA
BRANCH   2   3
ATOM      3  C   UNL     1      -0.365   5.801  -2.274  1.00  0.00     0.360 C 
ATOM      4  O   UNL     1      -0.264   6.281  -3.394  1.00  0.00    -0.244 OA
BRANCH   3   5
ATOM      5  C   UNL     1      -0.050   6.516  -1.044  1.00  0.00     0.190 A 
ATOM      6  N   UNL     1       0.434   6.822   1.030  1.00  0.00    -0.250 N 
ATOM      7  C   UNL     1      -0.534   6.284   0.234  1.00  0.00     0.147 A 
ATOM      8  N   UNL     1       1.194   7.680   0.320  1.00  0.00    -0.066 NA
ATOM      9  N   UNL     1       0.923   7.479  -0.964  1.00  0.00    -0.123 NA
BRANCH   6  10
ATOM     10  C   UNL     1       0.855   6.438   2.364  1.00  0.00     0.167 C 
BRANCH  10  11
ATOM     11  C   UNL     1       0.438   5.041   2.871  1.00  0.00     0.143 C 
BRANCH  11  12
ATOM     12  N   UNL     1       0.992   3.897   2.141  1.00  0.00    -0.341 N 
ATOM     13  C   UNL     1       1.201   2.185   0.521  1.00  0.00     0.017 C 
ATOM     14  C   UNL     1       2.500   2.289   1.321  1.00  0.00     0.105 C 
ATOM     15  C   UNL     1       0.486   3.479   0.867  1.00  0.00     0.123 C 
ATOM     16  C   UNL     1       2.162   3.230   2.463  1.00  0.00     0.222 C 
ATOM     17  O   UNL     1       2.845   3.413   3.456  1.00  0.00    -0.275 OA
BRANCH  13  18
ATOM     18  C   UNL     1       1.315   2.074  -1.007  1.00  0.00     0.002 C 
ATOM     19  C   UNL     1       2.425   1.199  -1.547  1.00  0.00     0.004 C 
ENDBRANCH  13  18
ENDBRANCH  11  12
ENDBRANCH  10  11
ENDBRANCH   6  10
ENDBRANCH   3   5
ENDBRANCH   2   3
ENDBRANCH   1   2
BRANCH   1  20
ATOM     20  C   UNL     1      -2.662   3.723  -3.297  1.00  0.00     0.275 C 
BRANCH  20  21
ATOM     21  O   UNL     1      -3.127   5.039  -3.575  1.00  0.00    -0.458 OA
BRANCH  21  22
ATOM     22  C   UNL     1      -3.426   5.772  -2.481  1.00  0.00     0.338 C 
ATOM     23  O   UNL     1      -3.153   5.525  -1.319  1.00  0.00    -0.246 OA
BRANCH  22  24
ATOM     24  C   UNL     1      -4.326   6.852  -2.871  1.00  0.00     0.060 A 
ATOM     25  C   UNL     1      -4.576   7.856  -1.931  1.00  0.00     0.016 A 
ATOM     26  C   UNL     1      -5.103   6.691  -4.025  1.00  0.00     0.016 A 
ATOM     27  C   UNL     1      -5.713   8.617  -2.079  1.00  0.00     0.010 A 
ATOM     28  C   UNL     1      -6.247   7.433  -4.159  1.00  0.00     0.010 A 
ATOM     29  C   UNL     1      -6.565   8.344  -3.154  1.00  0.00    -0.014 A 
BRANCH  29  30
ATOM     30  C   UNL     1      -7.779   9.116  -3.281  1.00  0.00     0.031 A 
ATOM     31  C   UNL     1      -7.561  10.492  -3.777  1.00  0.00     0.074 A 
ATOM     32  C   UNL     1      -8.991   8.561  -3.112  1.00  0.00     0.049 A 
ATOM     33  N   UNL     1      -7.886  11.598  -3.196  1.00  0.00    -0.248 NA
ATOM     34  C   UNL     1      -6.782  10.666  -5.014  1.00  0.00     0.031 C 
ATOM     35  C   UNL     1      -9.321   7.148  -2.912  1.00  0.00     0.029 A 
ATOM     36  N   UNL     1     -10.209   9.153  -3.213  1.00  0.00    -0.354 N 
ATOM     37  C   UNL     1      -7.490  12.611  -4.062  1.00  0.00     0.074 A 
ATOM     38  C   UNL     1      -6.693  11.993  -5.087  1.00  0.00     0.031 C 
ATOM     39  C   UNL     1     -10.643   6.971  -3.134  1.00  0.00     0.029 A 
ATOM     40  C   UNL     1     -11.258   8.265  -3.385  1.00  0.00     0.049 A 
ATOM     41  H   UNL     1     -10.335  10.128  -3.168  1.00  0.00     0.167 HD
ATOM     42  C   UNL     1      -8.037  13.852  -3.984  1.00  0.00     0.037 A 
ATOM     43  C   UNL     1     -12.511   8.584  -3.796  1.00  0.00     0.037 A 
ATOM     44  C   UNL     1      -8.660  14.070  -2.706  1.00  0.00     0.049 A 
ATOM     45  C   UNL     1     -12.691  10.045  -3.575  1.00  0.00     0.074 A 
ATOM     46  C   UNL     1      -8.204  14.063  -1.401  1.00  0.00     0.029 A 
ATOM     47  N   UNL     1     -10.028  13.978  -2.624  1.00  0.00    -0.354 N 
ATOM     48  N   UNL     1     -12.788  10.598  -2.399  1.00  0.00    -0.248 NA
ATOM     49  C   UNL     1     -12.323  10.948  -4.658  1.00  0.00     0.031 C 
ATOM     50  C   UNL     1      -9.262  13.486  -0.641  1.00  0.00     0.029 A 
ATOM     51  C   UNL     1     -10.317  13.225  -1.515  1.00  0.00     0.049 A 
ATOM     52  H   UNL     1     -10.679  14.377  -3.245  1.00  0.00     0.167 HD
ATOM     53  C   UNL     1     -12.078  11.785  -2.510  1.00  0.00     0.074 A 
ATOM     54  C   UNL     1     -11.908  11.998  -3.944  1.00  0.00     0.031 C 
ATOM     55  C   UNL     1     -11.443  12.327  -1.430  1.00  0.00     0.037 A 
BRANCH  42  56
ATOM     56  C   UNL     1      -8.313  14.723  -5.180  1.00  0.00     0.064 A 
ATOM     57  C   UNL     1      -8.743  16.047  -4.974  1.00  0.00     0.173 A 
ATOM     58  C   UNL     1      -8.469  14.225  -6.492  1.00  0.00     0.173 A 
ATOM     59  F   UNL     1      -8.658  16.613  -3.761  1.00  0.00    -0.203 F 
ATOM     60  C   UNL     1      -9.363  16.784  -5.985  1.00  0.00     0.198 A 
ATOM     61  C   UNL     1      -9.035  14.984  -7.513  1.00  0.00     0.198 A 
ATOM     62  F   UNL     1      -8.195  12.955  -6.813  1.00  0.00    -0.203 F 
ATOM     63  F   UNL     1      -9.880  17.989  -5.707  1.00  0.00    -0.200 F 
ATOM     64  C   UNL     1      -9.514  16.250  -7.252  1.00  0.00     0.200 A 
ATOM     65  F   UNL     1      -9.190  14.441  -8.729  1.00  0.00    -0.200 F 
ATOM     66  F   UNL     1     -10.167  16.928  -8.204  1.00  0.00    -0.200 F 
ENDBRANCH  42  56
BRANCH  43  67
ATOM     67  C   UNL     1     -13.456   7.781  -4.609  1.00  0.00     0.064 A 
ATOM     68  C   UNL     1     -14.797   8.179  -4.751  1.00  0.00     0.173 A 
ATOM     69  C   UNL     1     -13.017   6.760  -5.476  1.00  0.00     0.173 A 
ATOM     70  F   UNL     1     -15.291   9.169  -3.994  1.00  0.00    -0.203 F 
ATOM     71  C   UNL     1     -15.633   7.617  -5.721  1.00  0.00     0.198 A 
ATOM     72  C   UNL     1     -13.857   6.189  -6.434  1.00  0.00     0.198 A 
ATOM     73  F   UNL     1     -11.740   6.357  -5.483  1.00  0.00    -0.203 F 
ATOM     74  F   UNL     1     -16.883   8.076  -5.872  1.00  0.00    -0.200 F 
ATOM     75  C   UNL     1     -15.159   6.630  -6.569  1.00  0.00     0.200 A 
ATOM     76  F   UNL     1     -13.375   5.255  -7.266  1.00  0.00    -0.200 F 
ATOM     77  F   UNL     1     -15.940   6.135  -7.538  1.00  0.00    -0.200 F 
ENDBRANCH  43  67
BRANCH  55  78
ATOM     78  C   UNL     1     -11.758  11.765  -0.074  1.00  0.00     0.064 A 
ATOM     79  C   UNL     1     -11.508  10.434   0.303  1.00  0.00     0.173 A 
ATOM     80  C   UNL     1     -12.191  12.647   0.925  1.00  0.00     0.173 A 
ATOM     81  F   UNL     1     -10.989   9.556  -0.564  1.00  0.00    -0.203 F 
ATOM     82  C   UNL     1     -11.731   9.998   1.607  1.00  0.00     0.198 A 
ATOM     83  C   UNL     1     -12.374  12.219   2.237  1.00  0.00     0.198 A 
ATOM     84  F   UNL     1     -12.390  13.944   0.639  1.00  0.00    -0.203 F 
ATOM     85  F   UNL     1     -11.499   8.719   1.937  1.00  0.00    -0.200 F 
ATOM     86  C   UNL     1     -12.157  10.893   2.574  1.00  0.00     0.200 A 
ATOM     87  F   UNL     1     -12.735  13.099   3.181  1.00  0.00    -0.200 F 
ATOM     88  F   UNL     1     -12.329  10.483   3.839  1.00  0.00    -0.200 F 
ENDBRANCH  55  78
ENDBRANCH  29  30
ENDBRANCH  22  24
ENDBRANCH  21  22
ENDBRANCH  20  21
ENDBRANCH   1  20
TORSDOF 15
