REMARK SMILES CCc1ccccc1O[C@H]1CCC[C@@]([NH2+]C)(C(=O)OCCOC(=O)c2ccc(-c3c4nc(c(-c5c(F)c(F)c(F)c(F)c5F)c5ccc([nH]5)c(-c5c(F)c(F)c(F)c(F)c5F)c5nc(c(-c6c(F)c(F)c(F)c(F)c6F)c6ccc3[nH]6)C=C5)C=C4)cc2)C1
REMARK SMILES IDX 20 1 19 2 17 3 18 4 14 5 10 6 11 7 88 8 12 9 13 10 9 11 8 12
REMARK SMILES IDX 3 13 4 14 5 15 7 16 6 17 2 18 1 19 15 20 16 21 21 24 22 25
REMARK SMILES IDX 23 26 24 27 25 28 26 29 87 30 27 31 86 32 28 33 29 34 30 35
REMARK SMILES IDX 80 36 31 37 85 38 79 39 81 40 32 41 84 42 78 43 77 44 33 46
REMARK SMILES IDX 65 47 45 48 64 49 46 50 49 51 63 52 82 53 47 54 48 55 62 57
REMARK SMILES IDX 83 58 50 59 34 60 35 61 43 62 36 63 37 64 41 65 44 66 38 67
REMARK SMILES IDX 39 68 42 69 40 70 66 71 67 72 75 73 68 74 69 75 73 76 76 77
REMARK SMILES IDX 70 78 71 79 74 80 72 81 51 82 52 83 60 84 53 85 54 86 58 87
REMARK SMILES IDX 61 88 55 89 56 90 59 91 57 92
REMARK H PARENT 15 22 15 23 81 45 49 56
REMARK Flexibility Score: inf
ROOT
ATOM      1  C   UNL     1       1.977   3.472  -3.324  1.00  0.00     0.274 C 
ENDROOT
BRANCH   1   2
ATOM      2  O   UNL     1       1.171   2.314  -3.042  1.00  0.00    -0.457 OA
BRANCH   2   3
ATOM      3  C   UNL     1       1.919   1.207  -2.792  1.00  0.00     0.368 C 
ATOM      4  O   UNL     1       3.107   1.165  -3.123  1.00  0.00    -0.245 OA
BRANCH   3   5
ATOM      5  C   UNL     1       1.132   0.107  -1.906  1.00  0.00     0.197 C 
ATOM      6  C   UNL     1       0.114   1.496   0.350  1.00  0.00     0.180 C 
ATOM      7  C   UNL     1      -1.276   1.103  -0.194  1.00  0.00     0.046 C 
ATOM      8  C   UNL     1       1.002   0.264  -0.317  1.00  0.00     0.126 C 
ATOM      9  C   UNL     1      -1.304   1.024  -1.728  1.00  0.00     0.011 C 
ATOM     10  C   UNL     1      -0.334   0.009  -2.385  1.00  0.00     0.081 C 
BRANCH   6  11
ATOM     11  O   UNL     1       0.555   2.939   0.135  1.00  0.00    -0.490 OA
BRANCH  11  12
ATOM     12  C   UNL     1       0.305   4.121   0.896  1.00  0.00     0.122 A 
ATOM     13  C   UNL     1       1.138   5.366   0.902  1.00  0.00    -0.006 A 
ATOM     14  C   UNL     1       0.525   6.562   1.425  1.00  0.00     0.007 A 
ATOM     15  C   UNL     1      -0.682   6.594   2.080  1.00  0.00     0.001 A 
ATOM     16  C   UNL     1      -0.920   4.206   1.606  1.00  0.00     0.047 A 
ATOM     17  C   UNL     1      -1.382   5.411   2.205  1.00  0.00     0.004 A 
BRANCH  13  18
ATOM     18  C   UNL     1       2.624   5.904   0.565  1.00  0.00     0.036 C 
ATOM     19  C   UNL     1       4.159   5.547   0.528  1.00  0.00     0.009 C 
ENDBRANCH  13  18
ENDBRANCH  11  12
ENDBRANCH   6  11
BRANCH   5  20
ATOM     20  N   UNL     1       1.779  -1.244  -2.236  1.00  0.00    -0.334 N 
ATOM     21  C   UNL     1       3.250  -1.284  -2.177  1.00  0.00     0.331 C 
ATOM     22  H   UNL     1       1.497  -1.502  -3.182  1.00  0.00     0.347 HD
ATOM     23  H   UNL     1       1.456  -1.888  -1.515  1.00  0.00     0.347 HD
ENDBRANCH   5  20
ENDBRANCH   3   5
ENDBRANCH   2   3
ENDBRANCH   1   2
BRANCH   1  24
ATOM     24  C   UNL     1       2.193   4.289  -2.044  1.00  0.00     0.275 C 
BRANCH  24  25
ATOM     25  O   UNL     1       3.186   3.945  -0.998  1.00  0.00    -0.458 OA
BRANCH  25  26
ATOM     26  C   UNL     1       3.091   2.840  -0.228  1.00  0.00     0.338 C 
ATOM     27  O   UNL     1       2.720   1.843  -0.787  1.00  0.00    -0.246 OA
BRANCH  26  28
ATOM     28  C   UNL     1       3.270   2.557   1.276  1.00  0.00     0.060 A 
ATOM     29  C   UNL     1       3.491   1.201   1.558  1.00  0.00     0.016 A 
ATOM     30  C   UNL     1       2.796   3.306   2.364  1.00  0.00     0.016 A 
ATOM     31  C   UNL     1       2.997   0.590   2.726  1.00  0.00     0.010 A 
ATOM     32  C   UNL     1       2.352   2.727   3.568  1.00  0.00     0.010 A 
ATOM     33  C   UNL     1       2.419   1.352   3.757  1.00  0.00    -0.014 A 
BRANCH  33  34
ATOM     34  C   UNL     1       2.349   0.818   5.143  1.00  0.00     0.031 A 
ATOM     35  C   UNL     1       1.101   0.636   5.969  1.00  0.00     0.074 A 
ATOM     36  C   UNL     1       3.559   0.654   5.709  1.00  0.00     0.049 A 
ATOM     37  N   UNL     1       0.991   0.150   7.185  1.00  0.00    -0.248 NA
ATOM     38  C   UNL     1      -0.177   1.084   5.397  1.00  0.00     0.031 C 
ATOM     39  C   UNL     1       4.827   0.987   5.048  1.00  0.00     0.029 A 
ATOM     40  N   UNL     1       3.941   0.190   6.935  1.00  0.00    -0.354 N 
ATOM     41  C   UNL     1      -0.356   0.234   7.530  1.00  0.00     0.074 A 
ATOM     42  C   UNL     1      -1.026   0.842   6.396  1.00  0.00     0.031 C 
ATOM     43  C   UNL     1       5.844   0.650   5.839  1.00  0.00     0.029 A 
ATOM     44  C   UNL     1       5.303   0.133   7.083  1.00  0.00     0.049 A 
ATOM     45  H   UNL     1       3.305  -0.075   7.638  1.00  0.00     0.167 HD
ATOM     46  C   UNL     1      -0.957  -0.159   8.687  1.00  0.00     0.037 A 
ATOM     47  C   UNL     1       6.056  -0.297   8.106  1.00  0.00     0.037 A 
ATOM     48  C   UNL     1      -0.245  -0.741   9.810  1.00  0.00     0.049 A 
ATOM     49  C   UNL     1       5.362  -0.835   9.309  1.00  0.00     0.074 A 
ATOM     50  C   UNL     1      -0.754  -1.260  10.991  1.00  0.00     0.029 A 
ATOM     51  N   UNL     1       1.137  -0.861   9.898  1.00  0.00    -0.354 N 
ATOM     52  N   UNL     1       4.078  -0.878   9.565  1.00  0.00    -0.248 NA
ATOM     53  C   UNL     1       6.215  -1.402  10.353  1.00  0.00     0.031 C 
ATOM     54  C   UNL     1       0.317  -1.642  11.809  1.00  0.00     0.029 A 
ATOM     55  C   UNL     1       1.496  -1.423  11.116  1.00  0.00     0.049 A 
ATOM     56  H   UNL     1       1.772  -0.586   9.196  1.00  0.00     0.167 HD
ATOM     57  C   UNL     1       3.962  -1.481  10.804  1.00  0.00     0.074 A 
ATOM     58  C   UNL     1       5.310  -1.821  11.225  1.00  0.00     0.031 C 
ATOM     59  C   UNL     1       2.844  -1.723  11.531  1.00  0.00     0.037 A 
BRANCH  46  60
ATOM     60  C   UNL     1      -2.456  -0.002   8.831  1.00  0.00     0.064 A 
ATOM     61  C   UNL     1      -3.353  -0.778   8.079  1.00  0.00     0.173 A 
ATOM     62  C   UNL     1      -3.006   0.833   9.821  1.00  0.00     0.173 A 
ATOM     63  F   UNL     1      -2.896  -1.609   7.131  1.00  0.00    -0.203 F 
ATOM     64  C   UNL     1      -4.731  -0.710   8.297  1.00  0.00     0.198 A 
ATOM     65  C   UNL     1      -4.381   0.879  10.054  1.00  0.00     0.198 A 
ATOM     66  F   UNL     1      -2.205   1.583  10.594  1.00  0.00    -0.203 F 
ATOM     67  F   UNL     1      -5.564  -1.446   7.547  1.00  0.00    -0.200 F 
ATOM     68  C   UNL     1      -5.244   0.112   9.289  1.00  0.00     0.200 A 
ATOM     69  F   UNL     1      -4.871   1.656  11.031  1.00  0.00    -0.200 F 
ATOM     70  F   UNL     1      -6.566   0.161   9.508  1.00  0.00    -0.200 F 
ENDBRANCH  46  60
BRANCH  47  71
ATOM     71  C   UNL     1       7.529  -0.301   7.946  1.00  0.00     0.064 A 
ATOM     72  C   UNL     1       8.216  -1.502   7.734  1.00  0.00     0.173 A 
ATOM     73  C   UNL     1       8.254   0.897   7.856  1.00  0.00     0.173 A 
ATOM     74  F   UNL     1       7.559  -2.670   7.799  1.00  0.00    -0.203 F 
ATOM     75  C   UNL     1       9.577  -1.507   7.444  1.00  0.00     0.198 A 
ATOM     76  C   UNL     1       9.607   0.892   7.529  1.00  0.00     0.198 A 
ATOM     77  F   UNL     1       7.629   2.074   8.005  1.00  0.00    -0.203 F 
ATOM     78  F   UNL     1      10.215  -2.671   7.261  1.00  0.00    -0.200 F 
ATOM     79  C   UNL     1      10.268  -0.310   7.329  1.00  0.00     0.200 A 
ATOM     80  F   UNL     1      10.260   2.052   7.375  1.00  0.00    -0.200 F 
ATOM     81  F   UNL     1      11.570  -0.315   7.014  1.00  0.00    -0.200 F 
ENDBRANCH  47  71
BRANCH  59  82
ATOM     82  C   UNL     1       3.059  -2.392  12.856  1.00  0.00     0.064 A 
ATOM     83  C   UNL     1       3.679  -1.722  13.923  1.00  0.00     0.173 A 
ATOM     84  C   UNL     1       2.688  -3.730  13.045  1.00  0.00     0.173 A 
ATOM     85  F   UNL     1       4.073  -0.447  13.782  1.00  0.00    -0.203 F 
ATOM     86  C   UNL     1       3.965  -2.384  15.113  1.00  0.00     0.198 A 
ATOM     87  C   UNL     1       2.947  -4.380  14.248  1.00  0.00     0.198 A 
ATOM     88  F   UNL     1       2.093  -4.414  12.056  1.00  0.00    -0.203 F 
ATOM     89  F   UNL     1       4.631  -1.749  16.087  1.00  0.00    -0.200 F 
ATOM     90  C   UNL     1       3.598  -3.712  15.274  1.00  0.00     0.200 A 
ATOM     91  F   UNL     1       2.585  -5.660  14.407  1.00  0.00    -0.200 F 
ATOM     92  F   UNL     1       3.889  -4.353  16.414  1.00  0.00    -0.200 F 
ENDBRANCH  59  82
ENDBRANCH  33  34
ENDBRANCH  26  28
ENDBRANCH  25  26
ENDBRANCH  24  25
ENDBRANCH   1  24
TORSDOF 15
