REMARK SMILES COc1ccccc1N1C(=O)[C@@H]2[C@@H](C1=O)[C@@](Cc1ccccc1)(C(=O)OCCOC(=O)c1ccc(-c3c4nc(c(-c5c(F)c(F)c(F)c(F)c5F)c5ccc([nH]5)c(-c5c(F)c(F)c(F)c(F)c5F)c5nc(c(-c6c(F)c(F)c(F)c(F)c6F)c6ccc3[nH]6)C=C5)C=C4)cc1)[NH2+][C@H]2c1ccc(C)cc1
REMARK SMILES IDX 27 1 26 2 24 3 25 4 16 5 9 6 10 7 14 8 11 9 12 10 13 11
REMARK SMILES IDX 15 12 96 13 95 14 8 17 3 18 4 19 5 20 7 21 6 22 2 23 1 24
REMARK SMILES IDX 97 25 98 26 103 27 99 28 102 29 100 30 101 31 17 32 18 33
REMARK SMILES IDX 19 34 23 35 20 36 22 37 21 38 28 39 29 40 30 41 31 42 32 43
REMARK SMILES IDX 33 44 94 45 34 46 93 47 35 48 36 49 37 50 87 51 38 52 92 53
REMARK SMILES IDX 86 54 88 55 39 56 91 57 85 58 84 59 40 61 72 62 52 63 71 64
REMARK SMILES IDX 53 65 56 66 70 67 89 68 54 69 55 70 69 72 90 73 57 74 41 75
REMARK SMILES IDX 42 76 50 77 43 78 44 79 48 80 51 81 45 82 46 83 49 84 47 85
REMARK SMILES IDX 73 86 74 87 82 88 75 89 76 90 80 91 83 92 77 93 78 94 81 95
REMARK SMILES IDX 79 96 58 97 59 98 67 99 60 100 61 101 65 102 68 103 62 104
REMARK SMILES IDX 63 105 66 106 64 107
REMARK H PARENT 95 15 95 16 88 60 56 71
REMARK Flexibility Score: inf
ROOT
ATOM      1  C   UNL     1       6.462   0.716  -3.074  1.00  0.00     0.274 C 
ENDROOT
BRANCH   1   2
ATOM      2  O   UNL     1       5.671   0.261  -1.948  1.00  0.00    -0.457 OA
BRANCH   2   3
ATOM      3  C   UNL     1       5.630  -1.084  -1.808  1.00  0.00     0.369 C 
ATOM      4  O   UNL     1       6.327  -1.839  -2.486  1.00  0.00    -0.245 OA
BRANCH   3   5
ATOM      5  C   UNL     1       4.648  -1.633  -0.744  1.00  0.00     0.211 C 
ATOM      6  N   UNL     1       2.880   1.231   0.814  1.00  0.00    -0.246 N 
ATOM      7  C   UNL     1       3.671   0.693   1.820  1.00  0.00     0.244 C 
ATOM      8  C   UNL     1       3.102   0.587  -0.403  1.00  0.00     0.245 C 
ATOM      9  O   UNL     1       3.638   0.866   3.025  1.00  0.00    -0.273 OA
ATOM     10  C   UNL     1       4.629  -0.173   1.093  1.00  0.00     0.162 C 
ATOM     11  C   UNL     1       3.735  -0.705   0.000  1.00  0.00     0.172 C 
ATOM     12  O   UNL     1       2.838   0.940  -1.539  1.00  0.00    -0.273 OA
ATOM     13  C   UNL     1       5.196  -1.420   1.694  1.00  0.00     0.228 C 
ATOM     14  N   UNL     1       5.454  -2.231   0.449  1.00  0.00    -0.324 N 
ATOM     15  H   UNL     1       6.450  -2.209   0.230  1.00  0.00     0.347 HD
ATOM     16  H   UNL     1       5.160  -3.195   0.606  1.00  0.00     0.347 HD
BRANCH   6  17
ATOM     17  C   UNL     1       1.985   2.292   1.031  1.00  0.00     0.094 A 
ATOM     18  C   UNL     1       0.715   2.347   0.437  1.00  0.00     0.143 A 
ATOM     19  C   UNL     1      -0.110   3.453   0.668  1.00  0.00     0.048 A 
ATOM     20  C   UNL     1       0.309   4.492   1.501  1.00  0.00     0.004 A 
ATOM     21  C   UNL     1       2.383   3.335   1.887  1.00  0.00     0.031 A 
ATOM     22  C   UNL     1       1.557   4.434   2.110  1.00  0.00     0.002 A 
BRANCH  18  23
ATOM     23  O   UNL     1       0.187   1.385  -0.383  1.00  0.00    -0.495 OA
ATOM     24  C   UNL     1      -0.014   0.123   0.250  1.00  0.00     0.278 C 
ENDBRANCH  18  23
ENDBRANCH   6  17
BRANCH  13  25
ATOM     25  C   UNL     1       6.429  -1.209   2.573  1.00  0.00     0.010 A 
ATOM     26  C   UNL     1       7.271  -0.096   2.426  1.00  0.00     0.010 A 
ATOM     27  C   UNL     1       6.767  -2.112   3.592  1.00  0.00     0.010 A 
ATOM     28  C   UNL     1       8.432   0.080   3.179  1.00  0.00     0.004 A 
ATOM     29  C   UNL     1       7.898  -1.900   4.408  1.00  0.00     0.004 A 
ATOM     30  C   UNL     1       8.748  -0.806   4.197  1.00  0.00    -0.051 A 
ATOM     31  C   UNL     1      10.006  -0.577   4.982  1.00  0.00     0.044 C 
ENDBRANCH  13  25
BRANCH   5  32
ATOM     32  C   UNL     1       3.838  -2.758  -1.486  1.00  0.00     0.117 C 
BRANCH  32  33
ATOM     33  C   UNL     1       2.951  -2.259  -2.622  1.00  0.00    -0.041 A 
ATOM     34  C   UNL     1       1.560  -2.216  -2.473  1.00  0.00     0.004 A 
ATOM     35  C   UNL     1       3.495  -1.793  -3.832  1.00  0.00     0.004 A 
ATOM     36  C   UNL     1       0.754  -1.639  -3.461  1.00  0.00     0.000 A 
ATOM     37  C   UNL     1       2.698  -1.183  -4.801  1.00  0.00     0.000 A 
ATOM     38  C   UNL     1       1.326  -1.094  -4.609  1.00  0.00     0.000 A 
ENDBRANCH  32  33
ENDBRANCH   5  32
ENDBRANCH   3   5
ENDBRANCH   2   3
ENDBRANCH   1   2
BRANCH   1  39
ATOM     39  C   UNL     1       7.932   1.012  -2.729  1.00  0.00     0.275 C 
BRANCH  39  40
ATOM     40  O   UNL     1       8.696  -0.172  -2.388  1.00  0.00    -0.458 OA
BRANCH  40  41
ATOM     41  C   UNL     1       8.605  -0.478  -1.077  1.00  0.00     0.338 C 
ATOM     42  O   UNL     1       7.957   0.163  -0.264  1.00  0.00    -0.246 OA
BRANCH  41  43
ATOM     43  C   UNL     1       9.257  -1.727  -0.651  1.00  0.00     0.060 A 
ATOM     44  C   UNL     1       8.468  -2.870  -0.554  1.00  0.00     0.016 A 
ATOM     45  C   UNL     1      10.473  -1.683   0.028  1.00  0.00     0.016 A 
ATOM     46  C   UNL     1       8.790  -3.878   0.341  1.00  0.00     0.010 A 
ATOM     47  C   UNL     1      10.891  -2.794   0.780  1.00  0.00     0.010 A 
ATOM     48  C   UNL     1      10.038  -3.896   0.968  1.00  0.00    -0.014 A 
BRANCH  48  49
ATOM     49  C   UNL     1      10.436  -5.115   1.728  1.00  0.00     0.031 A 
ATOM     50  C   UNL     1      10.840  -5.068   3.175  1.00  0.00     0.074 A 
ATOM     51  C   UNL     1      10.406  -6.300   1.089  1.00  0.00     0.049 A 
ATOM     52  N   UNL     1      11.271  -6.019   3.967  1.00  0.00    -0.248 NA
ATOM     53  C   UNL     1      10.740  -3.764   3.825  1.00  0.00     0.031 C 
ATOM     54  C   UNL     1       9.996  -6.504  -0.303  1.00  0.00     0.029 A 
ATOM     55  N   UNL     1      10.721  -7.559   1.526  1.00  0.00    -0.354 N 
ATOM     56  C   UNL     1      11.506  -5.415   5.200  1.00  0.00     0.074 A 
ATOM     57  C   UNL     1      11.176  -4.018   5.050  1.00  0.00     0.031 C 
ATOM     58  C   UNL     1      10.047  -7.808  -0.594  1.00  0.00     0.029 A 
ATOM     59  C   UNL     1      10.607  -8.513   0.548  1.00  0.00     0.049 A 
ATOM     60  H   UNL     1      11.000  -7.759   2.449  1.00  0.00     0.167 HD
ATOM     61  C   UNL     1      11.972  -5.971   6.346  1.00  0.00     0.037 A 
ATOM     62  C   UNL     1      10.974  -9.804   0.543  1.00  0.00     0.037 A 
ATOM     63  C   UNL     1      12.339  -7.359   6.464  1.00  0.00     0.049 A 
ATOM     64  C   UNL     1      11.591 -10.377   1.781  1.00  0.00     0.074 A 
ATOM     65  C   UNL     1      12.841  -8.036   7.561  1.00  0.00     0.029 A 
ATOM     66  N   UNL     1      12.262  -8.278   5.427  1.00  0.00    -0.354 N 
ATOM     67  N   UNL     1      11.809  -9.805   2.940  1.00  0.00    -0.248 NA
ATOM     68  C   UNL     1      12.021 -11.776   1.705  1.00  0.00     0.031 C 
ATOM     69  C   UNL     1      13.143  -9.344   7.164  1.00  0.00     0.029 A 
ATOM     70  C   UNL     1      12.755  -9.504   5.843  1.00  0.00     0.049 A 
ATOM     71  H   UNL     1      11.909  -8.087   4.528  1.00  0.00     0.167 HD
ATOM     72  C   UNL     1      12.387 -10.778   3.740  1.00  0.00     0.074 A 
ATOM     73  C   UNL     1      12.457 -11.984   2.938  1.00  0.00     0.031 C 
ATOM     74  C   UNL     1      12.826 -10.685   5.021  1.00  0.00     0.037 A 
BRANCH  61  75
ATOM     75  C   UNL     1      12.187  -5.071   7.534  1.00  0.00     0.064 A 
ATOM     76  C   UNL     1      11.120  -4.506   8.251  1.00  0.00     0.173 A 
ATOM     77  C   UNL     1      13.489  -4.792   7.982  1.00  0.00     0.173 A 
ATOM     78  F   UNL     1       9.855  -4.721   7.861  1.00  0.00    -0.203 F 
ATOM     79  C   UNL     1      11.350  -3.681   9.352  1.00  0.00     0.198 A 
ATOM     80  C   UNL     1      13.714  -3.992   9.100  1.00  0.00     0.198 A 
ATOM     81  F   UNL     1      14.549  -5.303   7.338  1.00  0.00    -0.203 F 
ATOM     82  F   UNL     1      10.316  -3.115   9.992  1.00  0.00    -0.200 F 
ATOM     83  C   UNL     1      12.645  -3.430   9.780  1.00  0.00     0.200 A 
ATOM     84  F   UNL     1      14.967  -3.761   9.517  1.00  0.00    -0.200 F 
ATOM     85  F   UNL     1      12.863  -2.641  10.841  1.00  0.00    -0.200 F 
ENDBRANCH  61  75
BRANCH  62  86
ATOM     86  C   UNL     1      10.801 -10.603  -0.696  1.00  0.00     0.064 A 
ATOM     87  C   UNL     1       9.881 -11.656  -0.749  1.00  0.00     0.173 A 
ATOM     88  C   UNL     1      11.514 -10.296  -1.867  1.00  0.00     0.173 A 
ATOM     89  F   UNL     1       9.187 -11.994   0.348  1.00  0.00    -0.203 F 
ATOM     90  C   UNL     1       9.687 -12.380  -1.923  1.00  0.00     0.198 A 
ATOM     91  C   UNL     1      11.291 -10.995  -3.050  1.00  0.00     0.198 A 
ATOM     92  F   UNL     1      12.399  -9.288  -1.872  1.00  0.00    -0.203 F 
ATOM     93  F   UNL     1       8.829 -13.409  -1.937  1.00  0.00    -0.200 F 
ATOM     94  C   UNL     1      10.383 -12.042  -3.074  1.00  0.00     0.200 A 
ATOM     95  F   UNL     1      11.945 -10.646  -4.165  1.00  0.00    -0.200 F 
ATOM     96  F   UNL     1      10.181 -12.728  -4.207  1.00  0.00    -0.200 F 
ENDBRANCH  62  86
BRANCH  74  97
ATOM     97  C   UNL     1      13.393 -11.934   5.628  1.00  0.00     0.064 A 
ATOM     98  C   UNL     1      14.612 -12.476   5.193  1.00  0.00     0.173 A 
ATOM     99  C   UNL     1      12.705 -12.598   6.653  1.00  0.00     0.173 A 
ATOM    100  F   UNL     1      15.300 -11.885   4.204  1.00  0.00    -0.203 F 
ATOM    101  C   UNL     1      15.095 -13.666   5.729  1.00  0.00     0.198 A 
ATOM    102  C   UNL     1      13.212 -13.766   7.215  1.00  0.00     0.198 A 
ATOM    103  F   UNL     1      11.540 -12.116   7.112  1.00  0.00    -0.203 F 
ATOM    104  F   UNL     1      16.221 -14.207   5.245  1.00  0.00    -0.200 F 
ATOM    105  C   UNL     1      14.398 -14.306   6.742  1.00  0.00     0.200 A 
ATOM    106  F   UNL     1      12.545 -14.374   8.206  1.00  0.00    -0.200 F 
ATOM    107  F   UNL     1      14.862 -15.454   7.254  1.00  0.00    -0.200 F 
ENDBRANCH  74  97
ENDBRANCH  48  49
ENDBRANCH  41  43
ENDBRANCH  40  41
ENDBRANCH  39  40
ENDBRANCH   1  39
TORSDOF 16
