REMARK SMILES CCC[C@]1(C(=O)OCCOC(=O)c2ccc(-c3c4nc(c(-c5c(F)c(F)c(F)c(F)c5F)c5ccc([nH]5)c(-c5c(F)c(F)c(F)c(F)c5F)c5nc(c(-c6c(F)c(F)c(F)c(F)c6F)c6ccc3[nH]6)C=C5)C=C4)cc2)CCCN(C(=O)N[C@H]2CCOC2)C1
REMARK SMILES IDX 8 1 7 2 5 3 6 4 4 5 76 6 88 7 77 8 79 9 78 10 3 11 2 12 1 13
REMARK SMILES IDX 80 14 81 15 82 16 83 18 84 19 87 20 85 21 86 22 9 23 10 24
REMARK SMILES IDX 11 25 12 26 13 27 14 28 75 29 15 30 74 31 16 32 17 33 18 34
REMARK SMILES IDX 68 35 19 36 73 37 67 38 69 39 20 40 72 41 66 42 65 43 21 45
REMARK SMILES IDX 53 46 33 47 52 48 34 49 37 50 51 51 70 52 35 53 36 54 50 56
REMARK SMILES IDX 71 57 38 58 22 59 23 60 31 61 24 62 25 63 29 64 32 65 26 66
REMARK SMILES IDX 27 67 30 68 28 69 54 70 55 71 63 72 56 73 57 74 61 75 64 76
REMARK SMILES IDX 58 77 59 78 62 79 60 80 39 81 40 82 48 83 41 84 42 85 46 86
REMARK SMILES IDX 49 87 43 88 44 89 47 90 45 91
REMARK H PARENT 82 17 69 44 37 55
REMARK Flexibility Score: inf
ROOT
ATOM      1  C   UNL     1      -8.502   2.841   9.872  1.00  0.00     0.274 C 
ENDROOT
BRANCH   1   2
ATOM      2  O   UNL     1      -7.383   2.386   9.085  1.00  0.00    -0.462 OA
BRANCH   2   3
ATOM      3  C   UNL     1      -6.465   1.549   9.646  1.00  0.00     0.314 C 
ATOM      4  O   UNL     1      -6.497   1.207  10.818  1.00  0.00    -0.252 OA
BRANCH   3   5
ATOM      5  C   UNL     1      -5.407   1.097   8.614  1.00  0.00     0.086 C 
ATOM      6  C   UNL     1      -5.578   1.988   7.330  1.00  0.00     0.022 C 
ATOM      7  C   UNL     1      -3.996   1.353   9.184  1.00  0.00     0.140 C 
ATOM      8  C   UNL     1      -4.430   1.895   6.333  1.00  0.00     0.023 C 
ATOM      9  N   UNL     1      -2.979   1.118   8.136  1.00  0.00    -0.324 N 
ATOM     10  C   UNL     1      -3.087   2.050   7.033  1.00  0.00     0.121 C 
BRANCH   5  11
ATOM     11  C   UNL     1      -5.596  -0.399   8.213  1.00  0.00     0.020 C 
BRANCH  11  12
ATOM     12  C   UNL     1      -5.208  -1.557   9.155  1.00  0.00    -0.002 C 
ATOM     13  C   UNL     1      -5.761  -1.588  10.567  1.00  0.00     0.004 C 
ENDBRANCH  11  12
ENDBRANCH   5  11
BRANCH   9  14
ATOM     14  C   UNL     1      -2.159   0.044   8.271  1.00  0.00     0.317 C 
ATOM     15  O   UNL     1      -2.042  -0.537   9.356  1.00  0.00    -0.249 OA
ATOM     16  N   UNL     1      -1.464  -0.530   7.283  1.00  0.00    -0.333 N 
ATOM     17  H   UNL     1      -1.105  -1.385   7.614  1.00  0.00     0.165 HD
BRANCH  16  18
ATOM     18  C   UNL     1      -1.040  -0.361   5.894  1.00  0.00     0.112 C 
ATOM     19  C   UNL     1      -2.082  -0.320   4.802  1.00  0.00     0.056 C 
ATOM     20  C   UNL     1      -0.101   0.803   5.636  1.00  0.00     0.185 C 
ATOM     21  C   UNL     1      -1.772   0.932   4.005  1.00  0.00     0.162 C 
ATOM     22  O   UNL     1      -0.501   1.439   4.419  1.00  0.00    -0.379 OA
ENDBRANCH  16  18
ENDBRANCH   9  14
ENDBRANCH   3   5
ENDBRANCH   2   3
ENDBRANCH   1   2
BRANCH   1  23
ATOM     23  C   UNL     1      -9.766   2.552   9.067  1.00  0.00     0.275 C 
BRANCH  23  24
ATOM     24  O   UNL     1      -9.910   1.122   9.004  1.00  0.00    -0.458 OA
BRANCH  24  25
ATOM     25  C   UNL     1     -10.318   0.598   7.830  1.00  0.00     0.338 C 
ATOM     26  O   UNL     1     -10.728   1.204   6.847  1.00  0.00    -0.246 OA
BRANCH  25  27
ATOM     27  C   UNL     1     -10.148  -0.868   7.879  1.00  0.00     0.060 A 
ATOM     28  C   UNL     1      -9.006  -1.405   8.467  1.00  0.00     0.016 A 
ATOM     29  C   UNL     1     -11.065  -1.718   7.265  1.00  0.00     0.016 A 
ATOM     30  C   UNL     1      -8.717  -2.763   8.345  1.00  0.00     0.010 A 
ATOM     31  C   UNL     1     -10.836  -3.102   7.262  1.00  0.00     0.010 A 
ATOM     32  C   UNL     1      -9.639  -3.643   7.768  1.00  0.00    -0.014 A 
BRANCH  32  33
ATOM     33  C   UNL     1      -9.338  -5.104   7.663  1.00  0.00     0.031 A 
ATOM     34  C   UNL     1      -9.422  -5.799   6.327  1.00  0.00     0.074 A 
ATOM     35  C   UNL     1      -8.972  -5.826   8.743  1.00  0.00     0.049 A 
ATOM     36  N   UNL     1      -9.445  -7.080   6.054  1.00  0.00    -0.248 NA
ATOM     37  C   UNL     1      -9.507  -4.934   5.141  1.00  0.00     0.031 C 
ATOM     38  C   UNL     1      -8.767  -5.301  10.093  1.00  0.00     0.029 A 
ATOM     39  N   UNL     1      -8.701  -7.170   8.872  1.00  0.00    -0.354 N 
ATOM     40  C   UNL     1      -9.625  -7.173   4.680  1.00  0.00     0.074 A 
ATOM     41  C   UNL     1      -9.694  -5.819   4.172  1.00  0.00     0.031 C 
ATOM     42  C   UNL     1      -8.364  -6.293  10.900  1.00  0.00     0.029 A 
ATOM     43  C   UNL     1      -8.391  -7.548  10.156  1.00  0.00     0.049 A 
ATOM     44  H   UNL     1      -8.727  -7.800   8.116  1.00  0.00     0.167 HD
ATOM     45  C   UNL     1      -9.732  -8.285   3.913  1.00  0.00     0.037 A 
ATOM     46  C   UNL     1      -8.207  -8.767  10.699  1.00  0.00     0.037 A 
ATOM     47  C   UNL     1      -9.588  -9.631   4.405  1.00  0.00     0.049 A 
ATOM     48  C   UNL     1      -8.364  -9.990   9.842  1.00  0.00     0.074 A 
ATOM     49  C   UNL     1      -9.665 -10.821   3.701  1.00  0.00     0.029 A 
ATOM     50  N   UNL     1      -9.316  -9.965   5.723  1.00  0.00    -0.354 N 
ATOM     51  N   UNL     1      -8.630 -10.072   8.561  1.00  0.00    -0.248 NA
ATOM     52  C   UNL     1      -8.228 -11.291  10.512  1.00  0.00     0.031 C 
ATOM     53  C   UNL     1      -9.471 -11.877   4.600  1.00  0.00     0.029 A 
ATOM     54  C   UNL     1      -9.234 -11.342   5.856  1.00  0.00     0.049 A 
ATOM     55  H   UNL     1      -9.198  -9.319   6.457  1.00  0.00     0.167 HD
ATOM     56  C   UNL     1      -8.687 -11.428   8.271  1.00  0.00     0.074 A 
ATOM     57  C   UNL     1      -8.408 -12.133   9.505  1.00  0.00     0.031 C 
ATOM     58  C   UNL     1      -8.957 -12.033   7.089  1.00  0.00     0.037 A 
BRANCH  45  59
ATOM     59  C   UNL     1     -10.072  -8.096   2.464  1.00  0.00     0.064 A 
ATOM     60  C   UNL     1      -9.143  -7.604   1.536  1.00  0.00     0.173 A 
ATOM     61  C   UNL     1     -11.351  -8.435   1.996  1.00  0.00     0.173 A 
ATOM     62  F   UNL     1      -7.912  -7.251   1.935  1.00  0.00    -0.203 F 
ATOM     63  C   UNL     1      -9.493  -7.429   0.199  1.00  0.00     0.198 A 
ATOM     64  C   UNL     1     -11.689  -8.285   0.654  1.00  0.00     0.198 A 
ATOM     65  F   UNL     1     -12.275  -8.916   2.842  1.00  0.00    -0.203 F 
ATOM     66  F   UNL     1      -8.607  -6.908  -0.661  1.00  0.00    -0.200 F 
ATOM     67  C   UNL     1     -10.763  -7.774  -0.242  1.00  0.00     0.200 A 
ATOM     68  F   UNL     1     -12.913  -8.630   0.229  1.00  0.00    -0.200 F 
ATOM     69  F   UNL     1     -11.097  -7.605  -1.529  1.00  0.00    -0.200 F 
ENDBRANCH  45  59
BRANCH  46  70
ATOM     70  C   UNL     1      -7.917  -8.887  12.153  1.00  0.00     0.064 A 
ATOM     71  C   UNL     1      -6.662  -9.314  12.606  1.00  0.00     0.173 A 
ATOM     72  C   UNL     1      -8.883  -8.561  13.116  1.00  0.00     0.173 A 
ATOM     73  F   UNL     1      -5.716  -9.669  11.723  1.00  0.00    -0.203 F 
ATOM     74  C   UNL     1      -6.385  -9.410  13.969  1.00  0.00     0.198 A 
ATOM     75  C   UNL     1      -8.595  -8.627  14.477  1.00  0.00     0.198 A 
ATOM     76  F   UNL     1     -10.102  -8.153  12.734  1.00  0.00    -0.203 F 
ATOM     77  F   UNL     1      -5.188  -9.854  14.377  1.00  0.00    -0.200 F 
ATOM     78  C   UNL     1      -7.347  -9.055  14.902  1.00  0.00     0.200 A 
ATOM     79  F   UNL     1      -9.524  -8.271  15.374  1.00  0.00    -0.200 F 
ATOM     80  F   UNL     1      -7.075  -9.133  16.212  1.00  0.00    -0.200 F 
ENDBRANCH  46  70
BRANCH  58  81
ATOM     81  C   UNL     1      -8.940 -13.532   7.067  1.00  0.00     0.064 A 
ATOM     82  C   UNL     1      -9.982 -14.284   7.628  1.00  0.00     0.173 A 
ATOM     83  C   UNL     1      -7.887 -14.223   6.449  1.00  0.00     0.173 A 
ATOM     84  F   UNL     1     -11.002 -13.668   8.245  1.00  0.00    -0.203 F 
ATOM     85  C   UNL     1      -9.960 -15.675   7.589  1.00  0.00     0.198 A 
ATOM     86  C   UNL     1      -7.880 -15.613   6.391  1.00  0.00     0.198 A 
ATOM     87  F   UNL     1      -6.869 -13.548   5.895  1.00  0.00    -0.203 F 
ATOM     88  F   UNL     1     -10.946 -16.376   8.167  1.00  0.00    -0.200 F 
ATOM     89  C   UNL     1      -8.913 -16.338   6.966  1.00  0.00     0.200 A 
ATOM     90  F   UNL     1      -6.873 -16.252   5.781  1.00  0.00    -0.200 F 
ATOM     91  F   UNL     1      -8.896 -17.678   6.926  1.00  0.00    -0.200 F 
ENDBRANCH  58  81
ENDBRANCH  32  33
ENDBRANCH  25  27
ENDBRANCH  24  25
ENDBRANCH  23  24
ENDBRANCH   1  23
TORSDOF 15
