REMARK SMILES COc1cc(OC)cc(-c2ccc(C(=O)OCCOC(=O)c3ccc(-c4c5nc(c(-c6c(F)c(F)c(F)c(F)c6F)c6ccc([nH]6)c(-c6c(F)c(F)c(F)c(F)c6F)c6nc(c(-c7c(F)c(F)c(F)c(F)c7F)c7ccc4[nH]7)C=C6)C=C5)cc3)o2)c1
REMARK SMILES IDX 17 1 16 2 14 3 15 4 13 5 10 6 11 7 85 8 12 9 9 10 3 11 4 12
REMARK SMILES IDX 86 13 5 14 8 15 2 16 1 17 6 18 7 19 18 20 19 21 20 22 21 23
REMARK SMILES IDX 22 24 23 25 84 26 24 27 83 28 25 29 26 30 27 31 77 32 28 33
REMARK SMILES IDX 82 34 76 35 78 36 29 37 81 38 75 39 74 40 30 42 62 43 42 44
REMARK SMILES IDX 61 45 43 46 46 47 60 48 79 49 44 50 45 51 59 53 80 54 47 55
REMARK SMILES IDX 31 56 32 57 40 58 33 59 34 60 38 61 41 62 35 63 36 64 39 65
REMARK SMILES IDX 37 66 63 67 64 68 72 69 65 70 66 71 70 72 73 73 67 74 68 75
REMARK SMILES IDX 71 76 69 77 48 78 49 79 57 80 50 81 51 82 55 83 58 84 52 85
REMARK SMILES IDX 53 86 56 87 54 88
REMARK H PARENT 78 41 46 52
REMARK Flexibility Score: inf
ROOT
ATOM      1  C   UNL     1       8.684  -0.495   6.652  1.00  0.00     0.275 C 
ENDROOT
BRANCH   1   2
ATOM      2  O   UNL     1       7.971   0.247   5.645  1.00  0.00    -0.456 OA
BRANCH   2   3
ATOM      3  C   UNL     1       6.783  -0.292   5.230  1.00  0.00     0.374 C 
ATOM      4  O   UNL     1       6.369  -1.388   5.568  1.00  0.00    -0.242 OA
BRANCH   3   5
ATOM      5  C   UNL     1       6.066   0.671   4.422  1.00  0.00     0.212 A 
ATOM      6  C   UNL     1       4.233   1.544   3.559  1.00  0.00     0.135 A 
ATOM      7  C   UNL     1       5.248   2.430   3.280  1.00  0.00     0.052 A 
ATOM      8  O   UNL     1       4.727   0.452   4.202  1.00  0.00    -0.449 OA
ATOM      9  C   UNL     1       6.426   1.874   3.841  1.00  0.00     0.059 A 
BRANCH   6  10
ATOM     10  C   UNL     1       2.796   1.567   3.361  1.00  0.00     0.025 A 
ATOM     11  C   UNL     1       0.863   1.184   1.955  1.00  0.00     0.123 A 
ATOM     12  C   UNL     1       0.049   1.729   2.950  1.00  0.00     0.092 A 
ATOM     13  C   UNL     1       2.241   1.109   2.159  1.00  0.00     0.058 A 
ATOM     14  C   UNL     1       0.587   2.180   4.158  1.00  0.00     0.123 A 
ATOM     15  C   UNL     1       1.963   2.089   4.365  1.00  0.00     0.058 A 
BRANCH  11  16
ATOM     16  O   UNL     1       0.205   0.803   0.818  1.00  0.00    -0.497 OA
ATOM     17  C   UNL     1       0.872  -0.142  -0.009  1.00  0.00     0.278 C 
ENDBRANCH  11  16
BRANCH  14  18
ATOM     18  O   UNL     1      -0.331   2.682   5.037  1.00  0.00    -0.497 OA
ATOM     19  C   UNL     1       0.167   3.315   6.208  1.00  0.00     0.278 C 
ENDBRANCH  14  18
ENDBRANCH   6  10
ENDBRANCH   3   5
ENDBRANCH   2   3
ENDBRANCH   1   2
BRANCH   1  20
ATOM     20  C   UNL     1       8.388   0.038   8.060  1.00  0.00     0.275 C 
BRANCH  20  21
ATOM     21  O   UNL     1       7.059  -0.306   8.496  1.00  0.00    -0.458 OA
BRANCH  21  22
ATOM     22  C   UNL     1       6.105   0.620   8.238  1.00  0.00     0.338 C 
ATOM     23  O   UNL     1       6.264   1.713   7.718  1.00  0.00    -0.246 OA
BRANCH  22  24
ATOM     24  C   UNL     1       4.775   0.066   8.545  1.00  0.00     0.060 A 
ATOM     25  C   UNL     1       3.816   0.086   7.529  1.00  0.00     0.016 A 
ATOM     26  C   UNL     1       4.448  -0.414   9.815  1.00  0.00     0.016 A 
ATOM     27  C   UNL     1       2.526  -0.377   7.769  1.00  0.00     0.010 A 
ATOM     28  C   UNL     1       3.147  -0.871  10.060  1.00  0.00     0.010 A 
ATOM     29  C   UNL     1       2.179  -0.847   9.040  1.00  0.00    -0.014 A 
BRANCH  29  30
ATOM     30  C   UNL     1       0.781  -1.257   9.300  1.00  0.00     0.031 A 
ATOM     31  C   UNL     1      -0.151  -0.318  10.007  1.00  0.00     0.074 A 
ATOM     32  C   UNL     1       0.337  -2.446   8.857  1.00  0.00     0.049 A 
ATOM     33  N   UNL     1      -1.408  -0.482  10.330  1.00  0.00    -0.248 NA
ATOM     34  C   UNL     1       0.408   0.985  10.400  1.00  0.00     0.031 C 
ATOM     35  C   UNL     1       1.136  -3.418   8.112  1.00  0.00     0.029 A 
ATOM     36  N   UNL     1      -0.899  -3.032   8.958  1.00  0.00    -0.354 N 
ATOM     37  C   UNL     1      -1.788   0.686  10.974  1.00  0.00     0.074 A 
ATOM     38  C   UNL     1      -0.624   1.546  11.014  1.00  0.00     0.031 C 
ATOM     39  C   UNL     1       0.364  -4.474   7.808  1.00  0.00     0.029 A 
ATOM     40  C   UNL     1      -0.970  -4.268   8.367  1.00  0.00     0.049 A 
ATOM     41  H   UNL     1      -1.663  -2.606   9.412  1.00  0.00     0.167 HD
ATOM     42  C   UNL     1      -3.001   1.011  11.483  1.00  0.00     0.037 A 
ATOM     43  C   UNL     1      -1.995  -5.138   8.295  1.00  0.00     0.037 A 
ATOM     44  C   UNL     1      -4.160   0.159  11.430  1.00  0.00     0.049 A 
ATOM     45  C   UNL     1      -3.312  -4.779   8.928  1.00  0.00     0.074 A 
ATOM     46  C   UNL     1      -5.440   0.411  11.893  1.00  0.00     0.029 A 
ATOM     47  N   UNL     1      -4.177  -1.114  10.879  1.00  0.00    -0.354 N 
ATOM     48  N   UNL     1      -3.666  -3.670   9.529  1.00  0.00    -0.248 NA
ATOM     49  C   UNL     1      -4.368  -5.799   8.879  1.00  0.00     0.031 C 
ATOM     50  C   UNL     1      -6.221  -0.728  11.662  1.00  0.00     0.029 A 
ATOM     51  C   UNL     1      -5.438  -1.673  11.018  1.00  0.00     0.049 A 
ATOM     52  H   UNL     1      -3.408  -1.556  10.453  1.00  0.00     0.167 HD
ATOM     53  C   UNL     1      -4.989  -3.847   9.910  1.00  0.00     0.074 A 
ATOM     54  C   UNL     1      -5.378  -5.170   9.464  1.00  0.00     0.031 C 
ATOM     55  C   UNL     1      -5.807  -2.991  10.569  1.00  0.00     0.037 A 
BRANCH  42  56
ATOM     56  C   UNL     1      -3.121   2.335  12.176  1.00  0.00     0.064 A 
ATOM     57  C   UNL     1      -3.140   3.543  11.464  1.00  0.00     0.173 A 
ATOM     58  C   UNL     1      -3.232   2.392  13.573  1.00  0.00     0.173 A 
ATOM     59  F   UNL     1      -3.018   3.541  10.128  1.00  0.00    -0.203 F 
ATOM     60  C   UNL     1      -3.239   4.762  12.128  1.00  0.00     0.198 A 
ATOM     61  C   UNL     1      -3.354   3.612  14.232  1.00  0.00     0.198 A 
ATOM     62  F   UNL     1      -3.219   1.264  14.300  1.00  0.00    -0.203 F 
ATOM     63  F   UNL     1      -3.208   5.907  11.432  1.00  0.00    -0.200 F 
ATOM     64  C   UNL     1      -3.351   4.796  13.511  1.00  0.00     0.200 A 
ATOM     65  F   UNL     1      -3.467   3.642  15.568  1.00  0.00    -0.200 F 
ATOM     66  F   UNL     1      -3.443   5.971  14.149  1.00  0.00    -0.200 F 
ENDBRANCH  42  56
BRANCH  43  67
ATOM     67  C   UNL     1      -1.816  -6.433   7.593  1.00  0.00     0.064 A 
ATOM     68  C   UNL     1      -2.451  -6.681   6.369  1.00  0.00     0.173 A 
ATOM     69  C   UNL     1      -1.009  -7.447   8.130  1.00  0.00     0.173 A 
ATOM     70  F   UNL     1      -3.256  -5.753   5.832  1.00  0.00    -0.203 F 
ATOM     71  C   UNL     1      -2.290  -7.898   5.710  1.00  0.00     0.198 A 
ATOM     72  C   UNL     1      -0.831  -8.654   7.458  1.00  0.00     0.198 A 
ATOM     73  F   UNL     1      -0.387  -7.259   9.303  1.00  0.00    -0.203 F 
ATOM     74  F   UNL     1      -2.936  -8.124   4.558  1.00  0.00    -0.200 F 
ATOM     75  C   UNL     1      -1.475  -8.880   6.252  1.00  0.00     0.200 A 
ATOM     76  F   UNL     1      -0.037  -9.598   7.982  1.00  0.00    -0.200 F 
ATOM     77  F   UNL     1      -1.317 -10.049   5.615  1.00  0.00    -0.200 F 
ENDBRANCH  43  67
BRANCH  55  78
ATOM     78  C   UNL     1      -7.212  -3.449  10.826  1.00  0.00     0.064 A 
ATOM     79  C   UNL     1      -7.502  -4.400  11.815  1.00  0.00     0.173 A 
ATOM     80  C   UNL     1      -8.282  -2.907  10.098  1.00  0.00     0.173 A 
ATOM     81  F   UNL     1      -6.510  -4.959  12.525  1.00  0.00    -0.203 F 
ATOM     82  C   UNL     1      -8.812  -4.805  12.054  1.00  0.00     0.198 A 
ATOM     83  C   UNL     1      -9.592  -3.297  10.356  1.00  0.00     0.198 A 
ATOM     84  F   UNL     1      -8.056  -1.991   9.145  1.00  0.00    -0.203 F 
ATOM     85  F   UNL     1      -9.063  -5.744  12.977  1.00  0.00    -0.200 F 
ATOM     86  C   UNL     1      -9.856  -4.250  11.329  1.00  0.00     0.200 A 
ATOM     87  F   UNL     1     -10.601  -2.754   9.661  1.00  0.00    -0.200 F 
ATOM     88  F   UNL     1     -11.117  -4.639  11.563  1.00  0.00    -0.200 F 
ENDBRANCH  55  78
ENDBRANCH  29  30
ENDBRANCH  22  24
ENDBRANCH  21  22
ENDBRANCH  20  21
ENDBRANCH   1  20
TORSDOF 14
