REMARK SMILES CCC(C)(C)[C@H]1CC[C@H](C(=O)OCCOC(=O)c2ccc(-c3c4nc(c(-c5c(F)c(F)c(F)c(F)c5F)c5ccc([nH]5)c(-c5c(F)c(F)c(F)c(F)c5F)c5nc(c(-c6c(F)c(F)c(F)c(F)c6F)c6ccc3[nH]6)C=C5)C=C4)cc2)[C@H](SC[C@@H](C)CO)C1
REMARK SMILES IDX 12 1 10 2 11 3 9 4 6 5 7 6 88 7 8 8 81 9 3 10 4 11 5 12 2 13
REMARK SMILES IDX 1 14 82 15 83 16 84 17 85 18 86 19 87 20 13 22 14 23 15 24
REMARK SMILES IDX 16 25 17 26 18 27 19 28 80 29 20 30 79 31 21 32 22 33 23 34
REMARK SMILES IDX 73 35 24 36 78 37 72 38 74 39 25 40 77 41 71 42 70 43 26 45
REMARK SMILES IDX 58 46 38 47 57 48 39 49 42 50 56 51 75 52 40 53 41 54 55 56
REMARK SMILES IDX 76 57 43 58 27 59 28 60 36 61 29 62 30 63 34 64 37 65 31 66
REMARK SMILES IDX 32 67 35 68 33 69 59 70 60 71 68 72 61 73 62 74 66 75 69 76
REMARK SMILES IDX 63 77 64 78 67 79 65 80 44 81 45 82 53 83 46 84 47 85 51 86
REMARK SMILES IDX 54 87 48 88 49 89 52 90 50 91
REMARK H PARENT 87 21 74 44 42 55
REMARK Flexibility Score: inf
ROOT
ATOM      1  O   UNL     1       3.176  -2.569   2.839  1.00  0.00    -0.462 OA
ENDROOT
BRANCH   1   2
ATOM      2  C   UNL     1       4.376  -2.048   2.479  1.00  0.00     0.310 C 
ATOM      3  O   UNL     1       5.224  -1.656   3.274  1.00  0.00    -0.252 OA
BRANCH   2   4
ATOM      4  C   UNL     1       4.593  -1.999   0.982  1.00  0.00     0.112 C 
ATOM      5  C   UNL     1       2.452  -2.412  -1.169  1.00  0.00    -0.004 C 
ATOM      6  C   UNL     1       2.841  -3.493  -0.157  1.00  0.00     0.005 C 
ATOM      7  C   UNL     1       2.639  -1.046  -0.467  1.00  0.00     0.019 C 
ATOM      8  C   UNL     1       4.270  -3.369   0.349  1.00  0.00     0.017 C 
ATOM      9  C   UNL     1       4.004  -0.809   0.199  1.00  0.00     0.061 C 
BRANCH   5  10
ATOM     10  C   UNL     1       2.987  -2.543  -2.659  1.00  0.00    -0.033 C 
ATOM     11  C   UNL     1       4.432  -2.069  -2.893  1.00  0.00     0.011 C 
ATOM     12  C   UNL     1       2.099  -1.620  -3.550  1.00  0.00     0.011 C 
BRANCH  10  13
ATOM     13  C   UNL     1       2.793  -3.988  -3.234  1.00  0.00     0.003 C 
ATOM     14  C   UNL     1       3.866  -5.034  -2.942  1.00  0.00     0.004 C 
ENDBRANCH  10  13
ENDBRANCH   5  10
BRANCH   9  15
ATOM     15  S   UNL     1       4.164   0.960   0.775  1.00  0.00    -0.157 SA
BRANCH  15  16
ATOM     16  C   UNL     1       3.616   1.051   2.517  1.00  0.00     0.075 C 
BRANCH  16  17
ATOM     17  C   UNL     1       2.167   1.454   2.846  1.00  0.00     0.021 C 
ATOM     18  C   UNL     1       1.106   0.636   2.125  1.00  0.00     0.011 C 
BRANCH  17  19
ATOM     19  C   UNL     1       1.925   1.330   4.363  1.00  0.00     0.160 C 
BRANCH  19  20
ATOM     20  O   UNL     1       2.748   2.223   5.099  1.00  0.00    -0.396 OA
ATOM     21  H   UNL     1       3.681   2.014   4.933  1.00  0.00     0.210 HD
ENDBRANCH  19  20
ENDBRANCH  17  19
ENDBRANCH  16  17
ENDBRANCH  15  16
ENDBRANCH   9  15
ENDBRANCH   2   4
ENDBRANCH   1   2
BRANCH   1  22
ATOM     22  C   UNL     1       2.928  -2.673   4.258  1.00  0.00     0.274 C 
BRANCH  22  23
ATOM     23  C   UNL     1       3.408  -4.002   4.852  1.00  0.00     0.275 C 
BRANCH  23  24
ATOM     24  O   UNL     1       4.844  -4.041   4.938  1.00  0.00    -0.458 OA
BRANCH  24  25
ATOM     25  C   UNL     1       5.466  -4.737   3.959  1.00  0.00     0.338 C 
ATOM     26  O   UNL     1       4.947  -5.427   3.099  1.00  0.00    -0.246 OA
BRANCH  25  27
ATOM     27  C   UNL     1       6.901  -4.407   3.959  1.00  0.00     0.060 A 
ATOM     28  C   UNL     1       7.447  -3.865   2.789  1.00  0.00     0.016 A 
ATOM     29  C   UNL     1       7.709  -4.665   5.066  1.00  0.00     0.016 A 
ATOM     30  C   UNL     1       8.802  -3.562   2.721  1.00  0.00     0.010 A 
ATOM     31  C   UNL     1       9.077  -4.391   4.988  1.00  0.00     0.010 A 
ATOM     32  C   UNL     1       9.628  -3.850   3.812  1.00  0.00    -0.014 A 
BRANCH  32  33
ATOM     33  C   UNL     1      11.093  -3.718   3.669  1.00  0.00     0.031 A 
ATOM     34  C   UNL     1      11.894  -4.945   3.351  1.00  0.00     0.074 A 
ATOM     35  C   UNL     1      11.688  -2.521   3.798  1.00  0.00     0.049 A 
ATOM     36  N   UNL     1      13.191  -5.103   3.301  1.00  0.00    -0.248 NA
ATOM     37  C   UNL     1      11.125  -6.163   3.048  1.00  0.00     0.031 C 
ATOM     38  C   UNL     1      10.995  -1.255   4.029  1.00  0.00     0.029 A 
ATOM     39  N   UNL     1      13.016  -2.180   3.764  1.00  0.00    -0.354 N 
ATOM     40  C   UNL     1      13.393  -6.438   2.981  1.00  0.00     0.074 A 
ATOM     41  C   UNL     1      12.088  -7.051   2.859  1.00  0.00     0.031 C 
ATOM     42  C   UNL     1      11.907  -0.274   4.137  1.00  0.00     0.029 A 
ATOM     43  C   UNL     1      13.245  -0.852   4.029  1.00  0.00     0.049 A 
ATOM     44  H   UNL     1      13.735  -2.824   3.569  1.00  0.00     0.167 HD
ATOM     45  C   UNL     1      14.567  -7.090   2.810  1.00  0.00     0.037 A 
ATOM     46  C   UNL     1      14.407  -0.194   4.201  1.00  0.00     0.037 A 
ATOM     47  C   UNL     1      15.856  -6.466   2.936  1.00  0.00     0.049 A 
ATOM     48  C   UNL     1      15.701  -0.958   4.080  1.00  0.00     0.074 A 
ATOM     49  C   UNL     1      17.110  -7.033   2.800  1.00  0.00     0.029 A 
ATOM     50  N   UNL     1      16.052  -5.123   3.232  1.00  0.00    -0.354 N 
ATOM     51  N   UNL     1      15.891  -2.227   3.805  1.00  0.00    -0.248 NA
ATOM     52  C   UNL     1      16.941  -0.201   4.301  1.00  0.00     0.031 C 
ATOM     53  C   UNL     1      18.066  -6.042   3.054  1.00  0.00     0.029 A 
ATOM     54  C   UNL     1      17.407  -4.847   3.299  1.00  0.00     0.049 A 
ATOM     55  H   UNL     1      15.334  -4.465   3.373  1.00  0.00     0.167 HD
ATOM     56  C   UNL     1      17.267  -2.415   3.797  1.00  0.00     0.074 A 
ATOM     57  C   UNL     1      17.864  -1.127   4.081  1.00  0.00     0.031 C 
ATOM     58  C   UNL     1      17.974  -3.551   3.576  1.00  0.00     0.037 A 
BRANCH  45  59
ATOM     59  C   UNL     1      14.501  -8.559   2.513  1.00  0.00     0.064 A 
ATOM     60  C   UNL     1      14.066  -9.044   1.271  1.00  0.00     0.173 A 
ATOM     61  C   UNL     1      14.885  -9.494   3.485  1.00  0.00     0.173 A 
ATOM     62  F   UNL     1      13.668  -8.191   0.315  1.00  0.00    -0.203 F 
ATOM     63  C   UNL     1      13.992 -10.412   1.022  1.00  0.00     0.198 A 
ATOM     64  C   UNL     1      14.837 -10.861   3.224  1.00  0.00     0.198 A 
ATOM     65  F   UNL     1      15.307  -9.083   4.690  1.00  0.00    -0.203 F 
ATOM     66  F   UNL     1      13.526 -10.855  -0.153  1.00  0.00    -0.200 F 
ATOM     67  C   UNL     1      14.383 -11.319   1.997  1.00  0.00     0.200 A 
ATOM     68  F   UNL     1      15.221 -11.735   4.164  1.00  0.00    -0.200 F 
ATOM     69  F   UNL     1      14.312 -12.636   1.756  1.00  0.00    -0.200 F 
ENDBRANCH  45  59
BRANCH  46  70
ATOM     70  C   UNL     1      14.400   1.253   4.539  1.00  0.00     0.064 A 
ATOM     71  C   UNL     1      14.876   2.212   3.635  1.00  0.00     0.173 A 
ATOM     72  C   UNL     1      13.927   1.706   5.780  1.00  0.00     0.173 A 
ATOM     73  F   UNL     1      15.365   1.827   2.447  1.00  0.00    -0.203 F 
ATOM     74  C   UNL     1      14.891   3.566   3.964  1.00  0.00     0.198 A 
ATOM     75  C   UNL     1      13.916   3.063   6.097  1.00  0.00     0.198 A 
ATOM     76  F   UNL     1      13.467   0.829   6.685  1.00  0.00    -0.203 F 
ATOM     77  F   UNL     1      15.393   4.458   3.098  1.00  0.00    -0.200 F 
ATOM     78  C   UNL     1      14.405   3.991   5.191  1.00  0.00     0.200 A 
ATOM     79  F   UNL     1      13.437   3.469   7.280  1.00  0.00    -0.200 F 
ATOM     80  F   UNL     1      14.417   5.294   5.505  1.00  0.00    -0.200 F 
ENDBRANCH  46  70
BRANCH  58  81
ATOM     81  C   UNL     1      19.470  -3.442   3.598  1.00  0.00     0.064 A 
ATOM     82  C   UNL     1      20.178  -3.278   4.797  1.00  0.00     0.173 A 
ATOM     83  C   UNL     1      20.204  -3.547   2.407  1.00  0.00     0.173 A 
ATOM     84  F   UNL     1      19.519  -3.158   5.959  1.00  0.00    -0.203 F 
ATOM     85  C   UNL     1      21.568  -3.203   4.800  1.00  0.00     0.198 A 
ATOM     86  C   UNL     1      21.595  -3.499   2.417  1.00  0.00     0.198 A 
ATOM     87  F   UNL     1      19.573  -3.712   1.235  1.00  0.00    -0.203 F 
ATOM     88  F   UNL     1      22.223  -3.003   5.952  1.00  0.00    -0.200 F 
ATOM     89  C   UNL     1      22.275  -3.321   3.612  1.00  0.00     0.200 A 
ATOM     90  F   UNL     1      22.277  -3.627   1.271  1.00  0.00    -0.200 F 
ATOM     91  F   UNL     1      23.613  -3.256   3.619  1.00  0.00    -0.200 F 
ENDBRANCH  58  81
ENDBRANCH  32  33
ENDBRANCH  25  27
ENDBRANCH  24  25
ENDBRANCH  23  24
ENDBRANCH  22  23
ENDBRANCH   1  22
TORSDOF 18
