REMARK SMILES Cc1c(NC(=O)c2cccc(-c3cc4ccccc4oc3=O)c2)cccc1C(=O)OCCOC(=O)c1ccc(-c2c3nc(c(-c4c(F)c(F)c(F)c(F)c4F)c4ccc([nH]4)c(-c4c(F)c(F)c(F)c(F)c4F)c4nc(c(-c5c(F)c(F)c(F)c(F)c5F)c5ccc2[nH]5)C=C4)C=C3)cc1
REMARK SMILES IDX 31 1 30 2 28 3 29 4 27 5 1 6 2 7 3 8 24 9 26 10 25 11 4 12
REMARK SMILES IDX 5 13 6 15 7 16 8 17 23 18 9 19 11 20 10 21 12 22 13 23 21 24
REMARK SMILES IDX 14 25 20 26 22 27 15 28 19 29 16 30 18 31 17 32 32 33 33 34
REMARK SMILES IDX 34 35 35 36 36 37 37 38 98 39 38 40 97 41 39 42 40 43 41 44
REMARK SMILES IDX 91 45 42 46 96 47 90 48 92 49 43 50 95 51 89 52 88 53 44 55
REMARK SMILES IDX 76 56 56 57 75 58 57 59 60 60 74 61 93 62 58 63 59 64 73 66
REMARK SMILES IDX 94 67 61 68 45 69 46 70 54 71 47 72 48 73 52 74 55 75 49 76
REMARK SMILES IDX 50 77 53 78 51 79 77 80 78 81 86 82 79 83 80 84 84 85 87 86
REMARK SMILES IDX 81 87 82 88 85 89 83 90 62 91 63 92 71 93 64 94 65 95 69 96
REMARK SMILES IDX 72 97 66 98 67 99 70 100 68 101
REMARK H PARENT 4 14 92 54 60 65
REMARK Flexibility Score: inf
ROOT
ATOM      1  C   UNL     1       3.643   2.889  -1.475  1.00  0.00     0.275 C 
ENDROOT
BRANCH   1   2
ATOM      2  O   UNL     1       2.935   1.794  -0.810  1.00  0.00    -0.458 OA
BRANCH   2   3
ATOM      3  C   UNL     1       1.670   1.499  -1.152  1.00  0.00     0.338 C 
ATOM      4  O   UNL     1       1.042   2.140  -1.978  1.00  0.00    -0.246 OA
BRANCH   3   5
ATOM      5  C   UNL     1       0.970   0.415  -0.396  1.00  0.00     0.065 A 
ATOM      6  C   UNL     1       2.987  -1.085   0.038  1.00  0.00     0.047 C 
ATOM      7  C   UNL     1       1.514  -0.791   0.083  1.00  0.00    -0.013 A 
ATOM      8  C   UNL     1       0.587  -1.795   0.477  1.00  0.00     0.045 A 
ATOM      9  C   UNL     1      -0.757  -1.486   0.724  1.00  0.00     0.026 A 
ATOM     10  C   UNL     1      -0.428   0.618  -0.314  1.00  0.00     0.016 A 
ATOM     11  C   UNL     1      -1.274  -0.275   0.319  1.00  0.00     0.003 A 
BRANCH   8  12
ATOM     12  N   UNL     1       0.982  -3.145   0.515  1.00  0.00    -0.322 N 
ATOM     13  C   UNL     1       0.271  -4.291   0.197  1.00  0.00     0.255 C 
ATOM     14  H   UNL     1       1.907  -3.299   0.815  1.00  0.00     0.170 HD
ATOM     15  O   UNL     1       0.761  -5.377   0.516  1.00  0.00    -0.269 OA
BRANCH  13  16
ATOM     16  C   UNL     1      -0.997  -4.298  -0.611  1.00  0.00     0.040 A 
ATOM     17  C   UNL     1      -1.842  -5.409  -0.491  1.00  0.00     0.014 A 
ATOM     18  C   UNL     1      -1.305  -3.334  -1.586  1.00  0.00     0.022 A 
ATOM     19  C   UNL     1      -2.988  -5.527  -1.282  1.00  0.00     0.001 A 
ATOM     20  C   UNL     1      -2.462  -3.434  -2.388  1.00  0.00    -0.010 A 
ATOM     21  C   UNL     1      -3.303  -4.540  -2.216  1.00  0.00     0.009 A 
BRANCH  20  22
ATOM     22  C   UNL     1      -2.714  -2.570  -3.583  1.00  0.00     0.068 A 
ATOM     23  C   UNL     1      -2.457  -1.243  -3.570  1.00  0.00     0.028 A 
ATOM     24  C   UNL     1      -2.103  -3.187  -4.811  1.00  0.00     0.344 A 
ATOM     25  C   UNL     1      -1.106  -0.846  -4.015  1.00  0.00     0.018 A 
ATOM     26  O   UNL     1      -0.716  -3.115  -4.802  1.00  0.00    -0.422 OA
ATOM     27  O   UNL     1      -2.760  -3.798  -5.642  1.00  0.00    -0.246 OA
ATOM     28  C   UNL     1      -0.651   0.463  -3.985  1.00  0.00     0.012 A 
ATOM     29  C   UNL     1      -0.226  -1.853  -4.431  1.00  0.00     0.138 A 
ATOM     30  C   UNL     1       0.694   0.717  -4.268  1.00  0.00     0.001 A 
ATOM     31  C   UNL     1       1.138  -1.627  -4.558  1.00  0.00     0.048 A 
ATOM     32  C   UNL     1       1.605  -0.326  -4.449  1.00  0.00     0.004 A 
ENDBRANCH  20  22
ENDBRANCH  13  16
ENDBRANCH   8  12
ENDBRANCH   3   5
ENDBRANCH   2   3
ENDBRANCH   1   2
BRANCH   1  33
ATOM     33  C   UNL     1       3.025   3.763  -2.623  1.00  0.00     0.275 C 
BRANCH  33  34
ATOM     34  O   UNL     1       2.126   4.907  -2.418  1.00  0.00    -0.458 OA
BRANCH  34  35
ATOM     35  C   UNL     1       0.868   4.834  -1.894  1.00  0.00     0.338 C 
ATOM     36  O   UNL     1      -0.152   5.115  -2.450  1.00  0.00    -0.246 OA
BRANCH  35  37
ATOM     37  C   UNL     1       0.941   4.560  -0.439  1.00  0.00     0.060 A 
ATOM     38  C   UNL     1      -0.078   3.862   0.222  1.00  0.00     0.016 A 
ATOM     39  C   UNL     1       2.149   4.857   0.172  1.00  0.00     0.016 A 
ATOM     40  C   UNL     1       0.183   3.328   1.476  1.00  0.00     0.010 A 
ATOM     41  C   UNL     1       2.475   4.178   1.304  1.00  0.00     0.010 A 
ATOM     42  C   UNL     1       1.470   3.480   1.986  1.00  0.00    -0.014 A 
BRANCH  42  43
ATOM     43  C   UNL     1       1.780   3.441   3.398  1.00  0.00     0.031 A 
ATOM     44  C   UNL     1       2.453   2.300   4.014  1.00  0.00     0.074 A 
ATOM     45  C   UNL     1       1.718   4.704   3.878  1.00  0.00     0.049 A 
ATOM     46  N   UNL     1       2.489   2.091   5.279  1.00  0.00    -0.248 NA
ATOM     47  C   UNL     1       3.136   1.262   3.248  1.00  0.00     0.031 C 
ATOM     48  C   UNL     1       2.333   5.344   5.019  1.00  0.00     0.029 A 
ATOM     49  N   UNL     1       0.941   5.729   3.299  1.00  0.00    -0.354 N 
ATOM     50  C   UNL     1       3.468   1.147   5.513  1.00  0.00     0.074 A 
ATOM     51  C   UNL     1       3.714   0.547   4.223  1.00  0.00     0.031 C 
ATOM     52  C   UNL     1       1.670   6.497   5.254  1.00  0.00     0.029 A 
ATOM     53  C   UNL     1       0.527   6.551   4.339  1.00  0.00     0.049 A 
ATOM     54  H   UNL     1       0.732   5.840   2.343  1.00  0.00     0.167 HD
ATOM     55  C   UNL     1       4.083   1.152   6.734  1.00  0.00     0.037 A 
ATOM     56  C   UNL     1      -0.792   6.454   4.681  1.00  0.00     0.037 A 
ATOM     57  C   UNL     1       3.524   2.245   7.543  1.00  0.00     0.049 A 
ATOM     58  C   UNL     1      -0.917   5.774   6.021  1.00  0.00     0.074 A 
ATOM     59  C   UNL     1       3.972   3.540   7.753  1.00  0.00     0.029 A 
ATOM     60  N   UNL     1       2.178   2.229   7.902  1.00  0.00    -0.354 N 
ATOM     61  N   UNL     1      -0.085   4.871   6.470  1.00  0.00    -0.248 NA
ATOM     62  C   UNL     1      -1.948   6.133   6.984  1.00  0.00     0.031 C 
ATOM     63  C   UNL     1       2.854   4.328   8.136  1.00  0.00     0.029 A 
ATOM     64  C   UNL     1       1.734   3.514   8.173  1.00  0.00     0.049 A 
ATOM     65  H   UNL     1       1.621   1.420   7.957  1.00  0.00     0.167 HD
ATOM     66  C   UNL     1      -0.390   4.593   7.771  1.00  0.00     0.074 A 
ATOM     67  C   UNL     1      -1.579   5.389   8.039  1.00  0.00     0.031 C 
ATOM     68  C   UNL     1       0.352   3.760   8.558  1.00  0.00     0.037 A 
BRANCH  55  69
ATOM     69  C   UNL     1       5.382   0.450   7.106  1.00  0.00     0.064 A 
ATOM     70  C   UNL     1       6.126   0.881   8.233  1.00  0.00     0.173 A 
ATOM     71  C   UNL     1       5.972  -0.621   6.406  1.00  0.00     0.173 A 
ATOM     72  F   UNL     1       5.659   1.825   9.060  1.00  0.00    -0.203 F 
ATOM     73  C   UNL     1       7.380   0.356   8.566  1.00  0.00     0.198 A 
ATOM     74  C   UNL     1       7.240  -1.130   6.724  1.00  0.00     0.198 A 
ATOM     75  F   UNL     1       5.331  -1.256   5.421  1.00  0.00    -0.203 F 
ATOM     76  F   UNL     1       8.034   0.827   9.638  1.00  0.00    -0.200 F 
ATOM     77  C   UNL     1       7.948  -0.635   7.798  1.00  0.00     0.200 A 
ATOM     78  F   UNL     1       7.765  -2.114   5.979  1.00  0.00    -0.200 F 
ATOM     79  F   UNL     1       9.156  -1.128   8.105  1.00  0.00    -0.200 F 
ENDBRANCH  55  69
BRANCH  56  80
ATOM     80  C   UNL     1      -1.727   6.264   3.512  1.00  0.00     0.064 A 
ATOM     81  C   UNL     1      -1.647   7.162   2.419  1.00  0.00     0.173 A 
ATOM     82  C   UNL     1      -2.507   5.117   3.312  1.00  0.00     0.173 A 
ATOM     83  F   UNL     1      -0.915   8.283   2.526  1.00  0.00    -0.203 F 
ATOM     84  C   UNL     1      -2.240   6.891   1.183  1.00  0.00     0.198 A 
ATOM     85  C   UNL     1      -3.117   4.855   2.075  1.00  0.00     0.198 A 
ATOM     86  F   UNL     1      -2.634   4.202   4.283  1.00  0.00    -0.203 F 
ATOM     87  F   UNL     1      -2.058   7.731   0.154  1.00  0.00    -0.200 F 
ATOM     88  C   UNL     1      -2.967   5.730   1.008  1.00  0.00     0.200 A 
ATOM     89  F   UNL     1      -3.797   3.713   1.892  1.00  0.00    -0.200 F 
ATOM     90  F   UNL     1      -3.489   5.431  -0.191  1.00  0.00    -0.200 F 
ENDBRANCH  56  80
BRANCH  68  91
ATOM     91  C   UNL     1      -0.147   3.173   9.847  1.00  0.00     0.064 A 
ATOM     92  C   UNL     1      -1.503   2.891  10.078  1.00  0.00     0.173 A 
ATOM     93  C   UNL     1       0.759   2.708  10.827  1.00  0.00     0.173 A 
ATOM     94  F   UNL     1      -2.440   3.161   9.159  1.00  0.00    -0.203 F 
ATOM     95  C   UNL     1      -1.931   2.263  11.245  1.00  0.00     0.198 A 
ATOM     96  C   UNL     1       0.333   2.013  11.954  1.00  0.00     0.198 A 
ATOM     97  F   UNL     1       2.083   2.883  10.702  1.00  0.00    -0.203 F 
ATOM     98  F   UNL     1      -3.242   2.070  11.447  1.00  0.00    -0.200 F 
ATOM     99  C   UNL     1      -1.014   1.811  12.174  1.00  0.00     0.200 A 
ATOM    100  F   UNL     1       1.237   1.520  12.811  1.00  0.00    -0.200 F 
ATOM    101  F   UNL     1      -1.427   1.161  13.269  1.00  0.00    -0.200 F 
ENDBRANCH  68  91
ENDBRANCH  42  43
ENDBRANCH  35  37
ENDBRANCH  34  35
ENDBRANCH  33  34
ENDBRANCH   1  33
TORSDOF 14
