REMARK SMILES C/C(=N\O)[C@@H]1C[C@@H](CC(=O)OCCOC(=O)c2ccc(-c3c4nc(c(-c5c(F)c(F)c(F)c(F)c5F)c5ccc([nH]5)c(-c5c(F)c(F)c(F)c(F)c5F)c5nc(c(-c6c(F)c(F)c(F)c(F)c6F)c6ccc3[nH]6)C=C5)C=C4)cc2)C1(C)C
REMARK SMILES IDX 12 1 11 2 9 3 10 4 8 5 7 6 5 7 6 8 80 9 81 10 82 11 2 12
REMARK SMILES IDX 1 13 3 14 4 15 13 17 14 18 15 19 16 20 17 21 18 22 79 23
REMARK SMILES IDX 19 24 78 25 20 26 21 27 22 28 72 29 23 30 77 31 71 32 73 33
REMARK SMILES IDX 24 34 76 35 70 36 69 37 25 39 57 40 37 41 56 42 38 43 41 44
REMARK SMILES IDX 55 45 74 46 39 47 40 48 54 50 75 51 42 52 26 53 27 54 35 55
REMARK SMILES IDX 28 56 29 57 33 58 36 59 30 60 31 61 34 62 32 63 58 64 59 65
REMARK SMILES IDX 67 66 60 67 61 68 65 69 68 70 62 71 63 72 66 73 64 74 43 75
REMARK SMILES IDX 44 76 52 77 45 78 46 79 50 80 53 81 47 82 48 83 51 84 49 85
REMARK H PARENT 4 16 73 38 41 49
REMARK Flexibility Score: inf
ROOT
ATOM      1  C   UNL     1      -1.683  -3.038   7.362  1.00  0.00     0.274 C 
ENDROOT
BRANCH   1   2
ATOM      2  O   UNL     1      -0.968  -2.275   6.372  1.00  0.00    -0.462 OA
BRANCH   2   3
ATOM      3  C   UNL     1       0.042  -1.490   6.816  1.00  0.00     0.306 C 
ATOM      4  O   UNL     1       0.343  -1.324   7.992  1.00  0.00    -0.252 OA
BRANCH   3   5
ATOM      5  C   UNL     1       0.759  -0.789   5.689  1.00  0.00     0.127 C 
BRANCH   5   6
ATOM      6  C   UNL     1       0.822  -1.538   4.358  1.00  0.00     0.007 C 
ATOM      7  C   UNL     1       0.680  -1.174   2.205  1.00  0.00     0.043 C 
ATOM      8  C   UNL     1       1.716  -0.851   3.304  1.00  0.00     0.015 C 
ATOM      9  C   UNL     1      -0.369  -1.487   3.332  1.00  0.00    -0.024 C 
ATOM     10  C   UNL     1      -1.369  -0.340   3.503  1.00  0.00     0.012 C 
ATOM     11  C   UNL     1      -1.108  -2.821   3.193  1.00  0.00     0.012 C 
BRANCH   7  12
ATOM     12  C   UNL     1       1.010  -2.289   1.150  1.00  0.00     0.058 C 
ATOM     13  C   UNL     1       0.390  -2.125  -0.221  1.00  0.00     0.066 C 
ATOM     14  N   UNL     1       1.808  -3.256   1.495  1.00  0.00    -0.099 NA
BRANCH  14  15
ATOM     15  O   UNL     1       2.008  -4.168   0.456  1.00  0.00    -0.411 OA
ATOM     16  H   UNL     1       2.565  -4.910   0.585  1.00  0.00     0.330 HD
ENDBRANCH  14  15
ENDBRANCH   7  12
ENDBRANCH   5   6
ENDBRANCH   3   5
ENDBRANCH   2   3
ENDBRANCH   1   2
BRANCH   1  17
ATOM     17  C   UNL     1      -1.223  -4.496   7.352  1.00  0.00     0.275 C 
BRANCH  17  18
ATOM     18  O   UNL     1       0.131  -4.603   7.828  1.00  0.00    -0.458 OA
BRANCH  18  19
ATOM     19  C   UNL     1       1.073  -4.771   6.872  1.00  0.00     0.338 C 
ATOM     20  O   UNL     1       0.908  -4.906   5.674  1.00  0.00    -0.246 OA
BRANCH  19  21
ATOM     21  C   UNL     1       2.400  -4.676   7.493  1.00  0.00     0.060 A 
ATOM     22  C   UNL     1       3.145  -3.509   7.307  1.00  0.00     0.016 A 
ATOM     23  C   UNL     1       2.934  -5.759   8.191  1.00  0.00     0.016 A 
ATOM     24  C   UNL     1       4.436  -3.418   7.823  1.00  0.00     0.010 A 
ATOM     25  C   UNL     1       4.228  -5.666   8.711  1.00  0.00     0.010 A 
ATOM     26  C   UNL     1       4.990  -4.499   8.522  1.00  0.00    -0.014 A 
BRANCH  26  27
ATOM     27  C   UNL     1       6.386  -4.430   9.015  1.00  0.00     0.031 A 
ATOM     28  C   UNL     1       7.468  -5.184   8.296  1.00  0.00     0.074 A 
ATOM     29  C   UNL     1       6.683  -3.689  10.098  1.00  0.00     0.049 A 
ATOM     30  N   UNL     1       8.724  -5.346   8.624  1.00  0.00    -0.248 NA
ATOM     31  C   UNL     1       7.083  -5.842   7.037  1.00  0.00     0.031 C 
ATOM     32  C   UNL     1       5.728  -2.878  10.853  1.00  0.00     0.029 A 
ATOM     33  N   UNL     1       7.873  -3.507  10.757  1.00  0.00    -0.354 N 
ATOM     34  C   UNL     1       9.278  -6.130   7.622  1.00  0.00     0.074 A 
ATOM     35  C   UNL     1       8.218  -6.429   6.682  1.00  0.00     0.031 C 
ATOM     36  C   UNL     1       6.368  -2.291  11.878  1.00  0.00     0.029 A 
ATOM     37  C   UNL     1       7.765  -2.718  11.876  1.00  0.00     0.049 A 
ATOM     38  H   UNL     1       8.722  -3.903  10.456  1.00  0.00     0.167 HD
ATOM     39  C   UNL     1      10.557  -6.556   7.496  1.00  0.00     0.037 A 
ATOM     40  C   UNL     1       8.683  -2.404  12.809  1.00  0.00     0.037 A 
ATOM     41  C   UNL     1      11.611  -6.255   8.429  1.00  0.00     0.049 A 
ATOM     42  C   UNL     1      10.082  -2.943  12.677  1.00  0.00     0.074 A 
ATOM     43  C   UNL     1      12.933  -6.664   8.403  1.00  0.00     0.029 A 
ATOM     44  N   UNL     1      11.460  -5.461   9.556  1.00  0.00    -0.354 N 
ATOM     45  N   UNL     1      10.592  -3.704  11.739  1.00  0.00    -0.248 NA
ATOM     46  C   UNL     1      11.035  -2.582  13.737  1.00  0.00     0.031 C 
ATOM     47  C   UNL     1      13.577  -6.138   9.528  1.00  0.00     0.029 A 
ATOM     48  C   UNL     1      12.664  -5.372  10.235  1.00  0.00     0.049 A 
ATOM     49  H   UNL     1      10.622  -5.026   9.833  1.00  0.00     0.167 HD
ATOM     50  C   UNL     1      11.923  -3.893  12.082  1.00  0.00     0.074 A 
ATOM     51  C   UNL     1      12.150  -3.155  13.306  1.00  0.00     0.031 C 
ATOM     52  C   UNL     1      12.873  -4.617  11.442  1.00  0.00     0.037 A 
BRANCH  39  53
ATOM     53  C   UNL     1      10.892  -7.406   6.308  1.00  0.00     0.064 A 
ATOM     54  C   UNL     1      11.023  -6.852   5.027  1.00  0.00     0.173 A 
ATOM     55  C   UNL     1      11.139  -8.778   6.461  1.00  0.00     0.173 A 
ATOM     56  F   UNL     1      10.783  -5.547   4.829  1.00  0.00    -0.203 F 
ATOM     57  C   UNL     1      11.380  -7.644   3.939  1.00  0.00     0.198 A 
ATOM     58  C   UNL     1      11.517  -9.563   5.375  1.00  0.00     0.198 A 
ATOM     59  F   UNL     1      11.030  -9.355   7.668  1.00  0.00    -0.203 F 
ATOM     60  F   UNL     1      11.473  -7.099   2.717  1.00  0.00    -0.200 F 
ATOM     61  C   UNL     1      11.634  -8.996   4.115  1.00  0.00     0.200 A 
ATOM     62  F   UNL     1      11.772 -10.867   5.548  1.00  0.00    -0.200 F 
ATOM     63  F   UNL     1      11.989  -9.754   3.068  1.00  0.00    -0.200 F 
ENDBRANCH  39  53
BRANCH  40  64
ATOM     64  C   UNL     1       8.307  -1.558  13.970  1.00  0.00     0.064 A 
ATOM     65  C   UNL     1       8.822  -0.263  14.118  1.00  0.00     0.173 A 
ATOM     66  C   UNL     1       7.453  -2.040  14.973  1.00  0.00     0.173 A 
ATOM     67  F   UNL     1       9.665   0.232  13.200  1.00  0.00    -0.203 F 
ATOM     68  C   UNL     1       8.514   0.510  15.237  1.00  0.00     0.198 A 
ATOM     69  C   UNL     1       7.125  -1.257  16.077  1.00  0.00     0.198 A 
ATOM     70  F   UNL     1       6.939  -3.275  14.881  1.00  0.00    -0.203 F 
ATOM     71  F   UNL     1       9.063   1.724  15.380  1.00  0.00    -0.200 F 
ATOM     72  C   UNL     1       7.663   0.014  16.213  1.00  0.00     0.200 A 
ATOM     73  F   UNL     1       6.296  -1.737  17.014  1.00  0.00    -0.200 F 
ATOM     74  F   UNL     1       7.373   0.755  17.291  1.00  0.00    -0.200 F 
ENDBRANCH  40  64
BRANCH  52  75
ATOM     75  C   UNL     1      14.251  -4.612  12.033  1.00  0.00     0.064 A 
ATOM     76  C   UNL     1      14.555  -5.341  13.191  1.00  0.00     0.173 A 
ATOM     77  C   UNL     1      15.286  -3.898  11.412  1.00  0.00     0.173 A 
ATOM     78  F   UNL     1      13.594  -6.027  13.829  1.00  0.00    -0.203 F 
ATOM     79  C   UNL     1      15.843  -5.337  13.720  1.00  0.00     0.198 A 
ATOM     80  C   UNL     1      16.578  -3.915  11.930  1.00  0.00     0.198 A 
ATOM     81  F   UNL     1      15.045  -3.190  10.298  1.00  0.00    -0.203 F 
ATOM     82  F   UNL     1      16.103  -6.006  14.851  1.00  0.00    -0.200 F 
ATOM     83  C   UNL     1      16.854  -4.629  13.086  1.00  0.00     0.200 A 
ATOM     84  F   UNL     1      17.555  -3.238  11.311  1.00  0.00    -0.200 F 
ATOM     85  F   UNL     1      18.093  -4.629  13.595  1.00  0.00    -0.200 F 
ENDBRANCH  52  75
ENDBRANCH  26  27
ENDBRANCH  19  21
ENDBRANCH  18  19
ENDBRANCH  17  18
ENDBRANCH   1  17
TORSDOF 14
