REMARK SMILES C[C@H](Cc1cccs1)N(C)C(=O)N1CC[C@@H](CC(=O)OCCOC(=O)c2ccc(-c3c4nc(c(-c5c(F)c(F)c(F)c(F)c5F)c5ccc([nH]5)c(-c5c(F)c(F)c(F)c(F)c5F)c5nc(c(-c6c(F)c(F)c(F)c(F)c6F)c6ccc3[nH]6)C=C5)C=C4)cc2)C1
REMARK SMILES IDX 18 1 19 2 17 3 16 4 13 5 14 6 89 7 15 8 11 9 12 10 9 11
REMARK SMILES IDX 10 12 2 13 1 14 3 15 4 16 5 17 8 18 6 19 7 20 20 21 21 22
REMARK SMILES IDX 22 23 23 24 24 25 25 26 26 27 27 28 88 29 28 30 87 31 29 32
REMARK SMILES IDX 30 33 31 34 81 35 32 36 86 37 80 38 82 39 33 40 85 41 79 42
REMARK SMILES IDX 78 43 34 45 66 46 46 47 65 48 47 49 50 50 64 51 83 52 48 53
REMARK SMILES IDX 49 54 63 56 84 57 51 58 35 59 36 60 44 61 37 62 38 63 42 64
REMARK SMILES IDX 45 65 39 66 40 67 43 68 41 69 67 70 68 71 76 72 69 73 70 74
REMARK SMILES IDX 74 75 77 76 71 77 72 78 75 79 73 80 52 81 53 82 61 83 54 84
REMARK SMILES IDX 55 85 59 86 62 87 56 88 57 89 60 90 58 91
REMARK H PARENT 82 44 50 55
REMARK Flexibility Score: inf
ROOT
ATOM      1  C   UNL     1      -7.272  -0.820   2.038  1.00  0.00     0.306 C 
ATOM      2  O   UNL     1      -7.483  -0.560   3.217  1.00  0.00    -0.252 OA
ENDROOT
BRANCH   1   3
ATOM      3  C   UNL     1      -6.854   0.234   1.028  1.00  0.00     0.128 C 
BRANCH   3   4
ATOM      4  C   UNL     1      -5.597   0.057   0.167  1.00  0.00     0.021 C 
ATOM      5  N   UNL     1      -3.286  -0.530   0.170  1.00  0.00    -0.324 N 
ATOM      6  C   UNL     1      -3.962  -1.649  -0.461  1.00  0.00     0.122 C 
ATOM      7  C   UNL     1      -4.261   0.295   0.866  1.00  0.00     0.125 C 
ATOM      8  C   UNL     1      -5.430  -1.260  -0.588  1.00  0.00     0.027 C 
BRANCH   5   9
ATOM      9  C   UNL     1      -1.955  -0.399   0.518  1.00  0.00     0.320 C 
ATOM     10  O   UNL     1      -1.606   0.487   1.304  1.00  0.00    -0.248 OA
BRANCH   9  11
ATOM     11  N   UNL     1      -1.025  -1.295   0.014  1.00  0.00    -0.325 N 
ATOM     12  C   UNL     1      -1.121  -1.910  -1.299  1.00  0.00     0.149 C 
BRANCH  11  13
ATOM     13  C   UNL     1       0.300  -1.430   0.668  1.00  0.00     0.088 C 
ATOM     14  C   UNL     1       0.206  -1.719   2.175  1.00  0.00     0.031 C 
BRANCH  13  15
ATOM     15  C   UNL     1       1.232  -0.232   0.356  1.00  0.00     0.071 C 
BRANCH  15  16
ATOM     16  C   UNL     1       2.587  -0.678  -0.149  1.00  0.00     0.007 A 
ATOM     17  C   UNL     1       3.105  -0.544  -1.424  1.00  0.00     0.015 A 
ATOM     18  S   UNL     1       3.708  -1.447   0.897  1.00  0.00    -0.149 S 
ATOM     19  C   UNL     1       4.406  -1.114  -1.548  1.00  0.00     0.012 A 
ATOM     20  C   UNL     1       4.844  -1.657  -0.362  1.00  0.00     0.065 A 
ENDBRANCH  15  16
ENDBRANCH  13  15
ENDBRANCH  11  13
ENDBRANCH   9  11
ENDBRANCH   5   9
ENDBRANCH   3   4
ENDBRANCH   1   3
BRANCH   1  21
ATOM     21  O   UNL     1      -7.516  -2.026   1.467  1.00  0.00    -0.462 OA
BRANCH  21  22
ATOM     22  C   UNL     1      -8.037  -3.071   2.315  1.00  0.00     0.274 C 
BRANCH  22  23
ATOM     23  C   UNL     1      -6.938  -3.989   2.861  1.00  0.00     0.275 C 
BRANCH  23  24
ATOM     24  O   UNL     1      -6.215  -3.373   3.945  1.00  0.00    -0.458 OA
BRANCH  24  25
ATOM     25  C   UNL     1      -5.143  -2.655   3.556  1.00  0.00     0.338 C 
ATOM     26  O   UNL     1      -4.725  -2.533   2.409  1.00  0.00    -0.246 OA
BRANCH  25  27
ATOM     27  C   UNL     1      -4.552  -1.923   4.677  1.00  0.00     0.060 A 
ATOM     28  C   UNL     1      -4.628  -0.528   4.668  1.00  0.00     0.016 A 
ATOM     29  C   UNL     1      -3.808  -2.590   5.652  1.00  0.00     0.016 A 
ATOM     30  C   UNL     1      -3.934   0.214   5.612  1.00  0.00     0.010 A 
ATOM     31  C   UNL     1      -3.127  -1.843   6.617  1.00  0.00     0.010 A 
ATOM     32  C   UNL     1      -3.177  -0.439   6.592  1.00  0.00    -0.014 A 
BRANCH  32  33
ATOM     33  C   UNL     1      -2.461   0.373   7.597  1.00  0.00     0.031 A 
ATOM     34  C   UNL     1      -0.981   0.573   7.501  1.00  0.00     0.074 A 
ATOM     35  C   UNL     1      -3.176   0.967   8.570  1.00  0.00     0.049 A 
ATOM     36  N   UNL     1      -0.185   1.234   8.303  1.00  0.00    -0.248 NA
ATOM     37  C   UNL     1      -0.302  -0.052   6.356  1.00  0.00     0.031 C 
ATOM     38  C   UNL     1      -4.628   0.867   8.722  1.00  0.00     0.029 A 
ATOM     39  N   UNL     1      -2.784   1.781   9.598  1.00  0.00    -0.354 N 
ATOM     40  C   UNL     1       1.090   1.085   7.777  1.00  0.00     0.074 A 
ATOM     41  C   UNL     1       0.965   0.265   6.589  1.00  0.00     0.031 C 
ATOM     42  C   UNL     1      -5.009   1.613   9.770  1.00  0.00     0.029 A 
ATOM     43  C   UNL     1      -3.825   2.205  10.384  1.00  0.00     0.049 A 
ATOM     44  H   UNL     1      -1.847   2.037   9.758  1.00  0.00     0.167 HD
ATOM     45  C   UNL     1       2.254   1.590   8.249  1.00  0.00     0.037 A 
ATOM     46  C   UNL     1      -3.821   2.978  11.486  1.00  0.00     0.037 A 
ATOM     47  C   UNL     1       2.359   2.432   9.414  1.00  0.00     0.049 A 
ATOM     48  C   UNL     1      -2.513   3.509  11.996  1.00  0.00     0.074 A 
ATOM     49  C   UNL     1       3.488   3.016   9.961  1.00  0.00     0.029 A 
ATOM     50  N   UNL     1       1.287   2.814  10.210  1.00  0.00    -0.354 N 
ATOM     51  N   UNL     1      -1.310   3.354  11.500  1.00  0.00    -0.248 NA
ATOM     52  C   UNL     1      -2.562   4.314  13.223  1.00  0.00     0.031 C 
ATOM     53  C   UNL     1       3.105   3.723  11.107  1.00  0.00     0.029 A 
ATOM     54  C   UNL     1       1.732   3.609  11.254  1.00  0.00     0.049 A 
ATOM     55  H   UNL     1       0.349   2.557  10.055  1.00  0.00     0.167 HD
ATOM     56  C   UNL     1      -0.458   4.050  12.343  1.00  0.00     0.074 A 
ATOM     57  C   UNL     1      -1.286   4.643  13.375  1.00  0.00     0.031 C 
ATOM     58  C   UNL     1       0.889   4.183  12.272  1.00  0.00     0.037 A 
BRANCH  45  59
ATOM     59  C   UNL     1       3.514   1.217   7.528  1.00  0.00     0.064 A 
ATOM     60  C   UNL     1       3.855   1.782   6.290  1.00  0.00     0.173 A 
ATOM     61  C   UNL     1       4.414   0.308   8.106  1.00  0.00     0.173 A 
ATOM     62  F   UNL     1       3.024   2.650   5.694  1.00  0.00    -0.203 F 
ATOM     63  C   UNL     1       5.041   1.435   5.648  1.00  0.00     0.198 A 
ATOM     64  C   UNL     1       5.609  -0.020   7.472  1.00  0.00     0.198 A 
ATOM     65  F   UNL     1       4.137  -0.255   9.292  1.00  0.00    -0.203 F 
ATOM     66  F   UNL     1       5.335   1.963   4.452  1.00  0.00    -0.200 F 
ATOM     67  C   UNL     1       5.919   0.539   6.242  1.00  0.00     0.200 A 
ATOM     68  F   UNL     1       6.461  -0.876   8.053  1.00  0.00    -0.200 F 
ATOM     69  F   UNL     1       7.065   0.213   5.627  1.00  0.00    -0.200 F 
ENDBRANCH  45  59
BRANCH  46  70
ATOM     70  C   UNL     1      -5.103   3.290  12.162  1.00  0.00     0.064 A 
ATOM     71  C   UNL     1      -5.657   4.574  12.095  1.00  0.00     0.173 A 
ATOM     72  C   UNL     1      -5.819   2.302  12.854  1.00  0.00     0.173 A 
ATOM     73  F   UNL     1      -4.998   5.555  11.461  1.00  0.00    -0.203 F 
ATOM     74  C   UNL     1      -6.881   4.860  12.696  1.00  0.00     0.198 A 
ATOM     75  C   UNL     1      -7.053   2.583  13.434  1.00  0.00     0.198 A 
ATOM     76  F   UNL     1      -5.329   1.056  12.944  1.00  0.00    -0.203 F 
ATOM     77  F   UNL     1      -7.379   6.103  12.638  1.00  0.00    -0.200 F 
ATOM     78  C   UNL     1      -7.582   3.862  13.357  1.00  0.00     0.200 A 
ATOM     79  F   UNL     1      -7.733   1.613  14.060  1.00  0.00    -0.200 F 
ATOM     80  F   UNL     1      -8.765   4.135  13.922  1.00  0.00    -0.200 F 
ENDBRANCH  46  70
BRANCH  58  81
ATOM     81  C   UNL     1       1.542   5.013  13.335  1.00  0.00     0.064 A 
ATOM     82  C   UNL     1       1.719   4.521  14.636  1.00  0.00     0.173 A 
ATOM     83  C   UNL     1       2.012   6.301  13.044  1.00  0.00     0.173 A 
ATOM     84  F   UNL     1       1.268   3.301  14.964  1.00  0.00    -0.203 F 
ATOM     85  C   UNL     1       2.326   5.301  15.616  1.00  0.00     0.198 A 
ATOM     86  C   UNL     1       2.637   7.070  14.021  1.00  0.00     0.198 A 
ATOM     87  F   UNL     1       1.866   6.813  11.813  1.00  0.00    -0.203 F 
ATOM     88  F   UNL     1       2.448   4.830  16.865  1.00  0.00    -0.200 F 
ATOM     89  C   UNL     1       2.788   6.572  15.307  1.00  0.00     0.200 A 
ATOM     90  F   UNL     1       3.089   8.295  13.721  1.00  0.00    -0.200 F 
ATOM     91  F   UNL     1       3.372   7.322  16.253  1.00  0.00    -0.200 F 
ENDBRANCH  58  81
ENDBRANCH  32  33
ENDBRANCH  25  27
ENDBRANCH  24  25
ENDBRANCH  23  24
ENDBRANCH  22  23
ENDBRANCH  21  22
ENDBRANCH   1  21
TORSDOF 17
