REMARK SMILES COc1ccc2[nH]cc([C@H](C(=O)OCCOC(=O)c3ccc(-c4c5nc(c(-c6c(F)c(F)c(F)c(F)c6F)c6ccc([nH]6)c(-c6c(F)c(F)c(F)c(F)c6F)c6nc(c(-c7c(F)c(F)c(F)c(F)c7F)c7ccc4[nH]7)C=C6)C=C5)cc3)[NH+]3CC[NH+](Cc4cccc5ccccc45)CC3)c2c1
REMARK SMILES IDX 14 1 13 2 11 3 12 4 10 5 9 6 3 7 4 8 100 9 5 10 99 11 6 12
REMARK SMILES IDX 7 13 8 14 2 16 1 17 82 18 83 19 98 20 84 22 97 23 85 24
REMARK SMILES IDX 86 26 87 27 88 28 96 29 89 30 91 31 95 32 90 33 92 34 94 35
REMARK SMILES IDX 93 36 15 37 16 38 17 39 18 40 19 41 20 42 81 43 21 44 80 45
REMARK SMILES IDX 22 46 23 47 24 48 74 49 25 50 79 51 73 52 75 53 26 54 78 55
REMARK SMILES IDX 72 56 71 57 27 59 59 60 39 61 58 62 40 63 43 64 57 65 76 66
REMARK SMILES IDX 41 67 42 68 56 70 77 71 44 72 28 73 29 74 37 75 30 76 31 77
REMARK SMILES IDX 35 78 38 79 32 80 33 81 36 82 34 83 60 84 61 85 69 86 62 87
REMARK SMILES IDX 63 88 67 89 70 90 64 91 65 92 68 93 66 94 45 95 46 96 54 97
REMARK SMILES IDX 47 98 48 99 52 100 55 101 49 102 50 103 53 104 51 105
REMARK H PARENT 7 15 82 21 85 25 75 58 43 69
REMARK Flexibility Score: inf
ROOT
ATOM      1  C   UNL     1       1.343  -4.865  -0.602  1.00  0.00     0.274 C 
ENDROOT
BRANCH   1   2
ATOM      2  O   UNL     1      -0.043  -5.078  -0.269  1.00  0.00    -0.457 OA
BRANCH   2   3
ATOM      3  C   UNL     1      -0.213  -5.760   0.902  1.00  0.00     0.370 C 
ATOM      4  O   UNL     1       0.727  -5.958   1.663  1.00  0.00    -0.245 OA
BRANCH   3   5
ATOM      5  C   UNL     1      -1.668  -6.178   1.183  1.00  0.00     0.328 C 
BRANCH   5   6
ATOM      6  C   UNL     1      -2.424  -6.798   0.017  1.00  0.00     0.046 A 
ATOM      7  C   UNL     1      -0.414  -8.463  -2.772  1.00  0.00     0.119 A 
ATOM      8  C   UNL     1      -1.497  -8.838  -3.557  1.00  0.00     0.048 A 
ATOM      9  C   UNL     1      -0.595  -7.846  -1.539  1.00  0.00     0.057 A 
ATOM     10  C   UNL     1      -2.803  -8.581  -3.129  1.00  0.00     0.030 A 
ATOM     11  C   UNL     1      -1.895  -7.499  -1.120  1.00  0.00     0.013 A 
ATOM     12  C   UNL     1      -2.970  -7.905  -1.912  1.00  0.00     0.046 A 
ATOM     13  N   UNL     1      -4.118  -7.543  -1.248  1.00  0.00    -0.361 N 
ATOM     14  C   UNL     1      -3.806  -6.866  -0.101  1.00  0.00     0.094 A 
ATOM     15  H   UNL     1      -5.032  -7.741  -1.554  1.00  0.00     0.166 HD
BRANCH   7  16
ATOM     16  O   UNL     1       0.873  -8.718  -3.161  1.00  0.00    -0.497 OA
ATOM     17  C   UNL     1       1.263  -7.803  -4.185  1.00  0.00     0.278 C 
ENDBRANCH   7  16
ENDBRANCH   5   6
BRANCH   5  18
ATOM     18  N   UNL     1      -1.802  -7.109   2.328  1.00  0.00    -0.310 N 
ATOM     19  C   UNL     1      -1.194  -8.432   2.178  1.00  0.00     0.325 C 
ATOM     20  C   UNL     1      -1.565  -6.540   3.653  1.00  0.00     0.325 C 
ATOM     21  H   UNL     1      -2.807  -7.280   2.281  1.00  0.00     0.349 HD
ATOM     22  C   UNL     1       0.170  -8.687   2.856  1.00  0.00     0.324 C 
ATOM     23  C   UNL     1      -0.189  -6.801   4.325  1.00  0.00     0.324 C 
ATOM     24  N   UNL     1       0.346  -8.166   4.213  1.00  0.00    -0.322 N 
ATOM     25  H   UNL     1       1.348  -8.071   4.375  1.00  0.00     0.348 HD
BRANCH  24  26
ATOM     26  C   UNL     1       0.028  -9.108   5.301  1.00  0.00     0.300 C 
BRANCH  26  27
ATOM     27  C   UNL     1      -1.373  -9.020   5.880  1.00  0.00     0.014 A 
ATOM     28  C   UNL     1      -1.568  -8.110   6.934  1.00  0.00     0.010 A 
ATOM     29  C   UNL     1      -2.498  -9.627   5.276  1.00  0.00    -0.010 A 
ATOM     30  C   UNL     1      -2.831  -7.636   7.254  1.00  0.00     0.001 A 
ATOM     31  C   UNL     1      -3.773  -9.064   5.531  1.00  0.00    -0.018 A 
ATOM     32  C   UNL     1      -2.420 -10.728   4.396  1.00  0.00     0.009 A 
ATOM     33  C   UNL     1      -3.921  -8.067   6.509  1.00  0.00     0.009 A 
ATOM     34  C   UNL     1      -4.874  -9.481   4.770  1.00  0.00     0.009 A 
ATOM     35  C   UNL     1      -3.541 -11.176   3.696  1.00  0.00     0.001 A 
ATOM     36  C   UNL     1      -4.756 -10.521   3.849  1.00  0.00     0.001 A 
ENDBRANCH  26  27
ENDBRANCH  24  26
ENDBRANCH   5  18
ENDBRANCH   3   5
ENDBRANCH   2   3
ENDBRANCH   1   2
BRANCH   1  37
ATOM     37  C   UNL     1       1.908  -3.531  -0.096  1.00  0.00     0.275 C 
BRANCH  37  38
ATOM     38  O   UNL     1       1.775  -3.343   1.328  1.00  0.00    -0.458 OA
BRANCH  38  39
ATOM     39  C   UNL     1       0.609  -2.776   1.719  1.00  0.00     0.338 C 
ATOM     40  O   UNL     1      -0.278  -2.364   0.981  1.00  0.00    -0.246 OA
BRANCH  39  41
ATOM     41  C   UNL     1       0.438  -2.838   3.190  1.00  0.00     0.060 A 
ATOM     42  C   UNL     1      -0.855  -3.072   3.669  1.00  0.00     0.016 A 
ATOM     43  C   UNL     1       1.483  -2.643   4.098  1.00  0.00     0.016 A 
ATOM     44  C   UNL     1      -1.103  -3.155   5.041  1.00  0.00     0.010 A 
ATOM     45  C   UNL     1       1.224  -2.674   5.480  1.00  0.00     0.010 A 
ATOM     46  C   UNL     1      -0.071  -2.929   5.961  1.00  0.00    -0.014 A 
BRANCH  46  47
ATOM     47  C   UNL     1      -0.420  -2.789   7.401  1.00  0.00     0.031 A 
ATOM     48  C   UNL     1      -1.037  -1.499   7.860  1.00  0.00     0.074 A 
ATOM     49  C   UNL     1      -0.248  -3.790   8.284  1.00  0.00     0.049 A 
ATOM     50  N   UNL     1      -1.471  -1.159   9.047  1.00  0.00    -0.248 NA
ATOM     51  C   UNL     1      -1.169  -0.445   6.842  1.00  0.00     0.031 C 
ATOM     52  C   UNL     1       0.343  -5.083   7.976  1.00  0.00     0.029 A 
ATOM     53  N   UNL     1      -0.569  -3.878   9.620  1.00  0.00    -0.354 N 
ATOM     54  C   UNL     1      -1.920   0.147   8.921  1.00  0.00     0.074 A 
ATOM     55  C   UNL     1      -1.707   0.540   7.544  1.00  0.00     0.031 C 
ATOM     56  C   UNL     1       0.313  -5.852   9.079  1.00  0.00     0.029 A 
ATOM     57  C   UNL     1      -0.273  -5.098  10.182  1.00  0.00     0.049 A 
ATOM     58  H   UNL     1      -0.972  -3.136  10.126  1.00  0.00     0.167 HD
ATOM     59  C   UNL     1      -2.441   0.958   9.872  1.00  0.00     0.037 A 
ATOM     60  C   UNL     1      -0.442  -5.551  11.443  1.00  0.00     0.037 A 
ATOM     61  C   UNL     1      -2.603   0.593  11.254  1.00  0.00     0.049 A 
ATOM     62  C   UNL     1      -0.987  -4.611  12.491  1.00  0.00     0.074 A 
ATOM     63  C   UNL     1      -3.090   1.361  12.296  1.00  0.00     0.029 A 
ATOM     64  N   UNL     1      -2.259  -0.639  11.792  1.00  0.00    -0.354 N 
ATOM     65  N   UNL     1      -1.427  -3.384  12.358  1.00  0.00    -0.248 NA
ATOM     66  C   UNL     1      -1.026  -5.111  13.875  1.00  0.00     0.031 C 
ATOM     67  C   UNL     1      -2.984   0.618  13.475  1.00  0.00     0.029 A 
ATOM     68  C   UNL     1      -2.499  -0.641  13.158  1.00  0.00     0.049 A 
ATOM     69  H   UNL     1      -1.898  -1.399  11.281  1.00  0.00     0.167 HD
ATOM     70  C   UNL     1      -1.798  -2.969  13.632  1.00  0.00     0.074 A 
ATOM     71  C   UNL     1      -1.569  -4.089  14.520  1.00  0.00     0.031 C 
ATOM     72  C   UNL     1      -2.270  -1.763  14.033  1.00  0.00     0.037 A 
BRANCH  59  73
ATOM     73  C   UNL     1      -2.802   2.351   9.451  1.00  0.00     0.064 A 
ATOM     74  C   UNL     1      -3.897   2.610   8.613  1.00  0.00     0.173 A 
ATOM     75  C   UNL     1      -2.034   3.441   9.886  1.00  0.00     0.173 A 
ATOM     76  F   UNL     1      -4.648   1.598   8.151  1.00  0.00    -0.203 F 
ATOM     77  C   UNL     1      -4.190   3.907   8.202  1.00  0.00     0.198 A 
ATOM     78  C   UNL     1      -2.350   4.739   9.499  1.00  0.00     0.198 A 
ATOM     79  F   UNL     1      -0.975   3.246  10.686  1.00  0.00    -0.203 F 
ATOM     80  F   UNL     1      -5.204   4.125   7.353  1.00  0.00    -0.200 F 
ATOM     81  C   UNL     1      -3.421   4.971   8.650  1.00  0.00     0.200 A 
ATOM     82  F   UNL     1      -1.611   5.767   9.941  1.00  0.00    -0.200 F 
ATOM     83  F   UNL     1      -3.704   6.218   8.252  1.00  0.00    -0.200 F 
ENDBRANCH  59  73
BRANCH  60  84
ATOM     84  C   UNL     1      -0.070  -6.949  11.814  1.00  0.00     0.064 A 
ATOM     85  C   UNL     1      -1.033  -7.855  12.289  1.00  0.00     0.173 A 
ATOM     86  C   UNL     1       1.260  -7.394  11.761  1.00  0.00     0.173 A 
ATOM     87  F   UNL     1      -2.315  -7.474  12.396  1.00  0.00    -0.203 F 
ATOM     88  C   UNL     1      -0.676  -9.133  12.719  1.00  0.00     0.198 A 
ATOM     89  C   UNL     1       1.609  -8.686  12.151  1.00  0.00     0.198 A 
ATOM     90  F   UNL     1       2.227  -6.571  11.330  1.00  0.00    -0.203 F 
ATOM     91  F   UNL     1      -1.606  -9.947  13.238  1.00  0.00    -0.200 F 
ATOM     92  C   UNL     1       0.643  -9.550  12.643  1.00  0.00     0.200 A 
ATOM     93  F   UNL     1       2.884  -9.087  12.064  1.00  0.00    -0.200 F 
ATOM     94  F   UNL     1       0.987 -10.777  13.059  1.00  0.00    -0.200 F 
ENDBRANCH  60  84
BRANCH  72  95
ATOM     95  C   UNL     1      -2.599  -1.593  15.491  1.00  0.00     0.064 A 
ATOM     96  C   UNL     1      -1.599  -1.549  16.475  1.00  0.00     0.173 A 
ATOM     97  C   UNL     1      -3.930  -1.424  15.903  1.00  0.00     0.173 A 
ATOM     98  F   UNL     1      -0.311  -1.718  16.138  1.00  0.00    -0.203 F 
ATOM     99  C   UNL     1      -1.923  -1.371  17.818  1.00  0.00     0.198 A 
ATOM    100  C   UNL     1      -4.246  -1.210  17.241  1.00  0.00     0.198 A 
ATOM    101  F   UNL     1      -4.925  -1.448  15.003  1.00  0.00    -0.203 F 
ATOM    102  F   UNL     1      -0.955  -1.383  18.746  1.00  0.00    -0.200 F 
ATOM    103  C   UNL     1      -3.244  -1.192  18.199  1.00  0.00     0.200 A 
ATOM    104  F   UNL     1      -5.522  -1.020  17.605  1.00  0.00    -0.200 F 
ATOM    105  F   UNL     1      -3.552  -1.009  19.490  1.00  0.00    -0.200 F 
ENDBRANCH  72  95
ENDBRANCH  46  47
ENDBRANCH  39  41
ENDBRANCH  38  39
ENDBRANCH  37  38
ENDBRANCH   1  37
TORSDOF 16
