REMARK SMILES CC[NH+](CC)CC[N@H+]1CC[C@@H](C(=O)OCCOC(=O)c2ccc(-c3c4nc(c(-c5c(F)c(F)c(F)c(F)c5F)c5ccc([nH]5)c(-c5c(F)c(F)c(F)c(F)c5F)c5nc(c(-c6c(F)c(F)c(F)c(F)c6F)c6ccc3[nH]6)C=C5)C=C4)cc2)[C@@H]1C
REMARK SMILES IDX 15 1 14 2 12 3 13 4 11 5 8 6 9 7 83 8 10 10 84 11 7 12 6 13
REMARK SMILES IDX 3 14 2 16 1 17 4 18 5 19 16 20 17 21 18 22 19 23 20 24 21 25
REMARK SMILES IDX 82 26 22 27 81 28 23 29 24 30 25 31 75 32 26 33 80 34 74 35
REMARK SMILES IDX 76 36 27 37 79 38 73 39 72 40 28 42 60 43 40 44 59 45 41 46
REMARK SMILES IDX 44 47 58 48 77 49 42 50 43 51 57 53 78 54 45 55 29 56 30 57
REMARK SMILES IDX 38 58 31 59 32 60 36 61 39 62 33 63 34 64 37 65 35 66 61 67
REMARK SMILES IDX 62 68 70 69 63 70 64 71 68 72 71 73 65 74 66 75 69 76 67 77
REMARK SMILES IDX 46 78 47 79 55 80 48 81 49 82 53 83 56 84 50 85 51 86 54 87
REMARK SMILES IDX 52 88
REMARK H PARENT 8 9 3 15 76 41 44 52
REMARK Flexibility Score: inf
ROOT
ATOM      1  C   UNL     1      -1.979  -3.677   1.706  1.00  0.00     0.274 C 
ENDROOT
BRANCH   1   2
ATOM      2  O   UNL     1      -0.902  -3.299   0.818  1.00  0.00    -0.462 OA
BRANCH   2   3
ATOM      3  C   UNL     1      -0.768  -3.997  -0.335  1.00  0.00     0.315 C 
ATOM      4  O   UNL     1      -1.536  -4.884  -0.697  1.00  0.00    -0.252 OA
BRANCH   3   5
ATOM      5  C   UNL     1       0.452  -3.623  -1.161  1.00  0.00     0.162 C 
ATOM      6  N   UNL     1       2.648  -2.675  -0.671  1.00  0.00    -0.327 N 
ATOM      7  C   UNL     1       2.804  -3.986  -1.326  1.00  0.00     0.263 C 
ATOM      8  C   UNL     1       1.215  -2.336  -0.807  1.00  0.00     0.195 C 
ATOM      9  H   UNL     1       3.188  -1.922  -1.097  1.00  0.00     0.348 HD
ATOM     10  C   UNL     1       1.501  -4.719  -1.063  1.00  0.00     0.083 C 
ATOM     11  C   UNL     1       1.130  -1.298  -1.936  1.00  0.00     0.076 C 
BRANCH   6  12
ATOM     12  C   UNL     1       3.191  -2.723   0.707  1.00  0.00     0.324 C 
BRANCH  12  13
ATOM     13  C   UNL     1       2.900  -1.565   1.713  1.00  0.00     0.324 C 
BRANCH  13  14
ATOM     14  N   UNL     1       1.535  -1.568   2.233  1.00  0.00    -0.331 N 
ATOM     15  H   UNL     1       1.163  -2.095   1.442  1.00  0.00     0.348 HD
BRANCH  14  16
ATOM     16  C   UNL     1       0.729  -0.345   2.191  1.00  0.00     0.258 C 
ATOM     17  C   UNL     1       1.144   0.811   1.286  1.00  0.00     0.071 C 
ENDBRANCH  14  16
BRANCH  14  18
ATOM     18  C   UNL     1       1.266  -2.377   3.422  1.00  0.00     0.258 C 
ATOM     19  C   UNL     1       1.459  -3.875   3.221  1.00  0.00     0.071 C 
ENDBRANCH  14  18
ENDBRANCH  13  14
ENDBRANCH  12  13
ENDBRANCH   6  12
ENDBRANCH   3   5
ENDBRANCH   2   3
ENDBRANCH   1   2
BRANCH   1  20
ATOM     20  C   UNL     1      -2.850  -2.465   2.020  1.00  0.00     0.275 C 
BRANCH  20  21
ATOM     21  O   UNL     1      -3.451  -2.030   0.792  1.00  0.00    -0.458 OA
BRANCH  21  22
ATOM     22  C   UNL     1      -3.099  -0.800   0.364  1.00  0.00     0.338 C 
ATOM     23  O   UNL     1      -2.500   0.076   0.955  1.00  0.00    -0.246 OA
BRANCH  22  24
ATOM     24  C   UNL     1      -3.515  -0.703  -1.035  1.00  0.00     0.060 A 
ATOM     25  C   UNL     1      -2.733  -1.321  -2.014  1.00  0.00     0.016 A 
ATOM     26  C   UNL     1      -4.652   0.024  -1.371  1.00  0.00     0.016 A 
ATOM     27  C   UNL     1      -3.069  -1.189  -3.354  1.00  0.00     0.010 A 
ATOM     28  C   UNL     1      -5.016   0.118  -2.712  1.00  0.00     0.010 A 
ATOM     29  C   UNL     1      -4.220  -0.475  -3.708  1.00  0.00    -0.014 A 
BRANCH  29  30
ATOM     30  C   UNL     1      -4.601  -0.323  -5.127  1.00  0.00     0.031 A 
ATOM     31  C   UNL     1      -4.483   1.020  -5.779  1.00  0.00     0.074 A 
ATOM     32  C   UNL     1      -5.091  -1.381  -5.797  1.00  0.00     0.049 A 
ATOM     33  N   UNL     1      -4.944   1.424  -6.933  1.00  0.00    -0.248 NA
ATOM     34  C   UNL     1      -3.755   2.051  -5.023  1.00  0.00     0.031 C 
ATOM     35  C   UNL     1      -5.199  -2.739  -5.264  1.00  0.00     0.029 A 
ATOM     36  N   UNL     1      -5.609  -1.473  -7.062  1.00  0.00    -0.354 N 
ATOM     37  C   UNL     1      -4.591   2.763  -7.029  1.00  0.00     0.074 A 
ATOM     38  C   UNL     1      -3.884   3.107  -5.814  1.00  0.00     0.031 C 
ATOM     39  C   UNL     1      -5.761  -3.529  -6.193  1.00  0.00     0.029 A 
ATOM     40  C   UNL     1      -6.105  -2.719  -7.356  1.00  0.00     0.049 A 
ATOM     41  H   UNL     1      -5.624  -0.721  -7.697  1.00  0.00     0.167 HD
ATOM     42  C   UNL     1      -4.845   3.622  -8.045  1.00  0.00     0.037 A 
ATOM     43  C   UNL     1      -6.800  -3.142  -8.428  1.00  0.00     0.037 A 
ATOM     44  C   UNL     1      -5.543   3.253  -9.248  1.00  0.00     0.049 A 
ATOM     45  C   UNL     1      -7.118  -2.155  -9.516  1.00  0.00     0.074 A 
ATOM     46  C   UNL     1      -5.855   4.036 -10.344  1.00  0.00     0.029 A 
ATOM     47  N   UNL     1      -6.038   1.982  -9.510  1.00  0.00    -0.354 N 
ATOM     48  N   UNL     1      -6.806  -0.883  -9.595  1.00  0.00    -0.248 NA
ATOM     49  C   UNL     1      -7.893  -2.656 -10.658  1.00  0.00     0.031 C 
ATOM     50  C   UNL     1      -6.571   3.249 -11.253  1.00  0.00     0.029 A 
ATOM     51  C   UNL     1      -6.667   1.963 -10.744  1.00  0.00     0.049 A 
ATOM     52  H   UNL     1      -5.954   1.208  -8.907  1.00  0.00     0.167 HD
ATOM     53  C   UNL     1      -7.329  -0.435 -10.799  1.00  0.00     0.074 A 
ATOM     54  C   UNL     1      -7.967  -1.577 -11.424  1.00  0.00     0.031 C 
ATOM     55  C   UNL     1      -7.289   0.808 -11.339  1.00  0.00     0.037 A 
BRANCH  42  56
ATOM     56  C   UNL     1      -4.396   5.043  -7.879  1.00  0.00     0.064 A 
ATOM     57  C   UNL     1      -3.042   5.404  -7.938  1.00  0.00     0.173 A 
ATOM     58  C   UNL     1      -5.338   6.064  -7.678  1.00  0.00     0.173 A 
ATOM     59  F   UNL     1      -2.100   4.464  -8.111  1.00  0.00    -0.203 F 
ATOM     60  C   UNL     1      -2.645   6.729  -7.778  1.00  0.00     0.198 A 
ATOM     61  C   UNL     1      -4.940   7.392  -7.545  1.00  0.00     0.198 A 
ATOM     62  F   UNL     1      -6.646   5.775  -7.614  1.00  0.00    -0.203 F 
ATOM     63  F   UNL     1      -1.342   7.044  -7.794  1.00  0.00    -0.200 F 
ATOM     64  C   UNL     1      -3.594   7.723  -7.588  1.00  0.00     0.200 A 
ATOM     65  F   UNL     1      -5.859   8.352  -7.370  1.00  0.00    -0.200 F 
ATOM     66  F   UNL     1      -3.211   8.998  -7.438  1.00  0.00    -0.200 F 
ENDBRANCH  42  56
BRANCH  43  67
ATOM     67  C   UNL     1      -7.258  -4.553  -8.502  1.00  0.00     0.064 A 
ATOM     68  C   UNL     1      -6.695  -5.443  -9.425  1.00  0.00     0.173 A 
ATOM     69  C   UNL     1      -8.250  -5.045  -7.640  1.00  0.00     0.173 A 
ATOM     70  F   UNL     1      -5.760  -5.013 -10.284  1.00  0.00    -0.203 F 
ATOM     71  C   UNL     1      -7.111  -6.772  -9.488  1.00  0.00     0.198 A 
ATOM     72  C   UNL     1      -8.646  -6.380  -7.686  1.00  0.00     0.198 A 
ATOM     73  F   UNL     1      -8.820  -4.233  -6.738  1.00  0.00    -0.203 F 
ATOM     74  F   UNL     1      -6.580  -7.594 -10.403  1.00  0.00    -0.200 F 
ATOM     75  C   UNL     1      -8.080  -7.241  -8.614  1.00  0.00     0.200 A 
ATOM     76  F   UNL     1      -9.573  -6.832  -6.830  1.00  0.00    -0.200 F 
ATOM     77  F   UNL     1      -8.472  -8.521  -8.669  1.00  0.00    -0.200 F 
ENDBRANCH  43  67
BRANCH  55  78
ATOM     78  C   UNL     1      -7.926   0.982 -12.684  1.00  0.00     0.064 A 
ATOM     79  C   UNL     1      -9.319   1.018 -12.835  1.00  0.00     0.173 A 
ATOM     80  C   UNL     1      -7.131   1.154 -13.827  1.00  0.00     0.173 A 
ATOM     81  F   UNL     1     -10.119   0.840 -11.773  1.00  0.00    -0.203 F 
ATOM     82  C   UNL     1      -9.895   1.198 -14.089  1.00  0.00     0.198 A 
ATOM     83  C   UNL     1      -7.711   1.360 -15.075  1.00  0.00     0.198 A 
ATOM     84  F   UNL     1      -5.794   1.132 -13.730  1.00  0.00    -0.203 F 
ATOM     85  F   UNL     1     -11.229   1.187 -14.220  1.00  0.00    -0.200 F 
ATOM     86  C   UNL     1      -9.091   1.376 -15.206  1.00  0.00     0.200 A 
ATOM     87  F   UNL     1      -6.933   1.542 -16.151  1.00  0.00    -0.200 F 
ATOM     88  F   UNL     1      -9.648   1.556 -16.412  1.00  0.00    -0.200 F 
ENDBRANCH  55  78
ENDBRANCH  29  30
ENDBRANCH  22  24
ENDBRANCH  21  22
ENDBRANCH  20  21
ENDBRANCH   1  20
TORSDOF 16
