REMARK SMILES Cc1nc[nH]c1C(=O)[NH+]1CCC2(CC1)C[C@@H](C(=O)OCCOC(=O)c1ccc(-c3c4nc(c(-c5c(F)c(F)c(F)c(F)c5F)c5ccc([nH]5)c(-c5c(F)c(F)c(F)c(F)c5F)c5nc(c(-c6c(F)c(F)c(F)c(F)c6F)c6ccc3[nH]6)C=C5)C=C4)cc1)N(C(=O)C1CC1)C2
REMARK SMILES IDX 20 1 19 2 17 3 18 4 16 5 9 6 10 7 14 8 11 10 13 11 12 12
REMARK SMILES IDX 15 13 94 14 88 15 7 16 8 17 6 18 1 19 2 20 3 21 4 22 5 23
REMARK SMILES IDX 89 25 90 26 91 27 92 28 93 29 21 30 22 31 23 32 24 33 25 34
REMARK SMILES IDX 26 35 87 36 27 37 86 38 28 39 29 40 30 41 80 42 31 43 85 44
REMARK SMILES IDX 79 45 81 46 32 47 84 48 78 49 77 50 33 52 65 53 45 54 64 55
REMARK SMILES IDX 46 56 49 57 63 58 82 59 47 60 48 61 62 63 83 64 50 65 34 66
REMARK SMILES IDX 35 67 43 68 36 69 37 70 41 71 44 72 38 73 39 74 42 75 40 76
REMARK SMILES IDX 66 77 67 78 75 79 68 80 69 81 73 82 76 83 70 84 71 85 74 86
REMARK SMILES IDX 72 87 51 88 52 89 60 90 53 91 54 92 58 93 61 94 55 95 56 96
REMARK SMILES IDX 59 97 57 98
REMARK H PARENT 9 9 5 24 81 51 49 62
REMARK Flexibility Score: inf
ROOT
ATOM      1  C   UNL     1       7.859  -1.758   2.245  1.00  0.00     0.274 C 
ENDROOT
BRANCH   1   2
ATOM      2  O   UNL     1       7.221  -2.480   1.173  1.00  0.00    -0.461 OA
BRANCH   2   3
ATOM      3  C   UNL     1       7.153  -1.832  -0.022  1.00  0.00     0.328 C 
ATOM      4  O   UNL     1       7.529  -0.679  -0.211  1.00  0.00    -0.250 OA
BRANCH   3   5
ATOM      5  C   UNL     1       6.505  -2.673  -1.133  1.00  0.00     0.195 C 
ATOM      6  N   UNL     1       1.299  -2.629  -0.109  1.00  0.00    -0.266 N 
ATOM      7  C   UNL     1       1.720  -3.640  -1.056  1.00  0.00     0.271 C 
ATOM      8  C   UNL     1       2.244  -2.338   0.960  1.00  0.00     0.271 C 
ATOM      9  H   UNL     1       0.717  -2.617   0.685  1.00  0.00     0.357 HD
ATOM     10  C   UNL     1       2.948  -3.112  -1.771  1.00  0.00     0.071 C 
ATOM     11  C   UNL     1       3.633  -1.977   0.426  1.00  0.00     0.071 C 
ATOM     12  C   UNL     1       4.102  -2.816  -0.790  1.00  0.00     0.001 C 
ATOM     13  C   UNL     1       5.196  -2.055  -1.573  1.00  0.00     0.046 C 
ATOM     14  C   UNL     1       4.783  -4.134  -0.346  1.00  0.00     0.128 C 
ATOM     15  N   UNL     1       6.154  -4.046  -0.801  1.00  0.00    -0.328 N 
BRANCH   6  16
ATOM     16  C   UNL     1      -0.044  -2.290  -0.082  1.00  0.00     0.362 C 
ATOM     17  O   UNL     1      -0.905  -3.131  -0.346  1.00  0.00    -0.224 OA
BRANCH  16  18
ATOM     18  C   UNL     1      -0.423  -0.920   0.162  1.00  0.00     0.167 A 
ATOM     19  C   UNL     1       1.564   0.691  -0.376  1.00  0.00     0.069 C 
ATOM     20  C   UNL     1       0.196   0.318   0.042  1.00  0.00     0.072 A 
ATOM     21  N   UNL     1      -0.698   1.337   0.298  1.00  0.00    -0.241 NA
ATOM     22  C   UNL     1      -1.853   0.754   0.501  1.00  0.00     0.197 A 
ATOM     23  N   UNL     1      -1.737  -0.599   0.436  1.00  0.00    -0.337 N 
ATOM     24  H   UNL     1      -2.470  -1.243   0.564  1.00  0.00     0.168 HD
ENDBRANCH  16  18
ENDBRANCH   6  16
BRANCH  15  25
ATOM     25  C   UNL     1       7.071  -5.051  -1.046  1.00  0.00     0.226 C 
ATOM     26  O   UNL     1       8.110  -4.808  -1.658  1.00  0.00    -0.275 OA
BRANCH  25  27
ATOM     27  C   UNL     1       6.869  -6.464  -0.618  1.00  0.00     0.079 C 
ATOM     28  C   UNL     1       5.749  -7.104   0.149  1.00  0.00     0.014 C 
ATOM     29  C   UNL     1       5.851  -7.322  -1.334  1.00  0.00     0.014 C 
ENDBRANCH  25  27
ENDBRANCH  15  25
ENDBRANCH   3   5
ENDBRANCH   2   3
ENDBRANCH   1   2
BRANCH   1  30
ATOM     30  C   UNL     1       9.287  -2.253   2.461  1.00  0.00     0.275 C 
BRANCH  30  31
ATOM     31  O   UNL     1      10.063  -2.061   1.266  1.00  0.00    -0.458 OA
BRANCH  31  32
ATOM     32  C   UNL     1      10.346  -3.190   0.574  1.00  0.00     0.338 C 
ATOM     33  O   UNL     1      10.088  -4.338   0.886  1.00  0.00    -0.246 OA
BRANCH  32  34
ATOM     34  C   UNL     1      11.029  -2.815  -0.673  1.00  0.00     0.060 A 
ATOM     35  C   UNL     1      10.267  -2.453  -1.782  1.00  0.00     0.016 A 
ATOM     36  C   UNL     1      12.414  -2.914  -0.772  1.00  0.00     0.016 A 
ATOM     37  C   UNL     1      10.870  -2.236  -3.014  1.00  0.00     0.010 A 
ATOM     38  C   UNL     1      13.030  -2.650  -2.000  1.00  0.00     0.010 A 
ATOM     39  C   UNL     1      12.259  -2.333  -3.134  1.00  0.00    -0.014 A 
BRANCH  39  40
ATOM     40  C   UNL     1      12.896  -2.174  -4.462  1.00  0.00     0.031 A 
ATOM     41  C   UNL     1      13.517  -3.364  -5.130  1.00  0.00     0.074 A 
ATOM     42  C   UNL     1      12.898  -0.975  -5.072  1.00  0.00     0.049 A 
ATOM     43  N   UNL     1      14.266  -3.416  -6.202  1.00  0.00    -0.248 NA
ATOM     44  C   UNL     1      13.266  -4.672  -4.505  1.00  0.00     0.031 C 
ATOM     45  C   UNL     1      12.264   0.238  -4.555  1.00  0.00     0.029 A 
ATOM     46  N   UNL     1      13.457  -0.580  -6.261  1.00  0.00    -0.354 N 
ATOM     47  C   UNL     1      14.615  -4.751  -6.352  1.00  0.00     0.074 A 
ATOM     48  C   UNL     1      13.994  -5.479  -5.265  1.00  0.00     0.031 C 
ATOM     49  C   UNL     1      12.468   1.242  -5.423  1.00  0.00     0.029 A 
ATOM     50  C   UNL     1      13.298   0.758  -6.522  1.00  0.00     0.049 A 
ATOM     51  H   UNL     1      13.927  -1.197  -6.869  1.00  0.00     0.167 HD
ATOM     52  C   UNL     1      15.389  -5.313  -7.310  1.00  0.00     0.037 A 
ATOM     53  C   UNL     1      13.801   1.516  -7.515  1.00  0.00     0.037 A 
ATOM     54  C   UNL     1      15.964  -4.588  -8.412  1.00  0.00     0.049 A 
ATOM     55  C   UNL     1      14.685   0.875  -8.548  1.00  0.00     0.074 A 
ATOM     56  C   UNL     1      16.756  -5.065  -9.442  1.00  0.00     0.029 A 
ATOM     57  N   UNL     1      15.796  -3.228  -8.632  1.00  0.00    -0.354 N 
ATOM     58  N   UNL     1      15.055  -0.378  -8.657  1.00  0.00    -0.248 NA
ATOM     59  C   UNL     1      15.233   1.756  -9.588  1.00  0.00     0.031 C 
ATOM     60  C   UNL     1      17.092  -3.987 -10.269  1.00  0.00     0.029 A 
ATOM     61  C   UNL     1      16.480  -2.846  -9.775  1.00  0.00     0.049 A 
ATOM     62  H   UNL     1      15.270  -2.624  -8.060  1.00  0.00     0.167 HD
ATOM     63  C   UNL     1      15.869  -0.440  -9.779  1.00  0.00     0.074 A 
ATOM     64  C   UNL     1      15.924   0.900 -10.329  1.00  0.00     0.031 C 
ATOM     65  C   UNL     1      16.517  -1.508 -10.304  1.00  0.00     0.037 A 
BRANCH  52  66
ATOM     66  C   UNL     1      15.691  -6.775  -7.186  1.00  0.00     0.064 A 
ATOM     67  C   UNL     1      14.733  -7.758  -7.476  1.00  0.00     0.173 A 
ATOM     68  C   UNL     1      16.971  -7.198  -6.799  1.00  0.00     0.173 A 
ATOM     69  F   UNL     1      13.490  -7.404  -7.835  1.00  0.00    -0.203 F 
ATOM     70  C   UNL     1      15.042  -9.111  -7.362  1.00  0.00     0.198 A 
ATOM     71  C   UNL     1      17.283  -8.552  -6.709  1.00  0.00     0.198 A 
ATOM     72  F   UNL     1      17.924  -6.297  -6.514  1.00  0.00    -0.203 F 
ATOM     73  F   UNL     1      14.101 -10.034  -7.606  1.00  0.00    -0.200 F 
ATOM     74  C   UNL     1      16.317  -9.507  -6.985  1.00  0.00     0.200 A 
ATOM     75  F   UNL     1      18.518  -8.931  -6.355  1.00  0.00    -0.200 F 
ATOM     76  F   UNL     1      16.613 -10.810  -6.882  1.00  0.00    -0.200 F 
ENDBRANCH  52  66
BRANCH  53  77
ATOM     77  C   UNL     1      13.509   2.971  -7.551  1.00  0.00     0.064 A 
ATOM     78  C   UNL     1      12.678   3.516  -8.538  1.00  0.00     0.173 A 
ATOM     79  C   UNL     1      14.047   3.843  -6.593  1.00  0.00     0.173 A 
ATOM     80  F   UNL     1      12.162   2.726  -9.491  1.00  0.00    -0.203 F 
ATOM     81  C   UNL     1      12.403   4.882  -8.571  1.00  0.00     0.198 A 
ATOM     82  C   UNL     1      13.749   5.204  -6.611  1.00  0.00     0.198 A 
ATOM     83  F   UNL     1      14.850   3.370  -5.629  1.00  0.00    -0.203 F 
ATOM     84  F   UNL     1      11.634   5.385  -9.547  1.00  0.00    -0.200 F 
ATOM     85  C   UNL     1      12.932   5.723  -7.603  1.00  0.00     0.200 A 
ATOM     86  F   UNL     1      14.254   6.011  -5.667  1.00  0.00    -0.200 F 
ATOM     87  F   UNL     1      12.659   7.035  -7.630  1.00  0.00    -0.200 F 
ENDBRANCH  53  77
BRANCH  65  88
ATOM     88  C   UNL     1      17.321  -1.274 -11.546  1.00  0.00     0.064 A 
ATOM     89  C   UNL     1      18.563  -0.624 -11.501  1.00  0.00     0.173 A 
ATOM     90  C   UNL     1      16.863  -1.739 -12.788  1.00  0.00     0.173 A 
ATOM     91  F   UNL     1      19.034  -0.148 -10.339  1.00  0.00    -0.203 F 
ATOM     92  C   UNL     1      19.310  -0.433 -12.660  1.00  0.00     0.198 A 
ATOM     93  C   UNL     1      17.623  -1.566 -13.940  1.00  0.00     0.198 A 
ATOM     94  F   UNL     1      15.682  -2.369 -12.879  1.00  0.00    -0.203 F 
ATOM     95  F   UNL     1      20.477   0.223 -12.602  1.00  0.00    -0.200 F 
ATOM     96  C   UNL     1      18.843  -0.909 -13.877  1.00  0.00     0.200 A 
ATOM     97  F   UNL     1      17.174  -2.033 -15.113  1.00  0.00    -0.200 F 
ATOM     98  F   UNL     1      19.566  -0.728 -14.990  1.00  0.00    -0.200 F 
ENDBRANCH  65  88
ENDBRANCH  39  40
ENDBRANCH  32  34
ENDBRANCH  31  32
ENDBRANCH  30  31
ENDBRANCH   1  30
TORSDOF 15
