REMARK SMILES Cc1cccc2c(C(=O)OCCOC(=O)c3ccc(-c4c5nc(c(-c6c(F)c(F)c(F)c(F)c6F)c6ccc([nH]6)c(-c6c(F)c(F)c(F)c(F)c6F)c6nc(c(-c7c(F)c(F)c(F)c(F)c7F)c7ccc4[nH]7)C=C6)C=C5)cc3)cc(=O)[nH]c12
REMARK SMILES IDX 12 1 11 2 10 3 8 4 9 5 7 6 1 7 2 8 3 9 83 10 4 11 6 12 82 13
REMARK SMILES IDX 5 14 80 15 79 17 81 18 13 19 14 20 15 21 16 22 17 23 78 24
REMARK SMILES IDX 18 25 77 26 19 27 20 28 21 29 71 30 22 31 76 32 70 33 72 34
REMARK SMILES IDX 23 35 75 36 69 37 68 38 24 40 56 41 36 42 55 43 37 44 40 45
REMARK SMILES IDX 54 46 73 47 38 48 39 49 53 51 74 52 41 53 25 54 26 55 34 56
REMARK SMILES IDX 27 57 28 58 32 59 35 60 29 61 30 62 33 63 31 64 57 65 58 66
REMARK SMILES IDX 66 67 59 68 60 69 64 70 67 71 61 72 62 73 65 74 63 75 42 76
REMARK SMILES IDX 43 77 51 78 44 79 45 80 49 81 52 82 46 83 47 84 50 85 48 86
REMARK H PARENT 82 16 72 39 40 50
REMARK Flexibility Score: inf
ROOT
ATOM      1  C   UNL     1      -1.653   0.713   8.277  1.00  0.00     0.275 C 
ENDROOT
BRANCH   1   2
ATOM      2  C   UNL     1      -0.472   1.612   7.912  1.00  0.00     0.275 C 
BRANCH   2   3
ATOM      3  O   UNL     1      -0.460   1.862   6.488  1.00  0.00    -0.458 OA
BRANCH   3   4
ATOM      4  C   UNL     1       0.543   1.301   5.760  1.00  0.00     0.339 C 
ATOM      5  O   UNL     1       1.419   0.571   6.198  1.00  0.00    -0.246 OA
BRANCH   4   6
ATOM      6  C   UNL     1       0.417   1.676   4.323  1.00  0.00     0.074 A 
ATOM      7  C   UNL     1       0.600   0.808  -0.661  1.00  0.00     0.046 C 
ATOM      8  C   UNL     1       0.649   0.348   0.769  1.00  0.00    -0.027 A 
ATOM      9  C   UNL     1       0.944  -1.003   1.004  1.00  0.00     0.005 A 
ATOM     10  C   UNL     1       0.497   1.212   1.873  1.00  0.00     0.052 A 
ATOM     11  C   UNL     1       1.121  -1.472   2.298  1.00  0.00     0.001 A 
ATOM     12  C   UNL     1       0.651   0.745   3.194  1.00  0.00     0.013 A 
ATOM     13  N   UNL     1       0.196   2.568   1.680  1.00  0.00    -0.322 N 
ATOM     14  C   UNL     1       1.005  -0.595   3.377  1.00  0.00     0.011 A 
ATOM     15  C   UNL     1       0.007   3.465   2.688  1.00  0.00     0.249 A 
ATOM     16  H   UNL     1       0.117   2.894   0.754  1.00  0.00     0.170 HD
ATOM     17  C   UNL     1       0.120   2.960   4.067  1.00  0.00     0.088 A 
ATOM     18  O   UNL     1      -0.248   4.645   2.477  1.00  0.00    -0.270 OA
ENDBRANCH   4   6
ENDBRANCH   3   4
ENDBRANCH   2   3
ENDBRANCH   1   2
BRANCH   1  19
ATOM     19  O   UNL     1      -1.339  -0.616   7.833  1.00  0.00    -0.458 OA
BRANCH  19  20
ATOM     20  C   UNL     1      -2.310  -1.307   7.200  1.00  0.00     0.338 C 
ATOM     21  O   UNL     1      -3.486  -0.996   7.077  1.00  0.00    -0.246 OA
BRANCH  20  22
ATOM     22  C   UNL     1      -1.708  -2.527   6.625  1.00  0.00     0.060 A 
ATOM     23  C   UNL     1      -2.411  -3.728   6.594  1.00  0.00     0.016 A 
ATOM     24  C   UNL     1      -0.447  -2.457   6.037  1.00  0.00     0.016 A 
ATOM     25  C   UNL     1      -1.829  -4.853   5.991  1.00  0.00     0.010 A 
ATOM     26  C   UNL     1       0.074  -3.543   5.335  1.00  0.00     0.010 A 
ATOM     27  C   UNL     1      -0.595  -4.769   5.310  1.00  0.00    -0.014 A 
BRANCH  27  28
ATOM     28  C   UNL     1      -0.035  -5.933   4.552  1.00  0.00     0.031 A 
ATOM     29  C   UNL     1       1.385  -6.419   4.751  1.00  0.00     0.074 A 
ATOM     30  C   UNL     1      -0.792  -6.537   3.611  1.00  0.00     0.049 A 
ATOM     31  N   UNL     1       2.006  -7.419   4.166  1.00  0.00    -0.248 NA
ATOM     32  C   UNL     1       2.242  -5.661   5.675  1.00  0.00     0.031 C 
ATOM     33  C   UNL     1      -2.124  -6.100   3.185  1.00  0.00     0.029 A 
ATOM     34  N   UNL     1      -0.563  -7.664   2.857  1.00  0.00    -0.354 N 
ATOM     35  C   UNL     1       3.322  -7.370   4.612  1.00  0.00     0.074 A 
ATOM     36  C   UNL     1       3.430  -6.208   5.464  1.00  0.00     0.031 C 
ATOM     37  C   UNL     1      -2.634  -7.002   2.334  1.00  0.00     0.029 A 
ATOM     38  C   UNL     1      -1.653  -8.061   2.120  1.00  0.00     0.049 A 
ATOM     39  H   UNL     1       0.299  -8.140   2.846  1.00  0.00     0.167 HD
ATOM     40  C   UNL     1       4.340  -8.233   4.373  1.00  0.00     0.037 A 
ATOM     41  C   UNL     1      -1.861  -9.170   1.384  1.00  0.00     0.037 A 
ATOM     42  C   UNL     1       4.217  -9.449   3.612  1.00  0.00     0.049 A 
ATOM     43  C   UNL     1      -0.774 -10.200   1.265  1.00  0.00     0.074 A 
ATOM     44  C   UNL     1       5.165 -10.438   3.403  1.00  0.00     0.029 A 
ATOM     45  N   UNL     1       3.065  -9.858   2.959  1.00  0.00    -0.354 N 
ATOM     46  N   UNL     1       0.437 -10.181   1.762  1.00  0.00    -0.248 NA
ATOM     47  C   UNL     1      -1.088 -11.410   0.491  1.00  0.00     0.031 C 
ATOM     48  C   UNL     1       4.590 -11.439   2.614  1.00  0.00     0.029 A 
ATOM     49  C   UNL     1       3.275 -11.089   2.360  1.00  0.00     0.049 A 
ATOM     50  H   UNL     1       2.223  -9.349   2.926  1.00  0.00     0.167 HD
ATOM     51  C   UNL     1       1.022 -11.381   1.381  1.00  0.00     0.074 A 
ATOM     52  C   UNL     1       0.028 -12.114   0.627  1.00  0.00     0.031 C 
ATOM     53  C   UNL     1       2.276 -11.826   1.632  1.00  0.00     0.037 A 
BRANCH  40  54
ATOM     54  C   UNL     1       5.679  -7.933   4.990  1.00  0.00     0.064 A 
ATOM     55  C   UNL     1       5.884  -8.030   6.375  1.00  0.00     0.173 A 
ATOM     56  C   UNL     1       6.785  -7.618   4.186  1.00  0.00     0.173 A 
ATOM     57  F   UNL     1       4.859  -8.326   7.189  1.00  0.00    -0.203 F 
ATOM     58  C   UNL     1       7.136  -7.792   6.934  1.00  0.00     0.198 A 
ATOM     59  C   UNL     1       8.044  -7.414   4.746  1.00  0.00     0.198 A 
ATOM     60  F   UNL     1       6.652  -7.530   2.854  1.00  0.00    -0.203 F 
ATOM     61  F   UNL     1       7.294  -7.845   8.264  1.00  0.00    -0.200 F 
ATOM     62  C   UNL     1       8.217  -7.493   6.120  1.00  0.00     0.200 A 
ATOM     63  F   UNL     1       9.093  -7.146   3.956  1.00  0.00    -0.200 F 
ATOM     64  F   UNL     1       9.425  -7.280   6.659  1.00  0.00    -0.200 F 
ENDBRANCH  40  54
BRANCH  41  65
ATOM     65  C   UNL     1      -3.202  -9.412   0.794  1.00  0.00     0.064 A 
ATOM     66  C   UNL     1      -4.058 -10.371   1.357  1.00  0.00     0.173 A 
ATOM     67  C   UNL     1      -3.668  -8.684  -0.308  1.00  0.00     0.173 A 
ATOM     68  F   UNL     1      -3.646 -11.102   2.403  1.00  0.00    -0.203 F 
ATOM     69  C   UNL     1      -5.326 -10.601   0.830  1.00  0.00     0.198 A 
ATOM     70  C   UNL     1      -4.946  -8.899  -0.819  1.00  0.00     0.198 A 
ATOM     71  F   UNL     1      -2.889  -7.750  -0.873  1.00  0.00    -0.203 F 
ATOM     72  F   UNL     1      -6.110 -11.545   1.367  1.00  0.00    -0.200 F 
ATOM     73  C   UNL     1      -5.772  -9.860  -0.253  1.00  0.00     0.200 A 
ATOM     74  F   UNL     1      -5.381  -8.171  -1.856  1.00  0.00    -0.200 F 
ATOM     75  F   UNL     1      -6.996 -10.073  -0.753  1.00  0.00    -0.200 F 
ENDBRANCH  41  65
BRANCH  53  76
ATOM     76  C   UNL     1       2.647 -13.187   1.123  1.00  0.00     0.064 A 
ATOM     77  C   UNL     1       2.899 -13.418  -0.237  1.00  0.00     0.173 A 
ATOM     78  C   UNL     1       2.817 -14.255   2.016  1.00  0.00     0.173 A 
ATOM     79  F   UNL     1       2.739 -12.430  -1.130  1.00  0.00    -0.203 F 
ATOM     80  C   UNL     1       3.292 -14.675  -0.686  1.00  0.00     0.198 A 
ATOM     81  C   UNL     1       3.232 -15.505   1.566  1.00  0.00     0.198 A 
ATOM     82  F   UNL     1       2.595 -14.082   3.328  1.00  0.00    -0.203 F 
ATOM     83  F   UNL     1       3.497 -14.883  -1.994  1.00  0.00    -0.200 F 
ATOM     84  C   UNL     1       3.466 -15.715   0.215  1.00  0.00     0.200 A 
ATOM     85  F   UNL     1       3.411 -16.505   2.440  1.00  0.00    -0.200 F 
ATOM     86  F   UNL     1       3.855 -16.922  -0.219  1.00  0.00    -0.200 F 
ENDBRANCH  53  76
ENDBRANCH  27  28
ENDBRANCH  20  22
ENDBRANCH  19  20
ENDBRANCH   1  19
TORSDOF 11
