REMARK SMILES Cn1ccc(C(=O)NCc2ccc(C(=O)OCCOC(=O)c3ccc(-c4c5nc(c(-c6c(F)c(F)c(F)c(F)c6F)c6ccc([nH]6)c(-c6c(F)c(F)c(F)c(F)c6F)c6nc(c(-c7c(F)c(F)c(F)c(F)c7F)c7ccc4[nH]7)C=C6)C=C5)cc3)cc2)cc1=O
REMARK SMILES IDX 17 1 16 2 14 3 15 4 13 5 10 6 11 7 86 8 12 9 85 10 9 11 8 12
REMARK SMILES IDX 6 13 7 14 5 16 1 17 2 18 3 19 88 20 4 21 87 22 89 23 18 24
REMARK SMILES IDX 19 25 20 26 21 27 22 28 23 29 84 30 24 31 83 32 25 33 26 34
REMARK SMILES IDX 27 35 77 36 28 37 82 38 76 39 78 40 29 41 81 42 75 43 74 44
REMARK SMILES IDX 30 46 62 47 42 48 61 49 43 50 46 51 60 52 79 53 44 54 45 55
REMARK SMILES IDX 59 57 80 58 47 59 31 60 32 61 40 62 33 63 34 64 38 65 41 66
REMARK SMILES IDX 35 67 36 68 39 69 37 70 63 71 64 72 72 73 65 74 66 75 70 76
REMARK SMILES IDX 73 77 67 78 68 79 71 80 69 81 48 82 49 83 57 84 50 85 51 86
REMARK SMILES IDX 55 87 58 88 52 89 53 90 56 91 54 92
REMARK H PARENT 8 15 78 45 46 56
REMARK Flexibility Score: inf
ROOT
ATOM      1  C   UNL     1       2.624   7.801   6.288  1.00  0.00     0.275 C 
ENDROOT
BRANCH   1   2
ATOM      2  O   UNL     1       2.738   6.944   5.134  1.00  0.00    -0.458 OA
BRANCH   2   3
ATOM      3  C   UNL     1       1.580   6.409   4.671  1.00  0.00     0.338 C 
ATOM      4  O   UNL     1       0.470   6.543   5.160  1.00  0.00    -0.246 OA
BRANCH   3   5
ATOM      5  C   UNL     1       1.815   5.712   3.382  1.00  0.00     0.060 A 
ATOM      6  C   UNL     1       2.181   4.458   0.882  1.00  0.00    -0.029 A 
ATOM      7  C   UNL     1       0.936   4.997   1.231  1.00  0.00     0.006 A 
ATOM      8  C   UNL     1       3.242   4.570   1.800  1.00  0.00     0.006 A 
ATOM      9  C   UNL     1       0.748   5.590   2.482  1.00  0.00     0.016 A 
ATOM     10  C   UNL     1       3.064   5.192   3.039  1.00  0.00     0.016 A 
BRANCH   6  11
ATOM     11  C   UNL     1       2.372   3.810  -0.472  1.00  0.00     0.152 C 
BRANCH  11  12
ATOM     12  N   UNL     1       3.286   2.689  -0.404  1.00  0.00    -0.348 N 
ATOM     13  C   UNL     1       3.137   1.363  -0.171  1.00  0.00     0.251 C 
ATOM     14  O   UNL     1       4.178   0.702  -0.100  1.00  0.00    -0.269 OA
ATOM     15  H   UNL     1       4.222   2.947  -0.563  1.00  0.00     0.164 HD
BRANCH  13  16
ATOM     16  C   UNL     1       1.813   0.661  -0.074  1.00  0.00     0.046 A 
ATOM     17  C   UNL     1      -1.718  -1.714   0.072  1.00  0.00     0.153 C 
ATOM     18  N   UNL     1      -0.519  -0.890   0.043  1.00  0.00    -0.319 N 
ATOM     19  C   UNL     1       0.681  -1.484  -0.288  1.00  0.00     0.089 A 
ATOM     20  C   UNL     1      -0.607   0.459   0.367  1.00  0.00     0.251 A 
ATOM     21  C   UNL     1       1.808  -0.768  -0.358  1.00  0.00     0.032 A 
ATOM     22  C   UNL     1       0.668   1.228   0.332  1.00  0.00     0.085 A 
ATOM     23  O   UNL     1      -1.642   1.047   0.668  1.00  0.00    -0.269 OA
ENDBRANCH  13  16
ENDBRANCH  11  12
ENDBRANCH   6  11
ENDBRANCH   3   5
ENDBRANCH   2   3
ENDBRANCH   1   2
BRANCH   1  24
ATOM     24  C   UNL     1       2.620   9.267   5.858  1.00  0.00     0.275 C 
BRANCH  24  25
ATOM     25  O   UNL     1       1.434   9.531   5.088  1.00  0.00    -0.458 OA
BRANCH  25  26
ATOM     26  C   UNL     1       1.607  10.223   3.942  1.00  0.00     0.338 C 
ATOM     27  O   UNL     1       2.642  10.720   3.516  1.00  0.00    -0.246 OA
BRANCH  26  28
ATOM     28  C   UNL     1       0.320  10.320   3.235  1.00  0.00     0.060 A 
ATOM     29  C   UNL     1      -0.365   9.160   2.877  1.00  0.00     0.016 A 
ATOM     30  C   UNL     1      -0.164  11.567   2.841  1.00  0.00     0.016 A 
ATOM     31  C   UNL     1      -1.504   9.234   2.075  1.00  0.00     0.010 A 
ATOM     32  C   UNL     1      -1.350  11.645   2.102  1.00  0.00     0.010 A 
ATOM     33  C   UNL     1      -2.018  10.478   1.684  1.00  0.00    -0.014 A 
BRANCH  33  34
ATOM     34  C   UNL     1      -3.216  10.565   0.800  1.00  0.00     0.031 A 
ATOM     35  C   UNL     1      -3.113  11.239  -0.544  1.00  0.00     0.074 A 
ATOM     36  C   UNL     1      -4.399  10.047   1.188  1.00  0.00     0.049 A 
ATOM     37  N   UNL     1      -4.065  11.588  -1.373  1.00  0.00    -0.248 NA
ATOM     38  C   UNL     1      -1.760  11.579  -1.011  1.00  0.00     0.031 C 
ATOM     39  C   UNL     1      -4.644   9.336   2.442  1.00  0.00     0.029 A 
ATOM     40  N   UNL     1      -5.622  10.042   0.560  1.00  0.00    -0.354 N 
ATOM     41  C   UNL     1      -3.434  12.245  -2.421  1.00  0.00     0.074 A 
ATOM     42  C   UNL     1      -2.016  12.238  -2.133  1.00  0.00     0.031 C 
ATOM     43  C   UNL     1      -5.926   8.941   2.482  1.00  0.00     0.029 A 
ATOM     44  C   UNL     1      -6.614   9.438   1.294  1.00  0.00     0.049 A 
ATOM     45  H   UNL     1      -5.773  10.434  -0.330  1.00  0.00     0.167 HD
ATOM     46  C   UNL     1      -3.989  12.807  -3.522  1.00  0.00     0.037 A 
ATOM     47  C   UNL     1      -7.937   9.330   1.061  1.00  0.00     0.037 A 
ATOM     48  C   UNL     1      -5.388  12.749  -3.851  1.00  0.00     0.049 A 
ATOM     49  C   UNL     1      -8.525   9.950  -0.175  1.00  0.00     0.074 A 
ATOM     50  C   UNL     1      -6.034  13.257  -4.966  1.00  0.00     0.029 A 
ATOM     51  N   UNL     1      -6.356  12.127  -3.079  1.00  0.00    -0.354 N 
ATOM     52  N   UNL     1      -7.926  10.612  -1.133  1.00  0.00    -0.248 NA
ATOM     53  C   UNL     1      -9.980   9.827  -0.351  1.00  0.00     0.031 C 
ATOM     54  C   UNL     1      -7.397  12.965  -4.855  1.00  0.00     0.029 A 
ATOM     55  C   UNL     1      -7.595  12.246  -3.688  1.00  0.00     0.049 A 
ATOM     56  H   UNL     1      -6.188  11.668  -2.224  1.00  0.00     0.167 HD
ATOM     57  C   UNL     1      -8.924  10.981  -2.024  1.00  0.00     0.074 A 
ATOM     58  C   UNL     1     -10.166  10.447  -1.508  1.00  0.00     0.031 C 
ATOM     59  C   UNL     1      -8.821  11.707  -3.163  1.00  0.00     0.037 A 
BRANCH  46  60
ATOM     60  C   UNL     1      -3.088  13.567  -4.449  1.00  0.00     0.064 A 
ATOM     61  C   UNL     1      -2.219  12.918  -5.336  1.00  0.00     0.173 A 
ATOM     62  C   UNL     1      -3.150  14.969  -4.493  1.00  0.00     0.173 A 
ATOM     63  F   UNL     1      -2.115  11.581  -5.323  1.00  0.00    -0.203 F 
ATOM     64  C   UNL     1      -1.433  13.647  -6.227  1.00  0.00     0.198 A 
ATOM     65  C   UNL     1      -2.381  15.692  -5.399  1.00  0.00     0.198 A 
ATOM     66  F   UNL     1      -3.971  15.635  -3.667  1.00  0.00    -0.203 F 
ATOM     67  F   UNL     1      -0.588  13.010  -7.048  1.00  0.00    -0.200 F 
ATOM     68  C   UNL     1      -1.521  15.031  -6.263  1.00  0.00     0.200 A 
ATOM     69  F   UNL     1      -2.476  17.029  -5.441  1.00  0.00    -0.200 F 
ATOM     70  F   UNL     1      -0.775  15.729  -7.131  1.00  0.00    -0.200 F 
ENDBRANCH  46  60
BRANCH  47  71
ATOM     71  C   UNL     1      -8.807   8.643   2.051  1.00  0.00     0.064 A 
ATOM     72  C   UNL     1      -9.410   7.413   1.754  1.00  0.00     0.173 A 
ATOM     73  C   UNL     1      -9.058   9.207   3.311  1.00  0.00     0.173 A 
ATOM     74  F   UNL     1      -9.226   6.851   0.550  1.00  0.00    -0.203 F 
ATOM     75  C   UNL     1     -10.240   6.779   2.676  1.00  0.00     0.198 A 
ATOM     76  C   UNL     1      -9.863   8.557   4.243  1.00  0.00     0.198 A 
ATOM     77  F   UNL     1      -8.509  10.385   3.641  1.00  0.00    -0.203 F 
ATOM     78  F   UNL     1     -10.840   5.625   2.352  1.00  0.00    -0.200 F 
ATOM     79  C   UNL     1     -10.459   7.346   3.923  1.00  0.00     0.200 A 
ATOM     80  F   UNL     1     -10.064   9.105   5.449  1.00  0.00    -0.200 F 
ATOM     81  F   UNL     1     -11.252   6.733   4.811  1.00  0.00    -0.200 F 
ENDBRANCH  47  71
BRANCH  59  82
ATOM     82  C   UNL     1     -10.082  11.953  -3.935  1.00  0.00     0.064 A 
ATOM     83  C   UNL     1     -11.030  12.891  -3.502  1.00  0.00     0.173 A 
ATOM     84  C   UNL     1     -10.327  11.271  -5.135  1.00  0.00     0.173 A 
ATOM     85  F   UNL     1     -10.844  13.557  -2.352  1.00  0.00    -0.203 F 
ATOM     86  C   UNL     1     -12.190  13.124  -4.235  1.00  0.00     0.198 A 
ATOM     87  C   UNL     1     -11.478  11.521  -5.876  1.00  0.00     0.198 A 
ATOM     88  F   UNL     1      -9.447  10.367  -5.591  1.00  0.00    -0.203 F 
ATOM     89  F   UNL     1     -13.101  13.997  -3.785  1.00  0.00    -0.200 F 
ATOM     90  C   UNL     1     -12.411  12.443  -5.424  1.00  0.00     0.200 A 
ATOM     91  F   UNL     1     -11.687  10.869  -7.028  1.00  0.00    -0.200 F 
ATOM     92  F   UNL     1     -13.527  12.670  -6.130  1.00  0.00    -0.200 F 
ENDBRANCH  59  82
ENDBRANCH  33  34
ENDBRANCH  26  28
ENDBRANCH  25  26
ENDBRANCH  24  25
ENDBRANCH   1  24
TORSDOF 14
