REMARK SMILES COc1cc([C@@H]2CC(=O)Nc3c(C(=O)OCCOC(=O)c4ccc(-c5c6nc(c(-c7c(F)c(F)c(F)c(F)c7F)c7ccc([nH]7)c(-c7c(F)c(F)c(F)c(F)c7F)c7nc(c(-c8c(F)c(F)c(F)c(F)c8F)c8ccc5[nH]8)C=C7)C=C6)cc4)cn(-c4ccc(F)cc4)c32)c(OC)c2c1OCO2
REMARK SMILES IDX 16 1 15 2 13 3 14 4 12 5 6 6 7 7 93 8 8 9 11 10 85 11 9 12
REMARK SMILES IDX 10 13 84 14 5 16 3 17 4 18 98 19 97 20 99 21 94 22 101 23
REMARK SMILES IDX 100 24 2 25 1 26 95 27 96 28 86 29 87 30 92 31 88 32 91 33
REMARK SMILES IDX 89 34 90 35 17 36 18 37 19 38 20 39 21 40 22 41 83 42 23 43
REMARK SMILES IDX 82 44 24 45 25 46 26 47 76 48 27 49 81 50 75 51 77 52 28 53
REMARK SMILES IDX 80 54 74 55 73 56 29 58 61 59 41 60 60 61 42 62 45 63 59 64
REMARK SMILES IDX 78 65 43 66 44 67 58 69 79 70 46 71 30 72 31 73 39 74 32 75
REMARK SMILES IDX 33 76 37 77 40 78 34 79 35 80 38 81 36 82 62 83 63 84 71 85
REMARK SMILES IDX 64 86 65 87 69 88 72 89 66 90 67 91 70 92 68 93 47 94 48 95
REMARK SMILES IDX 56 96 49 97 50 98 54 99 57 100 51 101 52 102 55 103 53 104
REMARK H PARENT 10 15 77 57 45 68
REMARK Flexibility Score: inf
ROOT
ATOM      1  C   UNL     1       0.985  -6.447   9.882  1.00  0.00     0.275 C 
ENDROOT
BRANCH   1   2
ATOM      2  O   UNL     1       0.691  -5.450   8.894  1.00  0.00    -0.458 OA
BRANCH   2   3
ATOM      3  C   UNL     1       0.145  -5.909   7.728  1.00  0.00     0.341 C 
ATOM      4  O   UNL     1       0.089  -7.093   7.404  1.00  0.00    -0.246 OA
BRANCH   3   5
ATOM      5  C   UNL     1      -0.405  -4.838   6.919  1.00  0.00     0.102 A 
ATOM      6  C   UNL     1      -0.516  -1.392   5.603  1.00  0.00     0.082 C 
ATOM      7  C   UNL     1      -0.243  -0.614   6.904  1.00  0.00     0.115 C 
ATOM      8  C   UNL     1      -0.732  -2.838   5.925  1.00  0.00     0.055 A 
ATOM      9  C   UNL     1       0.589  -1.359   7.941  1.00  0.00     0.225 C 
ATOM     10  C   UNL     1      -0.225  -3.446   7.049  1.00  0.00     0.078 A 
ATOM     11  N   UNL     1      -1.441  -3.784   5.217  1.00  0.00    -0.317 N 
ATOM     12  O   UNL     1       1.284  -0.760   8.763  1.00  0.00    -0.275 OA
ATOM     13  N   UNL     1       0.448  -2.722   8.006  1.00  0.00    -0.324 N 
ATOM     14  C   UNL     1      -1.258  -5.003   5.836  1.00  0.00     0.109 A 
ATOM     15  H   UNL     1       0.845  -3.202   8.769  1.00  0.00     0.170 HD
BRANCH   6  16
ATOM     16  C   UNL     1       0.581  -1.159   4.554  1.00  0.00     0.012 A 
ATOM     17  C   UNL     1       1.118  -0.202   2.350  1.00  0.00     0.165 A 
ATOM     18  C   UNL     1       0.240  -0.371   3.424  1.00  0.00     0.059 A 
ATOM     19  C   UNL     1       2.375  -0.763   2.459  1.00  0.00     0.211 A 
ATOM     20  C   UNL     1       2.748  -1.493   3.572  1.00  0.00     0.211 A 
ATOM     21  O   UNL     1       3.385  -0.678   1.546  1.00  0.00    -0.449 OA
ATOM     22  C   UNL     1       1.881  -1.715   4.632  1.00  0.00     0.168 A 
ATOM     23  O   UNL     1       4.028  -1.955   3.462  1.00  0.00    -0.449 OA
ATOM     24  C   UNL     1       4.450  -1.347   2.235  1.00  0.00     0.468 C 
BRANCH  17  25
ATOM     25  O   UNL     1       0.631   0.530   1.307  1.00  0.00    -0.493 OA
ATOM     26  C   UNL     1       1.080   0.121   0.019  1.00  0.00     0.278 C 
ENDBRANCH  17  25
BRANCH  22  27
ATOM     27  O   UNL     1       2.166  -2.447   5.741  1.00  0.00    -0.492 OA
ATOM     28  C   UNL     1       3.490  -2.887   5.988  1.00  0.00     0.278 C 
ENDBRANCH  22  27
ENDBRANCH   6  16
BRANCH  11  29
ATOM     29  C   UNL     1      -2.206  -3.593   4.048  1.00  0.00     0.046 A 
ATOM     30  C   UNL     1      -1.585  -3.122   2.889  1.00  0.00     0.029 A 
ATOM     31  C   UNL     1      -3.576  -3.878   4.064  1.00  0.00     0.029 A 
ATOM     32  C   UNL     1      -2.349  -2.867   1.752  1.00  0.00     0.041 A 
ATOM     33  C   UNL     1      -4.336  -3.614   2.922  1.00  0.00     0.041 A 
ATOM     34  C   UNL     1      -3.718  -3.102   1.783  1.00  0.00     0.123 A 
ATOM     35  F   UNL     1      -4.454  -2.838   0.695  1.00  0.00    -0.207 F 
ENDBRANCH  11  29
ENDBRANCH   3   5
ENDBRANCH   2   3
ENDBRANCH   1   2
BRANCH   1  36
ATOM     36  C   UNL     1      -0.248  -6.764  10.715  1.00  0.00     0.275 C 
BRANCH  36  37
ATOM     37  O   UNL     1      -1.213  -7.505   9.970  1.00  0.00    -0.458 OA
BRANCH  37  38
ATOM     38  C   UNL     1      -2.223  -6.773   9.448  1.00  0.00     0.338 C 
ATOM     39  O   UNL     1      -2.243  -5.571   9.244  1.00  0.00    -0.246 OA
BRANCH  38  40
ATOM     40  C   UNL     1      -3.419  -7.612   9.373  1.00  0.00     0.060 A 
ATOM     41  C   UNL     1      -4.514  -7.139   8.646  1.00  0.00     0.016 A 
ATOM     42  C   UNL     1      -3.521  -8.716  10.232  1.00  0.00     0.016 A 
ATOM     43  C   UNL     1      -5.750  -7.711   8.876  1.00  0.00     0.010 A 
ATOM     44  C   UNL     1      -4.753  -9.274  10.470  1.00  0.00     0.010 A 
ATOM     45  C   UNL     1      -5.863  -8.733   9.831  1.00  0.00    -0.014 A 
BRANCH  45  46
ATOM     46  C   UNL     1      -7.149  -9.382   9.995  1.00  0.00     0.031 A 
ATOM     47  C   UNL     1      -7.515 -10.158   8.790  1.00  0.00     0.074 A 
ATOM     48  C   UNL     1      -7.835  -9.403  11.156  1.00  0.00     0.049 A 
ATOM     49  N   UNL     1      -8.466  -9.896   7.960  1.00  0.00    -0.248 NA
ATOM     50  C   UNL     1      -6.614 -11.236   8.344  1.00  0.00     0.031 C 
ATOM     51  C   UNL     1      -7.365  -8.919  12.457  1.00  0.00     0.029 A 
ATOM     52  N   UNL     1      -9.050  -9.955  11.454  1.00  0.00    -0.354 N 
ATOM     53  C   UNL     1      -8.455 -10.951   7.054  1.00  0.00     0.074 A 
ATOM     54  C   UNL     1      -7.180 -11.597   7.190  1.00  0.00     0.031 C 
ATOM     55  C   UNL     1      -8.165  -9.405  13.432  1.00  0.00     0.029 A 
ATOM     56  C   UNL     1      -9.279 -10.109  12.819  1.00  0.00     0.049 A 
ATOM     57  H   UNL     1      -9.704 -10.220  10.767  1.00  0.00     0.167 HD
ATOM     58  C   UNL     1      -9.642 -11.425   6.588  1.00  0.00     0.037 A 
ATOM     59  C   UNL     1     -10.290 -10.798  13.406  1.00  0.00     0.037 A 
ATOM     60  C   UNL     1     -10.693 -10.465   6.816  1.00  0.00     0.049 A 
ATOM     61  C   UNL     1     -11.383 -10.935  12.419  1.00  0.00     0.074 A 
ATOM     62  C   UNL     1     -11.130  -9.284   6.260  1.00  0.00     0.029 A 
ATOM     63  N   UNL     1     -11.222 -10.539   8.075  1.00  0.00    -0.354 N 
ATOM     64  N   UNL     1     -12.107  -9.931  12.010  1.00  0.00    -0.248 NA
ATOM     65  C   UNL     1     -11.471 -12.146  11.606  1.00  0.00     0.031 C 
ATOM     66  C   UNL     1     -11.911  -8.629   7.260  1.00  0.00     0.029 A 
ATOM     67  C   UNL     1     -11.966  -9.439   8.389  1.00  0.00     0.049 A 
ATOM     68  H   UNL     1     -11.083 -11.299   8.684  1.00  0.00     0.167 HD
ATOM     69  C   UNL     1     -12.370 -10.228  10.690  1.00  0.00     0.074 A 
ATOM     70  C   UNL     1     -12.130 -11.658  10.552  1.00  0.00     0.031 C 
ATOM     71  C   UNL     1     -12.392  -9.240   9.752  1.00  0.00     0.037 A 
BRANCH  58  72
ATOM     72  C   UNL     1      -9.983 -12.901   6.494  1.00  0.00     0.064 A 
ATOM     73  C   UNL     1     -11.230 -13.264   5.944  1.00  0.00     0.173 A 
ATOM     74  C   UNL     1      -9.324 -13.921   7.218  1.00  0.00     0.173 A 
ATOM     75  F   UNL     1     -11.958 -12.370   5.259  1.00  0.00    -0.203 F 
ATOM     76  C   UNL     1     -11.801 -14.521   6.169  1.00  0.00     0.198 A 
ATOM     77  C   UNL     1      -9.875 -15.188   7.398  1.00  0.00     0.198 A 
ATOM     78  F   UNL     1      -8.184 -13.710   7.885  1.00  0.00    -0.203 F 
ATOM     79  F   UNL     1     -13.042 -14.775   5.733  1.00  0.00    -0.200 F 
ATOM     80  C   UNL     1     -11.125 -15.479   6.900  1.00  0.00     0.200 A 
ATOM     81  F   UNL     1      -9.215 -16.092   8.136  1.00  0.00    -0.200 F 
ATOM     82  F   UNL     1     -11.695 -16.661   7.170  1.00  0.00    -0.200 F 
ENDBRANCH  58  72
BRANCH  59  83
ATOM     83  C   UNL     1     -10.313 -11.525  14.696  1.00  0.00     0.064 A 
ATOM     84  C   UNL     1     -11.525 -11.859  15.325  1.00  0.00     0.173 A 
ATOM     85  C   UNL     1      -9.157 -12.159  15.189  1.00  0.00     0.173 A 
ATOM     86  F   UNL     1     -12.679 -11.329  14.892  1.00  0.00    -0.203 F 
ATOM     87  C   UNL     1     -11.582 -12.797  16.361  1.00  0.00     0.198 A 
ATOM     88  C   UNL     1      -9.214 -13.092  16.226  1.00  0.00     0.198 A 
ATOM     89  F   UNL     1      -7.966 -11.959  14.607  1.00  0.00    -0.203 F 
ATOM     90  F   UNL     1     -12.765 -13.139  16.890  1.00  0.00    -0.200 F 
ATOM     91  C   UNL     1     -10.428 -13.423  16.801  1.00  0.00     0.200 A 
ATOM     92  F   UNL     1      -8.095 -13.719  16.618  1.00  0.00    -0.200 F 
ATOM     93  F   UNL     1     -10.489 -14.372  17.745  1.00  0.00    -0.200 F 
ENDBRANCH  59  83
BRANCH  71  94
ATOM     94  C   UNL     1     -12.740  -7.863  10.208  1.00  0.00     0.064 A 
ATOM     95  C   UNL     1     -11.947  -7.077  11.058  1.00  0.00     0.173 A 
ATOM     96  C   UNL     1     -13.922  -7.299   9.709  1.00  0.00     0.173 A 
ATOM     97  F   UNL     1     -10.770  -7.527  11.516  1.00  0.00    -0.203 F 
ATOM     98  C   UNL     1     -12.348  -5.792  11.420  1.00  0.00     0.198 A 
ATOM     99  C   UNL     1     -14.300  -6.006  10.043  1.00  0.00     0.198 A 
ATOM    100  F   UNL     1     -14.697  -8.001   8.867  1.00  0.00    -0.203 F 
ATOM    101  F   UNL     1     -11.591  -5.060  12.252  1.00  0.00    -0.200 F 
ATOM    102  C   UNL     1     -13.520  -5.256  10.907  1.00  0.00     0.200 A 
ATOM    103  F   UNL     1     -15.414  -5.482   9.513  1.00  0.00    -0.200 F 
ATOM    104  F   UNL     1     -13.891  -4.010  11.232  1.00  0.00    -0.200 F 
ENDBRANCH  71  94
ENDBRANCH  45  46
ENDBRANCH  38  40
ENDBRANCH  37  38
ENDBRANCH  36  37
ENDBRANCH   1  36
TORSDOF 15
