REMARK SMILES O=C(OCCOC(=O)[C@@H]1CN(C(=O)CCC(F)(F)F)C[C@H]1c1ccc2c(c1)OCO2)c1ccc(-c2c3nc(c(-c4c(F)c(F)c(F)c(F)c4F)c4ccc([nH]4)c(-c4c(F)c(F)c(F)c(F)c4F)c4nc(c(-c5c(F)c(F)c(F)c(F)c5F)c5ccc2[nH]5)C=C4)C=C3)cc1
REMARK SMILES IDX 5 1 4 2 3 3 2 4 1 5 31 6 32 7 93 8 33 9 92 10 34 11 35 12
REMARK SMILES IDX 36 13 86 14 37 15 91 16 85 17 87 18 38 19 90 20 84 21 83 22
REMARK SMILES IDX 39 24 71 25 51 26 70 27 52 28 55 29 69 30 88 31 53 32 54 33
REMARK SMILES IDX 68 35 89 36 56 37 40 38 41 39 49 40 42 41 43 42 47 43 50 44
REMARK SMILES IDX 44 45 45 46 48 47 46 48 72 49 73 50 81 51 74 52 75 53 79 54
REMARK SMILES IDX 82 55 76 56 77 57 80 58 78 59 57 60 58 61 66 62 59 63 60 64
REMARK SMILES IDX 64 65 67 66 61 67 62 68 65 69 63 70 6 71 7 72 8 73 9 74
REMARK SMILES IDX 10 75 21 76 11 77 20 78 22 79 23 80 27 81 24 82 26 83 25 84
REMARK SMILES IDX 28 85 30 86 29 87 12 88 13 89 14 90 15 91 16 92 17 93 18 94
REMARK SMILES IDX 19 95
REMARK H PARENT 87 23 55 34
REMARK Flexibility Score: inf
ROOT
ATOM      1  C   UNL     1       3.744   2.409  -0.548  1.00  0.00     0.274 C 
ENDROOT
BRANCH   1   2
ATOM      2  C   UNL     1       4.347   1.316  -1.440  1.00  0.00     0.275 C 
BRANCH   2   3
ATOM      3  O   UNL     1       3.549   0.132  -1.488  1.00  0.00    -0.458 OA
BRANCH   3   4
ATOM      4  C   UNL     1       3.431  -0.842  -0.566  1.00  0.00     0.338 C 
ATOM      5  O   UNL     1       2.518  -1.655  -0.713  1.00  0.00    -0.246 OA
BRANCH   4   6
ATOM      6  C   UNL     1       4.277  -0.973   0.675  1.00  0.00     0.060 A 
ATOM      7  C   UNL     1       5.274  -0.117   1.157  1.00  0.00     0.016 A 
ATOM      8  C   UNL     1       3.907  -2.030   1.509  1.00  0.00     0.016 A 
ATOM      9  C   UNL     1       5.770  -0.220   2.468  1.00  0.00     0.010 A 
ATOM     10  C   UNL     1       4.352  -2.097   2.829  1.00  0.00     0.010 A 
ATOM     11  C   UNL     1       5.272  -1.180   3.343  1.00  0.00    -0.014 A 
BRANCH  11  12
ATOM     12  C   UNL     1       5.787  -1.311   4.734  1.00  0.00     0.031 A 
ATOM     13  C   UNL     1       6.363  -2.638   5.159  1.00  0.00     0.074 A 
ATOM     14  C   UNL     1       5.729  -0.288   5.616  1.00  0.00     0.049 A 
ATOM     15  N   UNL     1       6.825  -3.010   6.324  1.00  0.00    -0.248 NA
ATOM     16  C   UNL     1       6.353  -3.718   4.155  1.00  0.00     0.031 C 
ATOM     17  C   UNL     1       5.120   1.023   5.376  1.00  0.00     0.029 A 
ATOM     18  N   UNL     1       6.206  -0.186   6.903  1.00  0.00    -0.354 N 
ATOM     19  C   UNL     1       7.133  -4.355   6.177  1.00  0.00     0.074 A 
ATOM     20  C   UNL     1       6.635  -4.775   4.892  1.00  0.00     0.031 C 
ATOM     21  C   UNL     1       5.302   1.807   6.454  1.00  0.00     0.029 A 
ATOM     22  C   UNL     1       6.032   1.057   7.471  1.00  0.00     0.049 A 
ATOM     23  H   UNL     1       6.634  -0.936   7.376  1.00  0.00     0.167 HD
ATOM     24  C   UNL     1       7.870  -5.154   6.979  1.00  0.00     0.037 A 
ATOM     25  C   UNL     1       6.444   1.534   8.664  1.00  0.00     0.037 A 
ATOM     26  C   UNL     1       8.435  -4.719   8.219  1.00  0.00     0.049 A 
ATOM     27  C   UNL     1       7.250   0.621   9.562  1.00  0.00     0.074 A 
ATOM     28  C   UNL     1       9.226  -5.423   9.105  1.00  0.00     0.029 A 
ATOM     29  N   UNL     1       8.274  -3.442   8.738  1.00  0.00    -0.354 N 
ATOM     30  N   UNL     1       7.630  -0.619   9.360  1.00  0.00    -0.248 NA
ATOM     31  C   UNL     1       7.706   1.181  10.843  1.00  0.00     0.031 C 
ATOM     32  C   UNL     1       9.515  -4.580  10.182  1.00  0.00     0.029 A 
ATOM     33  C   UNL     1       8.947  -3.338   9.940  1.00  0.00     0.049 A 
ATOM     34  H   UNL     1       7.759  -2.720   8.313  1.00  0.00     0.167 HD
ATOM     35  C   UNL     1       8.401  -0.970  10.462  1.00  0.00     0.074 A 
ATOM     36  C   UNL     1       8.452   0.195  11.320  1.00  0.00     0.031 C 
ATOM     37  C   UNL     1       9.009  -2.148  10.747  1.00  0.00     0.037 A 
BRANCH  24  38
ATOM     38  C   UNL     1       8.139  -6.543   6.479  1.00  0.00     0.064 A 
ATOM     39  C   UNL     1       8.922  -6.765   5.331  1.00  0.00     0.173 A 
ATOM     40  C   UNL     1       7.554  -7.655   7.098  1.00  0.00     0.173 A 
ATOM     41  F   UNL     1       9.480  -5.730   4.684  1.00  0.00    -0.203 F 
ATOM     42  C   UNL     1       9.055  -8.039   4.788  1.00  0.00     0.198 A 
ATOM     43  C   UNL     1       7.725  -8.934   6.574  1.00  0.00     0.198 A 
ATOM     44  F   UNL     1       6.796  -7.499   8.193  1.00  0.00    -0.203 F 
ATOM     45  F   UNL     1       9.721  -8.207   3.637  1.00  0.00    -0.200 F 
ATOM     46  C   UNL     1       8.459  -9.123   5.412  1.00  0.00     0.200 A 
ATOM     47  F   UNL     1       7.155  -9.985   7.181  1.00  0.00    -0.200 F 
ATOM     48  F   UNL     1       8.575 -10.348   4.881  1.00  0.00    -0.200 F 
ENDBRANCH  24  38
BRANCH  25  49
ATOM     49  C   UNL     1       6.173   2.944   9.075  1.00  0.00     0.064 A 
ATOM     50  C   UNL     1       7.223   3.860   9.256  1.00  0.00     0.173 A 
ATOM     51  C   UNL     1       4.876   3.391   9.367  1.00  0.00     0.173 A 
ATOM     52  F   UNL     1       8.488   3.485   9.009  1.00  0.00    -0.203 F 
ATOM     53  C   UNL     1       6.994   5.141   9.758  1.00  0.00     0.198 A 
ATOM     54  C   UNL     1       4.643   4.685   9.836  1.00  0.00     0.198 A 
ATOM     55  F   UNL     1       3.831   2.566   9.211  1.00  0.00    -0.203 F 
ATOM     56  F   UNL     1       8.027   5.963   9.992  1.00  0.00    -0.200 F 
ATOM     57  C   UNL     1       5.703   5.553  10.047  1.00  0.00     0.200 A 
ATOM     58  F   UNL     1       3.393   5.089  10.099  1.00  0.00    -0.200 F 
ATOM     59  F   UNL     1       5.482   6.780  10.540  1.00  0.00    -0.200 F 
ENDBRANCH  25  49
BRANCH  37  60
ATOM     60  C   UNL     1       9.829  -2.222  12.001  1.00  0.00     0.064 A 
ATOM     61  C   UNL     1       9.236  -2.232  13.271  1.00  0.00     0.173 A 
ATOM     62  C   UNL     1      11.223  -2.367  11.922  1.00  0.00     0.173 A 
ATOM     63  F   UNL     1       7.908  -2.086  13.398  1.00  0.00    -0.203 F 
ATOM     64  C   UNL     1      10.011  -2.362  14.419  1.00  0.00     0.198 A 
ATOM     65  C   UNL     1      11.991  -2.535  13.070  1.00  0.00     0.198 A 
ATOM     66  F   UNL     1      11.836  -2.377  10.729  1.00  0.00    -0.203 F 
ATOM     67  F   UNL     1       9.429  -2.324  15.625  1.00  0.00    -0.200 F 
ATOM     68  C   UNL     1      11.385  -2.525  14.317  1.00  0.00     0.200 A 
ATOM     69  F   UNL     1      13.315  -2.716  12.968  1.00  0.00    -0.200 F 
ATOM     70  F   UNL     1      12.127  -2.671  15.423  1.00  0.00    -0.200 F 
ENDBRANCH  37  60
ENDBRANCH  11  12
ENDBRANCH   4   6
ENDBRANCH   3   4
ENDBRANCH   2   3
ENDBRANCH   1   2
BRANCH   1  71
ATOM     71  O   UNL     1       3.400   1.967   0.786  1.00  0.00    -0.462 OA
BRANCH  71  72
ATOM     72  C   UNL     1       2.078   1.765   1.074  1.00  0.00     0.311 C 
ATOM     73  O   UNL     1       1.167   1.907   0.267  1.00  0.00    -0.252 OA
BRANCH  72  74
ATOM     74  C   UNL     1       1.882   1.395   2.535  1.00  0.00     0.128 C 
ATOM     75  C   UNL     1       1.383  -0.036   2.683  1.00  0.00     0.135 C 
ATOM     76  C   UNL     1       0.783   2.246   3.227  1.00  0.00     0.055 C 
ATOM     77  N   UNL     1       0.654  -0.056   3.932  1.00  0.00    -0.341 N 
ATOM     78  C   UNL     1       0.084   1.249   4.186  1.00  0.00     0.128 C 
BRANCH  76  79
ATOM     79  C   UNL     1       1.343   3.526   3.846  1.00  0.00    -0.038 A 
ATOM     80  C   UNL     1       2.055   4.440   3.024  1.00  0.00     0.008 A 
ATOM     81  C   UNL     1       1.151   3.870   5.196  1.00  0.00     0.054 A 
ATOM     82  C   UNL     1       2.601   5.625   3.534  1.00  0.00     0.051 A 
ATOM     83  C   UNL     1       1.693   5.047   5.670  1.00  0.00     0.166 A 
ATOM     84  C   UNL     1       2.404   5.899   4.865  1.00  0.00     0.165 A 
ATOM     85  O   UNL     1       1.591   5.500   6.948  1.00  0.00    -0.454 OA
ATOM     86  O   UNL     1       2.844   6.997   5.534  1.00  0.00    -0.454 OA
ATOM     87  C   UNL     1       2.273   6.765   6.840  1.00  0.00     0.468 C 
ENDBRANCH  76  79
BRANCH  77  88
ATOM     88  C   UNL     1       0.390  -1.093   4.799  1.00  0.00     0.222 C 
ATOM     89  O   UNL     1      -0.479  -0.993   5.670  1.00  0.00    -0.275 OA
BRANCH  88  90
ATOM     90  C   UNL     1       1.232  -2.353   4.760  1.00  0.00     0.109 C 
BRANCH  90  91
ATOM     91  C   UNL     1       0.478  -3.570   4.239  1.00  0.00     0.125 C 
BRANCH  91  92
ATOM     92  C   UNL     1       0.725  -3.818   2.773  1.00  0.00     0.389 C 
ATOM     93  F   UNL     1       2.010  -4.192   2.573  1.00  0.00    -0.171 F 
ATOM     94  F   UNL     1      -0.058  -4.812   2.308  1.00  0.00    -0.171 F 
ATOM     95  F   UNL     1       0.494  -2.720   2.032  1.00  0.00    -0.171 F 
ENDBRANCH  91  92
ENDBRANCH  90  91
ENDBRANCH  88  90
ENDBRANCH  77  88
ENDBRANCH  72  74
ENDBRANCH  71  72
ENDBRANCH   1  71
TORSDOF 16
