REMARK SMILES Cn1cc(C[C@H](C(=O)OCCOC(=O)c2ccc(-c3c4nc(c(-c5c(F)c(F)c(F)c(F)c5F)c5ccc([nH]5)c(-c5c(F)c(F)c(F)c(F)c5F)c5nc(c(-c6c(F)c(F)c(F)c(F)c6F)c6ccc3[nH]6)C=C5)C=C4)cc2)c2ccc(F)cc2)cn1
REMARK SMILES IDX 10 1 9 2 7 3 8 4 6 5 5 6 4 7 1 8 2 9 3 10 86 11 85 12 78 13
REMARK SMILES IDX 79 14 84 15 80 16 83 17 81 18 82 19 11 20 12 21 13 22 14 23
REMARK SMILES IDX 15 24 16 25 77 26 17 27 76 28 18 29 19 30 20 31 70 32 21 33
REMARK SMILES IDX 75 34 69 35 71 36 22 37 74 38 68 39 67 40 23 42 55 43 35 44
REMARK SMILES IDX 54 45 36 46 39 47 53 48 72 49 37 50 38 51 52 53 73 54 40 55
REMARK SMILES IDX 24 56 25 57 33 58 26 59 27 60 31 61 34 62 28 63 29 64 32 65
REMARK SMILES IDX 30 66 56 67 57 68 65 69 58 70 59 71 63 72 66 73 60 74 61 75
REMARK SMILES IDX 64 76 62 77 41 78 42 79 50 80 43 81 44 82 48 83 51 84 45 85
REMARK SMILES IDX 46 86 49 87 47 88
REMARK H PARENT 71 41 39 52
REMARK Flexibility Score: inf
ROOT
ATOM      1  C   UNL     1       2.175  -2.996   1.268  1.00  0.00     0.274 C 
ENDROOT
BRANCH   1   2
ATOM      2  O   UNL     1       3.115  -2.601   0.246  1.00  0.00    -0.462 OA
BRANCH   2   3
ATOM      3  C   UNL     1       2.604  -2.043  -0.883  1.00  0.00     0.313 C 
ATOM      4  O   UNL     1       1.413  -1.802  -1.054  1.00  0.00    -0.252 OA
BRANCH   3   5
ATOM      5  C   UNL     1       3.668  -1.673  -1.923  1.00  0.00     0.134 C 
BRANCH   5   6
ATOM      6  C   UNL     1       3.733  -0.134  -1.927  1.00  0.00     0.059 C 
BRANCH   6   7
ATOM      7  C   UNL     1       4.141   0.552  -3.190  1.00  0.00    -0.009 A 
ATOM      8  C   UNL     1       4.551   3.399  -5.367  1.00  0.00     0.173 C 
ATOM      9  N   UNL     1       4.496   2.129  -4.685  1.00  0.00    -0.276 N 
ATOM     10  C   UNL     1       4.234   1.921  -3.364  1.00  0.00     0.112 A 
ATOM     11  N   UNL     1       4.643   0.988  -5.380  1.00  0.00    -0.182 NA
ATOM     12  C   UNL     1       4.425   0.032  -4.473  1.00  0.00     0.138 A 
ENDBRANCH   6   7
ENDBRANCH   5   6
BRANCH   5  13
ATOM     13  C   UNL     1       4.986  -2.433  -1.765  1.00  0.00    -0.033 A 
ATOM     14  C   UNL     1       4.958  -3.843  -1.818  1.00  0.00     0.007 A 
ATOM     15  C   UNL     1       6.226  -1.803  -1.573  1.00  0.00     0.007 A 
ATOM     16  C   UNL     1       6.121  -4.594  -1.647  1.00  0.00     0.039 A 
ATOM     17  C   UNL     1       7.393  -2.558  -1.412  1.00  0.00     0.039 A 
ATOM     18  C   UNL     1       7.329  -3.944  -1.444  1.00  0.00     0.123 A 
ATOM     19  F   UNL     1       8.447  -4.662  -1.278  1.00  0.00    -0.207 F 
ENDBRANCH   5  13
ENDBRANCH   3   5
ENDBRANCH   2   3
ENDBRANCH   1   2
BRANCH   1  20
ATOM     20  C   UNL     1       2.486  -2.252   2.560  1.00  0.00     0.275 C 
BRANCH  20  21
ATOM     21  O   UNL     1       2.279  -0.847   2.332  1.00  0.00    -0.458 OA
BRANCH  21  22
ATOM     22  C   UNL     1       3.333  -0.043   2.591  1.00  0.00     0.338 C 
ATOM     23  O   UNL     1       4.400  -0.348   3.092  1.00  0.00    -0.246 OA
BRANCH  22  24
ATOM     24  C   UNL     1       3.021   1.326   2.143  1.00  0.00     0.060 A 
ATOM     25  C   UNL     1       2.487   1.545   0.874  1.00  0.00     0.016 A 
ATOM     26  C   UNL     1       3.371   2.408   2.949  1.00  0.00     0.016 A 
ATOM     27  C   UNL     1       2.411   2.841   0.362  1.00  0.00     0.010 A 
ATOM     28  C   UNL     1       3.184   3.710   2.477  1.00  0.00     0.010 A 
ATOM     29  C   UNL     1       2.746   3.946   1.160  1.00  0.00    -0.014 A 
BRANCH  29  30
ATOM     30  C   UNL     1       2.687   5.339   0.626  1.00  0.00     0.031 A 
ATOM     31  C   UNL     1       3.905   6.227   0.692  1.00  0.00     0.074 A 
ATOM     32  C   UNL     1       1.552   5.832   0.090  1.00  0.00     0.049 A 
ATOM     33  N   UNL     1       4.000   7.522   0.518  1.00  0.00    -0.248 NA
ATOM     34  C   UNL     1       5.182   5.573   1.016  1.00  0.00     0.031 C 
ATOM     35  C   UNL     1       0.301   5.095  -0.083  1.00  0.00     0.029 A 
ATOM     36  N   UNL     1       1.270   7.081  -0.412  1.00  0.00    -0.354 N 
ATOM     37  C   UNL     1       5.322   7.847   0.795  1.00  0.00     0.074 A 
ATOM     38  C   UNL     1       5.999   6.611   1.129  1.00  0.00     0.031 C 
ATOM     39  C   UNL     1      -0.596   5.884  -0.691  1.00  0.00     0.029 A 
ATOM     40  C   UNL     1      -0.019   7.213  -0.865  1.00  0.00     0.049 A 
ATOM     41  H   UNL     1       1.930   7.811  -0.444  1.00  0.00     0.167 HD
ATOM     42  C   UNL     1       5.915   9.065   0.782  1.00  0.00     0.037 A 
ATOM     43  C   UNL     1      -0.685   8.289  -1.326  1.00  0.00     0.037 A 
ATOM     44  C   UNL     1       5.267  10.283   0.369  1.00  0.00     0.049 A 
ATOM     45  C   UNL     1      -0.002   9.626  -1.359  1.00  0.00     0.074 A 
ATOM     46  C   UNL     1       5.793  11.563   0.303  1.00  0.00     0.029 A 
ATOM     47  N   UNL     1       3.958  10.367  -0.077  1.00  0.00    -0.354 N 
ATOM     48  N   UNL     1       1.220   9.937  -1.005  1.00  0.00    -0.248 NA
ATOM     49  C   UNL     1      -0.802  10.767  -1.827  1.00  0.00     0.031 C 
ATOM     50  C   UNL     1       4.795  12.424  -0.169  1.00  0.00     0.029 A 
ATOM     51  C   UNL     1       3.659  11.675  -0.424  1.00  0.00     0.049 A 
ATOM     52  H   UNL     1       3.332   9.609  -0.138  1.00  0.00     0.167 HD
ATOM     53  C   UNL     1       1.334  11.306  -1.199  1.00  0.00     0.074 A 
ATOM     54  C   UNL     1       0.067  11.763  -1.730  1.00  0.00     0.031 C 
ATOM     55  C   UNL     1       2.392  12.114  -0.945  1.00  0.00     0.037 A 
BRANCH  42  56
ATOM     56  C   UNL     1       7.334   9.153   1.259  1.00  0.00     0.064 A 
ATOM     57  C   UNL     1       8.410   8.706   0.480  1.00  0.00     0.173 A 
ATOM     58  C   UNL     1       7.620   9.734   2.505  1.00  0.00     0.173 A 
ATOM     59  F   UNL     1       8.187   8.130  -0.710  1.00  0.00    -0.203 F 
ATOM     60  C   UNL     1       9.720   8.818   0.941  1.00  0.00     0.198 A 
ATOM     61  C   UNL     1       8.932   9.867   2.951  1.00  0.00     0.198 A 
ATOM     62  F   UNL     1       6.625  10.183   3.286  1.00  0.00    -0.203 F 
ATOM     63  F   UNL     1      10.731   8.349   0.197  1.00  0.00    -0.200 F 
ATOM     64  C   UNL     1       9.980   9.404   2.171  1.00  0.00     0.200 A 
ATOM     65  F   UNL     1       9.181  10.442   4.136  1.00  0.00    -0.200 F 
ATOM     66  F   UNL     1      11.242   9.516   2.608  1.00  0.00    -0.200 F 
ENDBRANCH  42  56
BRANCH  43  67
ATOM     67  C   UNL     1      -2.098   8.145  -1.758  1.00  0.00     0.064 A 
ATOM     68  C   UNL     1      -2.443   8.207  -3.114  1.00  0.00     0.173 A 
ATOM     69  C   UNL     1      -3.124   7.912  -0.830  1.00  0.00     0.173 A 
ATOM     70  F   UNL     1      -1.498   8.455  -4.034  1.00  0.00    -0.203 F 
ATOM     71  C   UNL     1      -3.763   8.040  -3.528  1.00  0.00     0.198 A 
ATOM     72  C   UNL     1      -4.438   7.719  -1.247  1.00  0.00     0.198 A 
ATOM     73  F   UNL     1      -2.842   7.846   0.479  1.00  0.00    -0.203 F 
ATOM     74  F   UNL     1      -4.071   8.130  -4.828  1.00  0.00    -0.200 F 
ATOM     75  C   UNL     1      -4.757   7.786  -2.595  1.00  0.00     0.200 A 
ATOM     76  F   UNL     1      -5.394   7.460  -0.344  1.00  0.00    -0.200 F 
ATOM     77  F   UNL     1      -6.024   7.608  -2.994  1.00  0.00    -0.200 F 
ENDBRANCH  43  67
BRANCH  55  78
ATOM     78  C   UNL     1       2.224  13.572  -1.248  1.00  0.00     0.064 A 
ATOM     79  C   UNL     1       1.488  14.411  -0.399  1.00  0.00     0.173 A 
ATOM     80  C   UNL     1       2.825  14.139  -2.381  1.00  0.00     0.173 A 
ATOM     81  F   UNL     1       0.882  13.908   0.687  1.00  0.00    -0.203 F 
ATOM     82  C   UNL     1       1.345  15.766  -0.684  1.00  0.00     0.198 A 
ATOM     83  C   UNL     1       2.695  15.498  -2.653  1.00  0.00     0.198 A 
ATOM     84  F   UNL     1       3.539  13.375  -3.220  1.00  0.00    -0.203 F 
ATOM     85  F   UNL     1       0.609  16.544   0.120  1.00  0.00    -0.200 F 
ATOM     86  C   UNL     1       1.952  16.309  -1.808  1.00  0.00     0.200 A 
ATOM     87  F   UNL     1       3.285  16.022  -3.736  1.00  0.00    -0.200 F 
ATOM     88  F   UNL     1       1.813  17.613  -2.081  1.00  0.00    -0.200 F 
ENDBRANCH  55  78
ENDBRANCH  29  30
ENDBRANCH  22  24
ENDBRANCH  21  22
ENDBRANCH  20  21
ENDBRANCH   1  20
TORSDOF 14
