REMARK SMILES O=C(NC(=S)Nc1ccccc1C(=O)OCCOC(=O)c1ccc(-c2c3nc(c(-c4c(F)c(F)c(F)c(F)c4F)c4ccc([nH]4)c(-c4c(F)c(F)c(F)c(F)c4F)c4nc(c(-c5c(F)c(F)c(F)c(F)c5F)c5ccc2[nH]5)C=C4)C=C3)cc1)c1ccc2ccccc2c1
REMARK SMILES IDX 16 1 15 2 13 3 14 4 12 5 7 6 8 7 9 8 11 9 10 10 6 11 4 13
REMARK SMILES IDX 5 14 3 15 1 16 2 17 84 19 85 20 93 21 86 22 92 23 87 24
REMARK SMILES IDX 91 25 88 26 90 27 89 28 17 29 18 30 19 31 20 32 21 33 22 34
REMARK SMILES IDX 83 35 23 36 82 37 24 38 25 39 26 40 76 41 27 42 81 43 75 44
REMARK SMILES IDX 77 45 28 46 80 47 74 48 73 49 29 51 61 52 41 53 60 54 42 55
REMARK SMILES IDX 45 56 59 57 78 58 43 59 44 60 58 62 79 63 46 64 30 65 31 66
REMARK SMILES IDX 39 67 32 68 33 69 37 70 40 71 34 72 35 73 38 74 36 75 62 76
REMARK SMILES IDX 63 77 71 78 64 79 65 80 69 81 72 82 66 83 67 84 70 85 68 86
REMARK SMILES IDX 47 87 48 88 56 89 49 90 50 91 54 92 57 93 51 94 52 95 55 96
REMARK SMILES IDX 53 97
REMARK H PARENT 6 12 3 18 77 50 45 61
REMARK Flexibility Score: inf
ROOT
ATOM      1  C   UNL     1       3.545  -2.257   2.510  1.00  0.00     0.275 C 
ENDROOT
BRANCH   1   2
ATOM      2  O   UNL     1       4.276  -1.039   2.209  1.00  0.00    -0.458 OA
BRANCH   2   3
ATOM      3  C   UNL     1       3.464  -0.044   1.800  1.00  0.00     0.340 C 
ATOM      4  O   UNL     1       2.241  -0.113   1.783  1.00  0.00    -0.246 OA
BRANCH   3   5
ATOM      5  C   UNL     1       4.092   1.152   1.179  1.00  0.00     0.083 A 
ATOM      6  C   UNL     1       5.227   0.804  -0.395  1.00  0.00     0.055 A 
ATOM      7  C   UNL     1       5.258   2.146  -1.896  1.00  0.00     0.027 A 
ATOM      8  C   UNL     1       4.084   3.702  -1.548  1.00  0.00     0.002 A 
ATOM      9  C   UNL     1       2.890   2.691   1.491  1.00  0.00     0.018 A 
ATOM     10  C   UNL     1       2.937   4.048   0.015  1.00  0.00     0.001 A 
BRANCH   6  11
ATOM     11  N   UNL     1       5.400  -0.534  -0.794  1.00  0.00    -0.332 N 
ATOM     12  H   UNL     1       6.317  -0.829  -0.994  1.00  0.00     0.169 HD
BRANCH  11  13
ATOM     13  C   UNL     1       4.410  -1.450  -0.927  1.00  0.00     0.177 C 
ATOM     14  S   UNL     1       4.836  -3.062  -1.082  1.00  0.00    -0.040 S 
BRANCH  13  15
ATOM     15  N   UNL     1       3.059  -1.115  -1.012  1.00  0.00    -0.299 N 
ATOM     16  O   UNL     1       0.940  -0.315  -1.332  1.00  0.00    -0.269 OA
ATOM     17  C   UNL     1       2.125  -0.038  -1.129  1.00  0.00     0.257 C 
ATOM     18  H   UNL     1       2.543  -1.953  -0.977  1.00  0.00     0.172 HD
BRANCH  17  19
ATOM     19  C   UNL     1       2.448   1.421  -1.110  1.00  0.00     0.040 A 
ATOM     20  C   UNL     1       3.682   1.716  -0.986  1.00  0.00     0.014 A 
ATOM     21  C   UNL     1       3.109   2.192  -0.260  1.00  0.00     0.022 A 
ATOM     22  C   UNL     1       5.252   2.700  -0.134  1.00  0.00     0.009 A 
ATOM     23  C   UNL     1       4.518   3.284   0.807  1.00  0.00    -0.018 A 
ATOM     24  C   UNL     1       5.738   3.563   0.650  1.00  0.00    -0.018 A 
ATOM     25  C   UNL     1       4.623   4.209   2.158  1.00  0.00     0.009 A 
ATOM     26  C   UNL     1       6.453   4.808   0.491  1.00  0.00     0.009 A 
ATOM     27  C   UNL     1       5.559   5.226   2.551  1.00  0.00     0.001 A 
ATOM     28  C   UNL     1       6.447   5.616   1.587  1.00  0.00     0.001 A 
ENDBRANCH  17  19
ENDBRANCH  13  15
ENDBRANCH  11  13
ENDBRANCH   6  11
ENDBRANCH   3   5
ENDBRANCH   2   3
ENDBRANCH   1   2
BRANCH   1  29
ATOM     29  C   UNL     1       3.111  -2.378   3.975  1.00  0.00     0.275 C 
BRANCH  29  30
ATOM     30  O   UNL     1       2.120  -1.398   4.340  1.00  0.00    -0.458 OA
BRANCH  30  31
ATOM     31  C   UNL     1       2.610  -0.314   4.980  1.00  0.00     0.338 C 
ATOM     32  O   UNL     1       3.772  -0.108   5.297  1.00  0.00    -0.246 OA
BRANCH  31  33
ATOM     33  C   UNL     1       1.568   0.699   5.221  1.00  0.00     0.060 A 
ATOM     34  C   UNL     1       1.026   1.369   4.137  1.00  0.00     0.016 A 
ATOM     35  C   UNL     1       1.346   1.190   6.505  1.00  0.00     0.016 A 
ATOM     36  C   UNL     1       0.463   2.625   4.304  1.00  0.00     0.010 A 
ATOM     37  C   UNL     1       0.597   2.364   6.680  1.00  0.00     0.010 A 
ATOM     38  C   UNL     1       0.197   3.135   5.575  1.00  0.00    -0.014 A 
BRANCH  38  39
ATOM     39  C   UNL     1      -0.458   4.471   5.709  1.00  0.00     0.031 A 
ATOM     40  C   UNL     1       0.123   5.518   6.625  1.00  0.00     0.074 A 
ATOM     41  C   UNL     1      -1.552   4.774   4.976  1.00  0.00     0.049 A 
ATOM     42  N   UNL     1      -0.413   6.634   7.054  1.00  0.00    -0.248 NA
ATOM     43  C   UNL     1       1.477   5.271   7.145  1.00  0.00     0.031 C 
ATOM     44  C   UNL     1      -2.187   3.899   3.985  1.00  0.00     0.029 A 
ATOM     45  N   UNL     1      -2.324   5.911   4.935  1.00  0.00    -0.354 N 
ATOM     46  C   UNL     1       0.499   7.173   7.954  1.00  0.00     0.074 A 
ATOM     47  C   UNL     1       1.624   6.265   8.009  1.00  0.00     0.031 C 
ATOM     48  C   UNL     1      -3.190   4.550   3.386  1.00  0.00     0.029 A 
ATOM     49  C   UNL     1      -3.386   5.819   4.067  1.00  0.00     0.049 A 
ATOM     50  H   UNL     1      -2.134   6.713   5.474  1.00  0.00     0.167 HD
ATOM     51  C   UNL     1       0.393   8.318   8.674  1.00  0.00     0.037 A 
ATOM     52  C   UNL     1      -4.458   6.613   3.892  1.00  0.00     0.037 A 
ATOM     53  C   UNL     1      -0.713   9.237   8.562  1.00  0.00     0.049 A 
ATOM     54  C   UNL     1      -4.592   7.832   4.755  1.00  0.00     0.074 A 
ATOM     55  C   UNL     1      -0.916  10.429   9.234  1.00  0.00     0.029 A 
ATOM     56  N   UNL     1      -1.800   9.067   7.715  1.00  0.00    -0.354 N 
ATOM     57  N   UNL     1      -3.769   8.297   5.662  1.00  0.00    -0.248 NA
ATOM     58  C   UNL     1      -5.816   8.623   4.587  1.00  0.00     0.031 C 
ATOM     59  C   UNL     1      -2.157  10.945   8.845  1.00  0.00     0.029 A 
ATOM     60  C   UNL     1      -2.692  10.117   7.871  1.00  0.00     0.049 A 
ATOM     61  H   UNL     1      -1.920   8.313   7.094  1.00  0.00     0.167 HD
ATOM     62  C   UNL     1      -4.365   9.444   6.163  1.00  0.00     0.074 A 
ATOM     63  C   UNL     1      -5.607   9.617   5.437  1.00  0.00     0.031 C 
ATOM     64  C   UNL     1      -3.926  10.275   7.141  1.00  0.00     0.037 A 
BRANCH  51  65
ATOM     65  C   UNL     1       1.463   8.607   9.693  1.00  0.00     0.064 A 
ATOM     66  C   UNL     1       2.782   8.923   9.337  1.00  0.00     0.173 A 
ATOM     67  C   UNL     1       1.147   8.584  11.062  1.00  0.00     0.173 A 
ATOM     68  F   UNL     1       3.146   8.950   8.046  1.00  0.00    -0.203 F 
ATOM     69  C   UNL     1       3.751   9.165  10.311  1.00  0.00     0.198 A 
ATOM     70  C   UNL     1       2.107   8.865  12.031  1.00  0.00     0.198 A 
ATOM     71  F   UNL     1      -0.100   8.296  11.464  1.00  0.00    -0.203 F 
ATOM     72  F   UNL     1       5.019   9.401   9.947  1.00  0.00    -0.200 F 
ATOM     73  C   UNL     1       3.412   9.143  11.655  1.00  0.00     0.200 A 
ATOM     74  F   UNL     1       1.770   8.861  13.328  1.00  0.00    -0.200 F 
ATOM     75  F   UNL     1       4.343   9.380  12.589  1.00  0.00    -0.200 F 
ENDBRANCH  51  65
BRANCH  52  76
ATOM     76  C   UNL     1      -5.520   6.226   2.923  1.00  0.00     0.064 A 
ATOM     77  C   UNL     1      -5.785   7.006   1.790  1.00  0.00     0.173 A 
ATOM     78  C   UNL     1      -6.284   5.060   3.102  1.00  0.00     0.173 A 
ATOM     79  F   UNL     1      -5.103   8.142   1.585  1.00  0.00    -0.203 F 
ATOM     80  C   UNL     1      -6.778   6.642   0.882  1.00  0.00     0.198 A 
ATOM     81  C   UNL     1      -7.244   4.674   2.171  1.00  0.00     0.198 A 
ATOM     82  F   UNL     1      -6.074   4.274   4.169  1.00  0.00    -0.203 F 
ATOM     83  F   UNL     1      -7.044   7.432  -0.167  1.00  0.00    -0.200 F 
ATOM     84  C   UNL     1      -7.498   5.470   1.066  1.00  0.00     0.200 A 
ATOM     85  F   UNL     1      -7.918   3.529   2.342  1.00  0.00    -0.200 F 
ATOM     86  F   UNL     1      -8.441   5.114   0.183  1.00  0.00    -0.200 F 
ENDBRANCH  52  76
BRANCH  64  87
ATOM     87  C   UNL     1      -4.778  11.474   7.443  1.00  0.00     0.064 A 
ATOM     88  C   UNL     1      -6.037  11.355   8.049  1.00  0.00     0.173 A 
ATOM     89  C   UNL     1      -4.321  12.762   7.125  1.00  0.00     0.173 A 
ATOM     90  F   UNL     1      -6.529  10.145   8.355  1.00  0.00    -0.203 F 
ATOM     91  C   UNL     1      -6.824  12.479   8.288  1.00  0.00     0.198 A 
ATOM     92  C   UNL     1      -5.092  13.886   7.405  1.00  0.00     0.198 A 
ATOM     93  F   UNL     1      -3.121  12.932   6.549  1.00  0.00    -0.203 F 
ATOM     94  F   UNL     1      -8.053  12.335   8.802  1.00  0.00    -0.200 F 
ATOM     95  C   UNL     1      -6.348  13.742   7.974  1.00  0.00     0.200 A 
ATOM     96  F   UNL     1      -4.622  15.107   7.116  1.00  0.00    -0.200 F 
ATOM     97  F   UNL     1      -7.105  14.823   8.209  1.00  0.00    -0.200 F 
ENDBRANCH  64  87
ENDBRANCH  38  39
ENDBRANCH  31  33
ENDBRANCH  30  31
ENDBRANCH  29  30
ENDBRANCH   1  29
TORSDOF 15
