REMARK SMILES NS(=O)(=O)c1ccc(NS(=O)(=O)c2cccc(C(=O)OCCOC(=O)c3ccc(-c4c5nc(c(-c6c(F)c(F)c(F)c(F)c6F)c6ccc([nH]6)c(-c6c(F)c(F)c(F)c(F)c6F)c6nc(c(-c7c(F)c(F)c(F)c(F)c7F)c7ccc4[nH]7)C=C6)C=C5)cc3)c2)cc1
REMARK SMILES IDX 20 1 18 2 19 3 17 4 13 5 14 6 89 7 15 8 16 9 10 10 11 11
REMARK SMILES IDX 12 12 9 13 8 15 5 16 6 17 91 18 7 19 90 20 2 21 3 22 4 23
REMARK SMILES IDX 1 24 21 27 22 28 23 29 24 30 25 31 26 32 27 33 88 34 28 35
REMARK SMILES IDX 87 36 29 37 30 38 31 39 81 40 32 41 86 42 80 43 82 44 33 45
REMARK SMILES IDX 85 46 79 47 78 48 34 50 66 51 46 52 65 53 47 54 50 55 64 56
REMARK SMILES IDX 83 57 48 58 49 59 63 61 84 62 51 63 35 64 36 65 44 66 37 67
REMARK SMILES IDX 38 68 42 69 45 70 39 71 40 72 43 73 41 74 67 75 68 76 76 77
REMARK SMILES IDX 69 78 70 79 74 80 77 81 71 82 72 83 75 84 73 85 52 86 53 87
REMARK SMILES IDX 61 88 54 89 55 90 59 91 62 92 56 93 57 94 60 95 58 96
REMARK H PARENT 9 14 1 25 1 26 82 49 50 60
REMARK Flexibility Score: inf
ROOT
ATOM      1  O   UNL     1       7.830   2.616  -5.213  1.00  0.00    -0.458 OA
ENDROOT
BRANCH   1   2
ATOM      2  C   UNL     1       7.349   1.816  -6.197  1.00  0.00     0.338 C 
ATOM      3  O   UNL     1       7.971   0.947  -6.787  1.00  0.00    -0.246 OA
BRANCH   2   4
ATOM      4  C   UNL     1       5.892   2.037  -6.416  1.00  0.00     0.061 A 
ATOM      5  C   UNL     1       3.868   3.347  -6.312  1.00  0.00     0.088 A 
ATOM      6  C   UNL     1       3.126   2.278  -6.834  1.00  0.00     0.022 A 
ATOM      7  C   UNL     1       5.254   3.244  -6.115  1.00  0.00     0.038 A 
ATOM      8  C   UNL     1       3.762   1.079  -7.127  1.00  0.00     0.002 A 
ATOM      9  C   UNL     1       5.139   0.970  -6.942  1.00  0.00     0.016 A 
BRANCH   5  10
ATOM     10  S   UNL     1       3.016   4.848  -5.910  1.00  0.00     0.261 S 
ATOM     11  O   UNL     1       1.805   4.896  -6.703  1.00  0.00    -0.201 OA
ATOM     12  O   UNL     1       3.974   5.931  -5.984  1.00  0.00    -0.201 OA
BRANCH  10  13
ATOM     13  N   UNL     1       2.531   4.742  -4.280  1.00  0.00    -0.280 N 
ATOM     14  H   UNL     1       2.640   5.522  -3.689  1.00  0.00     0.180 HD
BRANCH  13  15
ATOM     15  C   UNL     1       1.965   3.530  -3.754  1.00  0.00     0.049 A 
ATOM     16  C   UNL     1       0.943   1.238  -2.509  1.00  0.00     0.082 A 
ATOM     17  C   UNL     1       2.229   1.222  -3.043  1.00  0.00     0.024 A 
ATOM     18  C   UNL     1       0.159   2.392  -2.586  1.00  0.00     0.024 A 
ATOM     19  C   UNL     1       2.748   2.382  -3.615  1.00  0.00     0.028 A 
ATOM     20  C   UNL     1       0.672   3.537  -3.214  1.00  0.00     0.028 A 
BRANCH  16  21
ATOM     21  S   UNL     1       0.341  -0.225  -1.717  1.00  0.00     0.238 S 
ATOM     22  O   UNL     1       0.964  -1.376  -2.322  1.00  0.00    -0.207 OA
ATOM     23  O   UNL     1      -1.088  -0.113  -1.531  1.00  0.00    -0.207 OA
BRANCH  21  24
ATOM     24  N   UNL     1       1.022  -0.080  -0.190  1.00  0.00    -0.225 NA
ATOM     25  H   UNL     1       0.748  -0.879   0.382  1.00  0.00     0.137 HD
ATOM     26  H   UNL     1       0.695   0.780   0.249  1.00  0.00     0.137 HD
ENDBRANCH  21  24
ENDBRANCH  16  21
ENDBRANCH  13  15
ENDBRANCH  10  13
ENDBRANCH   5  10
ENDBRANCH   2   4
ENDBRANCH   1   2
BRANCH   1  27
ATOM     27  C   UNL     1       9.222   2.436  -4.872  1.00  0.00     0.275 C 
BRANCH  27  28
ATOM     28  C   UNL     1       9.400   1.688  -3.547  1.00  0.00     0.275 C 
BRANCH  28  29
ATOM     29  O   UNL     1       9.000   0.308  -3.663  1.00  0.00    -0.458 OA
BRANCH  29  30
ATOM     30  C   UNL     1       7.754   0.040  -3.219  1.00  0.00     0.338 C 
ATOM     31  O   UNL     1       6.957   0.813  -2.712  1.00  0.00    -0.246 OA
BRANCH  30  32
ATOM     32  C   UNL     1       7.382  -1.339  -3.557  1.00  0.00     0.060 A 
ATOM     33  C   UNL     1       6.665  -1.522  -4.733  1.00  0.00     0.016 A 
ATOM     34  C   UNL     1       7.549  -2.394  -2.665  1.00  0.00     0.016 A 
ATOM     35  C   UNL     1       6.030  -2.729  -4.994  1.00  0.00     0.010 A 
ATOM     36  C   UNL     1       6.981  -3.640  -2.970  1.00  0.00     0.010 A 
ATOM     37  C   UNL     1       6.185  -3.812  -4.120  1.00  0.00    -0.014 A 
BRANCH  37  38
ATOM     38  C   UNL     1       5.477  -5.094  -4.399  1.00  0.00     0.031 A 
ATOM     39  C   UNL     1       4.497  -5.651  -3.400  1.00  0.00     0.074 A 
ATOM     40  C   UNL     1       5.684  -5.747  -5.560  1.00  0.00     0.049 A 
ATOM     41  N   UNL     1       3.907  -6.821  -3.376  1.00  0.00    -0.248 NA
ATOM     42  C   UNL     1       4.146  -4.783  -2.266  1.00  0.00     0.031 C 
ATOM     43  C   UNL     1       6.558  -5.293  -6.643  1.00  0.00     0.029 A 
ATOM     44  N   UNL     1       5.172  -6.933  -6.027  1.00  0.00    -0.354 N 
ATOM     45  C   UNL     1       3.158  -6.846  -2.206  1.00  0.00     0.074 A 
ATOM     46  C   UNL     1       3.383  -5.583  -1.536  1.00  0.00     0.031 C 
ATOM     47  C   UNL     1       6.498  -6.168  -7.657  1.00  0.00     0.029 A 
ATOM     48  C   UNL     1       5.663  -7.295  -7.259  1.00  0.00     0.049 A 
ATOM     49  H   UNL     1       4.517  -7.472  -5.528  1.00  0.00     0.167 HD
ATOM     50  C   UNL     1       2.355  -7.833  -1.738  1.00  0.00     0.037 A 
ATOM     51  C   UNL     1       5.505  -8.428  -7.969  1.00  0.00     0.037 A 
ATOM     52  C   UNL     1       2.101  -9.068  -2.437  1.00  0.00     0.049 A 
ATOM     53  C   UNL     1       4.662  -9.535  -7.398  1.00  0.00     0.074 A 
ATOM     54  C   UNL     1       1.289 -10.123  -2.058  1.00  0.00     0.029 A 
ATOM     55  N   UNL     1       2.649  -9.409  -3.665  1.00  0.00    -0.354 N 
ATOM     56  N   UNL     1       3.990  -9.568  -6.273  1.00  0.00    -0.248 NA
ATOM     57  C   UNL     1       4.567 -10.768  -8.190  1.00  0.00     0.031 C 
ATOM     58  C   UNL     1       1.395 -11.128  -3.026  1.00  0.00     0.029 A 
ATOM     59  C   UNL     1       2.215 -10.671  -4.044  1.00  0.00     0.049 A 
ATOM     60  H   UNL     1       3.257  -8.840  -4.190  1.00  0.00     0.167 HD
ATOM     61  C   UNL     1       3.372 -10.810  -6.234  1.00  0.00     0.074 A 
ATOM     62  C   UNL     1       3.735 -11.494  -7.458  1.00  0.00     0.031 C 
ATOM     63  C   UNL     1       2.577 -11.336  -5.270  1.00  0.00     0.037 A 
BRANCH  50  64
ATOM     64  C   UNL     1       1.724  -7.642  -0.385  1.00  0.00     0.064 A 
ATOM     65  C   UNL     1       0.721  -6.690  -0.153  1.00  0.00     0.173 A 
ATOM     66  C   UNL     1       2.114  -8.454   0.693  1.00  0.00     0.173 A 
ATOM     67  F   UNL     1       0.316  -5.880  -1.142  1.00  0.00    -0.203 F 
ATOM     68  C   UNL     1       0.160  -6.531   1.113  1.00  0.00     0.198 A 
ATOM     69  C   UNL     1       1.525  -8.319   1.947  1.00  0.00     0.198 A 
ATOM     70  F   UNL     1       3.064  -9.387   0.529  1.00  0.00    -0.203 F 
ATOM     71  F   UNL     1      -0.750  -5.571   1.326  1.00  0.00    -0.200 F 
ATOM     72  C   UNL     1       0.556  -7.351   2.159  1.00  0.00     0.200 A 
ATOM     73  F   UNL     1       1.899  -9.123   2.952  1.00  0.00    -0.200 F 
ATOM     74  F   UNL     1       0.012  -7.200   3.375  1.00  0.00    -0.200 F 
ENDBRANCH  50  64
BRANCH  51  75
ATOM     75  C   UNL     1       6.198  -8.590  -9.275  1.00  0.00     0.064 A 
ATOM     76  C   UNL     1       5.475  -8.693 -10.471  1.00  0.00     0.173 A 
ATOM     77  C   UNL     1       7.598  -8.655  -9.355  1.00  0.00     0.173 A 
ATOM     78  F   UNL     1       4.134  -8.662 -10.448  1.00  0.00    -0.203 F 
ATOM     79  C   UNL     1       6.123  -8.871 -11.692  1.00  0.00     0.198 A 
ATOM     80  C   UNL     1       8.247  -8.794 -10.580  1.00  0.00     0.198 A 
ATOM     81  F   UNL     1       8.341  -8.563  -8.242  1.00  0.00    -0.203 F 
ATOM     82  F   UNL     1       5.405  -9.019 -12.814  1.00  0.00    -0.200 F 
ATOM     83  C   UNL     1       7.508  -8.913 -11.747  1.00  0.00     0.200 A 
ATOM     84  F   UNL     1       9.585  -8.815 -10.628  1.00  0.00    -0.200 F 
ATOM     85  F   UNL     1       8.131  -9.076 -12.922  1.00  0.00    -0.200 F 
ENDBRANCH  51  75
BRANCH  63  86
ATOM     86  C   UNL     1       2.003 -12.701  -5.524  1.00  0.00     0.064 A 
ATOM     87  C   UNL     1       2.801 -13.855  -5.517  1.00  0.00     0.173 A 
ATOM     88  C   UNL     1       0.626 -12.858  -5.746  1.00  0.00     0.173 A 
ATOM     89  F   UNL     1       4.126 -13.758  -5.326  1.00  0.00    -0.203 F 
ATOM     90  C   UNL     1       2.247 -15.110  -5.755  1.00  0.00     0.198 A 
ATOM     91  C   UNL     1       0.070 -14.118  -5.947  1.00  0.00     0.198 A 
ATOM     92  F   UNL     1      -0.184 -11.789  -5.757  1.00  0.00    -0.203 F 
ATOM     93  F   UNL     1       3.038 -16.191  -5.801  1.00  0.00    -0.200 F 
ATOM     94  C   UNL     1       0.882 -15.242  -5.961  1.00  0.00     0.200 A 
ATOM     95  F   UNL     1      -1.252 -14.245  -6.128  1.00  0.00    -0.200 F 
ATOM     96  F   UNL     1       0.350 -16.452  -6.181  1.00  0.00    -0.200 F 
ENDBRANCH  63  86
ENDBRANCH  37  38
ENDBRANCH  30  32
ENDBRANCH  29  30
ENDBRANCH  28  29
ENDBRANCH  27  28
ENDBRANCH   1  27
TORSDOF 16
