REMARK SMILES CC[C@H](C)[C@@H](NC(=O)c1csc(NC(C)=O)n1)C(=O)OCCOC(=O)c1ccc(-c2c3nc(c(-c4c(F)c(F)c(F)c(F)c4F)c4ccc([nH]4)c(-c4c(F)c(F)c(F)c(F)c4F)c4nc(c(-c5c(F)c(F)c(F)c(F)c5F)c5ccc2[nH]5)C=C4)C=C3)cc1
REMARK SMILES IDX 21 1 20 2 18 3 19 4 5 5 3 6 4 7 2 8 1 9 6 10 7 11 8 13 9 14
REMARK SMILES IDX 10 15 17 16 11 17 12 18 13 19 14 20 15 22 16 23 22 24 23 25
REMARK SMILES IDX 24 26 25 27 26 28 27 29 88 30 28 31 87 32 29 33 30 34 31 35
REMARK SMILES IDX 81 36 32 37 86 38 80 39 82 40 33 41 85 42 79 43 78 44 34 46
REMARK SMILES IDX 66 47 46 48 65 49 47 50 50 51 64 52 83 53 48 54 49 55 63 57
REMARK SMILES IDX 84 58 51 59 35 60 36 61 44 62 37 63 38 64 42 65 45 66 39 67
REMARK SMILES IDX 40 68 43 69 41 70 67 71 68 72 76 73 69 74 70 75 74 76 77 77
REMARK SMILES IDX 71 78 72 79 75 80 73 81 52 82 53 83 61 84 54 85 55 86 59 87
REMARK SMILES IDX 62 88 56 89 57 90 60 91 58 92
REMARK H PARENT 6 12 13 21 82 45 50 56
REMARK Flexibility Score: inf
ROOT
ATOM      1  C   UNL     1       2.863   2.411   5.581  1.00  0.00     0.274 C 
ENDROOT
BRANCH   1   2
ATOM      2  O   UNL     1       2.525   1.432   4.573  1.00  0.00    -0.461 OA
BRANCH   2   3
ATOM      3  C   UNL     1       1.354   0.770   4.763  1.00  0.00     0.329 C 
ATOM      4  O   UNL     1       0.515   1.083   5.603  1.00  0.00    -0.250 OA
BRANCH   3   5
ATOM      5  C   UNL     1       1.151  -0.433   3.821  1.00  0.00     0.195 C 
BRANCH   5   6
ATOM      6  C   UNL     1       1.401  -0.035   2.316  1.00  0.00     0.019 C 
ATOM      7  C   UNL     1       1.064  -1.181   1.345  1.00  0.00     0.010 C 
BRANCH   6   8
ATOM      8  C   UNL     1       0.722   1.291   1.876  1.00  0.00     0.002 C 
ATOM      9  C   UNL     1      -0.536   1.190   1.020  1.00  0.00     0.004 C 
ENDBRANCH   6   8
ENDBRANCH   5   6
BRANCH   5  10
ATOM     10  N   UNL     1       1.944  -1.644   4.152  1.00  0.00    -0.337 N 
ATOM     11  C   UNL     1       2.238  -2.310   5.316  1.00  0.00     0.271 C 
ATOM     12  H   UNL     1       2.350  -2.063   3.359  1.00  0.00     0.164 HD
ATOM     13  O   UNL     1       2.581  -3.489   5.219  1.00  0.00    -0.267 OA
BRANCH  11  14
ATOM     14  C   UNL     1       2.341  -1.593   6.578  1.00  0.00     0.141 A 
ATOM     15  C   UNL     1       3.497  -1.607   7.341  1.00  0.00     0.102 A 
ATOM     16  N   UNL     1       1.312  -0.854   7.133  1.00  0.00    -0.215 NA
ATOM     17  S   UNL     1       3.344  -0.526   8.658  1.00  0.00    -0.104 S 
ATOM     18  C   UNL     1       1.776  -0.132   8.129  1.00  0.00     0.190 A 
BRANCH  18  19
ATOM     19  N   UNL     1       1.047   0.916   8.631  1.00  0.00    -0.302 N 
ATOM     20  C   UNL     1       1.526   1.951   9.399  1.00  0.00     0.223 C 
ATOM     21  H   UNL     1       0.085   0.928   8.421  1.00  0.00     0.172 HD
ATOM     22  C   UNL     1       0.491   3.017   9.665  1.00  0.00     0.114 C 
ATOM     23  O   UNL     1       2.667   2.090   9.830  1.00  0.00    -0.275 OA
ENDBRANCH  18  19
ENDBRANCH  11  14
ENDBRANCH   5  10
ENDBRANCH   3   5
ENDBRANCH   2   3
ENDBRANCH   1   2
BRANCH   1  24
ATOM     24  C   UNL     1       2.171   3.775   5.445  1.00  0.00     0.275 C 
BRANCH  24  25
ATOM     25  O   UNL     1       0.755   3.704   5.712  1.00  0.00    -0.458 OA
BRANCH  25  26
ATOM     26  C   UNL     1      -0.048   3.923   4.645  1.00  0.00     0.338 C 
ATOM     27  O   UNL     1       0.285   4.290   3.531  1.00  0.00    -0.246 OA
BRANCH  26  28
ATOM     28  C   UNL     1      -1.442   3.560   4.955  1.00  0.00     0.060 A 
ATOM     29  C   UNL     1      -1.939   2.338   4.488  1.00  0.00     0.016 A 
ATOM     30  C   UNL     1      -2.300   4.487   5.544  1.00  0.00     0.016 A 
ATOM     31  C   UNL     1      -3.293   2.039   4.582  1.00  0.00     0.010 A 
ATOM     32  C   UNL     1      -3.665   4.191   5.636  1.00  0.00     0.010 A 
ATOM     33  C   UNL     1      -4.170   2.979   5.129  1.00  0.00    -0.014 A 
BRANCH  33  34
ATOM     34  C   UNL     1      -5.628   2.745   5.040  1.00  0.00     0.031 A 
ATOM     35  C   UNL     1      -6.416   3.465   3.985  1.00  0.00     0.074 A 
ATOM     36  C   UNL     1      -6.231   1.866   5.859  1.00  0.00     0.049 A 
ATOM     37  N   UNL     1      -7.711   3.527   3.814  1.00  0.00    -0.248 NA
ATOM     38  C   UNL     1      -5.637   4.211   2.984  1.00  0.00     0.031 C 
ATOM     39  C   UNL     1      -5.553   1.036   6.852  1.00  0.00     0.029 A 
ATOM     40  N   UNL     1      -7.555   1.533   5.984  1.00  0.00    -0.354 N 
ATOM     41  C   UNL     1      -7.904   4.341   2.707  1.00  0.00     0.074 A 
ATOM     42  C   UNL     1      -6.595   4.750   2.244  1.00  0.00     0.031 C 
ATOM     43  C   UNL     1      -6.471   0.300   7.502  1.00  0.00     0.029 A 
ATOM     44  C   UNL     1      -7.799   0.649   7.005  1.00  0.00     0.049 A 
ATOM     45  H   UNL     1      -8.261   1.893   5.400  1.00  0.00     0.167 HD
ATOM     46  C   UNL     1      -9.072   4.716   2.134  1.00  0.00     0.037 A 
ATOM     47  C   UNL     1      -8.968   0.208   7.507  1.00  0.00     0.037 A 
ATOM     48  C   UNL     1     -10.368   4.293   2.594  1.00  0.00     0.049 A 
ATOM     49  C   UNL     1     -10.257   0.700   6.905  1.00  0.00     0.074 A 
ATOM     50  C   UNL     1     -11.615   4.635   2.102  1.00  0.00     0.029 A 
ATOM     51  N   UNL     1     -10.579   3.425   3.655  1.00  0.00    -0.354 N 
ATOM     52  N   UNL     1     -10.440   1.519   5.897  1.00  0.00    -0.248 NA
ATOM     53  C   UNL     1     -11.502   0.217   7.519  1.00  0.00     0.031 C 
ATOM     54  C   UNL     1     -12.583   3.997   2.886  1.00  0.00     0.029 A 
ATOM     55  C   UNL     1     -11.937   3.229   3.842  1.00  0.00     0.049 A 
ATOM     56  H   UNL     1      -9.868   3.011   4.196  1.00  0.00     0.167 HD
ATOM     57  C   UNL     1     -11.814   1.639   5.746  1.00  0.00     0.074 A 
ATOM     58  C   UNL     1     -12.420   0.796   6.757  1.00  0.00     0.031 C 
ATOM     59  C   UNL     1     -12.514   2.381   4.854  1.00  0.00     0.037 A 
BRANCH  46  60
ATOM     60  C   UNL     1      -8.998   5.665   0.977  1.00  0.00     0.064 A 
ATOM     61  C   UNL     1      -8.584   5.247  -0.295  1.00  0.00     0.173 A 
ATOM     62  C   UNL     1      -9.364   7.009   1.143  1.00  0.00     0.173 A 
ATOM     63  F   UNL     1      -8.205   3.977  -0.499  1.00  0.00    -0.203 F 
ATOM     64  C   UNL     1      -8.521   6.147  -1.357  1.00  0.00     0.198 A 
ATOM     65  C   UNL     1      -9.321   7.900   0.075  1.00  0.00     0.198 A 
ATOM     66  F   UNL     1      -9.765   7.457   2.342  1.00  0.00    -0.203 F 
ATOM     67  F   UNL     1      -8.085   5.737  -2.556  1.00  0.00    -0.200 F 
ATOM     68  C   UNL     1      -8.895   7.470  -1.173  1.00  0.00     0.200 A 
ATOM     69  F   UNL     1      -9.688   9.177   0.254  1.00  0.00    -0.200 F 
ATOM     70  F   UNL     1      -8.835   8.334  -2.196  1.00  0.00    -0.200 F 
ENDBRANCH  46  60
BRANCH  47  71
ATOM     71  C   UNL     1      -8.971  -0.709   8.674  1.00  0.00     0.064 A 
ATOM     72  C   UNL     1      -9.376  -2.044   8.546  1.00  0.00     0.173 A 
ATOM     73  C   UNL     1      -8.572  -0.266   9.944  1.00  0.00     0.173 A 
ATOM     74  F   UNL     1      -9.791  -2.506   7.358  1.00  0.00    -0.203 F 
ATOM     75  C   UNL     1      -9.390  -2.899   9.646  1.00  0.00     0.198 A 
ATOM     76  C   UNL     1      -8.563  -1.127  11.038  1.00  0.00     0.198 A 
ATOM     77  F   UNL     1      -8.181   1.005  10.119  1.00  0.00    -0.203 F 
ATOM     78  F   UNL     1      -9.818  -4.161   9.506  1.00  0.00    -0.200 F 
ATOM     79  C   UNL     1      -8.978  -2.442  10.890  1.00  0.00     0.200 A 
ATOM     80  F   UNL     1      -8.154  -0.684  12.234  1.00  0.00    -0.200 F 
ATOM     81  F   UNL     1      -8.987  -3.266  11.946  1.00  0.00    -0.200 F 
ENDBRANCH  47  71
BRANCH  59  82
ATOM     82  C   UNL     1     -14.008   2.295   4.915  1.00  0.00     0.064 A 
ATOM     83  C   UNL     1     -14.737   2.943   5.922  1.00  0.00     0.173 A 
ATOM     84  C   UNL     1     -14.720   1.590   3.933  1.00  0.00     0.173 A 
ATOM     85  F   UNL     1     -14.099   3.615   6.891  1.00  0.00    -0.203 F 
ATOM     86  C   UNL     1     -16.127   2.873   5.954  1.00  0.00     0.198 A 
ATOM     87  C   UNL     1     -16.110   1.542   3.955  1.00  0.00     0.198 A 
ATOM     88  F   UNL     1     -14.065   0.959   2.947  1.00  0.00    -0.203 F 
ATOM     89  F   UNL     1     -16.804   3.468   6.946  1.00  0.00    -0.200 F 
ATOM     90  C   UNL     1     -16.812   2.178   4.967  1.00  0.00     0.200 A 
ATOM     91  F   UNL     1     -16.771   0.878   2.996  1.00  0.00    -0.200 F 
ATOM     92  F   UNL     1     -18.151   2.116   4.997  1.00  0.00    -0.200 F 
ENDBRANCH  59  82
ENDBRANCH  33  34
ENDBRANCH  26  28
ENDBRANCH  25  26
ENDBRANCH  24  25
ENDBRANCH   1  24
TORSDOF 16
