REMARK SMILES COc1cccc(C[N@@H+]2C[C@H](C(=O)OCCOC(=O)c3ccc(-c4c5nc(c(-c6c(F)c(F)c(F)c(F)c6F)c6ccc([nH]6)c(-c6c(F)c(F)c(F)c(F)c6F)c6nc(c(-c7c(F)c(F)c(F)c(F)c7F)c7ccc4[nH]7)C=C6)C=C5)cc3)C3(CC[NH+](C)CC3)C2)c1
REMARK SMILES IDX 15 1 14 2 12 3 13 4 11 5 9 6 10 7 90 8 83 10 84 11 89 12
REMARK SMILES IDX 85 13 88 14 86 15 87 16 8 18 7 19 3 20 4 21 91 22 5 23 6 24
REMARK SMILES IDX 2 25 1 26 16 27 17 28 18 29 19 30 20 31 21 32 82 33 22 34
REMARK SMILES IDX 81 35 23 36 24 37 25 38 75 39 26 40 80 41 74 42 76 43 27 44
REMARK SMILES IDX 79 45 73 46 72 47 28 49 60 50 40 51 59 52 41 53 44 54 58 55
REMARK SMILES IDX 77 56 42 57 43 58 57 60 78 61 45 62 29 63 30 64 38 65 31 66
REMARK SMILES IDX 32 67 36 68 39 69 33 70 34 71 37 72 35 73 61 74 62 75 70 76
REMARK SMILES IDX 63 77 64 78 68 79 71 80 65 81 66 82 69 83 67 84 46 85 47 86
REMARK SMILES IDX 55 87 48 88 49 89 53 90 56 91 50 92 51 93 54 94 52 95
REMARK H PARENT 9 9 86 17 76 48 44 59
REMARK Flexibility Score: inf
ROOT
ATOM      1  C   UNL     1       1.731  -9.311   3.662  1.00  0.00     0.274 C 
ENDROOT
BRANCH   1   2
ATOM      2  O   UNL     1       2.942  -8.688   3.147  1.00  0.00    -0.462 OA
BRANCH   2   3
ATOM      3  C   UNL     1       2.800  -7.678   2.235  1.00  0.00     0.315 C 
ATOM      4  O   UNL     1       1.720  -7.336   1.770  1.00  0.00    -0.252 OA
BRANCH   3   5
ATOM      5  C   UNL     1       4.151  -7.010   1.899  1.00  0.00     0.166 C 
ATOM      6  N   UNL     1       4.443  -5.220   0.276  1.00  0.00    -0.330 N 
ATOM      7  C   UNL     1       4.139  -6.638   0.407  1.00  0.00     0.278 C 
ATOM      8  C   UNL     1       4.519  -4.588   1.581  1.00  0.00     0.271 C 
ATOM      9  H   UNL     1       5.374  -5.178  -0.139  1.00  0.00     0.348 HD
ATOM     10  C   UNL     1       4.512  -5.693   2.657  1.00  0.00     0.049 C 
ATOM     11  C   UNL     1       5.921  -5.712   3.324  1.00  0.00     0.075 C 
ATOM     12  C   UNL     1       3.503  -5.332   3.755  1.00  0.00     0.075 C 
ATOM     13  C   UNL     1       6.016  -6.537   4.611  1.00  0.00     0.262 C 
ATOM     14  C   UNL     1       3.674  -6.246   4.961  1.00  0.00     0.262 C 
ATOM     15  N   UNL     1       4.978  -6.247   5.588  1.00  0.00    -0.337 N 
ATOM     16  C   UNL     1       5.165  -5.043   6.382  1.00  0.00     0.332 C 
ATOM     17  H   UNL     1       5.049  -7.007   6.265  1.00  0.00     0.347 HD
BRANCH   6  18
ATOM     18  C   UNL     1       3.675  -4.472  -0.732  1.00  0.00     0.299 C 
BRANCH  18  19
ATOM     19  C   UNL     1       2.295  -3.984  -0.316  1.00  0.00     0.010 A 
ATOM     20  C   UNL     1       0.844  -2.192   0.485  1.00  0.00     0.119 A 
ATOM     21  C   UNL     1      -0.199  -3.101   0.644  1.00  0.00     0.046 A 
ATOM     22  C   UNL     1       2.089  -2.631   0.023  1.00  0.00     0.056 A 
ATOM     23  C   UNL     1      -0.019  -4.434   0.283  1.00  0.00     0.004 A 
ATOM     24  C   UNL     1       1.214  -4.867  -0.208  1.00  0.00     0.010 A 
BRANCH  20  25
ATOM     25  O   UNL     1       0.583  -0.906   0.874  1.00  0.00    -0.497 OA
ATOM     26  C   UNL     1       1.060   0.072  -0.047  1.00  0.00     0.278 C 
ENDBRANCH  20  25
ENDBRANCH  18  19
ENDBRANCH   6  18
ENDBRANCH   3   5
ENDBRANCH   2   3
ENDBRANCH   1   2
BRANCH   1  27
ATOM     27  C   UNL     1       1.649  -9.243   5.204  1.00  0.00     0.275 C 
BRANCH  27  28
ATOM     28  O   UNL     1       1.167  -7.951   5.643  1.00  0.00    -0.458 OA
BRANCH  28  29
ATOM     29  C   UNL     1       1.125  -7.751   6.994  1.00  0.00     0.338 C 
ATOM     30  O   UNL     1       1.303  -8.614   7.845  1.00  0.00    -0.246 OA
BRANCH  29  31
ATOM     31  C   UNL     1       1.018  -6.287   7.312  1.00  0.00     0.060 A 
ATOM     32  C   UNL     1       0.855  -5.360   6.286  1.00  0.00     0.016 A 
ATOM     33  C   UNL     1       1.335  -5.811   8.592  1.00  0.00     0.016 A 
ATOM     34  C   UNL     1       1.278  -4.041   6.481  1.00  0.00     0.010 A 
ATOM     35  C   UNL     1       1.559  -4.434   8.816  1.00  0.00     0.010 A 
ATOM     36  C   UNL     1       1.595  -3.522   7.747  1.00  0.00    -0.014 A 
BRANCH  36  37
ATOM     37  C   UNL     1       1.954  -2.065   7.928  1.00  0.00     0.031 A 
ATOM     38  C   UNL     1       3.118  -1.625   8.802  1.00  0.00     0.074 A 
ATOM     39  C   UNL     1       1.266  -1.094   7.280  1.00  0.00     0.049 A 
ATOM     40  N   UNL     1       3.390  -0.439   9.298  1.00  0.00    -0.248 NA
ATOM     41  C   UNL     1       4.117  -2.643   9.153  1.00  0.00     0.031 C 
ATOM     42  C   UNL     1       0.191  -1.306   6.309  1.00  0.00     0.029 A 
ATOM     43  N   UNL     1       1.369   0.281   7.338  1.00  0.00    -0.354 N 
ATOM     44  C   UNL     1       4.549  -0.585  10.058  1.00  0.00     0.074 A 
ATOM     45  C   UNL     1       4.952  -1.969   9.933  1.00  0.00     0.031 C 
ATOM     46  C   UNL     1      -0.208  -0.133   5.810  1.00  0.00     0.029 A 
ATOM     47  C   UNL     1       0.419   0.927   6.580  1.00  0.00     0.049 A 
ATOM     48  H   UNL     1       2.053   0.752   7.867  1.00  0.00     0.167 HD
ATOM     49  C   UNL     1       5.197   0.340  10.814  1.00  0.00     0.037 A 
ATOM     50  C   UNL     1      -0.016   2.202   6.579  1.00  0.00     0.037 A 
ATOM     51  C   UNL     1       4.795   1.722  10.922  1.00  0.00     0.049 A 
ATOM     52  C   UNL     1       0.598   3.178   7.533  1.00  0.00     0.074 A 
ATOM     53  C   UNL     1       5.333   2.727  11.710  1.00  0.00     0.029 A 
ATOM     54  N   UNL     1       3.752   2.296  10.209  1.00  0.00    -0.354 N 
ATOM     55  N   UNL     1       1.588   2.998   8.372  1.00  0.00    -0.248 NA
ATOM     56  C   UNL     1       0.012   4.522   7.568  1.00  0.00     0.031 C 
ATOM     57  C   UNL     1       4.580   3.890  11.517  1.00  0.00     0.029 A 
ATOM     58  C   UNL     1       3.615   3.631  10.558  1.00  0.00     0.049 A 
ATOM     59  H   UNL     1       3.191   1.824   9.552  1.00  0.00     0.167 HD
ATOM     60  C   UNL     1       1.753   4.208   9.027  1.00  0.00     0.074 A 
ATOM     61  C   UNL     1       0.772   5.120   8.474  1.00  0.00     0.031 C 
ATOM     62  C   UNL     1       2.638   4.531  10.001  1.00  0.00     0.037 A 
BRANCH  49  63
ATOM     63  C   UNL     1       6.356  -0.120  11.661  1.00  0.00     0.064 A 
ATOM     64  C   UNL     1       7.604  -0.458  11.119  1.00  0.00     0.173 A 
ATOM     65  C   UNL     1       6.220  -0.177  13.060  1.00  0.00     0.173 A 
ATOM     66  F   UNL     1       7.793  -0.429   9.791  1.00  0.00    -0.203 F 
ATOM     67  C   UNL     1       8.661  -0.859  11.939  1.00  0.00     0.198 A 
ATOM     68  C   UNL     1       7.285  -0.550  13.878  1.00  0.00     0.198 A 
ATOM     69  F   UNL     1       5.054   0.147  13.639  1.00  0.00    -0.203 F 
ATOM     70  F   UNL     1       9.832  -1.218  11.394  1.00  0.00    -0.200 F 
ATOM     71  C   UNL     1       8.502  -0.899  13.316  1.00  0.00     0.200 A 
ATOM     72  F   UNL     1       7.131  -0.570  15.209  1.00  0.00    -0.200 F 
ATOM     73  F   UNL     1       9.520  -1.279  14.102  1.00  0.00    -0.200 F 
ENDBRANCH  49  63
BRANCH  50  74
ATOM     74  C   UNL     1      -1.192   2.571   5.740  1.00  0.00     0.064 A 
ATOM     75  C   UNL     1      -1.077   3.470   4.673  1.00  0.00     0.173 A 
ATOM     76  C   UNL     1      -2.455   1.997   5.973  1.00  0.00     0.173 A 
ATOM     77  F   UNL     1       0.095   4.075   4.430  1.00  0.00    -0.203 F 
ATOM     78  C   UNL     1      -2.175   3.772   3.867  1.00  0.00     0.198 A 
ATOM     79  C   UNL     1      -3.538   2.264   5.139  1.00  0.00     0.198 A 
ATOM     80  F   UNL     1      -2.627   1.137   6.988  1.00  0.00    -0.203 F 
ATOM     81  F   UNL     1      -2.048   4.665   2.876  1.00  0.00    -0.200 F 
ATOM     82  C   UNL     1      -3.398   3.157   4.090  1.00  0.00     0.200 A 
ATOM     83  F   UNL     1      -4.708   1.646   5.347  1.00  0.00    -0.200 F 
ATOM     84  F   UNL     1      -4.443   3.428   3.297  1.00  0.00    -0.200 F 
ENDBRANCH  50  74
BRANCH  62  85
ATOM     85  C   UNL     1       2.618   5.948  10.490  1.00  0.00     0.064 A 
ATOM     86  C   UNL     1       1.572   6.444  11.282  1.00  0.00     0.173 A 
ATOM     87  C   UNL     1       3.665   6.822  10.158  1.00  0.00     0.173 A 
ATOM     88  F   UNL     1       0.538   5.654  11.607  1.00  0.00    -0.203 F 
ATOM     89  C   UNL     1       1.559   7.773  11.696  1.00  0.00     0.198 A 
ATOM     90  C   UNL     1       3.664   8.141  10.601  1.00  0.00     0.198 A 
ATOM     91  F   UNL     1       4.689   6.395   9.404  1.00  0.00    -0.203 F 
ATOM     92  F   UNL     1       0.520   8.243  12.401  1.00  0.00    -0.200 F 
ATOM     93  C   UNL     1       2.607   8.618  11.361  1.00  0.00     0.200 A 
ATOM     94  F   UNL     1       4.682   8.952  10.284  1.00  0.00    -0.200 F 
ATOM     95  F   UNL     1       2.592   9.897  11.759  1.00  0.00    -0.200 F 
ENDBRANCH  62  85
ENDBRANCH  36  37
ENDBRANCH  29  31
ENDBRANCH  28  29
ENDBRANCH  27  28
ENDBRANCH   1  27
TORSDOF 14
