REMARK SMILES CCn1c(C(=O)OCCOC(=O)c2ccc(-c3c4nc(c(-c5c(F)c(F)c(F)c(F)c5F)c5ccc([nH]5)c(-c5c(F)c(F)c(F)c(F)c5F)c5nc(c(-c6c(F)c(F)c(F)c(F)c6F)c6ccc3[nH]6)C=C5)C=C4)cc2)c(CC(=O)Nc2ccccc2OC)c2ccccc21
REMARK SMILES IDX 8 1 7 2 5 3 6 4 4 5 3 6 94 7 76 8 89 9 93 10 90 11 92 12
REMARK SMILES IDX 91 13 2 14 1 15 77 16 78 17 79 18 80 19 81 21 82 22 86 23
REMARK SMILES IDX 83 24 85 25 84 26 87 27 88 28 9 29 10 30 11 31 12 32 13 33
REMARK SMILES IDX 14 34 75 35 15 36 74 37 16 38 17 39 18 40 68 41 19 42 73 43
REMARK SMILES IDX 67 44 69 45 20 46 72 47 66 48 65 49 21 51 53 52 33 53 52 54
REMARK SMILES IDX 34 55 37 56 51 57 70 58 35 59 36 60 50 62 71 63 38 64 22 65
REMARK SMILES IDX 23 66 31 67 24 68 25 69 29 70 32 71 26 72 27 73 30 74 28 75
REMARK SMILES IDX 54 76 55 77 63 78 56 79 57 80 61 81 64 82 58 83 59 84 62 85
REMARK SMILES IDX 60 86 39 87 40 88 48 89 41 90 42 91 46 92 49 93 43 94 44 95
REMARK SMILES IDX 47 96 45 97
REMARK H PARENT 80 20 69 50 37 61
REMARK Flexibility Score: inf
ROOT
ATOM      1  C   UNL     1       1.946   2.177   1.277  1.00  0.00     0.275 C 
ENDROOT
BRANCH   1   2
ATOM      2  O   UNL     1       1.225   0.913   1.319  1.00  0.00    -0.457 OA
BRANCH   2   3
ATOM      3  C   UNL     1       1.919  -0.109   1.888  1.00  0.00     0.355 C 
ATOM      4  O   UNL     1       2.933   0.094   2.531  1.00  0.00    -0.244 OA
BRANCH   3   5
ATOM      5  C   UNL     1       1.331  -1.444   1.720  1.00  0.00     0.132 A 
ATOM      6  N   UNL     1       0.885  -2.147   0.611  1.00  0.00    -0.335 N 
ATOM      7  C   UNL     1       0.727  -3.506   0.940  1.00  0.00     0.049 A 
ATOM      8  C   UNL     1       1.196  -2.343   2.787  1.00  0.00     0.002 A 
ATOM      9  C   UNL     1       1.019  -3.648   2.288  1.00  0.00     0.004 A 
ATOM     10  C   UNL     1       0.326  -4.622   0.180  1.00  0.00     0.027 A 
ATOM     11  C   UNL     1       1.011  -4.925   2.888  1.00  0.00     0.010 A 
ATOM     12  C   UNL     1       0.274  -5.878   0.806  1.00  0.00     0.002 A 
ATOM     13  C   UNL     1       0.637  -6.035   2.137  1.00  0.00     0.001 A 
BRANCH   6  14
ATOM     14  C   UNL     1       0.543  -1.694  -0.727  1.00  0.00     0.119 C 
ATOM     15  C   UNL     1       0.897  -0.297  -1.183  1.00  0.00     0.027 C 
ENDBRANCH   6  14
BRANCH   8  16
ATOM     16  C   UNL     1       1.293  -1.988   4.217  1.00  0.00     0.139 C 
BRANCH  16  17
ATOM     17  C   UNL     1       0.220  -2.502   5.168  1.00  0.00     0.229 C 
ATOM     18  O   UNL     1       0.412  -3.505   5.864  1.00  0.00    -0.274 OA
ATOM     19  N   UNL     1      -0.888  -1.726   5.418  1.00  0.00    -0.323 N 
ATOM     20  H   UNL     1      -1.380  -1.919   6.248  1.00  0.00     0.170 HD
BRANCH  19  21
ATOM     21  C   UNL     1      -1.394  -0.687   4.619  1.00  0.00     0.083 A 
ATOM     22  C   UNL     1      -1.509  -0.941   3.243  1.00  0.00     0.030 A 
ATOM     23  C   UNL     1      -1.821   0.552   5.113  1.00  0.00     0.142 A 
ATOM     24  C   UNL     1      -1.871   0.050   2.336  1.00  0.00     0.002 A 
ATOM     25  C   UNL     1      -2.203   1.540   4.184  1.00  0.00     0.048 A 
ATOM     26  C   UNL     1      -2.195   1.308   2.808  1.00  0.00     0.004 A 
BRANCH  23  27
ATOM     27  O   UNL     1      -1.860   1.036   6.391  1.00  0.00    -0.495 OA
ATOM     28  C   UNL     1      -1.490   0.233   7.492  1.00  0.00     0.278 C 
ENDBRANCH  23  27
ENDBRANCH  19  21
ENDBRANCH  16  17
ENDBRANCH   8  16
ENDBRANCH   3   5
ENDBRANCH   2   3
ENDBRANCH   1   2
BRANCH   1  29
ATOM     29  C   UNL     1       1.613   3.154   2.415  1.00  0.00     0.275 C 
BRANCH  29  30
ATOM     30  O   UNL     1       2.490   2.955   3.539  1.00  0.00    -0.458 OA
BRANCH  30  31
ATOM     31  C   UNL     1       1.960   2.268   4.577  1.00  0.00     0.338 C 
ATOM     32  O   UNL     1       0.778   1.996   4.711  1.00  0.00    -0.246 OA
BRANCH  31  33
ATOM     33  C   UNL     1       3.024   1.619   5.390  1.00  0.00     0.060 A 
ATOM     34  C   UNL     1       4.356   1.684   4.978  1.00  0.00     0.016 A 
ATOM     35  C   UNL     1       2.597   0.520   6.119  1.00  0.00     0.016 A 
ATOM     36  C   UNL     1       5.055   0.488   4.799  1.00  0.00     0.010 A 
ATOM     37  C   UNL     1       3.337  -0.645   6.005  1.00  0.00     0.010 A 
ATOM     38  C   UNL     1       4.435  -0.714   5.122  1.00  0.00    -0.014 A 
BRANCH  38  39
ATOM     39  C   UNL     1       4.913  -2.040   4.650  1.00  0.00     0.031 A 
ATOM     40  C   UNL     1       5.030  -3.001   5.769  1.00  0.00     0.074 A 
ATOM     41  C   UNL     1       5.151  -2.560   3.414  1.00  0.00     0.049 A 
ATOM     42  N   UNL     1       6.014  -2.994   6.602  1.00  0.00    -0.248 NA
ATOM     43  C   UNL     1       3.911  -3.865   6.167  1.00  0.00     0.031 C 
ATOM     44  C   UNL     1       4.915  -2.060   2.060  1.00  0.00     0.029 A 
ATOM     45  N   UNL     1       5.714  -3.789   3.149  1.00  0.00    -0.354 N 
ATOM     46  C   UNL     1       5.719  -3.968   7.530  1.00  0.00     0.074 A 
ATOM     47  C   UNL     1       4.316  -4.245   7.382  1.00  0.00     0.031 C 
ATOM     48  C   UNL     1       5.148  -3.032   1.137  1.00  0.00     0.029 A 
ATOM     49  C   UNL     1       5.764  -4.162   1.806  1.00  0.00     0.049 A 
ATOM     50  H   UNL     1       6.062  -4.369   3.865  1.00  0.00     0.167 HD
ATOM     51  C   UNL     1       6.707  -4.646   8.169  1.00  0.00     0.037 A 
ATOM     52  C   UNL     1       6.373  -5.261   1.277  1.00  0.00     0.037 A 
ATOM     53  C   UNL     1       8.008  -4.114   7.827  1.00  0.00     0.049 A 
ATOM     54  C   UNL     1       7.428  -5.653   2.243  1.00  0.00     0.074 A 
ATOM     55  C   UNL     1       8.604  -2.873   7.963  1.00  0.00     0.029 A 
ATOM     56  N   UNL     1       8.710  -4.749   6.826  1.00  0.00    -0.354 N 
ATOM     57  N   UNL     1       8.503  -4.950   2.461  1.00  0.00    -0.248 NA
ATOM     58  C   UNL     1       7.077  -6.606   3.281  1.00  0.00     0.031 C 
ATOM     59  C   UNL     1       9.285  -2.648   6.727  1.00  0.00     0.029 A 
ATOM     60  C   UNL     1       9.141  -3.790   5.939  1.00  0.00     0.049 A 
ATOM     61  H   UNL     1       8.873  -5.718   6.757  1.00  0.00     0.167 HD
ATOM     62  C   UNL     1       8.689  -5.025   3.831  1.00  0.00     0.074 A 
ATOM     63  C   UNL     1       7.842  -6.134   4.269  1.00  0.00     0.031 C 
ATOM     64  C   UNL     1       9.286  -4.007   4.516  1.00  0.00     0.037 A 
BRANCH  51  65
ATOM     65  C   UNL     1       6.521  -5.967   8.847  1.00  0.00     0.064 A 
ATOM     66  C   UNL     1       7.478  -6.391   9.782  1.00  0.00     0.173 A 
ATOM     67  C   UNL     1       5.543  -6.918   8.488  1.00  0.00     0.173 A 
ATOM     68  F   UNL     1       8.472  -5.573  10.159  1.00  0.00    -0.203 F 
ATOM     69  C   UNL     1       7.468  -7.685  10.304  1.00  0.00     0.198 A 
ATOM     70  C   UNL     1       5.495  -8.185   9.062  1.00  0.00     0.198 A 
ATOM     71  F   UNL     1       4.668  -6.703   7.498  1.00  0.00    -0.203 F 
ATOM     72  F   UNL     1       8.456  -8.080  11.117  1.00  0.00    -0.200 F 
ATOM     73  C   UNL     1       6.471  -8.577   9.952  1.00  0.00     0.200 A 
ATOM     74  F   UNL     1       4.532  -9.041   8.692  1.00  0.00    -0.200 F 
ATOM     75  F   UNL     1       6.477  -9.828  10.430  1.00  0.00    -0.200 F 
ENDBRANCH  51  65
BRANCH  52  76
ATOM     76  C   UNL     1       6.097  -6.102   0.083  1.00  0.00     0.064 A 
ATOM     77  C   UNL     1       7.064  -6.991  -0.431  1.00  0.00     0.173 A 
ATOM     78  C   UNL     1       4.778  -6.304  -0.356  1.00  0.00     0.173 A 
ATOM     79  F   UNL     1       8.346  -6.894  -0.050  1.00  0.00    -0.203 F 
ATOM     80  C   UNL     1       6.722  -8.048  -1.284  1.00  0.00     0.198 A 
ATOM     81  C   UNL     1       4.435  -7.364  -1.205  1.00  0.00     0.198 A 
ATOM     82  F   UNL     1       3.785  -5.535   0.110  1.00  0.00    -0.203 F 
ATOM     83  F   UNL     1       7.662  -8.914  -1.692  1.00  0.00    -0.200 F 
ATOM     84  C   UNL     1       5.403  -8.246  -1.654  1.00  0.00     0.200 A 
ATOM     85  F   UNL     1       3.151  -7.568  -1.534  1.00  0.00    -0.200 F 
ATOM     86  F   UNL     1       5.061  -9.302  -2.406  1.00  0.00    -0.200 F 
ENDBRANCH  52  76
BRANCH  64  87
ATOM     87  C   UNL     1       9.946  -2.908   3.714  1.00  0.00     0.064 A 
ATOM     88  C   UNL     1       9.271  -2.074   2.802  1.00  0.00     0.173 A 
ATOM     89  C   UNL     1      11.283  -2.590   3.986  1.00  0.00     0.173 A 
ATOM     90  F   UNL     1       7.973  -2.245   2.538  1.00  0.00    -0.203 F 
ATOM     91  C   UNL     1       9.907  -1.000   2.178  1.00  0.00     0.198 A 
ATOM     92  C   UNL     1      11.908  -1.495   3.389  1.00  0.00     0.198 A 
ATOM     93  F   UNL     1      11.978  -3.317   4.875  1.00  0.00    -0.203 F 
ATOM     94  F   UNL     1       9.232  -0.229   1.312  1.00  0.00    -0.200 F 
ATOM     95  C   UNL     1      11.223  -0.705   2.481  1.00  0.00     0.200 A 
ATOM     96  F   UNL     1      13.170  -1.187   3.720  1.00  0.00    -0.200 F 
ATOM     97  F   UNL     1      11.822   0.354   1.919  1.00  0.00    -0.200 F 
ENDBRANCH  64  87
ENDBRANCH  38  39
ENDBRANCH  31  33
ENDBRANCH  30  31
ENDBRANCH  29  30
ENDBRANCH   1  29
TORSDOF 16
