REMARK SMILES Cc1ccc(S(=O)(=O)N2CCN(C(=O)[C@H]3CCCC[C@H]3C(=O)OCCOC(=O)c3ccc(-c4c5nc(c(-c6c(F)c(F)c(F)c(F)c6F)c6ccc([nH]6)c(-c6c(F)c(F)c(F)c(F)c6F)c6nc(c(-c7c(F)c(F)c(F)c(F)c7F)c7ccc4[nH]7)C=C6)C=C5)cc3)CC2)cc1C
REMARK SMILES IDX 24 1 23 2 21 3 22 4 20 5 15 6 16 7 17 8 19 9 18 10 13 11
REMARK SMILES IDX 9 12 10 13 93 14 11 15 92 16 12 17 14 18 6 19 7 20 8 21 5 22
REMARK SMILES IDX 1 23 2 24 3 25 95 26 4 27 94 28 96 29 25 30 26 31 27 32
REMARK SMILES IDX 28 33 29 34 30 35 91 36 31 37 90 38 32 39 33 40 34 41 84 42
REMARK SMILES IDX 35 43 89 44 83 45 85 46 36 47 88 48 82 49 81 50 37 52 69 53
REMARK SMILES IDX 49 54 68 55 50 56 53 57 67 58 86 59 51 60 52 61 66 63 87 64
REMARK SMILES IDX 54 65 38 66 39 67 47 68 40 69 41 70 45 71 48 72 42 73 43 74
REMARK SMILES IDX 46 75 44 76 70 77 71 78 79 79 72 80 73 81 77 82 80 83 74 84
REMARK SMILES IDX 75 85 78 86 76 87 55 88 56 89 64 90 57 91 58 92 62 93 65 94
REMARK SMILES IDX 59 95 60 96 63 97 61 98
REMARK H PARENT 85 51 53 62
REMARK Flexibility Score: inf
ROOT
ATOM      1  C   UNL     1      -2.947   7.309   1.820  1.00  0.00     0.274 C 
ENDROOT
BRANCH   1   2
ATOM      2  O   UNL     1      -4.052   6.584   1.242  1.00  0.00    -0.462 OA
BRANCH   2   3
ATOM      3  C   UNL     1      -4.031   6.413  -0.102  1.00  0.00     0.309 C 
ATOM      4  O   UNL     1      -3.111   6.774  -0.831  1.00  0.00    -0.252 OA
BRANCH   3   5
ATOM      5  C   UNL     1      -5.227   5.641  -0.652  1.00  0.00     0.111 C 
ATOM      6  C   UNL     1      -6.214   5.036   0.374  1.00  0.00     0.093 C 
ATOM      7  C   UNL     1      -7.270   4.210  -0.385  1.00  0.00     0.014 C 
ATOM      8  C   UNL     1      -7.983   5.019  -1.462  1.00  0.00     0.001 C 
ATOM      9  C   UNL     1      -5.909   6.435  -1.776  1.00  0.00     0.016 C 
ATOM     10  C   UNL     1      -7.002   5.620  -2.458  1.00  0.00     0.001 C 
BRANCH   6  11
ATOM     11  C   UNL     1      -6.845   6.106   1.270  1.00  0.00     0.226 C 
ATOM     12  N   UNL     1      -9.421   5.343   4.457  1.00  0.00    -0.194 NA
ATOM     13  C   UNL     1      -9.124   6.694   3.938  1.00  0.00     0.124 C 
ATOM     14  C   UNL     1      -9.055   4.217   3.563  1.00  0.00     0.124 C 
ATOM     15  C   UNL     1      -7.672   6.771   3.474  1.00  0.00     0.136 C 
ATOM     16  C   UNL     1      -7.640   4.364   2.953  1.00  0.00     0.136 C 
ATOM     17  N   UNL     1      -7.375   5.727   2.488  1.00  0.00    -0.340 N 
ATOM     18  O   UNL     1      -6.850   7.290   0.926  1.00  0.00    -0.275 OA
BRANCH  12  19
ATOM     19  S   UNL     1      -9.879   5.111   6.057  1.00  0.00     0.243 S 
ATOM     20  O   UNL     1     -10.385   3.765   6.198  1.00  0.00    -0.207 OA
ATOM     21  O   UNL     1     -10.671   6.263   6.443  1.00  0.00    -0.207 OA
BRANCH  19  22
ATOM     22  C   UNL     1      -8.372   5.188   7.002  1.00  0.00     0.082 A 
ATOM     23  C   UNL     1      -4.678   5.402   9.220  1.00  0.00     0.044 C 
ATOM     24  C   UNL     1      -5.987   5.349   8.481  1.00  0.00    -0.048 A 
ATOM     25  C   UNL     1      -6.011   4.737   7.222  1.00  0.00     0.005 A 
ATOM     26  C   UNL     1      -7.190   5.837   9.030  1.00  0.00    -0.047 A 
ATOM     27  C   UNL     1      -7.202   4.623   6.512  1.00  0.00     0.022 A 
ATOM     28  C   UNL     1      -8.371   5.790   8.261  1.00  0.00     0.025 A 
ATOM     29  C   UNL     1      -7.288   6.371  10.433  1.00  0.00     0.044 C 
ENDBRANCH  19  22
ENDBRANCH  12  19
ENDBRANCH   6  11
ENDBRANCH   3   5
ENDBRANCH   2   3
ENDBRANCH   1   2
BRANCH   1  30
ATOM     30  C   UNL     1      -2.098   6.393   2.703  1.00  0.00     0.275 C 
BRANCH  30  31
ATOM     31  O   UNL     1      -1.499   5.337   1.930  1.00  0.00    -0.458 OA
BRANCH  31  32
ATOM     32  C   UNL     1      -2.215   4.192   1.871  1.00  0.00     0.338 C 
ATOM     33  O   UNL     1      -3.262   3.927   2.438  1.00  0.00    -0.246 OA
BRANCH  32  34
ATOM     34  C   UNL     1      -1.609   3.312   0.865  1.00  0.00     0.060 A 
ATOM     35  C   UNL     1      -2.240   3.211  -0.374  1.00  0.00     0.016 A 
ATOM     36  C   UNL     1      -0.472   2.558   1.145  1.00  0.00     0.016 A 
ATOM     37  C   UNL     1      -1.747   2.356  -1.350  1.00  0.00     0.010 A 
ATOM     38  C   UNL     1       0.041   1.714   0.156  1.00  0.00     0.010 A 
ATOM     39  C   UNL     1      -0.593   1.611  -1.096  1.00  0.00    -0.014 A 
BRANCH  39  40
ATOM     40  C   UNL     1      -0.036   0.738  -2.154  1.00  0.00     0.031 A 
ATOM     41  C   UNL     1      -0.090  -0.750  -2.005  1.00  0.00     0.074 A 
ATOM     42  C   UNL     1       0.534   1.298  -3.236  1.00  0.00     0.049 A 
ATOM     43  N   UNL     1       0.474  -1.676  -2.737  1.00  0.00    -0.248 NA
ATOM     44  C   UNL     1      -0.881  -1.266  -0.879  1.00  0.00     0.031 C 
ATOM     45  C   UNL     1       0.601   2.735  -3.502  1.00  0.00     0.029 A 
ATOM     46  N   UNL     1       1.184   0.728  -4.300  1.00  0.00    -0.354 N 
ATOM     47  C   UNL     1       0.135  -2.883  -2.143  1.00  0.00     0.074 A 
ATOM     48  C   UNL     1      -0.677  -2.571  -0.985  1.00  0.00     0.031 C 
ATOM     49  C   UNL     1       1.274   2.937  -4.644  1.00  0.00     0.029 A 
ATOM     50  C   UNL     1       1.739   1.651  -5.152  1.00  0.00     0.049 A 
ATOM     51  H   UNL     1       1.247  -0.244  -4.439  1.00  0.00     0.167 HD
ATOM     52  C   UNL     1       0.480  -4.133  -2.533  1.00  0.00     0.037 A 
ATOM     53  C   UNL     1       2.577   1.482  -6.191  1.00  0.00     0.037 A 
ATOM     54  C   UNL     1       1.279  -4.422  -3.696  1.00  0.00     0.049 A 
ATOM     55  C   UNL     1       3.004   0.091  -6.564  1.00  0.00     0.074 A 
ATOM     56  C   UNL     1       1.643  -5.654  -4.211  1.00  0.00     0.029 A 
ATOM     57  N   UNL     1       1.850  -3.460  -4.519  1.00  0.00    -0.354 N 
ATOM     58  N   UNL     1       2.672  -1.050  -6.010  1.00  0.00    -0.248 NA
ATOM     59  C   UNL     1       3.929  -0.036  -7.698  1.00  0.00     0.031 C 
ATOM     60  C   UNL     1       2.483  -5.436  -5.309  1.00  0.00     0.029 A 
ATOM     61  C   UNL     1       2.601  -4.070  -5.512  1.00  0.00     0.049 A 
ATOM     62  H   UNL     1       1.738  -2.488  -4.413  1.00  0.00     0.167 HD
ATOM     63  C   UNL     1       3.344  -2.031  -6.723  1.00  0.00     0.074 A 
ATOM     64  C   UNL     1       4.084  -1.351  -7.769  1.00  0.00     0.031 C 
ATOM     65  C   UNL     1       3.350  -3.373  -6.529  1.00  0.00     0.037 A 
BRANCH  52  66
ATOM     66  C   UNL     1       0.038  -5.274  -1.663  1.00  0.00     0.064 A 
ATOM     67  C   UNL     1      -1.307  -5.665  -1.571  1.00  0.00     0.173 A 
ATOM     68  C   UNL     1       0.981  -5.992  -0.911  1.00  0.00     0.173 A 
ATOM     69  F   UNL     1      -2.251  -5.004  -2.258  1.00  0.00    -0.203 F 
ATOM     70  C   UNL     1      -1.694  -6.706  -0.730  1.00  0.00     0.198 A 
ATOM     71  C   UNL     1       0.594  -7.051  -0.094  1.00  0.00     0.198 A 
ATOM     72  F   UNL     1       2.280  -5.663  -0.965  1.00  0.00    -0.203 F 
ATOM     73  F   UNL     1      -2.991  -7.022  -0.612  1.00  0.00    -0.200 F 
ATOM     74  C   UNL     1      -0.744  -7.400   0.004  1.00  0.00     0.200 A 
ATOM     75  F   UNL     1       1.516  -7.726   0.606  1.00  0.00    -0.200 F 
ATOM     76  F   UNL     1      -1.119  -8.398   0.816  1.00  0.00    -0.200 F 
ENDBRANCH  52  66
BRANCH  53  77
ATOM     77  C   UNL     1       3.102   2.676  -6.899  1.00  0.00     0.064 A 
ATOM     78  C   UNL     1       2.690   2.988  -8.200  1.00  0.00     0.173 A 
ATOM     79  C   UNL     1       3.992   3.559  -6.265  1.00  0.00     0.173 A 
ATOM     80  F   UNL     1       1.860   2.163  -8.855  1.00  0.00    -0.203 F 
ATOM     81  C   UNL     1       3.146   4.139  -8.841  1.00  0.00     0.198 A 
ATOM     82  C   UNL     1       4.425   4.722  -6.895  1.00  0.00     0.198 A 
ATOM     83  F   UNL     1       4.415   3.304  -5.018  1.00  0.00    -0.203 F 
ATOM     84  F   UNL     1       2.757   4.403 -10.095  1.00  0.00    -0.200 F 
ATOM     85  C   UNL     1       4.003   5.010  -8.184  1.00  0.00     0.200 A 
ATOM     86  F   UNL     1       5.239   5.568  -6.250  1.00  0.00    -0.200 F 
ATOM     87  F   UNL     1       4.425   6.126  -8.794  1.00  0.00    -0.200 F 
ENDBRANCH  53  77
BRANCH  65  88
ATOM     88  C   UNL     1       4.191  -4.194  -7.462  1.00  0.00     0.064 A 
ATOM     89  C   UNL     1       5.591  -4.198  -7.369  1.00  0.00     0.173 A 
ATOM     90  C   UNL     1       3.593  -5.017  -8.427  1.00  0.00     0.173 A 
ATOM     91  F   UNL     1       6.210  -3.413  -6.474  1.00  0.00    -0.203 F 
ATOM     92  C   UNL     1       6.362  -4.985  -8.220  1.00  0.00     0.198 A 
ATOM     93  C   UNL     1       4.365  -5.824  -9.257  1.00  0.00     0.198 A 
ATOM     94  F   UNL     1       2.258  -5.050  -8.553  1.00  0.00    -0.203 F 
ATOM     95  F   UNL     1       7.699  -4.944  -8.140  1.00  0.00    -0.200 F 
ATOM     96  C   UNL     1       5.748  -5.804  -9.157  1.00  0.00     0.200 A 
ATOM     97  F   UNL     1       3.771  -6.623 -10.154  1.00  0.00    -0.200 F 
ATOM     98  F   UNL     1       6.491  -6.569  -9.968  1.00  0.00    -0.200 F 
ENDBRANCH  65  88
ENDBRANCH  39  40
ENDBRANCH  32  34
ENDBRANCH  31  32
ENDBRANCH  30  31
ENDBRANCH   1  30
TORSDOF 14
