REMARK SMILES O=C(OCCOC(=O)[C@H]1CCCN(C(=O)C2CCN(S(=O)(=O)c3ccccc3)CC2)C1)c1ccc(-c2c3nc(c(-c4c(F)c(F)c(F)c(F)c4F)c4ccc([nH]4)c(-c4c(F)c(F)c(F)c(F)c4F)c4nc(c(-c5c(F)c(F)c(F)c(F)c5F)c5ccc2[nH]5)C=C4)C=C3)cc1
REMARK SMILES IDX 5 1 4 2 3 3 2 4 1 5 32 6 33 7 94 8 34 9 93 10 35 11 36 12
REMARK SMILES IDX 37 13 87 14 38 15 92 16 86 17 88 18 39 19 91 20 85 21 84 22
REMARK SMILES IDX 40 24 72 25 52 26 71 27 53 28 56 29 70 30 89 31 54 32 55 33
REMARK SMILES IDX 69 35 90 36 57 37 41 38 42 39 50 40 43 41 44 42 48 43 51 44
REMARK SMILES IDX 45 45 46 46 49 47 47 48 73 49 74 50 82 51 75 52 76 53 80 54
REMARK SMILES IDX 83 55 77 56 78 57 81 58 79 59 58 60 59 61 67 62 60 63 61 64
REMARK SMILES IDX 65 65 68 66 62 67 63 68 66 69 64 70 6 71 7 72 8 73 9 74
REMARK SMILES IDX 10 75 31 76 11 77 13 78 12 79 14 80 15 81 16 82 17 83 30 84
REMARK SMILES IDX 18 85 29 86 19 87 20 88 21 89 22 90 23 91 24 92 28 93 25 94
REMARK SMILES IDX 27 95 26 96
REMARK H PARENT 88 23 56 34
REMARK Flexibility Score: inf
ROOT
ATOM      1  C   UNL     1       1.967  -1.343  -4.680  1.00  0.00     0.274 C 
ENDROOT
BRANCH   1   2
ATOM      2  C   UNL     1       2.584   0.046  -4.535  1.00  0.00     0.275 C 
BRANCH   2   3
ATOM      3  O   UNL     1       3.755   0.079  -3.696  1.00  0.00    -0.458 OA
BRANCH   3   4
ATOM      4  C   UNL     1       3.862   0.321  -2.367  1.00  0.00     0.338 C 
ATOM      5  O   UNL     1       4.965   0.611  -1.905  1.00  0.00    -0.246 OA
BRANCH   4   6
ATOM      6  C   UNL     1       2.750   0.108  -1.386  1.00  0.00     0.060 A 
ATOM      7  C   UNL     1       1.400   0.398  -1.595  1.00  0.00     0.016 A 
ATOM      8  C   UNL     1       3.124  -0.394  -0.123  1.00  0.00     0.016 A 
ATOM      9  C   UNL     1       0.442   0.140  -0.602  1.00  0.00     0.010 A 
ATOM     10  C   UNL     1       2.171  -0.658   0.870  1.00  0.00     0.010 A 
ATOM     11  C   UNL     1       0.817  -0.391   0.636  1.00  0.00    -0.014 A 
BRANCH  11  12
ATOM     12  C   UNL     1      -0.170  -0.512   1.741  1.00  0.00     0.031 A 
ATOM     13  C   UNL     1      -0.147   0.529   2.824  1.00  0.00     0.074 A 
ATOM     14  C   UNL     1      -1.082  -1.504   1.772  1.00  0.00     0.049 A 
ATOM     15  N   UNL     1      -0.853   0.596   3.922  1.00  0.00    -0.248 NA
ATOM     16  C   UNL     1       0.774   1.663   2.628  1.00  0.00     0.031 C 
ATOM     17  C   UNL     1      -1.270  -2.506   0.728  1.00  0.00     0.029 A 
ATOM     18  N   UNL     1      -2.007  -1.856   2.729  1.00  0.00    -0.354 N 
ATOM     19  C   UNL     1      -0.513   1.809   4.507  1.00  0.00     0.074 A 
ATOM     20  C   UNL     1       0.529   2.401   3.700  1.00  0.00     0.031 C 
ATOM     21  C   UNL     1      -2.180  -3.408   1.133  1.00  0.00     0.029 A 
ATOM     22  C   UNL     1      -2.635  -3.058   2.473  1.00  0.00     0.049 A 
ATOM     23  H   UNL     1      -2.202  -1.303   3.520  1.00  0.00     0.167 HD
ATOM     24  C   UNL     1      -1.067   2.398   5.590  1.00  0.00     0.037 A 
ATOM     25  C   UNL     1      -3.436  -3.811   3.258  1.00  0.00     0.037 A 
ATOM     26  C   UNL     1      -2.088   1.791   6.396  1.00  0.00     0.049 A 
ATOM     27  C   UNL     1      -3.802  -3.264   4.619  1.00  0.00     0.074 A 
ATOM     28  C   UNL     1      -2.741   2.303   7.502  1.00  0.00     0.029 A 
ATOM     29  N   UNL     1      -2.590   0.517   6.184  1.00  0.00    -0.354 N 
ATOM     30  N   UNL     1      -3.524  -2.090   5.136  1.00  0.00    -0.248 NA
ATOM     31  C   UNL     1      -4.576  -4.136   5.515  1.00  0.00     0.031 C 
ATOM     32  C   UNL     1      -3.602   1.315   7.991  1.00  0.00     0.029 A 
ATOM     33  C   UNL     1      -3.506   0.202   7.171  1.00  0.00     0.049 A 
ATOM     34  H   UNL     1      -2.334  -0.076   5.441  1.00  0.00     0.167 HD
ATOM     35  C   UNL     1      -4.139  -2.062   6.379  1.00  0.00     0.074 A 
ATOM     36  C   UNL     1      -4.795  -3.340   6.551  1.00  0.00     0.031 C 
ATOM     37  C   UNL     1      -4.168  -1.068   7.297  1.00  0.00     0.037 A 
BRANCH  24  38
ATOM     38  C   UNL     1      -0.598   3.776   5.943  1.00  0.00     0.064 A 
ATOM     39  C   UNL     1      -0.982   4.886   5.175  1.00  0.00     0.173 A 
ATOM     40  C   UNL     1       0.205   3.998   7.069  1.00  0.00     0.173 A 
ATOM     41  F   UNL     1      -1.738   4.720   4.079  1.00  0.00    -0.203 F 
ATOM     42  C   UNL     1      -0.568   6.170   5.516  1.00  0.00     0.198 A 
ATOM     43  C   UNL     1       0.602   5.286   7.419  1.00  0.00     0.198 A 
ATOM     44  F   UNL     1       0.599   2.968   7.832  1.00  0.00    -0.203 F 
ATOM     45  F   UNL     1      -0.921   7.213   4.752  1.00  0.00    -0.200 F 
ATOM     46  C   UNL     1       0.218   6.370   6.641  1.00  0.00     0.200 A 
ATOM     47  F   UNL     1       1.357   5.480   8.509  1.00  0.00    -0.200 F 
ATOM     48  F   UNL     1       0.612   7.607   6.973  1.00  0.00    -0.200 F 
ENDBRANCH  24  38
BRANCH  25  49
ATOM     49  C   UNL     1      -3.822  -5.208   2.878  1.00  0.00     0.064 A 
ATOM     50  C   UNL     1      -5.145  -5.664   2.858  1.00  0.00     0.173 A 
ATOM     51  C   UNL     1      -2.826  -6.173   2.670  1.00  0.00     0.173 A 
ATOM     52  F   UNL     1      -6.152  -4.803   3.062  1.00  0.00    -0.203 F 
ATOM     53  C   UNL     1      -5.442  -7.024   2.718  1.00  0.00     0.198 A 
ATOM     54  C   UNL     1      -3.115  -7.525   2.504  1.00  0.00     0.198 A 
ATOM     55  F   UNL     1      -1.551  -5.788   2.642  1.00  0.00    -0.203 F 
ATOM     56  F   UNL     1      -6.714  -7.439   2.797  1.00  0.00    -0.200 F 
ATOM     57  C   UNL     1      -4.427  -7.954   2.550  1.00  0.00     0.200 A 
ATOM     58  F   UNL     1      -2.121  -8.407   2.334  1.00  0.00    -0.200 F 
ATOM     59  F   UNL     1      -4.712  -9.259   2.453  1.00  0.00    -0.200 F 
ENDBRANCH  25  49
BRANCH  37  60
ATOM     60  C   UNL     1      -4.987  -1.300   8.527  1.00  0.00     0.064 A 
ATOM     61  C   UNL     1      -4.528  -2.116   9.569  1.00  0.00     0.173 A 
ATOM     62  C   UNL     1      -6.228  -0.664   8.678  1.00  0.00     0.173 A 
ATOM     63  F   UNL     1      -3.360  -2.766   9.452  1.00  0.00    -0.203 F 
ATOM     64  C   UNL     1      -5.289  -2.294  10.720  1.00  0.00     0.198 A 
ATOM     65  C   UNL     1      -6.975  -0.825   9.839  1.00  0.00     0.198 A 
ATOM     66  F   UNL     1      -6.705   0.125   7.704  1.00  0.00    -0.203 F 
ATOM     67  F   UNL     1      -4.851  -3.106  11.692  1.00  0.00    -0.200 F 
ATOM     68  C   UNL     1      -6.507  -1.641  10.858  1.00  0.00     0.200 A 
ATOM     69  F   UNL     1      -8.146  -0.188   9.974  1.00  0.00    -0.200 F 
ATOM     70  F   UNL     1      -7.234  -1.806  11.971  1.00  0.00    -0.200 F 
ENDBRANCH  37  60
ENDBRANCH  11  12
ENDBRANCH   4   6
ENDBRANCH   3   4
ENDBRANCH   2   3
ENDBRANCH   1   2
BRANCH   1  71
ATOM     71  O   UNL     1       2.012  -2.048  -3.437  1.00  0.00    -0.462 OA
BRANCH  71  72
ATOM     72  C   UNL     1       2.931  -3.056  -3.332  1.00  0.00     0.310 C 
ATOM     73  O   UNL     1       3.599  -3.499  -4.252  1.00  0.00    -0.252 OA
BRANCH  72  74
ATOM     74  C   UNL     1       3.025  -3.495  -1.887  1.00  0.00     0.119 C 
ATOM     75  C   UNL     1       1.628  -3.845  -1.363  1.00  0.00     0.019 C 
ATOM     76  C   UNL     1       4.018  -4.644  -1.687  1.00  0.00     0.134 C 
ATOM     77  C   UNL     1       1.692  -4.385   0.055  1.00  0.00     0.022 C 
ATOM     78  N   UNL     1       3.981  -5.131  -0.294  1.00  0.00    -0.342 N 
ATOM     79  C   UNL     1       2.662  -5.554   0.116  1.00  0.00     0.119 C 
BRANCH  78  80
ATOM     80  C   UNL     1       5.077  -4.974   0.532  1.00  0.00     0.225 C 
ATOM     81  O   UNL     1       6.021  -4.264   0.157  1.00  0.00    -0.275 OA
BRANCH  80  82
ATOM     82  C   UNL     1       5.211  -5.635   1.934  1.00  0.00     0.081 C 
ATOM     83  C   UNL     1       4.996  -7.133   2.082  1.00  0.00     0.030 C 
ATOM     84  C   UNL     1       4.639  -4.879   3.120  1.00  0.00     0.030 C 
ATOM     85  C   UNL     1       3.641  -7.599   2.590  1.00  0.00     0.103 C 
ATOM     86  C   UNL     1       3.214  -5.240   3.479  1.00  0.00     0.103 C 
ATOM     87  N   UNL     1       2.926  -6.697   3.565  1.00  0.00    -0.198 NA
BRANCH  87  88
ATOM     88  S   UNL     1       1.220  -7.095   3.511  1.00  0.00     0.243 S 
ATOM     89  O   UNL     1       0.742  -6.640   2.213  1.00  0.00    -0.207 OA
ATOM     90  O   UNL     1       1.111  -8.487   3.866  1.00  0.00    -0.207 OA
BRANCH  88  91
ATOM     91  C   UNL     1       0.380  -6.136   4.755  1.00  0.00     0.082 A 
ATOM     92  C   UNL     1      -0.347  -6.810   5.744  1.00  0.00     0.022 A 
ATOM     93  C   UNL     1       0.273  -4.744   4.648  1.00  0.00     0.022 A 
ATOM     94  C   UNL     1      -1.120  -6.087   6.655  1.00  0.00     0.001 A 
ATOM     95  C   UNL     1      -0.466  -4.023   5.586  1.00  0.00     0.001 A 
ATOM     96  C   UNL     1      -1.157  -4.695   6.592  1.00  0.00     0.000 A 
ENDBRANCH  88  91
ENDBRANCH  87  88
ENDBRANCH  80  82
ENDBRANCH  78  80
ENDBRANCH  72  74
ENDBRANCH  71  72
ENDBRANCH   1  71
TORSDOF 15
