REMARK SMILES Nc1ccc(C(=O)N[C@H]2CCCCC[C@@H]2C(=O)OCCOC(=O)c2ccc(-c3c4nc(c(-c5c(F)c(F)c(F)c(F)c5F)c5ccc([nH]5)c(-c5c(F)c(F)c(F)c(F)c5F)c5nc(c(-c6c(F)c(F)c(F)c(F)c6F)c6ccc3[nH]6)C=C5)C=C4)cc2)cc1Cl
REMARK SMILES IDX 19 1 18 2 16 3 17 4 15 5 9 6 8 7 6 8 7 9 5 11 2 12 3 13
REMARK SMILES IDX 88 14 4 15 87 16 89 17 1 18 10 21 11 22 14 24 13 25 12 26
REMARK SMILES IDX 20 28 21 29 22 30 23 31 24 32 25 33 86 34 26 35 85 36 27 37
REMARK SMILES IDX 28 38 29 39 79 40 30 41 84 42 78 43 80 44 31 45 83 46 77 47
REMARK SMILES IDX 76 48 32 50 64 51 44 52 63 53 45 54 48 55 62 56 81 57 46 58
REMARK SMILES IDX 47 59 61 61 82 62 49 63 33 64 34 65 42 66 35 67 36 68 40 69
REMARK SMILES IDX 43 70 37 71 38 72 41 73 39 74 65 75 66 76 74 77 67 78 68 79
REMARK SMILES IDX 72 80 75 81 69 82 70 83 73 84 71 85 50 86 51 87 59 88 52 89
REMARK SMILES IDX 53 90 57 91 60 92 54 93 55 94 58 95 56 96
REMARK H PARENT 8 10 1 19 1 20 80 49 48 60
REMARK Flexibility Score: 90.00
ROOT
ATOM      1  C   UNL     1       3.836   4.538   2.304  1.00  0.00     0.274 C 
ENDROOT
BRANCH   1   2
ATOM      2  O   UNL     1       4.040   3.150   1.964  1.00  0.00    -0.462 OA
BRANCH   2   3
ATOM      3  C   UNL     1       5.278   2.824   1.495  1.00  0.00     0.311 C 
ATOM      4  O   UNL     1       6.226   3.596   1.438  1.00  0.00    -0.252 OA
BRANCH   3   5
ATOM      5  C   UNL     1       5.365   1.379   1.033  1.00  0.00     0.121 C 
BRANCH   5   6
ATOM      6  C   UNL     1       4.581   1.151  -0.285  1.00  0.00     0.096 C 
BRANCH   6   7
ATOM      7  N   UNL     1       5.416   1.279  -1.507  1.00  0.00    -0.348 N 
ATOM      8  C   UNL     1       5.772   2.212  -2.438  1.00  0.00     0.251 C 
ATOM      9  O   UNL     1       6.293   1.749  -3.458  1.00  0.00    -0.269 OA
ATOM     10  H   UNL     1       5.849   0.419  -1.709  1.00  0.00     0.164 HD
BRANCH   8  11
ATOM     11  C   UNL     1       5.678   3.691  -2.318  1.00  0.00     0.041 A 
ATOM     12  C   UNL     1       5.998   6.499  -2.044  1.00  0.00     0.050 A 
ATOM     13  C   UNL     1       5.195   5.770  -1.166  1.00  0.00     0.028 A 
ATOM     14  C   UNL     1       6.515   5.826  -3.157  1.00  0.00     0.064 A 
ATOM     15  C   UNL     1       5.019   4.384  -1.314  1.00  0.00     0.016 A 
ATOM     16  C   UNL     1       6.378   4.441  -3.281  1.00  0.00     0.036 A 
ATOM     17  Cl  UNL     1       7.392   6.683  -4.378  1.00  0.00    -0.082 Cl
BRANCH  12  18
ATOM     18  N   UNL     1       6.144   7.872  -1.865  1.00  0.00    -0.398 N 
ATOM     19  H   UNL     1       5.765   8.308  -1.067  1.00  0.00     0.156 HD
ATOM     20  H   UNL     1       6.625   8.408  -2.536  1.00  0.00     0.156 HD
ENDBRANCH  12  18
ENDBRANCH   8  11
ENDBRANCH   6   7
BRANCH   6  21
ATOM     21  C   UNL     1       3.941  -0.263  -0.366  1.00  0.00     0.026 C 
BRANCH  21  22
ATOM     22  C   UNL     1       4.922  -1.433  -0.159  1.00  0.00     0.002 CG0
ATOM     23  G   UNL     1       5.055  -1.891   1.290  1.00  0.00     0.000 G0
ENDBRANCH  21  22
ENDBRANCH   6  21
ENDBRANCH   5   6
BRANCH   5  24
ATOM     24  C   UNL     1       4.952   0.480   2.221  1.00  0.00     0.017 C 
BRANCH  24  25
ATOM     25  C   UNL     1       5.674  -0.864   2.225  1.00  0.00     0.001 C 
BRANCH  25  26
ATOM     26  C   UNL     1       5.055  -1.891   1.290  1.00  0.00     0.000 CG0
ATOM     27  G   UNL     1       4.922  -1.433  -0.159  1.00  0.00     0.000 G0
ENDBRANCH  25  26
ENDBRANCH  24  25
ENDBRANCH   5  24
ENDBRANCH   3   5
ENDBRANCH   2   3
ENDBRANCH   1   2
BRANCH   1  28
ATOM     28  C   UNL     1       4.084   4.864   3.778  1.00  0.00     0.275 C 
BRANCH  28  29
ATOM     29  O   UNL     1       5.451   4.623   4.149  1.00  0.00    -0.458 OA
BRANCH  29  30
ATOM     30  C   UNL     1       5.656   3.444   4.772  1.00  0.00     0.338 C 
ATOM     31  O   UNL     1       4.817   2.623   5.102  1.00  0.00    -0.246 OA
BRANCH  30  32
ATOM     32  C   UNL     1       7.093   3.191   4.931  1.00  0.00     0.060 A 
ATOM     33  C   UNL     1       7.680   2.218   4.119  1.00  0.00     0.016 A 
ATOM     34  C   UNL     1       7.801   3.754   5.992  1.00  0.00     0.016 A 
ATOM     35  C   UNL     1       8.947   1.737   4.406  1.00  0.00     0.010 A 
ATOM     36  C   UNL     1       9.090   3.289   6.267  1.00  0.00     0.010 A 
ATOM     37  C   UNL     1       9.646   2.248   5.502  1.00  0.00    -0.014 A 
BRANCH  37  38
ATOM     38  C   UNL     1      10.901   1.589   5.917  1.00  0.00     0.031 A 
ATOM     39  C   UNL     1      10.890   0.694   7.122  1.00  0.00     0.074 A 
ATOM     40  C   UNL     1      12.016   1.737   5.181  1.00  0.00     0.049 A 
ATOM     41  N   UNL     1      11.889   0.111   7.731  1.00  0.00    -0.248 NA
ATOM     42  C   UNL     1       9.574   0.416   7.721  1.00  0.00     0.031 C 
ATOM     43  C   UNL     1      12.111   2.504   3.940  1.00  0.00     0.029 A 
ATOM     44  N   UNL     1      13.279   1.243   5.372  1.00  0.00    -0.354 N 
ATOM     45  C   UNL     1      11.329  -0.575   8.800  1.00  0.00     0.074 A 
ATOM     46  C   UNL     1       9.902  -0.337   8.761  1.00  0.00     0.031 C 
ATOM     47  C   UNL     1      13.371   2.434   3.481  1.00  0.00     0.029 A 
ATOM     48  C   UNL     1      14.177   1.665   4.425  1.00  0.00     0.049 A 
ATOM     49  H   UNL     1      13.519   0.645   6.117  1.00  0.00     0.167 HD
ATOM     50  C   UNL     1      11.956  -1.331   9.730  1.00  0.00     0.037 A 
ATOM     51  C   UNL     1      15.508   1.480   4.355  1.00  0.00     0.037 A 
ATOM     52  C   UNL     1      13.372  -1.578   9.744  1.00  0.00     0.049 A 
ATOM     53  C   UNL     1      16.191   0.690   5.438  1.00  0.00     0.074 A 
ATOM     54  C   UNL     1      14.116  -2.309  10.652  1.00  0.00     0.029 A 
ATOM     55  N   UNL     1      14.259  -1.102   8.788  1.00  0.00    -0.354 N 
ATOM     56  N   UNL     1      15.667   0.095   6.482  1.00  0.00    -0.248 NA
ATOM     57  C   UNL     1      17.650   0.558   5.340  1.00  0.00     0.031 C 
ATOM     58  C   UNL     1      15.459  -2.253  10.261  1.00  0.00     0.029 A 
ATOM     59  C   UNL     1      15.545  -1.516   9.091  1.00  0.00     0.049 A 
ATOM     60  H   UNL     1      14.010  -0.552   8.011  1.00  0.00     0.167 HD
ATOM     61  C   UNL     1      16.727  -0.492   7.158  1.00  0.00     0.074 A 
ATOM     62  C   UNL     1      17.923  -0.195   6.396  1.00  0.00     0.031 C 
ATOM     63  C   UNL     1      16.714  -1.209   8.308  1.00  0.00     0.037 A 
BRANCH  50  64
ATOM     64  C   UNL     1      11.118  -1.907  10.830  1.00  0.00     0.064 A 
ATOM     65  C   UNL     1      10.276  -3.007  10.618  1.00  0.00     0.173 A 
ATOM     66  C   UNL     1      11.177  -1.362  12.122  1.00  0.00     0.173 A 
ATOM     67  F   UNL     1      10.169  -3.550   9.396  1.00  0.00    -0.203 F 
ATOM     68  C   UNL     1       9.509  -3.531  11.657  1.00  0.00     0.198 A 
ATOM     69  C   UNL     1      10.426  -1.901  13.162  1.00  0.00     0.198 A 
ATOM     70  F   UNL     1      11.967  -0.307  12.374  1.00  0.00    -0.203 F 
ATOM     71  F   UNL     1       8.682  -4.560  11.425  1.00  0.00    -0.200 F 
ATOM     72  C   UNL     1       9.590  -2.982  12.928  1.00  0.00     0.200 A 
ATOM     73  F   UNL     1      10.509  -1.372  14.391  1.00  0.00    -0.200 F 
ATOM     74  F   UNL     1       8.854  -3.489  13.927  1.00  0.00    -0.200 F 
ENDBRANCH  50  64
BRANCH  51  75
ATOM     75  C   UNL     1      16.281   2.090   3.245  1.00  0.00     0.064 A 
ATOM     76  C   UNL     1      16.862   1.298   2.247  1.00  0.00     0.173 A 
ATOM     77  C   UNL     1      16.453   3.480   3.160  1.00  0.00     0.173 A 
ATOM     78  F   UNL     1      16.746  -0.037   2.301  1.00  0.00    -0.203 F 
ATOM     79  C   UNL     1      17.596   1.872   1.211  1.00  0.00     0.198 A 
ATOM     80  C   UNL     1      17.165   4.054   2.110  1.00  0.00     0.198 A 
ATOM     81  F   UNL     1      15.918   4.282   4.093  1.00  0.00    -0.203 F 
ATOM     82  F   UNL     1      18.175   1.089   0.290  1.00  0.00    -0.200 F 
ATOM     83  C   UNL     1      17.741   3.249   1.140  1.00  0.00     0.200 A 
ATOM     84  F   UNL     1      17.294   5.386   2.041  1.00  0.00    -0.200 F 
ATOM     85  F   UNL     1      18.444   3.801   0.141  1.00  0.00    -0.200 F 
ENDBRANCH  51  75
BRANCH  63  86
ATOM     86  C   UNL     1      18.029  -1.738   8.793  1.00  0.00     0.064 A 
ATOM     87  C   UNL     1      18.967  -0.903   9.414  1.00  0.00     0.173 A 
ATOM     88  C   UNL     1      18.334  -3.101   8.668  1.00  0.00     0.173 A 
ATOM     89  F   UNL     1      18.723   0.410   9.540  1.00  0.00    -0.203 F 
ATOM     90  C   UNL     1      20.176  -1.412   9.879  1.00  0.00     0.198 A 
ATOM     91  C   UNL     1      19.534  -3.611   9.154  1.00  0.00     0.198 A 
ATOM     92  F   UNL     1      17.463  -3.938   8.085  1.00  0.00    -0.203 F 
ATOM     93  F   UNL     1      21.076  -0.591  10.438  1.00  0.00    -0.200 F 
ATOM     94  C   UNL     1      20.455  -2.765   9.754  1.00  0.00     0.200 A 
ATOM     95  F   UNL     1      19.799  -4.919   9.040  1.00  0.00    -0.200 F 
ATOM     96  F   UNL     1      21.618  -3.254  10.206  1.00  0.00    -0.200 F 
ENDBRANCH  63  86
ENDBRANCH  37  38
ENDBRANCH  30  32
ENDBRANCH  29  30
ENDBRANCH  28  29
ENDBRANCH   1  28
TORSDOF 14
