REMARK SMILES O=C(Nc1ccc2c(c1)[C@@H]1C=CC[C@@H]1[C@H](C(=O)OCCOC(=O)c1ccc(-c3c4nc(c(-c5c(F)c(F)c(F)c(F)c5F)c5ccc([nH]5)c(-c5c(F)c(F)c(F)c(F)c5F)c5nc(c(-c6c(F)c(F)c(F)c(F)c6F)c6ccc3[nH]6)C=C5)C=C4)cc1)N2)c1ccccc1
REMARK SMILES IDX 19 1 18 2 16 3 17 4 15 5 4 6 5 7 9 8 6 9 8 10 7 11 10 12
REMARK SMILES IDX 87 13 11 14 14 15 12 17 13 18 3 19 1 20 2 21 88 23 89 24
REMARK SMILES IDX 93 25 90 26 92 27 91 28 20 29 21 30 22 31 23 32 24 33 25 34
REMARK SMILES IDX 86 35 26 36 85 37 27 38 28 39 29 40 79 41 30 42 84 43 78 44
REMARK SMILES IDX 80 45 31 46 83 47 77 48 76 49 32 51 64 52 44 53 63 54 45 55
REMARK SMILES IDX 48 56 62 57 81 58 46 59 47 60 61 62 82 63 49 64 33 65 34 66
REMARK SMILES IDX 42 67 35 68 36 69 40 70 43 71 37 72 38 73 41 74 39 75 65 76
REMARK SMILES IDX 66 77 74 78 67 79 68 80 72 81 75 82 69 83 70 84 73 85 71 86
REMARK SMILES IDX 50 87 51 88 59 89 52 90 53 91 57 92 60 93 54 94 55 95 58 96
REMARK SMILES IDX 56 97
REMARK H PARENT 87 16 3 22 80 50 48 61
REMARK Flexibility Score: inf
ROOT
ATOM      1  C   UNL     1      12.792   0.258  -0.109  1.00  0.00     0.274 C 
ENDROOT
BRANCH   1   2
ATOM      2  O   UNL     1      11.383   0.120   0.155  1.00  0.00    -0.461 OA
BRANCH   2   3
ATOM      3  C   UNL     1      10.761  -0.950  -0.396  1.00  0.00     0.329 C 
ATOM      4  O   UNL     1      11.302  -1.751  -1.155  1.00  0.00    -0.250 OA
BRANCH   3   5
ATOM      5  C   UNL     1       9.283  -1.079  -0.004  1.00  0.00     0.194 C 
ATOM      6  C   UNL     1       4.255  -0.997  -0.720  1.00  0.00     0.041 A 
ATOM      7  C   UNL     1       4.838  -1.255  -1.956  1.00  0.00     0.028 A 
ATOM      8  C   UNL     1       5.070  -0.859   0.405  1.00  0.00     0.032 A 
ATOM      9  C   UNL     1       6.228  -1.219  -2.086  1.00  0.00     0.028 A 
ATOM     10  C   UNL     1       6.468  -0.817   0.285  1.00  0.00    -0.015 A 
ATOM     11  C   UNL     1       7.053  -0.987  -0.979  1.00  0.00     0.039 A 
ATOM     12  C   UNL     1       7.321  -0.598   1.520  1.00  0.00     0.050 C 
ATOM     13  N   UNL     1       8.423  -0.866  -1.165  1.00  0.00    -0.372 N 
ATOM     14  C   UNL     1       6.941   0.634   2.299  1.00  0.00    -0.023 C 
ATOM     15  C   UNL     1       8.804  -0.299   1.214  1.00  0.00     0.038 C 
ATOM     16  H   UNL     1       8.801  -0.646  -2.047  1.00  0.00     0.161 HD
ATOM     17  C   UNL     1       7.804   1.637   2.103  1.00  0.00    -0.030 C 
ATOM     18  C   UNL     1       8.904   1.233   1.174  1.00  0.00     0.034 C 
BRANCH   6  19
ATOM     19  N   UNL     1       2.860  -0.843  -0.666  1.00  0.00    -0.322 N 
ATOM     20  O   UNL     1       0.890  -0.215   0.259  1.00  0.00    -0.269 OA
ATOM     21  C   UNL     1       2.105  -0.050   0.176  1.00  0.00     0.255 C 
ATOM     22  H   UNL     1       2.350  -1.375  -1.318  1.00  0.00     0.170 HD
BRANCH  21  23
ATOM     23  C   UNL     1       2.731   1.079   0.916  1.00  0.00     0.040 A 
ATOM     24  C   UNL     1       3.656   1.933   0.299  1.00  0.00     0.014 A 
ATOM     25  C   UNL     1       2.369   1.294   2.249  1.00  0.00     0.014 A 
ATOM     26  C   UNL     1       4.278   2.941   1.036  1.00  0.00     0.001 A 
ATOM     27  C   UNL     1       2.984   2.313   2.980  1.00  0.00     0.001 A 
ATOM     28  C   UNL     1       3.947   3.125   2.378  1.00  0.00     0.000 A 
ENDBRANCH  21  23
ENDBRANCH   6  19
ENDBRANCH   3   5
ENDBRANCH   2   3
ENDBRANCH   1   2
BRANCH   1  29
ATOM     29  C   UNL     1      13.608  -0.052   1.148  1.00  0.00     0.275 C 
BRANCH  29  30
ATOM     30  O   UNL     1      13.436  -1.421   1.565  1.00  0.00    -0.458 OA
BRANCH  30  31
ATOM     31  C   UNL     1      12.461  -1.614   2.484  1.00  0.00     0.338 C 
ATOM     32  O   UNL     1      11.754  -0.768   3.002  1.00  0.00    -0.246 OA
BRANCH  31  33
ATOM     33  C   UNL     1      12.238  -3.053   2.692  1.00  0.00     0.060 A 
ATOM     34  C   UNL     1      10.975  -3.564   2.385  1.00  0.00     0.016 A 
ATOM     35  C   UNL     1      13.205  -3.866   3.284  1.00  0.00     0.016 A 
ATOM     36  C   UNL     1      10.663  -4.889   2.670  1.00  0.00     0.010 A 
ATOM     37  C   UNL     1      12.889  -5.198   3.581  1.00  0.00     0.010 A 
ATOM     38  C   UNL     1      11.611  -5.709   3.291  1.00  0.00    -0.014 A 
BRANCH  38  39
ATOM     39  C   UNL     1      11.211  -7.071   3.715  1.00  0.00     0.031 A 
ATOM     40  C   UNL     1      10.887  -7.333   5.157  1.00  0.00     0.074 A 
ATOM     41  C   UNL     1      11.076  -8.049   2.802  1.00  0.00     0.049 A 
ATOM     42  N   UNL     1      10.540  -8.452   5.740  1.00  0.00    -0.248 NA
ATOM     43  C   UNL     1      10.963  -6.178   6.066  1.00  0.00     0.031 C 
ATOM     44  C   UNL     1      11.303  -7.898   1.366  1.00  0.00     0.029 A 
ATOM     45  N   UNL     1      10.702  -9.360   2.949  1.00  0.00    -0.354 N 
ATOM     46  C   UNL     1      10.378  -8.143   7.083  1.00  0.00     0.074 A 
ATOM     47  C   UNL     1      10.675  -6.735   7.234  1.00  0.00     0.031 C 
ATOM     48  C   UNL     1      11.055  -9.071   0.760  1.00  0.00     0.029 A 
ATOM     49  C   UNL     1      10.688 -10.061   1.770  1.00  0.00     0.049 A 
ATOM     50  H   UNL     1      10.467  -9.760   3.817  1.00  0.00     0.167 HD
ATOM     51  C   UNL     1      10.012  -8.963   8.098  1.00  0.00     0.037 A 
ATOM     52  C   UNL     1      10.423 -11.361   1.536  1.00  0.00     0.037 A 
ATOM     53  C   UNL     1       9.695 -10.358   7.943  1.00  0.00     0.049 A 
ATOM     54  C   UNL     1      10.061 -12.258   2.687  1.00  0.00     0.074 A 
ATOM     55  C   UNL     1       9.307 -11.270   8.910  1.00  0.00     0.029 A 
ATOM     56  N   UNL     1       9.728 -11.044   6.738  1.00  0.00    -0.354 N 
ATOM     57  N   UNL     1       9.922 -11.962   3.957  1.00  0.00    -0.248 NA
ATOM     58  C   UNL     1       9.821 -13.673   2.372  1.00  0.00     0.031 C 
ATOM     59  C   UNL     1       9.139 -12.515   8.294  1.00  0.00     0.029 A 
ATOM     60  C   UNL     1       9.382 -12.371   6.938  1.00  0.00     0.049 A 
ATOM     61  H   UNL     1       9.962 -10.646   5.868  1.00  0.00     0.167 HD
ATOM     62  C   UNL     1       9.557 -13.143   4.587  1.00  0.00     0.074 A 
ATOM     63  C   UNL     1       9.483 -14.160   3.558  1.00  0.00     0.031 C 
ATOM     64  C   UNL     1       9.306 -13.366   5.901  1.00  0.00     0.037 A 
BRANCH  51  65
ATOM     65  C   UNL     1       9.973  -8.373   9.476  1.00  0.00     0.064 A 
ATOM     66  C   UNL     1       8.956  -7.494   9.877  1.00  0.00     0.173 A 
ATOM     67  C   UNL     1      10.962  -8.706  10.414  1.00  0.00     0.173 A 
ATOM     68  F   UNL     1       7.997  -7.132   9.011  1.00  0.00    -0.203 F 
ATOM     69  C   UNL     1       8.944  -6.950  11.159  1.00  0.00     0.198 A 
ATOM     70  C   UNL     1      10.934  -8.179  11.703  1.00  0.00     0.198 A 
ATOM     71  F   UNL     1      11.956  -9.543  10.081  1.00  0.00    -0.203 F 
ATOM     72  F   UNL     1       7.989  -6.077  11.506  1.00  0.00    -0.200 F 
ATOM     73  C   UNL     1       9.930  -7.297  12.072  1.00  0.00     0.200 A 
ATOM     74  F   UNL     1      11.883  -8.521  12.585  1.00  0.00    -0.200 F 
ATOM     75  F   UNL     1       9.918  -6.772  13.305  1.00  0.00    -0.200 F 
ENDBRANCH  51  65
BRANCH  52  76
ATOM     76  C   UNL     1      10.495 -11.891   0.151  1.00  0.00     0.064 A 
ATOM     77  C   UNL     1       9.335 -12.277  -0.534  1.00  0.00     0.173 A 
ATOM     78  C   UNL     1      11.723 -12.027  -0.513  1.00  0.00     0.173 A 
ATOM     79  F   UNL     1       8.141 -12.189   0.070  1.00  0.00    -0.203 F 
ATOM     80  C   UNL     1       9.402 -12.788  -1.828  1.00  0.00     0.198 A 
ATOM     81  C   UNL     1      11.786 -12.515  -1.815  1.00  0.00     0.198 A 
ATOM     82  F   UNL     1      12.861 -11.675   0.103  1.00  0.00    -0.203 F 
ATOM     83  F   UNL     1       8.282 -13.186  -2.447  1.00  0.00    -0.200 F 
ATOM     84  C   UNL     1      10.626 -12.901  -2.470  1.00  0.00     0.200 A 
ATOM     85  F   UNL     1      12.970 -12.614  -2.435  1.00  0.00    -0.200 F 
ATOM     86  F   UNL     1      10.689 -13.390  -3.716  1.00  0.00    -0.200 F 
ENDBRANCH  52  76
BRANCH  64  87
ATOM     87  C   UNL     1       8.895 -14.755   6.290  1.00  0.00     0.064 A 
ATOM     88  C   UNL     1       9.816 -15.811   6.328  1.00  0.00     0.173 A 
ATOM     89  C   UNL     1       7.567 -15.025   6.655  1.00  0.00     0.173 A 
ATOM     90  F   UNL     1      11.093 -15.606   5.973  1.00  0.00    -0.203 F 
ATOM     91  C   UNL     1       9.417 -17.095   6.691  1.00  0.00     0.198 A 
ATOM     92  C   UNL     1       7.177 -16.304   7.042  1.00  0.00     0.198 A 
ATOM     93  F   UNL     1       6.649 -14.047   6.640  1.00  0.00    -0.203 F 
ATOM     94  F   UNL     1      10.304 -18.100   6.676  1.00  0.00    -0.200 F 
ATOM     95  C   UNL     1       8.100 -17.339   7.053  1.00  0.00     0.200 A 
ATOM     96  F   UNL     1       5.907 -16.537   7.400  1.00  0.00    -0.200 F 
ATOM     97  F   UNL     1       7.718 -18.575   7.403  1.00  0.00    -0.200 F 
ENDBRANCH  64  87
ENDBRANCH  38  39
ENDBRANCH  31  33
ENDBRANCH  30  31
ENDBRANCH  29  30
ENDBRANCH   1  29
TORSDOF 13
