REMARK SMILES Cc1ccccc1[C@@H](Cc1c(Cl)cccc1Cl)C(=O)OCCOC(=O)c1ccc(-c2c3nc(c(-c4c(F)c(F)c(F)c(F)c4F)c4ccc([nH]4)c(-c4c(F)c(F)c(F)c(F)c4F)c4nc(c(-c5c(F)c(F)c(F)c(F)c5F)c5ccc2[nH]5)C=C4)C=C3)cc1
REMARK SMILES IDX 21 1 20 2 18 3 19 4 8 5 7 6 1 7 2 8 3 9 4 10 6 11 5 12 9 13
REMARK SMILES IDX 10 14 11 15 16 16 12 17 13 18 15 19 17 20 14 21 22 22 23 23
REMARK SMILES IDX 24 24 25 25 26 26 27 27 88 28 28 29 87 30 29 31 30 32 31 33
REMARK SMILES IDX 81 34 32 35 86 36 80 37 82 38 33 39 85 40 79 41 78 42 34 44
REMARK SMILES IDX 66 45 46 46 65 47 47 48 50 49 64 50 83 51 48 52 49 53 63 55
REMARK SMILES IDX 84 56 51 57 35 58 36 59 44 60 37 61 38 62 42 63 45 64 39 65
REMARK SMILES IDX 40 66 43 67 41 68 67 69 68 70 76 71 69 72 70 73 74 74 77 75
REMARK SMILES IDX 71 76 72 77 75 78 73 79 52 80 53 81 61 82 54 83 55 84 59 85
REMARK SMILES IDX 62 86 56 87 57 88 60 89 58 90
REMARK H PARENT 82 43 50 54
REMARK Flexibility Score: inf
ROOT
ATOM      1  C   UNL     1      -1.832   1.931   2.432  1.00  0.00     0.274 C 
ENDROOT
BRANCH   1   2
ATOM      2  O   UNL     1      -0.693   1.919   1.563  1.00  0.00    -0.462 OA
BRANCH   2   3
ATOM      3  C   UNL     1      -0.906   2.476   0.325  1.00  0.00     0.313 C 
ATOM      4  O   UNL     1      -1.950   3.007   0.006  1.00  0.00    -0.252 OA
BRANCH   3   5
ATOM      5  C   UNL     1       0.218   2.040  -0.651  1.00  0.00     0.134 C 
BRANCH   5   6
ATOM      6  C   UNL     1      -0.121   0.555  -0.888  1.00  0.00    -0.031 A 
ATOM      7  C   UNL     1       2.233  -0.285  -0.335  1.00  0.00     0.044 C 
ATOM      8  C   UNL     1       0.758  -0.478  -0.532  1.00  0.00    -0.047 A 
ATOM      9  C   UNL     1       0.222  -1.752  -0.286  1.00  0.00     0.004 A 
ATOM     10  C   UNL     1      -1.143  -2.008  -0.431  1.00  0.00     0.000 A 
ATOM     11  C   UNL     1      -1.472   0.241  -1.181  1.00  0.00     0.005 A 
ATOM     12  C   UNL     1      -1.988  -1.019  -0.910  1.00  0.00     0.000 A 
ENDBRANCH   5   6
BRANCH   5  13
ATOM     13  C   UNL     1       0.342   2.807  -2.006  1.00  0.00     0.058 C 
BRANCH  13  14
ATOM     14  C   UNL     1       0.981   4.201  -2.126  1.00  0.00    -0.010 A 
ATOM     15  C   UNL     1       0.381   5.201  -2.931  1.00  0.00     0.045 A 
ATOM     16  C   UNL     1       2.236   4.551  -1.591  1.00  0.00     0.045 A 
ATOM     17  Cl  UNL     1      -0.953   4.863  -3.987  1.00  0.00    -0.084 Cl
ATOM     18  C   UNL     1       0.875   6.518  -2.988  1.00  0.00     0.021 A 
ATOM     19  C   UNL     1       2.722   5.873  -1.631  1.00  0.00     0.021 A 
ATOM     20  Cl  UNL     1       3.324   3.390  -0.923  1.00  0.00    -0.084 Cl
ATOM     21  C   UNL     1       2.017   6.871  -2.288  1.00  0.00     0.003 A 
ENDBRANCH  13  14
ENDBRANCH   5  13
ENDBRANCH   3   5
ENDBRANCH   2   3
ENDBRANCH   1   2
BRANCH   1  22
ATOM     22  C   UNL     1      -1.502   1.497   3.872  1.00  0.00     0.275 C 
BRANCH  22  23
ATOM     23  O   UNL     1      -0.137   1.085   4.163  1.00  0.00    -0.458 OA
BRANCH  23  24
ATOM     24  C   UNL     1       1.005   1.817   4.036  1.00  0.00     0.338 C 
ATOM     25  O   UNL     1       2.115   1.340   4.210  1.00  0.00    -0.246 OA
BRANCH  24  26
ATOM     26  C   UNL     1       0.855   3.205   3.561  1.00  0.00     0.060 A 
ATOM     27  C   UNL     1       1.529   3.607   2.403  1.00  0.00     0.016 A 
ATOM     28  C   UNL     1      -0.106   4.023   4.136  1.00  0.00     0.016 A 
ATOM     29  C   UNL     1       1.095   4.750   1.723  1.00  0.00     0.010 A 
ATOM     30  C   UNL     1      -0.629   5.057   3.383  1.00  0.00     0.010 A 
ATOM     31  C   UNL     1      -0.046   5.427   2.158  1.00  0.00    -0.014 A 
BRANCH  31  32
ATOM     32  C   UNL     1      -0.473   6.730   1.631  1.00  0.00     0.031 A 
ATOM     33  C   UNL     1      -1.198   7.011   0.367  1.00  0.00     0.074 A 
ATOM     34  C   UNL     1      -0.136   7.736   2.465  1.00  0.00     0.049 A 
ATOM     35  N   UNL     1      -1.310   8.187  -0.159  1.00  0.00    -0.248 NA
ATOM     36  C   UNL     1      -1.867   6.015  -0.443  1.00  0.00     0.031 C 
ATOM     37  C   UNL     1      -0.456   9.148   2.425  1.00  0.00     0.029 A 
ATOM     38  N   UNL     1       0.852   7.632   3.455  1.00  0.00    -0.354 N 
ATOM     39  C   UNL     1      -2.200   8.133  -1.217  1.00  0.00     0.074 A 
ATOM     40  C   UNL     1      -2.517   6.741  -1.358  1.00  0.00     0.031 C 
ATOM     41  C   UNL     1       0.531   9.808   3.059  1.00  0.00     0.029 A 
ATOM     42  C   UNL     1       1.564   8.832   3.394  1.00  0.00     0.049 A 
ATOM     43  H   UNL     1       1.009   6.875   4.064  1.00  0.00     0.167 HD
ATOM     44  C   UNL     1      -2.604   9.296  -1.804  1.00  0.00     0.037 A 
ATOM     45  C   UNL     1       2.840   8.787   2.908  1.00  0.00     0.037 A 
ATOM     46  C   UNL     1      -1.796  10.402  -1.303  1.00  0.00     0.049 A 
ATOM     47  C   UNL     1       3.001   9.609   1.647  1.00  0.00     0.074 A 
ATOM     48  C   UNL     1      -1.951  11.318  -0.278  1.00  0.00     0.029 A 
ATOM     49  N   UNL     1      -0.456  10.425  -1.645  1.00  0.00    -0.354 N 
ATOM     50  N   UNL     1       2.012   9.987   0.881  1.00  0.00    -0.248 NA
ATOM     51  C   UNL     1       4.300  10.005   1.112  1.00  0.00     0.031 C 
ATOM     52  C   UNL     1      -0.664  11.853   0.026  1.00  0.00     0.029 A 
ATOM     53  C   UNL     1       0.257  11.287  -0.838  1.00  0.00     0.049 A 
ATOM     54  H   UNL     1      -0.061   9.894  -2.373  1.00  0.00     0.167 HD
ATOM     55  C   UNL     1       2.499  10.737  -0.153  1.00  0.00     0.074 A 
ATOM     56  C   UNL     1       3.942  10.637  -0.017  1.00  0.00     0.031 C 
ATOM     57  C   UNL     1       1.692  11.405  -1.029  1.00  0.00     0.037 A 
BRANCH  44  58
ATOM     58  C   UNL     1      -3.834   9.484  -2.674  1.00  0.00     0.064 A 
ATOM     59  C   UNL     1      -4.484  10.740  -2.709  1.00  0.00     0.173 A 
ATOM     60  C   UNL     1      -4.472   8.481  -3.428  1.00  0.00     0.173 A 
ATOM     61  F   UNL     1      -3.948  11.819  -2.122  1.00  0.00    -0.203 F 
ATOM     62  C   UNL     1      -5.718  10.940  -3.338  1.00  0.00     0.198 A 
ATOM     63  C   UNL     1      -5.728   8.668  -4.026  1.00  0.00     0.198 A 
ATOM     64  F   UNL     1      -3.885   7.303  -3.664  1.00  0.00    -0.203 F 
ATOM     65  F   UNL     1      -6.289  12.152  -3.314  1.00  0.00    -0.200 F 
ATOM     66  C   UNL     1      -6.359   9.893  -3.966  1.00  0.00     0.200 A 
ATOM     67  F   UNL     1      -6.322   7.648  -4.664  1.00  0.00    -0.200 F 
ATOM     68  F   UNL     1      -7.564  10.070  -4.526  1.00  0.00    -0.200 F 
ENDBRANCH  44  58
BRANCH  45  69
ATOM     69  C   UNL     1       3.603   7.524   3.223  1.00  0.00     0.064 A 
ATOM     70  C   UNL     1       3.508   6.949   4.516  1.00  0.00     0.173 A 
ATOM     71  C   UNL     1       4.254   6.750   2.254  1.00  0.00     0.173 A 
ATOM     72  F   UNL     1       2.927   7.630   5.519  1.00  0.00    -0.203 F 
ATOM     73  C   UNL     1       3.922   5.643   4.782  1.00  0.00     0.198 A 
ATOM     74  C   UNL     1       4.712   5.457   2.537  1.00  0.00     0.198 A 
ATOM     75  F   UNL     1       4.410   7.205   1.004  1.00  0.00    -0.203 F 
ATOM     76  F   UNL     1       3.696   5.103   5.989  1.00  0.00    -0.200 F 
ATOM     77  C   UNL     1       4.519   4.894   3.788  1.00  0.00     0.200 A 
ATOM     78  F   UNL     1       5.299   4.737   1.571  1.00  0.00    -0.200 F 
ATOM     79  F   UNL     1       4.885   3.627   4.024  1.00  0.00    -0.200 F 
ENDBRANCH  45  69
BRANCH  57  80
ATOM     80  C   UNL     1       2.209  12.270  -2.145  1.00  0.00     0.064 A 
ATOM     81  C   UNL     1       3.321  13.113  -2.002  1.00  0.00     0.173 A 
ATOM     82  C   UNL     1       1.532  12.348  -3.382  1.00  0.00     0.173 A 
ATOM     83  F   UNL     1       3.962  13.218  -0.829  1.00  0.00    -0.203 F 
ATOM     84  C   UNL     1       3.788  13.896  -3.058  1.00  0.00     0.198 A 
ATOM     85  C   UNL     1       1.960  13.183  -4.411  1.00  0.00     0.198 A 
ATOM     86  F   UNL     1       0.451  11.600  -3.643  1.00  0.00    -0.203 F 
ATOM     87  F   UNL     1       4.907  14.616  -2.902  1.00  0.00    -0.200 F 
ATOM     88  C   UNL     1       3.106  13.935  -4.259  1.00  0.00     0.200 A 
ATOM     89  F   UNL     1       1.261  13.240  -5.553  1.00  0.00    -0.200 F 
ATOM     90  F   UNL     1       3.550  14.695  -5.268  1.00  0.00    -0.200 F 
ENDBRANCH  57  80
ENDBRANCH  31  32
ENDBRANCH  24  26
ENDBRANCH  23  24
ENDBRANCH  22  23
ENDBRANCH   1  22
TORSDOF 14
