REMARK SMILES C[C@@H]1C[C@@H]1NC(=O)Cn1cccc1C(=O)OCCOC(=O)c1ccc(-c2c3nc(c(-c4c(F)c(F)c(F)c(F)c4F)c4ccc([nH]4)c(-c4c(F)c(F)c(F)c(F)c4F)c4nc(c(-c5c(F)c(F)c(F)c(F)c5F)c5ccc2[nH]5)C=C4)C=C3)cc1
REMARK SMILES IDX 17 1 16 2 14 3 15 4 13 5 9 6 10 7 11 8 12 9 8 10 6 11 5 12
REMARK SMILES IDX 7 14 4 15 1 16 2 17 3 18 18 19 19 20 20 21 21 22 22 23 23 24
REMARK SMILES IDX 84 25 24 26 83 27 25 28 26 29 27 30 77 31 28 32 82 33 76 34
REMARK SMILES IDX 78 35 29 36 81 37 75 38 74 39 30 41 62 42 42 43 61 44 43 45
REMARK SMILES IDX 46 46 60 47 79 48 44 49 45 50 59 52 80 53 47 54 31 55 32 56
REMARK SMILES IDX 40 57 33 58 34 59 38 60 41 61 35 62 36 63 39 64 37 65 63 66
REMARK SMILES IDX 64 67 72 68 65 69 66 70 70 71 73 72 67 73 68 74 71 75 69 76
REMARK SMILES IDX 48 77 49 78 57 79 50 80 51 81 55 82 58 83 52 84 53 85 56 86
REMARK SMILES IDX 54 87
REMARK H PARENT 5 13 78 40 46 51
REMARK Flexibility Score: inf
ROOT
ATOM      1  C   UNL     1      -2.255   3.430  -0.235  1.00  0.00     0.275 C 
ENDROOT
BRANCH   1   2
ATOM      2  O   UNL     1      -1.860   2.208  -0.910  1.00  0.00    -0.457 OA
BRANCH   2   3
ATOM      3  C   UNL     1      -1.357   1.191  -0.141  1.00  0.00     0.355 C 
ATOM      4  O   UNL     1      -1.412   1.155   1.080  1.00  0.00    -0.244 OA
BRANCH   3   5
ATOM      5  C   UNL     1      -0.626   0.229  -0.944  1.00  0.00     0.128 A 
ATOM      6  N   UNL     1       0.222   0.500  -2.008  1.00  0.00    -0.333 N 
ATOM      7  C   UNL     1       0.738  -0.685  -2.491  1.00  0.00     0.087 A 
ATOM      8  C   UNL     1       0.345  -1.705  -1.659  1.00  0.00     0.020 A 
ATOM      9  C   UNL     1      -0.485  -1.130  -0.675  1.00  0.00     0.035 A 
BRANCH   6  10
ATOM     10  C   UNL     1       0.569   1.809  -2.557  1.00  0.00     0.222 C 
BRANCH  10  11
ATOM     11  C   UNL     1       2.046   2.159  -2.528  1.00  0.00     0.240 C 
ATOM     12  N   UNL     1       2.719   2.704  -1.469  1.00  0.00    -0.352 N 
ATOM     13  H   UNL     1       3.661   2.878  -1.698  1.00  0.00     0.163 HD
ATOM     14  O   UNL     1       2.718   1.998  -3.558  1.00  0.00    -0.273 OA
BRANCH  12  15
ATOM     15  C   UNL     1       2.433   3.093  -0.122  1.00  0.00     0.085 C 
ATOM     16  C   UNL     1       2.321   0.610   0.737  1.00  0.00     0.010 C 
ATOM     17  C   UNL     1       2.270   2.076   0.993  1.00  0.00     0.010 C 
ATOM     18  C   UNL     1       1.136   2.971   0.578  1.00  0.00     0.030 C 
ENDBRANCH  12  15
ENDBRANCH  10  11
ENDBRANCH   6  10
ENDBRANCH   3   5
ENDBRANCH   2   3
ENDBRANCH   1   2
BRANCH   1  19
ATOM     19  C   UNL     1      -3.735   3.516   0.123  1.00  0.00     0.275 C 
BRANCH  19  20
ATOM     20  O   UNL     1      -4.013   2.599   1.173  1.00  0.00    -0.458 OA
BRANCH  20  21
ATOM     21  C   UNL     1      -4.198   1.362   0.680  1.00  0.00     0.338 C 
ATOM     22  O   UNL     1      -4.295   1.035  -0.498  1.00  0.00    -0.246 OA
BRANCH  21  23
ATOM     23  C   UNL     1      -4.307   0.400   1.781  1.00  0.00     0.060 A 
ATOM     24  C   UNL     1      -3.800  -0.844   1.379  1.00  0.00     0.016 A 
ATOM     25  C   UNL     1      -5.574   0.539   2.344  1.00  0.00     0.016 A 
ATOM     26  C   UNL     1      -4.697  -1.829   1.071  1.00  0.00     0.010 A 
ATOM     27  C   UNL     1      -6.488  -0.441   2.049  1.00  0.00     0.010 A 
ATOM     28  C   UNL     1      -6.039  -1.588   1.370  1.00  0.00    -0.014 A 
BRANCH  28  29
ATOM     29  C   UNL     1      -6.931  -2.731   1.297  1.00  0.00     0.031 A 
ATOM     30  C   UNL     1      -6.790  -3.521   2.633  1.00  0.00     0.074 A 
ATOM     31  C   UNL     1      -7.654  -2.808   0.137  1.00  0.00     0.049 A 
ATOM     32  N   UNL     1      -7.307  -4.647   3.005  1.00  0.00    -0.248 NA
ATOM     33  C   UNL     1      -5.943  -2.959   3.743  1.00  0.00     0.031 C 
ATOM     34  C   UNL     1      -7.571  -1.879  -1.024  1.00  0.00     0.029 A 
ATOM     35  N   UNL     1      -8.600  -3.692  -0.313  1.00  0.00    -0.354 N 
ATOM     36  C   UNL     1      -7.077  -4.784   4.395  1.00  0.00     0.074 A 
ATOM     37  C   UNL     1      -6.160  -3.766   4.778  1.00  0.00     0.031 C 
ATOM     38  C   UNL     1      -8.347  -2.307  -2.050  1.00  0.00     0.029 A 
ATOM     39  C   UNL     1      -9.036  -3.520  -1.657  1.00  0.00     0.049 A 
ATOM     40  H   UNL     1      -8.959  -4.407   0.262  1.00  0.00     0.167 HD
ATOM     41  C   UNL     1      -7.760  -5.670   5.172  1.00  0.00     0.037 A 
ATOM     42  C   UNL     1      -9.859  -4.349  -2.378  1.00  0.00     0.037 A 
ATOM     43  C   UNL     1      -8.556  -6.513   4.350  1.00  0.00     0.049 A 
ATOM     44  C   UNL     1     -10.353  -5.288  -1.363  1.00  0.00     0.074 A 
ATOM     45  C   UNL     1      -8.177  -7.544   3.531  1.00  0.00     0.029 A 
ATOM     46  N   UNL     1      -9.786  -6.045   3.958  1.00  0.00    -0.354 N 
ATOM     47  N   UNL     1     -11.196  -4.969  -0.428  1.00  0.00    -0.248 NA
ATOM     48  C   UNL     1      -9.752  -6.621  -1.287  1.00  0.00     0.031 C 
ATOM     49  C   UNL     1      -8.936  -7.313   2.369  1.00  0.00     0.029 A 
ATOM     50  C   UNL     1      -9.935  -6.366   2.628  1.00  0.00     0.049 A 
ATOM     51  H   UNL     1     -10.438  -5.569   4.521  1.00  0.00     0.167 HD
ATOM     52  C   UNL     1     -10.963  -5.934   0.519  1.00  0.00     0.074 A 
ATOM     53  C   UNL     1     -10.336  -7.044  -0.170  1.00  0.00     0.031 C 
ATOM     54  C   UNL     1     -10.848  -5.588   1.828  1.00  0.00     0.037 A 
BRANCH  41  55
ATOM     55  C   UNL     1      -7.913  -5.791   6.654  1.00  0.00     0.064 A 
ATOM     56  C   UNL     1      -8.295  -7.048   7.179  1.00  0.00     0.173 A 
ATOM     57  C   UNL     1      -8.064  -4.686   7.500  1.00  0.00     0.173 A 
ATOM     58  F   UNL     1      -8.124  -8.171   6.463  1.00  0.00    -0.203 F 
ATOM     59  C   UNL     1      -8.935  -7.167   8.408  1.00  0.00     0.198 A 
ATOM     60  C   UNL     1      -8.665  -4.818   8.756  1.00  0.00     0.198 A 
ATOM     61  F   UNL     1      -7.730  -3.454   7.093  1.00  0.00    -0.203 F 
ATOM     62  F   UNL     1      -9.412  -8.358   8.797  1.00  0.00    -0.200 F 
ATOM     63  C   UNL     1      -9.140  -6.047   9.187  1.00  0.00     0.200 A 
ATOM     64  F   UNL     1      -8.853  -3.732   9.519  1.00  0.00    -0.200 F 
ATOM     65  F   UNL     1      -9.823  -6.144  10.335  1.00  0.00    -0.200 F 
ENDBRANCH  41  55
BRANCH  42  66
ATOM     66  C   UNL     1     -10.308  -4.617  -3.799  1.00  0.00     0.064 A 
ATOM     67  C   UNL     1      -9.993  -3.857  -4.930  1.00  0.00     0.173 A 
ATOM     68  C   UNL     1     -11.016  -5.824  -4.091  1.00  0.00     0.173 A 
ATOM     69  F   UNL     1      -9.439  -2.645  -4.809  1.00  0.00    -0.203 F 
ATOM     70  C   UNL     1     -10.244  -4.330  -6.238  1.00  0.00     0.198 A 
ATOM     71  C   UNL     1     -11.206  -6.321  -5.380  1.00  0.00     0.198 A 
ATOM     72  F   UNL     1     -11.540  -6.586  -3.122  1.00  0.00    -0.203 F 
ATOM     73  F   UNL     1      -9.917  -3.573  -7.295  1.00  0.00    -0.200 F 
ATOM     74  C   UNL     1     -10.800  -5.580  -6.460  1.00  0.00     0.200 A 
ATOM     75  F   UNL     1     -11.755  -7.533  -5.550  1.00  0.00    -0.200 F 
ATOM     76  F   UNL     1     -10.952  -6.063  -7.700  1.00  0.00    -0.200 F 
ENDBRANCH  42  66
BRANCH  54  77
ATOM     77  C   UNL     1     -11.429  -4.221   2.171  1.00  0.00     0.064 A 
ATOM     78  C   UNL     1     -12.791  -3.967   1.942  1.00  0.00     0.173 A 
ATOM     79  C   UNL     1     -10.675  -3.114   2.602  1.00  0.00     0.173 A 
ATOM     80  F   UNL     1     -13.601  -4.968   1.568  1.00  0.00    -0.203 F 
ATOM     81  C   UNL     1     -13.344  -2.690   2.094  1.00  0.00     0.198 A 
ATOM     82  C   UNL     1     -11.220  -1.835   2.751  1.00  0.00     0.198 A 
ATOM     83  F   UNL     1      -9.391  -3.242   2.919  1.00  0.00    -0.203 F 
ATOM     84  F   UNL     1     -14.649  -2.498   1.863  1.00  0.00    -0.200 F 
ATOM     85  C   UNL     1     -12.557  -1.622   2.490  1.00  0.00     0.200 A 
ATOM     86  F   UNL     1     -10.444  -0.817   3.160  1.00  0.00    -0.200 F 
ATOM     87  F   UNL     1     -13.089  -0.401   2.645  1.00  0.00    -0.200 F 
ENDBRANCH  54  77
ENDBRANCH  28  29
ENDBRANCH  21  23
ENDBRANCH  20  21
ENDBRANCH  19  20
ENDBRANCH   1  19
TORSDOF 14
