REMARK SMILES Cc1c(Cl)cc2c(c1C)O[C@H](C(F)(F)F)C(C(=O)OCCOC(=O)c1ccc(-c3c4nc(c(-c5c(F)c(F)c(F)c(F)c5F)c5ccc([nH]5)c(-c5c(F)c(F)c(F)c(F)c5F)c5nc(c(-c6c(F)c(F)c(F)c(F)c6F)c6ccc3[nH]6)C=C5)C=C4)cc1)=C2
REMARK SMILES IDX 21 1 20 2 19 3 17 4 18 5 16 6 1 7 2 8 3 9 8 10 4 11 5 12
REMARK SMILES IDX 7 13 9 14 6 15 10 16 88 17 11 18 12 19 13 20 14 21 15 22
REMARK SMILES IDX 22 23 23 24 24 25 25 26 26 27 87 28 27 29 86 30 28 31 29 32
REMARK SMILES IDX 30 33 80 34 31 35 85 36 79 37 81 38 32 39 84 40 78 41 77 42
REMARK SMILES IDX 33 44 65 45 45 46 64 47 46 48 49 49 63 50 82 51 47 52 48 53
REMARK SMILES IDX 62 55 83 56 50 57 34 58 35 59 43 60 36 61 37 62 41 63 44 64
REMARK SMILES IDX 38 65 39 66 42 67 40 68 66 69 67 70 75 71 68 72 69 73 73 74
REMARK SMILES IDX 76 75 70 76 71 77 74 78 72 79 51 80 52 81 60 82 53 83 54 84
REMARK SMILES IDX 58 85 61 86 55 87 56 88 59 89 57 90
REMARK H PARENT 81 43 49 54
REMARK Flexibility Score: inf
ROOT
ATOM      1  C   UNL     1      -1.199   1.221  10.221  1.00  0.00     0.275 C 
ENDROOT
BRANCH   1   2
ATOM      2  C   UNL     1      -2.209   0.409   9.409  1.00  0.00     0.275 C 
BRANCH   2   3
ATOM      3  O   UNL     1      -1.664   0.007   8.133  1.00  0.00    -0.459 OA
BRANCH   3   4
ATOM      4  C   UNL     1      -2.083   0.728   7.069  1.00  0.00     0.338 C 
ATOM      5  O   UNL     1      -2.869   1.664   7.087  1.00  0.00    -0.246 OA
BRANCH   4   6
ATOM      6  C   UNL     1      -1.428   0.265   5.832  1.00  0.00     0.087 C 
ATOM      7  C   UNL     1       0.971  -0.280  -0.222  1.00  0.00     0.046 C 
ATOM      8  C   UNL     1       0.514   0.060   1.175  1.00  0.00    -0.026 A 
ATOM      9  C   UNL     1       0.590   1.397   1.615  1.00  0.00     0.045 A 
ATOM     10  C   UNL     1       0.054  -0.931   2.084  1.00  0.00    -0.004 A 
ATOM     11  Cl  UNL     1       1.228   2.666   0.625  1.00  0.00    -0.084 Cl
ATOM     12  C   UNL     1       0.148   1.759   2.885  1.00  0.00     0.032 A 
ATOM     13  C   UNL     1      -0.399  -0.544   3.365  1.00  0.00     0.131 A 
ATOM     14  C   UNL     1      -0.005  -2.399   1.740  1.00  0.00     0.049 C 
ATOM     15  C   UNL     1      -0.367   0.794   3.748  1.00  0.00     0.019 A 
ATOM     16  O   UNL     1      -0.846  -1.534   4.205  1.00  0.00    -0.475 OA
ATOM     17  C   UNL     1      -0.895   1.194   5.034  1.00  0.00     0.027 C 
ATOM     18  C   UNL     1      -1.518  -1.182   5.449  1.00  0.00     0.316 C 
BRANCH  18  19
ATOM     19  C   UNL     1      -2.983  -1.640   5.367  1.00  0.00     0.430 C 
ATOM     20  F   UNL     1      -3.076  -2.939   4.997  1.00  0.00    -0.167 F 
ATOM     21  F   UNL     1      -3.604  -1.534   6.567  1.00  0.00    -0.167 F 
ATOM     22  F   UNL     1      -3.696  -0.911   4.478  1.00  0.00    -0.167 F 
ENDBRANCH  18  19
ENDBRANCH   4   6
ENDBRANCH   3   4
ENDBRANCH   2   3
ENDBRANCH   1   2
BRANCH   1  23
ATOM     23  O   UNL     1      -0.931   2.481   9.578  1.00  0.00    -0.458 OA
BRANCH  23  24
ATOM     24  C   UNL     1       0.275   2.565   8.974  1.00  0.00     0.338 C 
ATOM     25  O   UNL     1       1.152   1.718   8.947  1.00  0.00    -0.246 OA
BRANCH  24  26
ATOM     26  C   UNL     1       0.401   3.825   8.226  1.00  0.00     0.060 A 
ATOM     27  C   UNL     1      -0.391   4.005   7.099  1.00  0.00     0.016 A 
ATOM     28  C   UNL     1       1.479   4.673   8.462  1.00  0.00     0.016 A 
ATOM     29  C   UNL     1       0.018   4.884   6.100  1.00  0.00     0.010 A 
ATOM     30  C   UNL     1       1.785   5.671   7.530  1.00  0.00     0.010 A 
ATOM     31  C   UNL     1       1.109   5.739   6.296  1.00  0.00    -0.014 A 
BRANCH  31  32
ATOM     32  C   UNL     1       1.594   6.648   5.213  1.00  0.00     0.031 A 
ATOM     33  C   UNL     1       3.054   6.644   4.826  1.00  0.00     0.074 A 
ATOM     34  C   UNL     1       0.751   7.469   4.553  1.00  0.00     0.049 A 
ATOM     35  N   UNL     1       3.742   7.537   4.157  1.00  0.00    -0.248 NA
ATOM     36  C   UNL     1       3.852   5.488   5.266  1.00  0.00     0.031 C 
ATOM     37  C   UNL     1      -0.700   7.528   4.728  1.00  0.00     0.029 A 
ATOM     38  N   UNL     1       1.001   8.422   3.592  1.00  0.00    -0.354 N 
ATOM     39  C   UNL     1       5.058   7.086   4.161  1.00  0.00     0.074 A 
ATOM     40  C   UNL     1       5.075   5.842   4.899  1.00  0.00     0.031 C 
ATOM     41  C   UNL     1      -1.215   8.426   3.878  1.00  0.00     0.029 A 
ATOM     42  C   UNL     1      -0.122   9.107   3.197  1.00  0.00     0.049 A 
ATOM     43  H   UNL     1       1.897   8.595   3.224  1.00  0.00     0.167 HD
ATOM     44  C   UNL     1       6.149   7.664   3.602  1.00  0.00     0.037 A 
ATOM     45  C   UNL     1      -0.262  10.209   2.435  1.00  0.00     0.037 A 
ATOM     46  C   UNL     1       6.108   8.868   2.810  1.00  0.00     0.049 A 
ATOM     47  C   UNL     1       0.966  10.883   1.896  1.00  0.00     0.074 A 
ATOM     48  C   UNL     1       7.154   9.540   2.202  1.00  0.00     0.029 A 
ATOM     49  N   UNL     1       4.950   9.565   2.492  1.00  0.00    -0.354 N 
ATOM     50  N   UNL     1       2.222  10.524   2.002  1.00  0.00    -0.248 NA
ATOM     51  C   UNL     1       0.758  12.135   1.156  1.00  0.00     0.031 C 
ATOM     52  C   UNL     1       6.636  10.667   1.555  1.00  0.00     0.029 A 
ATOM     53  C   UNL     1       5.260  10.669   1.714  1.00  0.00     0.049 A 
ATOM     54  H   UNL     1       4.043   9.312   2.778  1.00  0.00     0.167 HD
ATOM     55  C   UNL     1       2.954  11.500   1.340  1.00  0.00     0.074 A 
ATOM     56  C   UNL     1       1.997  12.448   0.805  1.00  0.00     0.031 C 
ATOM     57  C   UNL     1       4.298  11.608   1.198  1.00  0.00     0.037 A 
BRANCH  44  58
ATOM     58  C   UNL     1       7.491   7.032   3.848  1.00  0.00     0.064 A 
ATOM     59  C   UNL     1       7.866   5.819   3.253  1.00  0.00     0.173 A 
ATOM     60  C   UNL     1       8.442   7.689   4.647  1.00  0.00     0.173 A 
ATOM     61  F   UNL     1       6.994   5.142   2.491  1.00  0.00    -0.203 F 
ATOM     62  C   UNL     1       9.135   5.280   3.461  1.00  0.00     0.198 A 
ATOM     63  C   UNL     1       9.719   7.163   4.827  1.00  0.00     0.198 A 
ATOM     64  F   UNL     1       8.139   8.855   5.237  1.00  0.00    -0.203 F 
ATOM     65  F   UNL     1       9.458   4.100   2.913  1.00  0.00    -0.200 F 
ATOM     66  C   UNL     1      10.062   5.957   4.239  1.00  0.00     0.200 A 
ATOM     67  F   UNL     1      10.618   7.828   5.567  1.00  0.00    -0.200 F 
ATOM     68  F   UNL     1      11.287   5.445   4.424  1.00  0.00    -0.200 F 
ENDBRANCH  44  58
BRANCH  45  69
ATOM     69  C   UNL     1      -1.617  10.776   2.199  1.00  0.00     0.064 A 
ATOM     70  C   UNL     1      -2.185  10.771   0.919  1.00  0.00     0.173 A 
ATOM     71  C   UNL     1      -2.381  11.315   3.248  1.00  0.00     0.173 A 
ATOM     72  F   UNL     1      -1.484  10.298  -0.122  1.00  0.00    -0.203 F 
ATOM     73  C   UNL     1      -3.463  11.281   0.696  1.00  0.00     0.198 A 
ATOM     74  C   UNL     1      -3.671  11.790   3.031  1.00  0.00     0.198 A 
ATOM     75  F   UNL     1      -1.883  11.350   4.493  1.00  0.00    -0.203 F 
ATOM     76  F   UNL     1      -3.967  11.298  -0.545  1.00  0.00    -0.200 F 
ATOM     77  C   UNL     1      -4.210  11.778   1.754  1.00  0.00     0.200 A 
ATOM     78  F   UNL     1      -4.395  12.251   4.060  1.00  0.00    -0.200 F 
ATOM     79  F   UNL     1      -5.446  12.250   1.542  1.00  0.00    -0.200 F 
ENDBRANCH  45  69
BRANCH  57  80
ATOM     80  C   UNL     1       4.808  12.789   0.424  1.00  0.00     0.064 A 
ATOM     81  C   UNL     1       4.738  14.091   0.944  1.00  0.00     0.173 A 
ATOM     82  C   UNL     1       5.391  12.617  -0.840  1.00  0.00     0.173 A 
ATOM     83  F   UNL     1       4.174  14.310   2.141  1.00  0.00    -0.203 F 
ATOM     84  C   UNL     1       5.202  15.180   0.211  1.00  0.00     0.198 A 
ATOM     85  C   UNL     1       5.886  13.705  -1.555  1.00  0.00     0.198 A 
ATOM     86  F   UNL     1       5.490  11.393  -1.380  1.00  0.00    -0.203 F 
ATOM     87  F   UNL     1       5.071  16.419   0.703  1.00  0.00    -0.200 F 
ATOM     88  C   UNL     1       5.782  14.985  -1.033  1.00  0.00     0.200 A 
ATOM     89  F   UNL     1       6.459  13.514  -2.751  1.00  0.00    -0.200 F 
ATOM     90  F   UNL     1       6.231  16.035  -1.735  1.00  0.00    -0.200 F 
ENDBRANCH  57  80
ENDBRANCH  31  32
ENDBRANCH  24  26
ENDBRANCH  23  24
ENDBRANCH   1  23
TORSDOF 12
