REMARK SMILES C[C@@H]1OCC[C@@H]1C(=O)Nc1ccc(C(=O)OCCOC(=O)c2ccc(-c3c4nc(c(-c5c(F)c(F)c(F)c(F)c5F)c5ccc([nH]5)c(-c5c(F)c(F)c(F)c(F)c5F)c5nc(c(-c6c(F)c(F)c(F)c(F)c6F)c6ccc3[nH]6)C=C5)C=C4)cc2)cc1F
REMARK SMILES IDX 17 1 16 2 14 3 15 4 13 5 10 6 11 7 86 8 12 9 85 10 87 11
REMARK SMILES IDX 9 12 7 13 8 14 6 16 1 17 2 18 3 19 4 20 5 21 18 22 19 23
REMARK SMILES IDX 20 24 21 25 22 26 23 27 84 28 24 29 83 30 25 31 26 32 27 33
REMARK SMILES IDX 77 34 28 35 82 36 76 37 78 38 29 39 81 40 75 41 74 42 30 44
REMARK SMILES IDX 62 45 42 46 61 47 43 48 46 49 60 50 79 51 44 52 45 53 59 55
REMARK SMILES IDX 80 56 47 57 31 58 32 59 40 60 33 61 34 62 38 63 41 64 35 65
REMARK SMILES IDX 36 66 39 67 37 68 63 69 64 70 72 71 65 72 66 73 70 74 73 75
REMARK SMILES IDX 67 76 68 77 71 78 69 79 48 80 49 81 57 82 50 83 51 84 55 85
REMARK SMILES IDX 58 86 52 87 53 88 56 89 54 90
REMARK H PARENT 9 15 78 43 46 54
REMARK Flexibility Score: inf
ROOT
ATOM      1  C   UNL     1       2.488  -2.113   7.151  1.00  0.00     0.275 C 
ENDROOT
BRANCH   1   2
ATOM      2  O   UNL     1       2.387  -1.388   5.911  1.00  0.00    -0.458 OA
BRANCH   2   3
ATOM      3  C   UNL     1       1.903  -0.131   6.005  1.00  0.00     0.338 C 
ATOM      4  O   UNL     1       1.549   0.464   7.012  1.00  0.00    -0.246 OA
BRANCH   3   5
ATOM      5  C   UNL     1       1.798   0.452   4.663  1.00  0.00     0.063 A 
ATOM      6  C   UNL     1       1.276   1.641   2.147  1.00  0.00     0.077 A 
ATOM      7  C   UNL     1       2.212   2.197   3.027  1.00  0.00     0.030 A 
ATOM      8  C   UNL     1       0.609   0.484   2.591  1.00  0.00     0.147 A 
ATOM      9  C   UNL     1       2.461   1.616   4.276  1.00  0.00     0.018 A 
ATOM     10  C   UNL     1       0.878  -0.120   3.810  1.00  0.00     0.057 A 
ATOM     11  F   UNL     1      -0.376  -0.117   1.928  1.00  0.00    -0.205 F 
BRANCH   6  12
ATOM     12  N   UNL     1       1.128   2.350   0.928  1.00  0.00    -0.323 N 
ATOM     13  C   UNL     1       0.434   2.148  -0.234  1.00  0.00     0.230 C 
ATOM     14  O   UNL     1       0.491   3.020  -1.103  1.00  0.00    -0.274 OA
ATOM     15  H   UNL     1       1.647   3.187   0.915  1.00  0.00     0.170 HD
BRANCH  13  16
ATOM     16  C   UNL     1      -0.344   0.888  -0.435  1.00  0.00     0.110 C 
ATOM     17  C   UNL     1       1.726  -0.132  -1.599  1.00  0.00     0.039 C 
ATOM     18  C   UNL     1       0.533  -0.347  -0.669  1.00  0.00     0.127 C 
ATOM     19  O   UNL     1      -0.332  -1.327  -1.285  1.00  0.00    -0.378 OA
ATOM     20  C   UNL     1      -1.608  -0.704  -1.499  1.00  0.00     0.161 C 
ATOM     21  C   UNL     1      -1.326   0.785  -1.576  1.00  0.00     0.044 C 
ENDBRANCH  13  16
ENDBRANCH   6  12
ENDBRANCH   3   5
ENDBRANCH   2   3
ENDBRANCH   1   2
BRANCH   1  22
ATOM     22  C   UNL     1       3.930  -2.133   7.654  1.00  0.00     0.275 C 
BRANCH  22  23
ATOM     23  O   UNL     1       4.361  -0.800   7.992  1.00  0.00    -0.458 OA
BRANCH  23  24
ATOM     24  C   UNL     1       5.230  -0.239   7.121  1.00  0.00     0.338 C 
ATOM     25  O   UNL     1       5.726  -0.745   6.131  1.00  0.00    -0.246 OA
BRANCH  24  26
ATOM     26  C   UNL     1       5.438   1.181   7.448  1.00  0.00     0.060 A 
ATOM     27  C   UNL     1       4.417   2.067   7.148  1.00  0.00     0.016 A 
ATOM     28  C   UNL     1       6.691   1.670   7.801  1.00  0.00     0.016 A 
ATOM     29  C   UNL     1       4.676   3.423   7.013  1.00  0.00     0.010 A 
ATOM     30  C   UNL     1       6.899   3.058   7.843  1.00  0.00     0.010 A 
ATOM     31  C   UNL     1       5.908   3.955   7.398  1.00  0.00    -0.014 A 
BRANCH  31  32
ATOM     32  C   UNL     1       6.144   5.427   7.297  1.00  0.00     0.031 A 
ATOM     33  C   UNL     1       7.359   5.958   6.578  1.00  0.00     0.074 A 
ATOM     34  C   UNL     1       5.250   6.305   7.802  1.00  0.00     0.049 A 
ATOM     35  N   UNL     1       7.850   7.172   6.569  1.00  0.00    -0.248 NA
ATOM     36  C   UNL     1       8.133   4.998   5.776  1.00  0.00     0.031 C 
ATOM     37  C   UNL     1       3.989   5.953   8.460  1.00  0.00     0.029 A 
ATOM     38  N   UNL     1       5.248   7.680   7.821  1.00  0.00    -0.354 N 
ATOM     39  C   UNL     1       9.025   7.103   5.832  1.00  0.00     0.074 A 
ATOM     40  C   UNL     1       9.174   5.729   5.402  1.00  0.00     0.031 C 
ATOM     41  C   UNL     1       3.304   7.069   8.739  1.00  0.00     0.029 A 
ATOM     42  C   UNL     1       4.135   8.221   8.421  1.00  0.00     0.049 A 
ATOM     43  H   UNL     1       5.974   8.226   7.441  1.00  0.00     0.167 HD
ATOM     44  C   UNL     1       9.900   8.097   5.548  1.00  0.00     0.037 A 
ATOM     45  C   UNL     1       3.834   9.492   8.748  1.00  0.00     0.037 A 
ATOM     46  C   UNL     1       9.704   9.476   5.916  1.00  0.00     0.049 A 
ATOM     47  C   UNL     1       4.840  10.569   8.470  1.00  0.00     0.074 A 
ATOM     48  C   UNL     1      10.529  10.560   5.670  1.00  0.00     0.029 A 
ATOM     49  N   UNL     1       8.593   9.966   6.587  1.00  0.00    -0.354 N 
ATOM     50  N   UNL     1       6.001  10.477   7.870  1.00  0.00    -0.248 NA
ATOM     51  C   UNL     1       4.513  11.919   8.947  1.00  0.00     0.031 C 
ATOM     52  C   UNL     1       9.938  11.697   6.228  1.00  0.00     0.029 A 
ATOM     53  C   UNL     1       8.719  11.333   6.776  1.00  0.00     0.049 A 
ATOM     54  H   UNL     1       7.828   9.422   6.885  1.00  0.00     0.167 HD
ATOM     55  C   UNL     1       6.544  11.752   7.894  1.00  0.00     0.074 A 
ATOM     56  C   UNL     1       5.573  12.608   8.546  1.00  0.00     0.031 C 
ATOM     57  C   UNL     1       7.745  12.171   7.428  1.00  0.00     0.037 A 
BRANCH  44  58
ATOM     58  C   UNL     1      11.173   7.737   4.835  1.00  0.00     0.064 A 
ATOM     59  C   UNL     1      12.400   7.807   5.515  1.00  0.00     0.173 A 
ATOM     60  C   UNL     1      11.196   7.385   3.478  1.00  0.00     0.173 A 
ATOM     61  F   UNL     1      12.436   8.143   6.813  1.00  0.00    -0.203 F 
ATOM     62  C   UNL     1      13.602   7.554   4.859  1.00  0.00     0.198 A 
ATOM     63  C   UNL     1      12.399   7.103   2.833  1.00  0.00     0.198 A 
ATOM     64  F   UNL     1      10.052   7.289   2.786  1.00  0.00    -0.203 F 
ATOM     65  F   UNL     1      14.762   7.661   5.522  1.00  0.00    -0.200 F 
ATOM     66  C   UNL     1      13.600   7.197   3.520  1.00  0.00     0.200 A 
ATOM     67  F   UNL     1      12.394   6.732   1.545  1.00  0.00    -0.200 F 
ATOM     68  F   UNL     1      14.756   6.941   2.892  1.00  0.00    -0.200 F 
ENDBRANCH  44  58
BRANCH  45  69
ATOM     69  C   UNL     1       2.545   9.790   9.428  1.00  0.00     0.064 A 
ATOM     70  C   UNL     1       2.272   9.313  10.720  1.00  0.00     0.173 A 
ATOM     71  C   UNL     1       1.539  10.515   8.777  1.00  0.00     0.173 A 
ATOM     72  F   UNL     1       3.202   8.616  11.389  1.00  0.00    -0.203 F 
ATOM     73  C   UNL     1       1.029   9.510  11.315  1.00  0.00     0.198 A 
ATOM     74  C   UNL     1       0.306  10.742   9.388  1.00  0.00     0.198 A 
ATOM     75  F   UNL     1       1.760  11.016   7.553  1.00  0.00    -0.203 F 
ATOM     76  F   UNL     1       0.777   8.991  12.525  1.00  0.00    -0.200 F 
ATOM     77  C   UNL     1       0.047  10.227  10.649  1.00  0.00     0.200 A 
ATOM     78  F   UNL     1      -0.631  11.459   8.753  1.00  0.00    -0.200 F 
ATOM     79  F   UNL     1      -1.148  10.421  11.223  1.00  0.00    -0.200 F 
ENDBRANCH  45  69
BRANCH  57  80
ATOM     80  C   UNL     1       8.074  13.626   7.585  1.00  0.00     0.064 A 
ATOM     81  C   UNL     1       8.114  14.470   6.465  1.00  0.00     0.173 A 
ATOM     82  C   UNL     1       8.409  14.169   8.833  1.00  0.00     0.173 A 
ATOM     83  F   UNL     1       7.807  13.995   5.249  1.00  0.00    -0.203 F 
ATOM     84  C   UNL     1       8.492  15.803   6.588  1.00  0.00     0.198 A 
ATOM     85  C   UNL     1       8.759  15.511   8.957  1.00  0.00     0.198 A 
ATOM     86  F   UNL     1       8.369  13.405   9.935  1.00  0.00    -0.203 F 
ATOM     87  F   UNL     1       8.555  16.583   5.500  1.00  0.00    -0.200 F 
ATOM     88  C   UNL     1       8.810  16.323   7.834  1.00  0.00     0.200 A 
ATOM     89  F   UNL     1       9.040  16.019  10.164  1.00  0.00    -0.200 F 
ATOM     90  F   UNL     1       9.162  17.611   7.953  1.00  0.00    -0.200 F 
ENDBRANCH  57  80
ENDBRANCH  31  32
ENDBRANCH  24  26
ENDBRANCH  23  24
ENDBRANCH  22  23
ENDBRANCH   1  22
TORSDOF 13
