REMARK SMILES O=C(CCSc1nc(-c2cccs2)cc(C(F)(F)F)n1)OCCOC(=O)c1ccc(-c2c3nc(c(-c4c(F)c(F)c(F)c(F)c4F)c4ccc([nH]4)c(-c4c(F)c(F)c(F)c(F)c4F)c4nc(c(-c5c(F)c(F)c(F)c(F)c5F)c5ccc2[nH]5)C=C4)C=C3)cc1
REMARK SMILES IDX 22 1 21 2 2 3 1 4 3 5 4 6 5 7 6 8 7 9 20 10 8 11 15 12 14 13
REMARK SMILES IDX 9 14 10 15 13 16 11 17 12 18 16 19 17 20 18 21 19 22 23 23
REMARK SMILES IDX 24 24 25 25 26 26 27 27 28 28 89 29 29 30 88 31 30 32 31 33
REMARK SMILES IDX 32 34 82 35 33 36 87 37 81 38 83 39 34 40 86 41 80 42 79 43
REMARK SMILES IDX 35 45 67 46 47 47 66 48 48 49 51 50 65 51 84 52 49 53 50 54
REMARK SMILES IDX 64 56 85 57 52 58 36 59 37 60 45 61 38 62 39 63 43 64 46 65
REMARK SMILES IDX 40 66 41 67 44 68 42 69 68 70 69 71 77 72 70 73 71 74 75 75
REMARK SMILES IDX 78 76 72 77 73 78 76 79 74 80 53 81 54 82 62 83 55 84 56 85
REMARK SMILES IDX 60 86 63 87 57 88 58 89 61 90 59 91
REMARK H PARENT 83 44 51 55
REMARK Flexibility Score: inf
ROOT
ATOM      1  C   UNL     1       4.650  -1.570  -0.164  1.00  0.00     0.274 C 
ENDROOT
BRANCH   1   2
ATOM      2  O   UNL     1       3.347  -1.168   0.319  1.00  0.00    -0.462 OA
BRANCH   2   3
ATOM      3  C   UNL     1       2.881   0.097   0.401  1.00  0.00     0.306 C 
ATOM      4  O   UNL     1       1.777   0.314   0.898  1.00  0.00    -0.252 OA
BRANCH   3   5
ATOM      5  C   UNL     1       3.720   1.239  -0.110  1.00  0.00     0.134 C 
BRANCH   5   6
ATOM      6  C   UNL     1       4.237   2.136   1.010  1.00  0.00     0.090 C 
BRANCH   6   7
ATOM      7  S   UNL     1       5.605   1.423   1.992  1.00  0.00    -0.086 SA
BRANCH   7   8
ATOM      8  C   UNL     1       4.670   0.336   3.036  1.00  0.00     0.188 A 
ATOM      9  N   UNL     1       4.923  -0.972   2.926  1.00  0.00    -0.222 NA
ATOM     10  N   UNL     1       3.669   0.869   3.748  1.00  0.00    -0.218 NA
ATOM     11  C   UNL     1       4.065  -1.806   3.545  1.00  0.00     0.085 A 
ATOM     12  C   UNL     1       2.832   0.010   4.383  1.00  0.00     0.149 A 
ATOM     13  C   UNL     1       2.991  -1.360   4.285  1.00  0.00     0.063 A 
BRANCH  11  14
ATOM     14  C   UNL     1       4.281  -3.237   3.307  1.00  0.00     0.053 A 
ATOM     15  C   UNL     1       3.345  -4.219   3.028  1.00  0.00     0.022 A 
ATOM     16  S   UNL     1       5.865  -3.899   3.354  1.00  0.00    -0.142 S 
ATOM     17  C   UNL     1       3.929  -5.509   2.861  1.00  0.00     0.012 A 
ATOM     18  C   UNL     1       5.296  -5.476   3.015  1.00  0.00     0.065 A 
ENDBRANCH  11  14
BRANCH  12  19
ATOM     19  C   UNL     1       1.673   0.577   5.185  1.00  0.00     0.433 C 
ATOM     20  F   UNL     1       2.050   1.575   6.033  1.00  0.00    -0.165 F 
ATOM     21  F   UNL     1       0.683   1.095   4.406  1.00  0.00    -0.165 F 
ATOM     22  F   UNL     1       1.066  -0.359   5.975  1.00  0.00    -0.165 F 
ENDBRANCH  12  19
ENDBRANCH   7   8
ENDBRANCH   6   7
ENDBRANCH   5   6
ENDBRANCH   3   5
ENDBRANCH   2   3
ENDBRANCH   1   2
BRANCH   1  23
ATOM     23  C   UNL     1       4.542  -2.195  -1.550  1.00  0.00     0.275 C 
BRANCH  23  24
ATOM     24  O   UNL     1       4.061  -1.222  -2.488  1.00  0.00    -0.458 OA
BRANCH  24  25
ATOM     25  C   UNL     1       2.717  -1.220  -2.681  1.00  0.00     0.338 C 
ATOM     26  O   UNL     1       1.901  -1.994  -2.225  1.00  0.00    -0.246 OA
BRANCH  25  27
ATOM     27  C   UNL     1       2.365  -0.004  -3.439  1.00  0.00     0.060 A 
ATOM     28  C   UNL     1       1.218   0.709  -3.068  1.00  0.00     0.016 A 
ATOM     29  C   UNL     1       3.160   0.429  -4.504  1.00  0.00     0.016 A 
ATOM     30  C   UNL     1       0.856   1.857  -3.775  1.00  0.00     0.010 A 
ATOM     31  C   UNL     1       2.797   1.574  -5.207  1.00  0.00     0.010 A 
ATOM     32  C   UNL     1       1.636   2.284  -4.858  1.00  0.00    -0.014 A 
BRANCH  32  33
ATOM     33  C   UNL     1       1.218   3.420  -5.709  1.00  0.00     0.031 A 
ATOM     34  C   UNL     1       0.582   3.133  -7.037  1.00  0.00     0.074 A 
ATOM     35  C   UNL     1       1.493   4.682  -5.335  1.00  0.00     0.049 A 
ATOM     36  N   UNL     1       0.290   3.955  -8.011  1.00  0.00    -0.248 NA
ATOM     37  C   UNL     1       0.244   1.726  -7.312  1.00  0.00     0.031 C 
ATOM     38  C   UNL     1       2.106   5.073  -4.067  1.00  0.00     0.029 A 
ATOM     39  N   UNL     1       1.326   5.866  -6.009  1.00  0.00    -0.354 N 
ATOM     40  C   UNL     1      -0.248   3.166  -9.018  1.00  0.00     0.074 A 
ATOM     41  C   UNL     1      -0.228   1.798  -8.549  1.00  0.00     0.031 C 
ATOM     42  C   UNL     1       2.299   6.403  -4.068  1.00  0.00     0.029 A 
ATOM     43  C   UNL     1       1.857   6.948  -5.350  1.00  0.00     0.049 A 
ATOM     44  H   UNL     1       0.872   5.933  -6.879  1.00  0.00     0.167 HD
ATOM     45  C   UNL     1      -0.719   3.557 -10.226  1.00  0.00     0.037 A 
ATOM     46  C   UNL     1       2.004   8.224  -5.758  1.00  0.00     0.037 A 
ATOM     47  C   UNL     1      -0.749   4.922 -10.677  1.00  0.00     0.049 A 
ATOM     48  C   UNL     1       1.518   8.618  -7.130  1.00  0.00     0.074 A 
ATOM     49  C   UNL     1      -1.279   5.429 -11.850  1.00  0.00     0.029 A 
ATOM     50  N   UNL     1      -0.213   5.994  -9.980  1.00  0.00    -0.354 N 
ATOM     51  N   UNL     1       0.939   7.882  -8.047  1.00  0.00    -0.248 NA
ATOM     52  C   UNL     1       1.711  10.021  -7.526  1.00  0.00     0.031 C 
ATOM     53  C   UNL     1      -1.011   6.801 -11.890  1.00  0.00     0.029 A 
ATOM     54  C   UNL     1      -0.360   7.155 -10.720  1.00  0.00     0.049 A 
ATOM     55  H   UNL     1       0.209   5.938  -9.093  1.00  0.00     0.167 HD
ATOM     56  C   UNL     1       0.679   8.733  -9.114  1.00  0.00     0.074 A 
ATOM     57  C   UNL     1       1.147  10.046  -8.725  1.00  0.00     0.031 C 
ATOM     58  C   UNL     1       0.109   8.454 -10.311  1.00  0.00     0.037 A 
BRANCH  45  59
ATOM     59  C   UNL     1      -1.226   2.500 -11.159  1.00  0.00     0.064 A 
ATOM     60  C   UNL     1      -2.455   1.860 -10.949  1.00  0.00     0.173 A 
ATOM     61  C   UNL     1      -0.509   2.185 -12.323  1.00  0.00     0.173 A 
ATOM     62  F   UNL     1      -3.171   2.119  -9.845  1.00  0.00    -0.203 F 
ATOM     63  C   UNL     1      -2.945   0.935 -11.868  1.00  0.00     0.198 A 
ATOM     64  C   UNL     1      -1.012   1.278 -13.251  1.00  0.00     0.198 A 
ATOM     65  F   UNL     1       0.672   2.773 -12.570  1.00  0.00    -0.203 F 
ATOM     66  F   UNL     1      -4.111   0.316 -11.636  1.00  0.00    -0.200 F 
ATOM     67  C   UNL     1      -2.229   0.653 -13.022  1.00  0.00     0.200 A 
ATOM     68  F   UNL     1      -0.325   1.016 -14.371  1.00  0.00    -0.200 F 
ATOM     69  F   UNL     1      -2.711  -0.223 -13.914  1.00  0.00    -0.200 F 
ENDBRANCH  45  59
BRANCH  46  70
ATOM     70  C   UNL     1       2.677   9.219  -4.882  1.00  0.00     0.064 A 
ATOM     71  C   UNL     1       1.972  10.306  -4.346  1.00  0.00     0.173 A 
ATOM     72  C   UNL     1       4.050   9.133  -4.605  1.00  0.00     0.173 A 
ATOM     73  F   UNL     1       0.663  10.447  -4.604  1.00  0.00    -0.203 F 
ATOM     74  C   UNL     1       2.619  11.284  -3.593  1.00  0.00     0.198 A 
ATOM     75  C   UNL     1       4.690  10.095  -3.826  1.00  0.00     0.198 A 
ATOM     76  F   UNL     1       4.772   8.115  -5.095  1.00  0.00    -0.203 F 
ATOM     77  F   UNL     1       1.933  12.345  -3.147  1.00  0.00    -0.200 F 
ATOM     78  C   UNL     1       3.977  11.176  -3.332  1.00  0.00     0.200 A 
ATOM     79  F   UNL     1       6.000   9.982  -3.567  1.00  0.00    -0.200 F 
ATOM     80  F   UNL     1       4.600  12.122  -2.615  1.00  0.00    -0.200 F 
ENDBRANCH  46  70
BRANCH  58  81
ATOM     81  C   UNL     1      -0.059   9.588 -11.279  1.00  0.00     0.064 A 
ATOM     82  C   UNL     1       1.036  10.134 -11.963  1.00  0.00     0.173 A 
ATOM     83  C   UNL     1      -1.336  10.091 -11.572  1.00  0.00     0.173 A 
ATOM     84  F   UNL     1       2.278   9.697 -11.706  1.00  0.00    -0.203 F 
ATOM     85  C   UNL     1       0.861  11.156 -12.892  1.00  0.00     0.198 A 
ATOM     86  C   UNL     1      -1.511  11.091 -12.523  1.00  0.00     0.198 A 
ATOM     87  F   UNL     1      -2.417   9.596 -10.950  1.00  0.00    -0.203 F 
ATOM     88  F   UNL     1       1.926  11.691 -13.505  1.00  0.00    -0.200 F 
ATOM     89  C   UNL     1      -0.412  11.627 -13.178  1.00  0.00     0.200 A 
ATOM     90  F   UNL     1      -2.743  11.534 -12.810  1.00  0.00    -0.200 F 
ATOM     91  F   UNL     1      -0.580  12.600 -14.084  1.00  0.00    -0.200 F 
ENDBRANCH  58  81
ENDBRANCH  32  33
ENDBRANCH  25  27
ENDBRANCH  24  25
ENDBRANCH  23  24
ENDBRANCH   1  23
TORSDOF 16
