REMARK SMILES C[C@H](C(=O)OCCOC(=O)c1ccc(-c2c3nc(c(-c4c(F)c(F)c(F)c(F)c4F)c4ccc([nH]4)c(-c4c(F)c(F)c(F)c(F)c4F)c4nc(c(-c5c(F)c(F)c(F)c(F)c5F)c5ccc2[nH]5)C=C4)C=C3)cc1)[C@H](C)c1ccoc1
REMARK SMILES IDX 6 1 5 2 3 3 4 4 2 5 1 6 74 7 75 8 76 9 77 10 80 11 78 12
REMARK SMILES IDX 79 13 7 14 8 15 9 16 10 17 11 18 12 19 73 20 13 21 72 22
REMARK SMILES IDX 14 23 15 24 16 25 66 26 17 27 71 28 65 29 67 30 18 31 70 32
REMARK SMILES IDX 64 33 63 34 19 36 51 37 31 38 50 39 32 40 35 41 49 42 68 43
REMARK SMILES IDX 33 44 34 45 48 47 69 48 36 49 20 50 21 51 29 52 22 53 23 54
REMARK SMILES IDX 27 55 30 56 24 57 25 58 28 59 26 60 52 61 53 62 61 63 54 64
REMARK SMILES IDX 55 65 59 66 62 67 56 68 57 69 60 70 58 71 37 72 38 73 46 74
REMARK SMILES IDX 39 75 40 76 44 77 47 78 41 79 42 80 45 81 43 82
REMARK H PARENT 67 35 35 46
REMARK Flexibility Score: inf
ROOT
ATOM      1  C   UNL     1       1.402   3.430   0.903  1.00  0.00     0.274 C 
ENDROOT
BRANCH   1   2
ATOM      2  O   UNL     1       0.345   2.793   0.153  1.00  0.00    -0.462 OA
BRANCH   2   3
ATOM      3  C   UNL     1      -0.184   1.666   0.690  1.00  0.00     0.309 C 
ATOM      4  O   UNL     1       0.080   1.237   1.808  1.00  0.00    -0.252 OA
BRANCH   3   5
ATOM      5  C   UNL     1      -1.174   0.965  -0.228  1.00  0.00     0.103 C 
ATOM      6  C   UNL     1      -2.565   1.596  -0.147  1.00  0.00     0.020 C 
BRANCH   5   7
ATOM      7  C   UNL     1      -0.684   0.707  -1.673  1.00  0.00     0.033 C 
ATOM      8  C   UNL     1       0.806   0.363  -1.761  1.00  0.00     0.014 C 
BRANCH   7   9
ATOM      9  C   UNL     1      -1.092   1.739  -2.690  1.00  0.00    -0.006 A 
ATOM     10  C   UNL     1      -1.931   1.504  -3.822  1.00  0.00     0.046 A 
ATOM     11  C   UNL     1      -0.789   3.085  -2.745  1.00  0.00     0.198 A 
ATOM     12  C   UNL     1      -2.080   2.709  -4.462  1.00  0.00     0.195 A 
ATOM     13  O   UNL     1      -1.385   3.675  -3.813  1.00  0.00    -0.472 OA
ENDBRANCH   7   9
ENDBRANCH   5   7
ENDBRANCH   3   5
ENDBRANCH   2   3
ENDBRANCH   1   2
BRANCH   1  14
ATOM     14  C   UNL     1       0.926   4.732   1.538  1.00  0.00     0.275 C 
BRANCH  14  15
ATOM     15  O   UNL     1      -0.080   4.451   2.525  1.00  0.00    -0.458 OA
BRANCH  15  16
ATOM     16  C   UNL     1      -1.335   4.817   2.187  1.00  0.00     0.338 C 
ATOM     17  O   UNL     1      -1.704   5.415   1.193  1.00  0.00    -0.246 OA
BRANCH  16  18
ATOM     18  C   UNL     1      -2.265   4.328   3.210  1.00  0.00     0.060 A 
ATOM     19  C   UNL     1      -2.631   2.983   3.192  1.00  0.00     0.016 A 
ATOM     20  C   UNL     1      -2.872   5.218   4.093  1.00  0.00     0.016 A 
ATOM     21  C   UNL     1      -3.671   2.534   3.996  1.00  0.00     0.010 A 
ATOM     22  C   UNL     1      -3.861   4.748   4.960  1.00  0.00     0.010 A 
ATOM     23  C   UNL     1      -4.294   3.410   4.894  1.00  0.00    -0.014 A 
BRANCH  23  24
ATOM     24  C   UNL     1      -5.426   2.940   5.730  1.00  0.00     0.031 A 
ATOM     25  C   UNL     1      -6.792   3.536   5.543  1.00  0.00     0.074 A 
ATOM     26  C   UNL     1      -5.233   1.972   6.646  1.00  0.00     0.049 A 
ATOM     27  N   UNL     1      -7.865   3.398   6.280  1.00  0.00    -0.248 NA
ATOM     28  C   UNL     1      -6.975   4.410   4.373  1.00  0.00     0.031 C 
ATOM     29  C   UNL     1      -3.970   1.274   6.885  1.00  0.00     0.029 A 
ATOM     30  N   UNL     1      -6.102   1.409   7.546  1.00  0.00    -0.354 N 
ATOM     31  C   UNL     1      -8.831   4.205   5.695  1.00  0.00     0.074 A 
ATOM     32  C   UNL     1      -8.222   4.827   4.539  1.00  0.00     0.031 C 
ATOM     33  C   UNL     1      -4.149   0.363   7.854  1.00  0.00     0.029 A 
ATOM     34  C   UNL     1      -5.517   0.465   8.353  1.00  0.00     0.049 A 
ATOM     35  H   UNL     1      -7.053   1.656   7.606  1.00  0.00     0.167 HD
ATOM     36  C   UNL     1     -10.110   4.409   6.093  1.00  0.00     0.037 A 
ATOM     37  C   UNL     1      -6.013  -0.210   9.406  1.00  0.00     0.037 A 
ATOM     38  C   UNL     1     -10.722   3.753   7.218  1.00  0.00     0.049 A 
ATOM     39  C   UNL     1      -7.426   0.050   9.842  1.00  0.00     0.074 A 
ATOM     40  C   UNL     1     -12.009   3.894   7.708  1.00  0.00     0.029 A 
ATOM     41  N   UNL     1     -10.089   2.815   8.021  1.00  0.00    -0.354 N 
ATOM     42  N   UNL     1      -8.313   0.865   9.326  1.00  0.00    -0.248 NA
ATOM     43  C   UNL     1      -7.902  -0.690  11.019  1.00  0.00     0.031 C 
ATOM     44  C   UNL     1     -12.147   3.057   8.822  1.00  0.00     0.029 A 
ATOM     45  C   UNL     1     -10.957   2.372   9.005  1.00  0.00     0.049 A 
ATOM     46  H   UNL     1      -9.160   2.510   7.908  1.00  0.00     0.167 HD
ATOM     47  C   UNL     1      -9.450   0.737  10.110  1.00  0.00     0.074 A 
ATOM     48  C   UNL     1      -9.150  -0.253  11.124  1.00  0.00     0.031 C 
ATOM     49  C   UNL     1     -10.634   1.387  10.004  1.00  0.00     0.037 A 
BRANCH  36  50
ATOM     50  C   UNL     1     -10.921   5.409   5.326  1.00  0.00     0.064 A 
ATOM     51  C   UNL     1     -11.438   5.124   4.054  1.00  0.00     0.173 A 
ATOM     52  C   UNL     1     -11.207   6.663   5.888  1.00  0.00     0.173 A 
ATOM     53  F   UNL     1     -11.177   3.946   3.469  1.00  0.00    -0.203 F 
ATOM     54  C   UNL     1     -12.196   6.067   3.364  1.00  0.00     0.198 A 
ATOM     55  C   UNL     1     -11.984   7.594   5.204  1.00  0.00     0.198 A 
ATOM     56  F   UNL     1     -10.738   6.983   7.103  1.00  0.00    -0.203 F 
ATOM     57  F   UNL     1     -12.648   5.789   2.133  1.00  0.00    -0.200 F 
ATOM     58  C   UNL     1     -12.473   7.298   3.941  1.00  0.00     0.200 A 
ATOM     59  F   UNL     1     -12.258   8.780   5.766  1.00  0.00    -0.200 F 
ATOM     60  F   UNL     1     -13.206   8.202   3.276  1.00  0.00    -0.200 F 
ENDBRANCH  36  50
BRANCH  37  61
ATOM     61  C   UNL     1      -5.146  -1.166  10.139  1.00  0.00     0.064 A 
ATOM     62  C   UNL     1      -5.361  -2.547  10.053  1.00  0.00     0.173 A 
ATOM     63  C   UNL     1      -4.071  -0.718  10.922  1.00  0.00     0.173 A 
ATOM     64  F   UNL     1      -6.391  -3.021   9.337  1.00  0.00    -0.203 F 
ATOM     65  C   UNL     1      -4.536  -3.445  10.727  1.00  0.00     0.198 A 
ATOM     66  C   UNL     1      -3.232  -1.617  11.573  1.00  0.00     0.198 A 
ATOM     67  F   UNL     1      -3.825   0.596  11.035  1.00  0.00    -0.203 F 
ATOM     68  F   UNL     1      -4.781  -4.761  10.654  1.00  0.00    -0.200 F 
ATOM     69  C   UNL     1      -3.467  -2.980  11.479  1.00  0.00     0.200 A 
ATOM     70  F   UNL     1      -2.193  -1.163  12.288  1.00  0.00    -0.200 F 
ATOM     71  F   UNL     1      -2.667  -3.845  12.117  1.00  0.00    -0.200 F 
ENDBRANCH  37  61
BRANCH  49  72
ATOM     72  C   UNL     1     -11.693   1.034  11.003  1.00  0.00     0.064 A 
ATOM     73  C   UNL     1     -11.638   1.510  12.321  1.00  0.00     0.173 A 
ATOM     74  C   UNL     1     -12.786   0.240  10.630  1.00  0.00     0.173 A 
ATOM     75  F   UNL     1     -10.602   2.259  12.726  1.00  0.00    -0.203 F 
ATOM     76  C   UNL     1     -12.635   1.186  13.237  1.00  0.00     0.198 A 
ATOM     77  C   UNL     1     -13.791  -0.065  11.543  1.00  0.00     0.198 A 
ATOM     78  F   UNL     1     -12.881  -0.235   9.379  1.00  0.00    -0.203 F 
ATOM     79  F   UNL     1     -12.546   1.619  14.502  1.00  0.00    -0.200 F 
ATOM     80  C   UNL     1     -13.712   0.404  12.847  1.00  0.00     0.200 A 
ATOM     81  F   UNL     1     -14.834  -0.816  11.164  1.00  0.00    -0.200 F 
ATOM     82  F   UNL     1     -14.671   0.094  13.730  1.00  0.00    -0.200 F 
ENDBRANCH  49  72
ENDBRANCH  23  24
ENDBRANCH  16  18
ENDBRANCH  15  16
ENDBRANCH  14  15
ENDBRANCH   1  14
TORSDOF 13
