REMARK SMILES Nc1oc2ccc(F)cc2c(=O)c1[C@@H]1[NH2+][C@H](C(=O)OCCOC(=O)c2ccc(-c3c4nc(c(-c5c(F)c(F)c(F)c(F)c5F)c5ccc([nH]5)c(-c5c(F)c(F)c(F)c(F)c5F)c5nc(c(-c6c(F)c(F)c(F)c(F)c6F)c6ccc3[nH]6)C=C5)C=C4)cc2)CS1
REMARK SMILES IDX 20 1 19 2 17 3 18 4 16 5 14 6 15 7 89 8 88 11 13 12 2 13
REMARK SMILES IDX 3 14 4 15 11 16 5 17 10 18 12 19 6 20 9 21 7 22 8 23 1 24
REMARK SMILES IDX 21 27 22 28 23 29 24 30 25 31 26 32 87 33 27 34 86 35 28 36
REMARK SMILES IDX 29 37 30 38 80 39 31 40 85 41 79 42 81 43 32 44 84 45 78 46
REMARK SMILES IDX 77 47 33 49 65 50 45 51 64 52 46 53 49 54 63 55 82 56 47 57
REMARK SMILES IDX 48 58 62 60 83 61 50 62 34 63 35 64 43 65 36 66 37 67 41 68
REMARK SMILES IDX 44 69 38 70 39 71 42 72 40 73 66 74 67 75 75 76 68 77 69 78
REMARK SMILES IDX 73 79 76 80 70 81 71 82 74 83 72 84 51 85 52 86 60 87 53 88
REMARK SMILES IDX 54 89 58 90 61 91 55 92 56 93 59 94 57 95
REMARK H PARENT 15 9 15 10 1 25 1 26 81 48 49 59
REMARK Flexibility Score: inf
ROOT
ATOM      1  C   UNL     1      -1.540  -0.940  -0.900  1.00  0.00     0.274 C 
ENDROOT
BRANCH   1   2
ATOM      2  O   UNL     1      -0.390  -0.158  -1.273  1.00  0.00    -0.458 OA
BRANCH   2   3
ATOM      3  C   UNL     1       0.832  -0.752  -1.244  1.00  0.00     0.365 C 
ATOM      4  O   UNL     1       1.027  -1.921  -0.918  1.00  0.00    -0.245 OA
BRANCH   3   5
ATOM      5  C   UNL     1       1.963   0.149  -1.782  1.00  0.00     0.304 C 
ATOM      6  C   UNL     1       1.896   2.329  -0.781  1.00  0.00     0.283 C 
ATOM      7  N   UNL     1       1.592   1.565  -1.992  1.00  0.00    -0.319 N 
ATOM      8  S   UNL     1       3.402   1.614  -0.068  1.00  0.00    -0.087 SA
ATOM      9  H   UNL     1       2.123   1.943  -2.777  1.00  0.00     0.348 HD
ATOM     10  H   UNL     1       0.595   1.630  -2.197  1.00  0.00     0.348 HD
ATOM     11  C   UNL     1       3.231   0.038  -0.942  1.00  0.00     0.153 C 
BRANCH   6  12
ATOM     12  C   UNL     1       0.711   2.405   0.148  1.00  0.00     0.128 A 
ATOM     13  C   UNL     1       0.328   1.541   1.117  1.00  0.00     0.205 A 
ATOM     14  O   UNL     1      -0.885   1.621   1.779  1.00  0.00    -0.440 OA
ATOM     15  C   UNL     1      -1.628   2.758   1.672  1.00  0.00     0.140 A 
ATOM     16  C   UNL     1      -0.147   3.603  -0.086  1.00  0.00     0.205 A 
ATOM     17  C   UNL     1      -2.732   2.872   2.516  1.00  0.00     0.051 A 
ATOM     18  C   UNL     1      -1.297   3.788   0.805  1.00  0.00     0.068 A 
ATOM     19  O   UNL     1       0.101   4.447  -0.940  1.00  0.00    -0.288 OA
ATOM     20  C   UNL     1      -3.464   4.057   2.530  1.00  0.00     0.043 A 
ATOM     21  C   UNL     1      -2.028   4.977   0.808  1.00  0.00     0.055 A 
ATOM     22  C   UNL     1      -3.095   5.103   1.688  1.00  0.00     0.124 A 
ATOM     23  F   UNL     1      -3.777   6.254   1.738  1.00  0.00    -0.207 F 
BRANCH  13  24
ATOM     24  N   UNL     1       1.039   0.452   1.528  1.00  0.00    -0.369 N 
ATOM     25  H   UNL     1       0.686  -0.126   2.242  1.00  0.00     0.159 HD
ATOM     26  H   UNL     1       1.906   0.244   1.110  1.00  0.00     0.159 HD
ENDBRANCH  13  24
ENDBRANCH   6  12
ENDBRANCH   3   5
ENDBRANCH   2   3
ENDBRANCH   1   2
BRANCH   1  27
ATOM     27  C   UNL     1      -2.501  -1.024  -2.085  1.00  0.00     0.275 C 
BRANCH  27  28
ATOM     28  O   UNL     1      -1.940  -1.867  -3.106  1.00  0.00    -0.458 OA
BRANCH  28  29
ATOM     29  C   UNL     1      -1.123  -1.239  -3.982  1.00  0.00     0.338 C 
ATOM     30  O   UNL     1      -0.909  -0.050  -4.107  1.00  0.00    -0.246 OA
BRANCH  29  31
ATOM     31  C   UNL     1      -0.371  -2.273  -4.694  1.00  0.00     0.060 A 
ATOM     32  C   UNL     1      -0.985  -3.043  -5.675  1.00  0.00     0.016 A 
ATOM     33  C   UNL     1       0.979  -2.443  -4.386  1.00  0.00     0.016 A 
ATOM     34  C   UNL     1      -0.228  -4.003  -6.341  1.00  0.00     0.010 A 
ATOM     35  C   UNL     1       1.747  -3.362  -5.079  1.00  0.00     0.010 A 
ATOM     36  C   UNL     1       1.143  -4.155  -6.056  1.00  0.00    -0.014 A 
BRANCH  36  37
ATOM     37  C   UNL     1       1.976  -5.097  -6.825  1.00  0.00     0.031 A 
ATOM     38  C   UNL     1       2.562  -6.309  -6.167  1.00  0.00     0.074 A 
ATOM     39  C   UNL     1       2.230  -4.804  -8.113  1.00  0.00     0.049 A 
ATOM     40  N   UNL     1       3.290  -7.257  -6.697  1.00  0.00    -0.248 NA
ATOM     41  C   UNL     1       2.320  -6.476  -4.723  1.00  0.00     0.031 C 
ATOM     42  C   UNL     1       1.764  -3.600  -8.806  1.00  0.00     0.029 A 
ATOM     43  N   UNL     1       2.932  -5.489  -9.066  1.00  0.00    -0.354 N 
ATOM     44  C   UNL     1       3.575  -8.137  -5.663  1.00  0.00     0.074 A 
ATOM     45  C   UNL     1       2.999  -7.584  -4.458  1.00  0.00     0.031 C 
ATOM     46  C   UNL     1       2.155  -3.654 -10.088  1.00  0.00     0.029 A 
ATOM     47  C   UNL     1       2.928  -4.873 -10.293  1.00  0.00     0.049 A 
ATOM     48  H   UNL     1       3.394  -6.340  -8.890  1.00  0.00     0.167 HD
ATOM     49  C   UNL     1       4.236  -9.316  -5.732  1.00  0.00     0.037 A 
ATOM     50  C   UNL     1       3.486  -5.260 -11.454  1.00  0.00     0.037 A 
ATOM     51  C   UNL     1       4.799  -9.846  -6.947  1.00  0.00     0.049 A 
ATOM     52  C   UNL     1       4.215  -6.573 -11.495  1.00  0.00     0.074 A 
ATOM     53  C   UNL     1       5.457 -11.047  -7.139  1.00  0.00     0.029 A 
ATOM     54  N   UNL     1       4.771  -9.202  -8.177  1.00  0.00    -0.354 N 
ATOM     55  N   UNL     1       4.414  -7.438 -10.529  1.00  0.00    -0.248 NA
ATOM     56  C   UNL     1       4.785  -6.972 -12.787  1.00  0.00     0.031 C 
ATOM     57  C   UNL     1       5.872 -11.108  -8.472  1.00  0.00     0.029 A 
ATOM     58  C   UNL     1       5.414  -9.976  -9.128  1.00  0.00     0.049 A 
ATOM     59  H   UNL     1       4.356  -8.325  -8.347  1.00  0.00     0.167 HD
ATOM     60  C   UNL     1       5.100  -8.498 -11.102  1.00  0.00     0.074 A 
ATOM     61  C   UNL     1       5.268  -8.174 -12.504  1.00  0.00     0.031 C 
ATOM     62  C   UNL     1       5.553  -9.636 -10.521  1.00  0.00     0.037 A 
BRANCH  49  63
ATOM     63  C   UNL     1       4.365 -10.137  -4.482  1.00  0.00     0.064 A 
ATOM     64  C   UNL     1       3.257 -10.797  -3.929  1.00  0.00     0.173 A 
ATOM     65  C   UNL     1       5.622 -10.366  -3.903  1.00  0.00     0.173 A 
ATOM     66  F   UNL     1       2.031 -10.604  -4.437  1.00  0.00    -0.203 F 
ATOM     67  C   UNL     1       3.405 -11.660  -2.846  1.00  0.00     0.198 A 
ATOM     68  C   UNL     1       5.769 -11.251  -2.837  1.00  0.00     0.198 A 
ATOM     69  F   UNL     1       6.714  -9.762  -4.395  1.00  0.00    -0.203 F 
ATOM     70  F   UNL     1       2.330 -12.270  -2.325  1.00  0.00    -0.200 F 
ATOM     71  C   UNL     1       4.662 -11.899  -2.311  1.00  0.00     0.200 A 
ATOM     72  F   UNL     1       6.987 -11.493  -2.333  1.00  0.00    -0.200 F 
ATOM     73  F   UNL     1       4.807 -12.756  -1.292  1.00  0.00    -0.200 F 
ENDBRANCH  49  63
BRANCH  50  74
ATOM     74  C   UNL     1       3.329  -4.416 -12.667  1.00  0.00     0.064 A 
ATOM     75  C   UNL     1       2.560  -4.851 -13.754  1.00  0.00     0.173 A 
ATOM     76  C   UNL     1       3.927  -3.150 -12.757  1.00  0.00     0.173 A 
ATOM     77  F   UNL     1       1.975  -6.058 -13.720  1.00  0.00    -0.203 F 
ATOM     78  C   UNL     1       2.415  -4.065 -14.895  1.00  0.00     0.198 A 
ATOM     79  C   UNL     1       3.753  -2.350 -13.884  1.00  0.00     0.198 A 
ATOM     80  F   UNL     1       4.662  -2.679 -11.739  1.00  0.00    -0.203 F 
ATOM     81  F   UNL     1       1.713  -4.527 -15.939  1.00  0.00    -0.200 F 
ATOM     82  C   UNL     1       3.006  -2.812 -14.956  1.00  0.00     0.200 A 
ATOM     83  F   UNL     1       4.308  -1.131 -13.930  1.00  0.00    -0.200 F 
ATOM     84  F   UNL     1       2.859  -2.053 -16.051  1.00  0.00    -0.200 F 
ENDBRANCH  50  74
BRANCH  62  85
ATOM     85  C   UNL     1       6.232 -10.637 -11.410  1.00  0.00     0.064 A 
ATOM     86  C   UNL     1       7.500 -10.396 -11.959  1.00  0.00     0.173 A 
ATOM     87  C   UNL     1       5.626 -11.876 -11.670  1.00  0.00     0.173 A 
ATOM     88  F   UNL     1       8.116  -9.224 -11.748  1.00  0.00    -0.203 F 
ATOM     89  C   UNL     1       8.122 -11.348 -12.762  1.00  0.00     0.198 A 
ATOM     90  C   UNL     1       6.267 -12.839 -12.442  1.00  0.00     0.198 A 
ATOM     91  F   UNL     1       4.418 -12.160 -11.158  1.00  0.00    -0.203 F 
ATOM     92  F   UNL     1       9.309 -11.076 -13.320  1.00  0.00    -0.200 F 
ATOM     93  C   UNL     1       7.510 -12.571 -12.995  1.00  0.00     0.200 A 
ATOM     94  F   UNL     1       5.684 -14.027 -12.649  1.00  0.00    -0.200 F 
ATOM     95  F   UNL     1       8.117 -13.490 -13.758  1.00  0.00    -0.200 F 
ENDBRANCH  62  85
ENDBRANCH  36  37
ENDBRANCH  29  31
ENDBRANCH  28  29
ENDBRANCH  27  28
ENDBRANCH   1  27
TORSDOF 13
