REMARK SMILES O=C(OCCOC(=O)[C@H]1CCCC[N@H+]1Cc1ccc([N+](=O)[O-])o1)c1ccc(-c2c3nc(c(-c4c(F)c(F)c(F)c(F)c4F)c4ccc([nH]4)c(-c4c(F)c(F)c(F)c(F)c4F)c4nc(c(-c5c(F)c(F)c(F)c(F)c5F)c5ccc2[nH]5)C=C4)C=C3)cc1
REMARK SMILES IDX 5 1 4 2 3 3 2 4 1 5 24 6 25 7 86 8 26 9 85 10 27 11 28 12
REMARK SMILES IDX 29 13 79 14 30 15 84 16 78 17 80 18 31 19 83 20 77 21 76 22
REMARK SMILES IDX 32 24 64 25 44 26 63 27 45 28 48 29 62 30 81 31 46 32 47 33
REMARK SMILES IDX 61 35 82 36 49 37 33 38 34 39 42 40 35 41 36 42 40 43 43 44
REMARK SMILES IDX 37 45 38 46 41 47 39 48 65 49 66 50 74 51 67 52 68 53 72 54
REMARK SMILES IDX 75 55 69 56 70 57 73 58 71 59 50 60 51 61 59 62 52 63 53 64
REMARK SMILES IDX 57 65 60 66 54 67 55 68 58 69 56 70 6 71 7 72 8 73 9 74
REMARK SMILES IDX 10 75 14 76 11 77 13 78 12 80 15 81 16 82 17 83 23 84 18 85
REMARK SMILES IDX 19 86 20 87 21 88 22 89
REMARK H PARENT 80 23 48 34 14 79
REMARK Flexibility Score: inf
ROOT
ATOM      1  C   UNL     1       3.542  -2.460  -4.419  1.00  0.00     0.274 C 
ENDROOT
BRANCH   1   2
ATOM      2  C   UNL     1       2.058  -2.329  -4.787  1.00  0.00     0.275 C 
BRANCH   2   3
ATOM      3  O   UNL     1       1.475  -1.234  -4.083  1.00  0.00    -0.458 OA
BRANCH   3   4
ATOM      4  C   UNL     1       0.358  -1.392  -3.349  1.00  0.00     0.338 C 
ATOM      5  O   UNL     1      -0.512  -0.528  -3.329  1.00  0.00    -0.246 OA
BRANCH   4   6
ATOM      6  C   UNL     1       0.302  -2.471  -2.328  1.00  0.00     0.060 A 
ATOM      7  C   UNL     1       1.549  -3.666  -1.929  1.00  0.00     0.016 A 
ATOM      8  C   UNL     1      -0.913  -2.206  -1.107  1.00  0.00     0.016 A 
ATOM      9  C   UNL     1       1.503  -4.468  -0.138  1.00  0.00     0.010 A 
ATOM     10  C   UNL     1      -0.933  -2.969   0.444  1.00  0.00     0.010 A 
ATOM     11  C   UNL     1       0.192  -4.149   0.963  1.00  0.00    -0.014 A 
BRANCH  11  12
ATOM     12  C   UNL     1      -0.143  -5.351   1.838  1.00  0.00     0.031 A 
ATOM     13  C   UNL     1      -1.481  -6.077   1.664  1.00  0.00     0.074 A 
ATOM     14  C   UNL     1       0.884  -6.015   2.428  1.00  0.00     0.049 A 
ATOM     15  N   UNL     1      -1.824  -7.281   2.068  1.00  0.00    -0.248 NA
ATOM     16  C   UNL     1      -2.558  -5.423   0.898  1.00  0.00     0.031 C 
ATOM     17  C   UNL     1       2.264  -5.520   2.534  1.00  0.00     0.029 A 
ATOM     18  N   UNL     1       0.981  -7.301   2.914  1.00  0.00    -0.354 N 
ATOM     19  C   UNL     1      -3.129  -7.484   1.621  1.00  0.00     0.074 A 
ATOM     20  C   UNL     1      -3.500  -6.345   0.837  1.00  0.00     0.031 C 
ATOM     21  C   UNL     1       3.080  -6.534   2.857  1.00  0.00     0.029 A 
ATOM     22  C   UNL     1       2.270  -7.683   3.236  1.00  0.00     0.049 A 
ATOM     23  H   UNL     1       0.203  -7.894   3.023  1.00  0.00     0.167 HD
ATOM     24  C   UNL     1      -3.992  -8.484   1.906  1.00  0.00     0.037 A 
ATOM     25  C   UNL     1       2.744  -8.789   3.850  1.00  0.00     0.037 A 
ATOM     26  C   UNL     1      -3.670  -9.574   2.774  1.00  0.00     0.049 A 
ATOM     27  C   UNL     1       1.728  -9.802   4.311  1.00  0.00     0.074 A 
ATOM     28  C   UNL     1      -4.509 -10.539   3.295  1.00  0.00     0.029 A 
ATOM     29  N   UNL     1      -2.403  -9.814   3.277  1.00  0.00    -0.354 N 
ATOM     30  N   UNL     1       0.457  -9.897   4.002  1.00  0.00    -0.248 NA
ATOM     31  C   UNL     1       2.188 -10.813   5.272  1.00  0.00     0.031 C 
ATOM     32  C   UNL     1      -3.766 -11.307   4.193  1.00  0.00     0.029 A 
ATOM     33  C   UNL     1      -2.447 -10.879   4.153  1.00  0.00     0.049 A 
ATOM     34  H   UNL     1      -1.594  -9.303   3.045  1.00  0.00     0.167 HD
ATOM     35  C   UNL     1      -0.040 -10.952   4.753  1.00  0.00     0.074 A 
ATOM     36  C   UNL     1       1.081 -11.510   5.480  1.00  0.00     0.031 C 
ATOM     37  C   UNL     1      -1.313 -11.401   4.864  1.00  0.00     0.037 A 
BRANCH  24  38
ATOM     38  C   UNL     1      -5.417  -8.322   1.456  1.00  0.00     0.064 A 
ATOM     39  C   UNL     1      -5.838  -8.565   0.142  1.00  0.00     0.173 A 
ATOM     40  C   UNL     1      -6.381  -7.904   2.389  1.00  0.00     0.173 A 
ATOM     41  F   UNL     1      -4.949  -8.917  -0.799  1.00  0.00    -0.203 F 
ATOM     42  C   UNL     1      -7.176  -8.402  -0.219  1.00  0.00     0.198 A 
ATOM     43  C   UNL     1      -7.718  -7.766   2.031  1.00  0.00     0.198 A 
ATOM     44  F   UNL     1      -6.022  -7.630   3.652  1.00  0.00    -0.203 F 
ATOM     45  F   UNL     1      -7.557  -8.605  -1.488  1.00  0.00    -0.200 F 
ATOM     46  C   UNL     1      -8.115  -8.014   0.728  1.00  0.00     0.200 A 
ATOM     47  F   UNL     1      -8.618  -7.388   2.949  1.00  0.00    -0.200 F 
ATOM     48  F   UNL     1      -9.401  -7.868   0.380  1.00  0.00    -0.200 F 
ENDBRANCH  24  38
BRANCH  25  49
ATOM     49  C   UNL     1       4.184  -8.908   4.256  1.00  0.00     0.064 A 
ATOM     50  C   UNL     1       4.961 -10.037   3.951  1.00  0.00     0.173 A 
ATOM     51  C   UNL     1       4.800  -7.916   5.045  1.00  0.00     0.173 A 
ATOM     52  F   UNL     1       4.429 -11.048   3.248  1.00  0.00    -0.203 F 
ATOM     53  C   UNL     1       6.272 -10.169   4.421  1.00  0.00     0.198 A 
ATOM     54  C   UNL     1       6.126  -8.019   5.458  1.00  0.00     0.198 A 
ATOM     55  F   UNL     1       4.111  -6.830   5.426  1.00  0.00    -0.203 F 
ATOM     56  F   UNL     1       6.958 -11.296   4.181  1.00  0.00    -0.200 F 
ATOM     57  C   UNL     1       6.858  -9.154   5.160  1.00  0.00     0.200 A 
ATOM     58  F   UNL     1       6.684  -7.021   6.156  1.00  0.00    -0.200 F 
ATOM     59  F   UNL     1       8.117  -9.275   5.602  1.00  0.00    -0.200 F 
ENDBRANCH  25  49
BRANCH  37  60
ATOM     60  C   UNL     1      -1.557 -12.544   5.798  1.00  0.00     0.064 A 
ATOM     61  C   UNL     1      -1.479 -12.382   7.188  1.00  0.00     0.173 A 
ATOM     62  C   UNL     1      -1.926 -13.799   5.294  1.00  0.00     0.173 A 
ATOM     63  F   UNL     1      -1.124 -11.199   7.713  1.00  0.00    -0.203 F 
ATOM     64  C   UNL     1      -1.730 -13.450   8.042  1.00  0.00     0.198 A 
ATOM     65  C   UNL     1      -2.213 -14.853   6.152  1.00  0.00     0.198 A 
ATOM     66  F   UNL     1      -2.029 -13.994   3.971  1.00  0.00    -0.203 F 
ATOM     67  F   UNL     1      -1.597 -13.290   9.366  1.00  0.00    -0.200 F 
ATOM     68  C   UNL     1      -2.104 -14.681   7.524  1.00  0.00     0.200 A 
ATOM     69  F   UNL     1      -2.596 -16.035   5.651  1.00  0.00    -0.200 F 
ATOM     70  F   UNL     1      -2.354 -15.707   8.349  1.00  0.00    -0.200 F 
ENDBRANCH  37  60
ENDBRANCH  11  12
ENDBRANCH   4   6
ENDBRANCH   3   4
ENDBRANCH   2   3
ENDBRANCH   1   2
BRANCH   1  71
ATOM     71  O   UNL     1       3.771  -2.820  -3.038  1.00  0.00    -0.458 OA
BRANCH  71  72
ATOM     72  C   UNL     1       3.522  -1.964  -1.989  1.00  0.00     0.365 C 
ATOM     73  O   UNL     1       3.529  -0.746  -2.080  1.00  0.00    -0.245 OA
BRANCH  72  74
ATOM     74  C   UNL     1       3.078  -2.789  -0.677  1.00  0.00     0.295 C 
ATOM     75  C   UNL     1       1.159  -2.624  -0.384  1.00  0.00     0.078 C 
ATOM     76  N   UNL     1       3.715  -4.292  -0.759  1.00  0.00    -0.317 N 
ATOM     77  C   UNL     1      -0.040  -4.301  -1.210  1.00  0.00     0.013 C 
ATOM     78  C   UNL     1       3.016  -5.590  -1.535  1.00  0.00     0.263 C 
ATOM     79  H   UNL     1       2.940  -4.727  -0.257  1.00  0.00     0.349 HD
ATOM     80  C   UNL     1       1.125  -5.821  -1.732  1.00  0.00     0.062 C 
BRANCH  76  81
ATOM     81  C   UNL     1       5.088  -4.388  -0.279  1.00  0.00     0.339 C 
BRANCH  81  82
ATOM     82  C   UNL     1       6.030  -3.933  -1.321  1.00  0.00     0.165 A 
ATOM     83  C   UNL     1       6.552  -2.697  -1.669  1.00  0.00     0.059 A 
ATOM     84  O   UNL     1       6.315  -4.858  -2.277  1.00  0.00    -0.400 OA
ATOM     85  C   UNL     1       7.021  -2.837  -3.004  1.00  0.00     0.134 A 
ATOM     86  C   UNL     1       6.864  -4.169  -3.303  1.00  0.00     0.433 A 
BRANCH  86  87
ATOM     87  N   UNL     1       6.997  -4.909  -4.509  1.00  0.00     0.102 N 
ATOM     88  O   UNL     1       7.254  -6.115  -4.413  1.00  0.00    -0.256 OA
ATOM     89  O   UNL     1       6.818  -4.280  -5.560  1.00  0.00    -0.256 OA
ENDBRANCH  86  87
ENDBRANCH  81  82
ENDBRANCH  76  81
ENDBRANCH  72  74
ENDBRANCH  71  72
ENDBRANCH   1  71
TORSDOF 14
