REMARK SMILES Cc1cc(C)c(S(=O)(=O)n2cc([C@@H](C)[C@@H]([NH3+])C(=O)OCCOC(=O)c3ccc(-c4c5nc(c(-c6c(F)c(F)c(F)c(F)c6F)c6ccc([nH]6)c(-c6c(F)c(F)c(F)c(F)c6F)c6nc(c(-c7c(F)c(F)c(F)c(F)c7F)c7ccc4[nH]7)C=C6)C=C5)cc3)c3ccccc32)c(C)c1
REMARK SMILES IDX 20 1 19 2 17 3 18 4 15 5 13 6 14 7 12 8 10 9 11 10 93 11
REMARK SMILES IDX 88 12 92 13 89 14 91 15 90 16 7 17 8 18 9 19 6 20 1 21 2 22
REMARK SMILES IDX 3 23 96 24 4 25 94 26 5 27 95 28 16 29 21 33 22 34 23 35
REMARK SMILES IDX 24 36 25 37 26 38 87 39 27 40 86 41 28 42 29 43 30 44 80 45
REMARK SMILES IDX 31 46 85 47 79 48 81 49 32 50 84 51 78 52 77 53 33 55 65 56
REMARK SMILES IDX 45 57 64 58 46 59 49 60 63 61 82 62 47 63 48 64 62 66 83 67
REMARK SMILES IDX 50 68 34 69 35 70 43 71 36 72 37 73 41 74 44 75 38 76 39 77
REMARK SMILES IDX 42 78 40 79 66 80 67 81 75 82 68 83 69 84 73 85 76 86 70 87
REMARK SMILES IDX 71 88 74 89 72 90 51 91 52 92 60 93 53 94 54 95 58 96 61 97
REMARK SMILES IDX 55 98 56 99 59 100 57 101
REMARK H PARENT 16 30 16 31 16 32 81 54 49 65
REMARK Flexibility Score: inf
ROOT
ATOM      1  C   UNL     1      -2.411 -10.540  -3.687  1.00  0.00     0.274 C 
ENDROOT
BRANCH   1   2
ATOM      2  O   UNL     1      -2.195  -9.263  -3.035  1.00  0.00    -0.458 OA
BRANCH   2   3
ATOM      3  C   UNL     1      -2.758  -9.123  -1.813  1.00  0.00     0.365 C 
ATOM      4  O   UNL     1      -3.391 -10.018  -1.254  1.00  0.00    -0.245 OA
BRANCH   3   5
ATOM      5  C   UNL     1      -2.608  -7.732  -1.153  1.00  0.00     0.299 C 
BRANCH   5   6
ATOM      6  C   UNL     1      -1.710  -6.625  -1.770  1.00  0.00     0.088 C 
ATOM      7  C   UNL     1      -0.326  -7.007  -2.292  1.00  0.00     0.020 C 
BRANCH   6   8
ATOM      8  C   UNL     1      -1.594  -5.455  -0.782  1.00  0.00    -0.012 A 
ATOM      9  N   UNL     1      -2.015  -3.465   0.120  1.00  0.00    -0.241 N 
ATOM     10  C   UNL     1      -2.285  -4.273  -0.946  1.00  0.00     0.109 A 
ATOM     11  C   UNL     1      -1.285  -4.127   1.080  1.00  0.00     0.064 A 
ATOM     12  C   UNL     1      -0.865  -5.319   0.465  1.00  0.00     0.004 A 
ATOM     13  C   UNL     1      -0.869  -3.752   2.374  1.00  0.00     0.028 A 
ATOM     14  C   UNL     1       0.123  -6.069   1.141  1.00  0.00     0.010 A 
ATOM     15  C   UNL     1       0.062  -4.556   3.031  1.00  0.00     0.002 A 
ATOM     16  C   UNL     1       0.579  -5.682   2.409  1.00  0.00     0.001 A 
BRANCH   9  17
ATOM     17  S   UNL     1      -2.434  -1.831   0.150  1.00  0.00     0.268 S 
ATOM     18  O   UNL     1      -2.966  -1.620   1.485  1.00  0.00    -0.201 OA
ATOM     19  O   UNL     1      -3.257  -1.637  -1.032  1.00  0.00    -0.201 OA
BRANCH  17  20
ATOM     20  C   UNL     1      -1.004  -0.760  -0.035  1.00  0.00     0.094 A 
ATOM     21  C   UNL     1       2.219   2.141   0.039  1.00  0.00     0.044 C 
ATOM     22  C   UNL     1       1.104   1.141  -0.009  1.00  0.00    -0.051 A 
ATOM     23  C   UNL     1      -0.220   1.556   0.082  1.00  0.00     0.008 A 
ATOM     24  C   UNL     1       1.364  -0.214  -0.175  1.00  0.00     0.008 A 
ATOM     25  C   UNL     1      -1.281   0.632   0.073  1.00  0.00    -0.030 A 
ATOM     26  C   UNL     1       0.334  -1.179  -0.240  1.00  0.00    -0.030 A 
ATOM     27  C   UNL     1      -2.661   1.245   0.144  1.00  0.00     0.046 C 
ATOM     28  C   UNL     1       0.837  -2.563  -0.532  1.00  0.00     0.046 C 
ENDBRANCH  17  20
ENDBRANCH   9  17
ENDBRANCH   6   8
ENDBRANCH   5   6
BRANCH   5  29
ATOM     29  N   UNL     1      -3.993  -7.195  -0.943  1.00  0.00    -0.345 N 
ATOM     30  H   UNL     1      -4.432  -7.024  -1.847  1.00  0.00     0.345 HD
ATOM     31  H   UNL     1      -3.942  -6.321  -0.419  1.00  0.00     0.345 HD
ATOM     32  H   UNL     1      -4.545  -7.874  -0.419  1.00  0.00     0.345 HD
ENDBRANCH   5  29
ENDBRANCH   3   5
ENDBRANCH   2   3
ENDBRANCH   1   2
BRANCH   1  33
ATOM     33  C   UNL     1      -1.095 -11.309  -3.855  1.00  0.00     0.275 C 
BRANCH  33  34
ATOM     34  O   UNL     1      -0.684 -11.823  -2.579  1.00  0.00    -0.458 OA
BRANCH  34  35
ATOM     35  C   UNL     1       0.348 -11.183  -1.981  1.00  0.00     0.338 C 
ATOM     36  O   UNL     1       1.212 -10.505  -2.514  1.00  0.00    -0.246 OA
BRANCH  35  37
ATOM     37  C   UNL     1      -0.024 -11.088  -0.557  1.00  0.00     0.060 A 
ATOM     38  C   UNL     1      -0.702 -12.110   0.116  1.00  0.00     0.016 A 
ATOM     39  C   UNL     1       0.051  -9.812  -0.012  1.00  0.00     0.016 A 
ATOM     40  C   UNL     1      -1.448 -11.802   1.254  1.00  0.00     0.010 A 
ATOM     41  C   UNL     1      -0.734  -9.506   1.083  1.00  0.00     0.010 A 
ATOM     42  C   UNL     1      -1.534 -10.476   1.681  1.00  0.00    -0.014 A 
BRANCH  42  43
ATOM     43  C   UNL     1      -2.290 -10.100   2.870  1.00  0.00     0.031 A 
ATOM     44  C   UNL     1      -1.470 -10.079   4.102  1.00  0.00     0.074 A 
ATOM     45  C   UNL     1      -3.548  -9.617   2.931  1.00  0.00     0.049 A 
ATOM     46  N   UNL     1      -1.488 -10.953   5.051  1.00  0.00    -0.248 NA
ATOM     47  C   UNL     1      -0.429  -9.053   4.245  1.00  0.00     0.031 C 
ATOM     48  C   UNL     1      -4.453  -9.246   1.852  1.00  0.00     0.029 A 
ATOM     49  N   UNL     1      -4.266  -9.292   4.047  1.00  0.00    -0.354 N 
ATOM     50  C   UNL     1      -0.563 -10.510   5.986  1.00  0.00     0.074 A 
ATOM     51  C   UNL     1       0.185  -9.455   5.357  1.00  0.00     0.031 C 
ATOM     52  C   UNL     1      -5.512  -8.561   2.350  1.00  0.00     0.029 A 
ATOM     53  C   UNL     1      -5.450  -8.608   3.801  1.00  0.00     0.049 A 
ATOM     54  H   UNL     1      -3.967  -9.524   4.956  1.00  0.00     0.167 HD
ATOM     55  C   UNL     1      -0.630 -10.898   7.286  1.00  0.00     0.037 A 
ATOM     56  C   UNL     1      -6.315  -8.135   4.733  1.00  0.00     0.037 A 
ATOM     57  C   UNL     1      -1.513 -12.022   7.459  1.00  0.00     0.049 A 
ATOM     58  C   UNL     1      -6.084  -8.912   5.975  1.00  0.00     0.074 A 
ATOM     59  C   UNL     1      -1.549 -13.311   6.960  1.00  0.00     0.029 A 
ATOM     60  N   UNL     1      -2.774 -11.783   7.947  1.00  0.00    -0.354 N 
ATOM     61  N   UNL     1      -6.376 -10.174   6.114  1.00  0.00    -0.248 NA
ATOM     62  C   UNL     1      -5.160  -8.371   6.959  1.00  0.00     0.031 C 
ATOM     63  C   UNL     1      -2.931 -13.589   6.741  1.00  0.00     0.029 A 
ATOM     64  C   UNL     1      -3.657 -12.472   7.156  1.00  0.00     0.049 A 
ATOM     65  H   UNL     1      -3.001 -11.220   8.722  1.00  0.00     0.167 HD
ATOM     66  C   UNL     1      -5.361 -10.681   6.909  1.00  0.00     0.074 A 
ATOM     67  C   UNL     1      -4.715  -9.511   7.492  1.00  0.00     0.031 C 
ATOM     68  C   UNL     1      -4.969 -11.983   6.798  1.00  0.00     0.037 A 
BRANCH  55  69
ATOM     69  C   UNL     1      -0.142 -10.061   8.435  1.00  0.00     0.064 A 
ATOM     70  C   UNL     1      -0.005 -10.649   9.705  1.00  0.00     0.173 A 
ATOM     71  C   UNL     1      -0.043  -8.653   8.398  1.00  0.00     0.173 A 
ATOM     72  F   UNL     1      -0.123 -11.977   9.858  1.00  0.00    -0.203 F 
ATOM     73  C   UNL     1       0.179  -9.880  10.856  1.00  0.00     0.198 A 
ATOM     74  C   UNL     1       0.205  -7.894   9.538  1.00  0.00     0.198 A 
ATOM     75  F   UNL     1      -0.288  -7.950   7.285  1.00  0.00    -0.203 F 
ATOM     76  F   UNL     1       0.192 -10.474  12.056  1.00  0.00    -0.200 F 
ATOM     77  C   UNL     1       0.288  -8.504  10.771  1.00  0.00     0.200 A 
ATOM     78  F   UNL     1       0.288  -6.559   9.437  1.00  0.00    -0.200 F 
ATOM     79  F   UNL     1       0.422  -7.762  11.878  1.00  0.00    -0.200 F 
ENDBRANCH  55  69
BRANCH  56  80
ATOM     80  C   UNL     1      -7.163  -6.919   4.731  1.00  0.00     0.064 A 
ATOM     81  C   UNL     1      -8.186  -6.752   5.684  1.00  0.00     0.173 A 
ATOM     82  C   UNL     1      -6.778  -5.769   4.019  1.00  0.00     0.173 A 
ATOM     83  F   UNL     1      -8.593  -7.791   6.428  1.00  0.00    -0.203 F 
ATOM     84  C   UNL     1      -8.746  -5.499   5.950  1.00  0.00     0.198 A 
ATOM     85  C   UNL     1      -7.342  -4.518   4.284  1.00  0.00     0.198 A 
ATOM     86  F   UNL     1      -5.775  -5.819   3.131  1.00  0.00    -0.203 F 
ATOM     87  F   UNL     1      -9.658  -5.367   6.924  1.00  0.00    -0.200 F 
ATOM     88  C   UNL     1      -8.310  -4.380   5.263  1.00  0.00     0.200 A 
ATOM     89  F   UNL     1      -6.891  -3.435   3.636  1.00  0.00    -0.200 F 
ATOM     90  F   UNL     1      -8.789  -3.167   5.573  1.00  0.00    -0.200 F 
ENDBRANCH  56  80
BRANCH  68  91
ATOM     91  C   UNL     1      -5.858 -12.919   6.022  1.00  0.00     0.064 A 
ATOM     92  C   UNL     1      -6.144 -12.783   4.652  1.00  0.00     0.173 A 
ATOM     93  C   UNL     1      -6.325 -14.075   6.663  1.00  0.00     0.173 A 
ATOM     94  F   UNL     1      -5.656 -11.759   3.942  1.00  0.00    -0.203 F 
ATOM     95  C   UNL     1      -6.895 -13.740   3.970  1.00  0.00     0.198 A 
ATOM     96  C   UNL     1      -7.041 -15.048   5.971  1.00  0.00     0.198 A 
ATOM     97  F   UNL     1      -6.042 -14.286   7.958  1.00  0.00    -0.203 F 
ATOM     98  F   UNL     1      -7.162 -13.581   2.665  1.00  0.00    -0.200 F 
ATOM     99  C   UNL     1      -7.334 -14.876   4.628  1.00  0.00     0.200 A 
ATOM    100  F   UNL     1      -7.423 -16.168   6.601  1.00  0.00    -0.200 F 
ATOM    101  F   UNL     1      -8.016 -15.819   3.962  1.00  0.00    -0.200 F 
ENDBRANCH  68  91
ENDBRANCH  42  43
ENDBRANCH  35  37
ENDBRANCH  34  35
ENDBRANCH  33  34
ENDBRANCH   1  33
TORSDOF 16
