REMARK SMILES CC1(C)[C@@](C)(C(=O)Nc2ccc(Cl)cc2Cl)CC[C@]1(C)C(=O)OCCOC(=O)c1ccc(-c2c3nc(c(-c4c(F)c(F)c(F)c(F)c4F)c4ccc([nH]4)c(-c4c(F)c(F)c(F)c(F)c4F)c4nc(c(-c5c(F)c(F)c(F)c(F)c5F)c5ccc2[nH]5)C=C4)C=C3)cc1
REMARK SMILES IDX 24 1 23 2 21 3 22 4 19 5 1 6 2 7 3 8 4 9 5 10 17 11 18 12
REMARK SMILES IDX 20 13 6 14 7 15 8 16 9 18 10 19 15 20 11 21 14 22 16 23
REMARK SMILES IDX 12 24 13 25 25 26 26 27 27 28 28 29 29 30 30 31 91 32 31 33
REMARK SMILES IDX 90 34 32 35 33 36 34 37 84 38 35 39 89 40 83 41 85 42 36 43
REMARK SMILES IDX 88 44 82 45 81 46 37 48 69 49 49 50 68 51 50 52 53 53 67 54
REMARK SMILES IDX 86 55 51 56 52 57 66 59 87 60 54 61 38 62 39 63 47 64 40 65
REMARK SMILES IDX 41 66 45 67 48 68 42 69 43 70 46 71 44 72 70 73 71 74 79 75
REMARK SMILES IDX 72 76 73 77 77 78 80 79 74 80 75 81 78 82 76 83 55 84 56 85
REMARK SMILES IDX 64 86 57 87 58 88 62 89 65 90 59 91 60 92 63 93 61 94
REMARK H PARENT 8 17 85 47 53 58
REMARK Flexibility Score: inf
ROOT
ATOM      1  C   UNL     1      -0.818   3.831   2.122  1.00  0.00     0.274 C 
ENDROOT
BRANCH   1   2
ATOM      2  O   UNL     1      -0.027   2.701   1.688  1.00  0.00    -0.462 OA
BRANCH   2   3
ATOM      3  C   UNL     1       0.874   2.197   2.571  1.00  0.00     0.312 C 
ATOM      4  O   UNL     1       1.175   2.748   3.624  1.00  0.00    -0.252 OA
BRANCH   3   5
ATOM      5  C   UNL     1       1.536   0.883   2.087  1.00  0.00     0.071 C 
ATOM      6  C   UNL     1       0.893   0.472  -0.330  1.00  0.00     0.013 C 
ATOM      7  C   UNL     1       0.682  -0.052   1.112  1.00  0.00    -0.005 C 
ATOM      8  C   UNL     1      -0.842   0.009   1.401  1.00  0.00     0.013 C 
ATOM      9  C   UNL     1       1.185  -1.550   1.421  1.00  0.00     0.053 C 
ATOM     10  C   UNL     1       0.161  -2.719   1.484  1.00  0.00     0.022 C 
ATOM     11  C   UNL     1       1.632  -1.452   2.921  1.00  0.00     0.018 C 
ATOM     12  C   UNL     1       1.793  -0.000   3.313  1.00  0.00     0.020 C 
ATOM     13  C   UNL     1       2.908   1.332   1.533  1.00  0.00     0.024 C 
BRANCH   9  14
ATOM     14  C   UNL     1       2.393  -2.025   0.578  1.00  0.00     0.230 C 
ATOM     15  O   UNL     1       3.539  -1.945   1.047  1.00  0.00    -0.274 OA
ATOM     16  N   UNL     1       2.353  -2.571  -0.665  1.00  0.00    -0.324 N 
ATOM     17  H   UNL     1       3.239  -2.927  -0.905  1.00  0.00     0.170 HD
BRANCH  16  18
ATOM     18  C   UNL     1       1.443  -2.791  -1.721  1.00  0.00     0.060 A 
ATOM     19  C   UNL     1       0.141  -2.305  -1.780  1.00  0.00     0.029 A 
ATOM     20  C   UNL     1       1.910  -3.512  -2.843  1.00  0.00     0.066 A 
ATOM     21  C   UNL     1      -0.659  -2.480  -2.915  1.00  0.00     0.023 A 
ATOM     22  C   UNL     1       1.113  -3.709  -3.976  1.00  0.00     0.043 A 
ATOM     23  Cl  UNL     1       3.505  -4.191  -2.862  1.00  0.00    -0.082 Cl
ATOM     24  C   UNL     1      -0.168  -3.176  -4.010  1.00  0.00     0.042 A 
ATOM     25  Cl  UNL     1      -1.149  -3.370  -5.407  1.00  0.00    -0.084 Cl
ENDBRANCH  16  18
ENDBRANCH   9  14
ENDBRANCH   3   5
ENDBRANCH   2   3
ENDBRANCH   1   2
BRANCH   1  26
ATOM     26  C   UNL     1      -2.139   3.361   2.743  1.00  0.00     0.275 C 
BRANCH  26  27
ATOM     27  O   UNL     1      -1.857   2.671   3.970  1.00  0.00    -0.458 OA
BRANCH  27  28
ATOM     28  C   UNL     1      -2.804   1.813   4.420  1.00  0.00     0.338 C 
ATOM     29  O   UNL     1      -3.914   1.648   3.947  1.00  0.00    -0.246 OA
BRANCH  28  30
ATOM     30  C   UNL     1      -2.260   1.018   5.556  1.00  0.00     0.060 A 
ATOM     31  C   UNL     1      -0.885   0.868   5.717  1.00  0.00     0.016 A 
ATOM     32  C   UNL     1      -3.114   0.330   6.417  1.00  0.00     0.016 A 
ATOM     33  C   UNL     1      -0.365  -0.056   6.622  1.00  0.00     0.010 A 
ATOM     34  C   UNL     1      -2.583  -0.498   7.422  1.00  0.00     0.010 A 
ATOM     35  C   UNL     1      -1.199  -0.739   7.514  1.00  0.00    -0.014 A 
BRANCH  35  36
ATOM     36  C   UNL     1      -0.630  -1.710   8.503  1.00  0.00     0.031 A 
ATOM     37  C   UNL     1      -1.183  -3.112   8.603  1.00  0.00     0.074 A 
ATOM     38  C   UNL     1       0.394  -1.365   9.313  1.00  0.00     0.049 A 
ATOM     39  N   UNL     1      -0.997  -4.016   9.534  1.00  0.00    -0.248 NA
ATOM     40  C   UNL     1      -2.082  -3.548   7.524  1.00  0.00     0.031 C 
ATOM     41  C   UNL     1       1.075  -0.069   9.324  1.00  0.00     0.029 A 
ATOM     42  N   UNL     1       1.053  -2.085  10.284  1.00  0.00    -0.354 N 
ATOM     43  C   UNL     1      -1.824  -5.083   9.203  1.00  0.00     0.074 A 
ATOM     44  C   UNL     1      -2.499  -4.724   7.973  1.00  0.00     0.031 C 
ATOM     45  C   UNL     1       2.086  -0.105  10.204  1.00  0.00     0.029 A 
ATOM     46  C   UNL     1       2.059  -1.383  10.904  1.00  0.00     0.049 A 
ATOM     47  H   UNL     1       0.825  -3.015  10.513  1.00  0.00     0.167 HD
ATOM     48  C   UNL     1      -2.010  -6.248   9.869  1.00  0.00     0.037 A 
ATOM     49  C   UNL     1       2.845  -1.699  11.952  1.00  0.00     0.037 A 
ATOM     50  C   UNL     1      -1.270  -6.648  11.039  1.00  0.00     0.049 A 
ATOM     51  C   UNL     1       2.649  -3.014  12.650  1.00  0.00     0.074 A 
ATOM     52  C   UNL     1      -1.377  -7.819  11.772  1.00  0.00     0.029 A 
ATOM     53  N   UNL     1      -0.259  -5.903  11.627  1.00  0.00    -0.354 N 
ATOM     54  N   UNL     1       1.791  -3.969  12.389  1.00  0.00    -0.248 NA
ATOM     55  C   UNL     1       3.516  -3.284  13.806  1.00  0.00     0.031 C 
ATOM     56  C   UNL     1      -0.446  -7.772  12.817  1.00  0.00     0.029 A 
ATOM     57  C   UNL     1       0.268  -6.591  12.710  1.00  0.00     0.049 A 
ATOM     58  H   UNL     1       0.041  -5.017  11.320  1.00  0.00     0.167 HD
ATOM     59  C   UNL     1       2.012  -4.950  13.344  1.00  0.00     0.074 A 
ATOM     60  C   UNL     1       3.108  -4.491  14.172  1.00  0.00     0.031 C 
ATOM     61  C   UNL     1       1.356  -6.122  13.527  1.00  0.00     0.037 A 
BRANCH  48  62
ATOM     62  C   UNL     1      -3.088  -7.171   9.377  1.00  0.00     0.064 A 
ATOM     63  C   UNL     1      -2.949  -7.930   8.206  1.00  0.00     0.173 A 
ATOM     64  C   UNL     1      -4.265  -7.334  10.127  1.00  0.00     0.173 A 
ATOM     65  F   UNL     1      -1.852  -7.801   7.445  1.00  0.00    -0.203 F 
ATOM     66  C   UNL     1      -3.956  -8.801   7.794  1.00  0.00     0.198 A 
ATOM     67  C   UNL     1      -5.256  -8.226   9.727  1.00  0.00     0.198 A 
ATOM     68  F   UNL     1      -4.447  -6.636  11.259  1.00  0.00    -0.203 F 
ATOM     69  F   UNL     1      -3.820  -9.486   6.650  1.00  0.00    -0.200 F 
ATOM     70  C   UNL     1      -5.103  -8.955   8.559  1.00  0.00     0.200 A 
ATOM     71  F   UNL     1      -6.357  -8.382  10.475  1.00  0.00    -0.200 F 
ATOM     72  F   UNL     1      -6.065  -9.802   8.165  1.00  0.00    -0.200 F 
ENDBRANCH  48  62
BRANCH  49  73
ATOM     73  C   UNL     1       3.858  -0.724  12.436  1.00  0.00     0.064 A 
ATOM     74  C   UNL     1       5.229  -0.975  12.289  1.00  0.00     0.173 A 
ATOM     75  C   UNL     1       3.477   0.483  13.041  1.00  0.00     0.173 A 
ATOM     76  F   UNL     1       5.645  -2.129  11.747  1.00  0.00    -0.203 F 
ATOM     77  C   UNL     1       6.180  -0.057  12.731  1.00  0.00     0.198 A 
ATOM     78  C   UNL     1       4.427   1.415  13.452  1.00  0.00     0.198 A 
ATOM     79  F   UNL     1       2.177   0.768  13.209  1.00  0.00    -0.203 F 
ATOM     80  F   UNL     1       7.485  -0.338  12.615  1.00  0.00    -0.200 F 
ATOM     81  C   UNL     1       5.777   1.142  13.302  1.00  0.00     0.200 A 
ATOM     82  F   UNL     1       4.032   2.578  13.988  1.00  0.00    -0.200 F 
ATOM     83  F   UNL     1       6.691   2.031  13.713  1.00  0.00    -0.200 F 
ENDBRANCH  49  73
BRANCH  61  84
ATOM     84  C   UNL     1       1.829  -6.994  14.652  1.00  0.00     0.064 A 
ATOM     85  C   UNL     1       1.572  -6.666  15.991  1.00  0.00     0.173 A 
ATOM     86  C   UNL     1       2.553  -8.165  14.387  1.00  0.00     0.173 A 
ATOM     87  F   UNL     1       0.898  -5.546  16.295  1.00  0.00    -0.203 F 
ATOM     88  C   UNL     1       2.054  -7.462  17.026  1.00  0.00     0.198 A 
ATOM     89  C   UNL     1       3.012  -8.972  15.424  1.00  0.00     0.198 A 
ATOM     90  F   UNL     1       2.820  -8.524  13.122  1.00  0.00    -0.203 F 
ATOM     91  F   UNL     1       1.847  -7.100  18.300  1.00  0.00    -0.200 F 
ATOM     92  C   UNL     1       2.772  -8.614  16.742  1.00  0.00     0.200 A 
ATOM     93  F   UNL     1       3.699 -10.089  15.148  1.00  0.00    -0.200 F 
ATOM     94  F   UNL     1       3.243  -9.374  17.740  1.00  0.00    -0.200 F 
ENDBRANCH  61  84
ENDBRANCH  35  36
ENDBRANCH  28  30
ENDBRANCH  27  28
ENDBRANCH  26  27
ENDBRANCH   1  26
TORSDOF 13
