REMARK SMILES [NH3+][C@H](Cc1cc(F)c(F)c(F)c1)C(=O)OCCOC(=O)c1ccc(-c2c3nc(c(-c4c(F)c(F)c(F)c(F)c4F)c4ccc([nH]4)c(-c4c(F)c(F)c(F)c(F)c4F)c4nc(c(-c5c(F)c(F)c(F)c(F)c5F)c5ccc2[nH]5)C=C4)C=C3)cc1
REMARK SMILES IDX 16 1 15 2 13 3 14 4 2 5 1 6 3 10 4 11 5 12 12 13 6 14 10 15
REMARK SMILES IDX 7 16 8 17 11 18 9 19 17 20 18 21 19 22 20 23 21 24 22 25
REMARK SMILES IDX 83 26 23 27 82 28 24 29 25 30 26 31 76 32 27 33 81 34 75 35
REMARK SMILES IDX 77 36 28 37 80 38 74 39 73 40 29 42 61 43 41 44 60 45 42 46
REMARK SMILES IDX 45 47 59 48 78 49 43 50 44 51 58 53 79 54 46 55 30 56 31 57
REMARK SMILES IDX 39 58 32 59 33 60 37 61 40 62 34 63 35 64 38 65 36 66 62 67
REMARK SMILES IDX 63 68 71 69 64 70 65 71 69 72 72 73 66 74 67 75 70 76 68 77
REMARK SMILES IDX 47 78 48 79 56 80 49 81 50 82 54 83 57 84 51 85 52 86 55 87
REMARK SMILES IDX 53 88
REMARK H PARENT 1 7 1 8 1 9 77 41 45 52
REMARK Flexibility Score: inf
ROOT
ATOM      1  C   UNL     1      -3.275   1.012   1.252  1.00  0.00     0.274 C 
ENDROOT
BRANCH   1   2
ATOM      2  O   UNL     1      -1.896   1.230   0.897  1.00  0.00    -0.458 OA
BRANCH   2   3
ATOM      3  C   UNL     1      -0.947   1.045   1.847  1.00  0.00     0.365 C 
ATOM      4  O   UNL     1      -1.188   0.727   3.007  1.00  0.00    -0.245 OA
BRANCH   3   5
ATOM      5  C   UNL     1       0.486   1.303   1.327  1.00  0.00     0.296 C 
BRANCH   5   6
ATOM      6  N   UNL     1       0.901   2.708   1.539  1.00  0.00    -0.346 N 
ATOM      7  H   UNL     1       0.634   3.002   2.479  1.00  0.00     0.345 HD
ATOM      8  H   UNL     1       0.441   3.306   0.853  1.00  0.00     0.345 HD
ATOM      9  H   UNL     1       1.912   2.783   1.433  1.00  0.00     0.345 HD
ENDBRANCH   5   6
BRANCH   5  10
ATOM     10  C   UNL     1       0.840   0.747  -0.073  1.00  0.00     0.113 C 
BRANCH  10  11
ATOM     11  C   UNL     1       0.077   1.125  -1.327  1.00  0.00    -0.035 A 
ATOM     12  C   UNL     1      -0.757   2.245  -1.445  1.00  0.00     0.046 A 
ATOM     13  C   UNL     1       0.191   0.273  -2.443  1.00  0.00     0.046 A 
ATOM     14  C   UNL     1      -1.527   2.439  -2.592  1.00  0.00     0.162 A 
ATOM     15  C   UNL     1      -0.564   0.496  -3.594  1.00  0.00     0.162 A 
ATOM     16  F   UNL     1      -2.380   3.473  -2.632  1.00  0.00    -0.204 F 
ATOM     17  C   UNL     1      -1.440   1.566  -3.664  1.00  0.00     0.194 A 
ATOM     18  F   UNL     1      -0.447  -0.348  -4.628  1.00  0.00    -0.204 F 
ATOM     19  F   UNL     1      -2.201   1.752  -4.751  1.00  0.00    -0.200 F 
ENDBRANCH  10  11
ENDBRANCH   5  10
ENDBRANCH   3   5
ENDBRANCH   2   3
ENDBRANCH   1   2
BRANCH   1  20
ATOM     20  C   UNL     1      -3.780  -0.324   0.698  1.00  0.00     0.275 C 
BRANCH  20  21
ATOM     21  O   UNL     1      -3.261  -1.424   1.469  1.00  0.00    -0.458 OA
BRANCH  21  22
ATOM     22  C   UNL     1      -2.078  -1.916   1.037  1.00  0.00     0.338 C 
ATOM     23  O   UNL     1      -1.477  -1.613   0.022  1.00  0.00    -0.246 OA
BRANCH  22  24
ATOM     24  C   UNL     1      -1.484  -2.758   2.089  1.00  0.00     0.060 A 
ATOM     25  C   UNL     1      -0.169  -2.476   2.466  1.00  0.00     0.016 A 
ATOM     26  C   UNL     1      -2.181  -3.815   2.678  1.00  0.00     0.016 A 
ATOM     27  C   UNL     1       0.461  -3.248   3.433  1.00  0.00     0.010 A 
ATOM     28  C   UNL     1      -1.546  -4.594   3.652  1.00  0.00     0.010 A 
ATOM     29  C   UNL     1      -0.220  -4.318   4.027  1.00  0.00    -0.014 A 
BRANCH  29  30
ATOM     30  C   UNL     1       0.500  -5.156   5.011  1.00  0.00     0.031 A 
ATOM     31  C   UNL     1       1.030  -6.498   4.602  1.00  0.00     0.074 A 
ATOM     32  C   UNL     1       0.749  -4.667   6.240  1.00  0.00     0.049 A 
ATOM     33  N   UNL     1       1.729  -7.358   5.298  1.00  0.00    -0.248 NA
ATOM     34  C   UNL     1       0.746  -6.930   3.224  1.00  0.00     0.031 C 
ATOM     35  C   UNL     1       0.320  -3.354   6.723  1.00  0.00     0.029 A 
ATOM     36  N   UNL     1       1.444  -5.202   7.294  1.00  0.00    -0.354 N 
ATOM     37  C   UNL     1       1.964  -8.430   4.449  1.00  0.00     0.074 A 
ATOM     38  C   UNL     1       1.314  -8.127   3.192  1.00  0.00     0.031 C 
ATOM     39  C   UNL     1       0.787  -3.174   7.969  1.00  0.00     0.029 A 
ATOM     40  C   UNL     1       1.514  -4.370   8.385  1.00  0.00     0.049 A 
ATOM     41  H   UNL     1       1.854  -6.097   7.271  1.00  0.00     0.167 HD
ATOM     42  C   UNL     1       2.669  -9.557   4.698  1.00  0.00     0.037 A 
ATOM     43  C   UNL     1       2.096  -4.558   9.585  1.00  0.00     0.037 A 
ATOM     44  C   UNL     1       3.326  -9.842   5.947  1.00  0.00     0.049 A 
ATOM     45  C   UNL     1       2.821  -5.850   9.850  1.00  0.00     0.074 A 
ATOM     46  C   UNL     1       4.075 -10.954   6.291  1.00  0.00     0.029 A 
ATOM     47  N   UNL     1       3.313  -9.009   7.056  1.00  0.00    -0.354 N 
ATOM     48  N   UNL     1       3.040  -6.857   9.040  1.00  0.00    -0.248 NA
ATOM     49  C   UNL     1       3.375  -6.033  11.199  1.00  0.00     0.031 C 
ATOM     50  C   UNL     1       4.475 -10.816   7.623  1.00  0.00     0.029 A 
ATOM     51  C   UNL     1       4.020  -9.595   8.095  1.00  0.00     0.049 A 
ATOM     52  H   UNL     1       2.868  -8.132   7.100  1.00  0.00     0.167 HD
ATOM     53  C   UNL     1       3.765  -7.786   9.774  1.00  0.00     0.074 A 
ATOM     54  C   UNL     1       3.974  -7.211  11.086  1.00  0.00     0.031 C 
ATOM     55  C   UNL     1       4.212  -9.010   9.397  1.00  0.00     0.037 A 
BRANCH  42  56
ATOM     56  C   UNL     1       2.767 -10.582   3.609  1.00  0.00     0.064 A 
ATOM     57  C   UNL     1       2.097 -11.809   3.729  1.00  0.00     0.173 A 
ATOM     58  C   UNL     1       3.594 -10.391   2.493  1.00  0.00     0.173 A 
ATOM     59  F   UNL     1       1.296 -12.041   4.780  1.00  0.00    -0.203 F 
ATOM     60  C   UNL     1       2.269 -12.816   2.783  1.00  0.00     0.198 A 
ATOM     61  C   UNL     1       3.745 -11.392   1.536  1.00  0.00     0.198 A 
ATOM     62  F   UNL     1       4.245  -9.230   2.325  1.00  0.00    -0.203 F 
ATOM     63  F   UNL     1       1.648 -13.993   2.939  1.00  0.00    -0.200 F 
ATOM     64  C   UNL     1       3.093 -12.607   1.688  1.00  0.00     0.200 A 
ATOM     65  F   UNL     1       4.526 -11.182   0.467  1.00  0.00    -0.200 F 
ATOM     66  F   UNL     1       3.259 -13.577   0.778  1.00  0.00    -0.200 F 
ENDBRANCH  42  56
BRANCH  43  67
ATOM     67  C   UNL     1       2.023  -3.494  10.620  1.00  0.00     0.064 A 
ATOM     68  C   UNL     1       0.806  -3.149  11.227  1.00  0.00     0.173 A 
ATOM     69  C   UNL     1       3.172  -2.799  11.022  1.00  0.00     0.173 A 
ATOM     70  F   UNL     1      -0.322  -3.787  10.882  1.00  0.00    -0.203 F 
ATOM     71  C   UNL     1       0.739  -2.136  12.181  1.00  0.00     0.198 A 
ATOM     72  C   UNL     1       3.108  -1.807  11.998  1.00  0.00     0.198 A 
ATOM     73  F   UNL     1       4.363  -3.111  10.491  1.00  0.00    -0.203 F 
ATOM     74  F   UNL     1      -0.441  -1.807  12.724  1.00  0.00    -0.200 F 
ATOM     75  C   UNL     1       1.891  -1.470  12.571  1.00  0.00     0.200 A 
ATOM     76  F   UNL     1       4.228  -1.186  12.394  1.00  0.00    -0.200 F 
ATOM     77  F   UNL     1       1.829  -0.510  13.503  1.00  0.00    -0.200 F 
ENDBRANCH  43  67
BRANCH  55  78
ATOM     78  C   UNL     1       4.971  -9.810  10.414  1.00  0.00     0.064 A 
ATOM     79  C   UNL     1       6.346 -10.044  10.257  1.00  0.00     0.173 A 
ATOM     80  C   UNL     1       4.326 -10.391  11.515  1.00  0.00     0.173 A 
ATOM     81  F   UNL     1       7.008  -9.518   9.216  1.00  0.00    -0.203 F 
ATOM     82  C   UNL     1       7.045 -10.838  11.162  1.00  0.00     0.198 A 
ATOM     83  C   UNL     1       5.034 -11.160  12.435  1.00  0.00     0.198 A 
ATOM     84  F   UNL     1       3.016 -10.187  11.715  1.00  0.00    -0.203 F 
ATOM     85  F   UNL     1       8.351 -11.073  10.976  1.00  0.00    -0.200 F 
ATOM     86  C   UNL     1       6.390 -11.390  12.253  1.00  0.00     0.200 A 
ATOM     87  F   UNL     1       4.406 -11.670  13.503  1.00  0.00    -0.200 F 
ATOM     88  F   UNL     1       7.067 -12.139  13.133  1.00  0.00    -0.200 F 
ENDBRANCH  55  78
ENDBRANCH  29  30
ENDBRANCH  22  24
ENDBRANCH  21  22
ENDBRANCH  20  21
ENDBRANCH   1  20
TORSDOF 14
