REMARK SMILES Cc1ccc(-c2cc(Cl)ccc2Cl)c(C(=O)OCCOC(=O)c2ccc(-c3c4nc(c(-c5c(F)c(F)c(F)c(F)c5F)c5ccc([nH]5)c(-c5c(F)c(F)c(F)c(F)c5F)c5nc(c(-c6c(F)c(F)c(F)c(F)c6F)c6ccc3[nH]6)C=C5)C=C4)cc2)c1
REMARK SMILES IDX 19 1 18 2 17 3 15 4 16 5 14 6 1 7 2 8 3 9 86 10 4 11 5 12
REMARK SMILES IDX 6 13 7 14 12 15 8 16 11 17 13 18 9 19 10 20 20 21 21 22
REMARK SMILES IDX 22 23 23 24 24 25 85 26 25 27 84 28 26 29 27 30 28 31 78 32
REMARK SMILES IDX 29 33 83 34 77 35 79 36 30 37 82 38 76 39 75 40 31 42 63 43
REMARK SMILES IDX 43 44 62 45 44 46 47 47 61 48 80 49 45 50 46 51 60 53 81 54
REMARK SMILES IDX 48 55 32 56 33 57 41 58 34 59 35 60 39 61 42 62 36 63 37 64
REMARK SMILES IDX 40 65 38 66 64 67 65 68 73 69 66 70 67 71 71 72 74 73 68 74
REMARK SMILES IDX 69 75 72 76 70 77 49 78 50 79 58 80 51 81 52 82 56 83 59 84
REMARK SMILES IDX 53 85 54 86 57 87 55 88
REMARK H PARENT 79 41 47 52
REMARK Flexibility Score: inf
ROOT
ATOM      1  C   UNL     1      -2.157   5.079  -2.607  1.00  0.00     0.275 C 
ENDROOT
BRANCH   1   2
ATOM      2  C   UNL     1      -1.108   4.251  -1.838  1.00  0.00     0.275 C 
BRANCH   2   3
ATOM      3  O   UNL     1      -1.238   2.804  -1.945  1.00  0.00    -0.458 OA
BRANCH   3   4
ATOM      4  C   UNL     1      -0.747   2.163  -0.845  1.00  0.00     0.338 C 
ATOM      5  O   UNL     1      -0.349   2.753   0.157  1.00  0.00    -0.246 OA
BRANCH   4   6
ATOM      6  C   UNL     1      -0.364   0.736  -0.980  1.00  0.00     0.068 A 
ATOM      7  C   UNL     1       3.136  -0.605  -0.185  1.00  0.00     0.044 C 
ATOM      8  C   UNL     1       1.686  -0.572  -0.555  1.00  0.00    -0.050 A 
ATOM      9  C   UNL     1       0.934  -1.733  -0.590  1.00  0.00     0.004 A 
ATOM     10  C   UNL     1       1.045   0.635  -0.825  1.00  0.00     0.019 A 
ATOM     11  C   UNL     1      -0.440  -1.664  -0.825  1.00  0.00     0.010 A 
ATOM     12  C   UNL     1      -1.155  -0.439  -0.926  1.00  0.00    -0.002 A 
BRANCH  12  13
ATOM     13  C   UNL     1      -2.641  -0.589  -0.872  1.00  0.00     0.003 A 
ATOM     14  C   UNL     1      -3.465  -0.133  -1.919  1.00  0.00     0.030 A 
ATOM     15  C   UNL     1      -3.287  -1.340   0.159  1.00  0.00     0.049 A 
ATOM     16  C   UNL     1      -4.848  -0.402  -1.928  1.00  0.00     0.041 A 
ATOM     17  C   UNL     1      -4.662  -1.621   0.127  1.00  0.00     0.023 A 
ATOM     18  Cl  UNL     1      -2.439  -1.963   1.548  1.00  0.00    -0.084 Cl
ATOM     19  Cl  UNL     1      -5.845   0.174  -3.209  1.00  0.00    -0.084 Cl
ATOM     20  C   UNL     1      -5.446  -1.145  -0.914  1.00  0.00     0.022 A 
ENDBRANCH  12  13
ENDBRANCH   4   6
ENDBRANCH   3   4
ENDBRANCH   2   3
ENDBRANCH   1   2
BRANCH   1  21
ATOM     21  O   UNL     1      -3.557   4.973  -2.264  1.00  0.00    -0.458 OA
BRANCH  21  22
ATOM     22  C   UNL     1      -3.985   3.828  -1.704  1.00  0.00     0.338 C 
ATOM     23  O   UNL     1      -4.494   2.903  -2.322  1.00  0.00    -0.246 OA
BRANCH  22  24
ATOM     24  C   UNL     1      -3.716   3.822  -0.258  1.00  0.00     0.060 A 
ATOM     25  C   UNL     1      -3.515   2.587   0.373  1.00  0.00     0.016 A 
ATOM     26  C   UNL     1      -3.440   5.023   0.392  1.00  0.00     0.016 A 
ATOM     27  C   UNL     1      -2.932   2.519   1.623  1.00  0.00     0.010 A 
ATOM     28  C   UNL     1      -2.826   4.967   1.615  1.00  0.00     0.010 A 
ATOM     29  C   UNL     1      -2.610   3.717   2.229  1.00  0.00    -0.014 A 
BRANCH  29  30
ATOM     30  C   UNL     1      -2.311   3.805   3.638  1.00  0.00     0.031 A 
ATOM     31  C   UNL     1      -0.930   3.734   4.130  1.00  0.00     0.074 A 
ATOM     32  C   UNL     1      -3.393   4.298   4.275  1.00  0.00     0.049 A 
ATOM     33  N   UNL     1      -0.619   3.782   5.375  1.00  0.00    -0.248 NA
ATOM     34  C   UNL     1       0.240   3.521   3.280  1.00  0.00     0.031 C 
ATOM     35  C   UNL     1      -3.489   5.202   5.402  1.00  0.00     0.029 A 
ATOM     36  N   UNL     1      -4.734   4.050   3.925  1.00  0.00    -0.354 N 
ATOM     37  C   UNL     1       0.740   4.017   5.447  1.00  0.00     0.074 A 
ATOM     38  C   UNL     1       1.244   3.644   4.156  1.00  0.00     0.031 C 
ATOM     39  C   UNL     1      -4.769   5.232   5.822  1.00  0.00     0.029 A 
ATOM     40  C   UNL     1      -5.495   4.203   5.091  1.00  0.00     0.049 A 
ATOM     41  H   UNL     1      -5.072   3.815   3.030  1.00  0.00     0.167 HD
ATOM     42  C   UNL     1       1.201   4.702   6.534  1.00  0.00     0.037 A 
ATOM     43  C   UNL     1      -6.032   3.078   5.662  1.00  0.00     0.037 A 
ATOM     44  C   UNL     1       0.095   4.876   7.479  1.00  0.00     0.049 A 
ATOM     45  C   UNL     1      -5.320   2.740   6.946  1.00  0.00     0.074 A 
ATOM     46  C   UNL     1      -0.781   5.928   7.682  1.00  0.00     0.029 A 
ATOM     47  N   UNL     1      -0.490   3.751   8.053  1.00  0.00    -0.354 N 
ATOM     48  N   UNL     1      -4.074   3.036   7.195  1.00  0.00    -0.248 NA
ATOM     49  C   UNL     1      -5.995   2.096   8.062  1.00  0.00     0.031 C 
ATOM     50  C   UNL     1      -1.952   5.398   8.291  1.00  0.00     0.029 A 
ATOM     51  C   UNL     1      -1.777   4.035   8.473  1.00  0.00     0.049 A 
ATOM     52  H   UNL     1      -0.050   2.875   8.146  1.00  0.00     0.167 HD
ATOM     53  C   UNL     1      -3.796   2.725   8.495  1.00  0.00     0.074 A 
ATOM     54  C   UNL     1      -5.026   2.127   8.991  1.00  0.00     0.031 C 
ATOM     55  C   UNL     1      -2.600   3.007   9.091  1.00  0.00     0.037 A 
BRANCH  42  56
ATOM     56  C   UNL     1       2.500   5.485   6.655  1.00  0.00     0.064 A 
ATOM     57  C   UNL     1       2.678   6.367   7.750  1.00  0.00     0.173 A 
ATOM     58  C   UNL     1       3.559   5.503   5.726  1.00  0.00     0.173 A 
ATOM     59  F   UNL     1       1.784   6.431   8.747  1.00  0.00    -0.203 F 
ATOM     60  C   UNL     1       3.775   7.226   7.867  1.00  0.00     0.198 A 
ATOM     61  C   UNL     1       4.665   6.357   5.849  1.00  0.00     0.198 A 
ATOM     62  F   UNL     1       3.588   4.704   4.658  1.00  0.00    -0.203 F 
ATOM     63  F   UNL     1       3.856   8.064   8.911  1.00  0.00    -0.200 F 
ATOM     64  C   UNL     1       4.767   7.227   6.912  1.00  0.00     0.200 A 
ATOM     65  F   UNL     1       5.628   6.333   4.916  1.00  0.00    -0.200 F 
ATOM     66  F   UNL     1       5.817   8.053   7.018  1.00  0.00    -0.200 F 
ENDBRANCH  42  56
BRANCH  43  67
ATOM     67  C   UNL     1      -6.442   2.070   4.636  1.00  0.00     0.064 A 
ATOM     68  C   UNL     1      -7.417   2.473   3.698  1.00  0.00     0.173 A 
ATOM     69  C   UNL     1      -5.545   1.069   4.254  1.00  0.00     0.173 A 
ATOM     70  F   UNL     1      -8.332   3.395   4.036  1.00  0.00    -0.203 F 
ATOM     71  C   UNL     1      -7.332   2.083   2.367  1.00  0.00     0.198 A 
ATOM     72  C   UNL     1      -5.473   0.679   2.923  1.00  0.00     0.198 A 
ATOM     73  F   UNL     1      -4.634   0.594   5.113  1.00  0.00    -0.203 F 
ATOM     74  F   UNL     1      -8.143   2.626   1.448  1.00  0.00    -0.200 F 
ATOM     75  C   UNL     1      -6.321   1.232   1.973  1.00  0.00     0.200 A 
ATOM     76  F   UNL     1      -4.486  -0.135   2.545  1.00  0.00    -0.200 F 
ATOM     77  F   UNL     1      -6.128   1.007   0.669  1.00  0.00    -0.200 F 
ENDBRANCH  43  67
BRANCH  55  78
ATOM     78  C   UNL     1      -2.157   2.425  10.404  1.00  0.00     0.064 A 
ATOM     79  C   UNL     1      -2.612   1.191  10.892  1.00  0.00     0.173 A 
ATOM     80  C   UNL     1      -1.137   3.046  11.163  1.00  0.00     0.173 A 
ATOM     81  F   UNL     1      -3.443   0.418  10.180  1.00  0.00    -0.203 F 
ATOM     82  C   UNL     1      -2.181   0.681  12.114  1.00  0.00     0.198 A 
ATOM     83  C   UNL     1      -0.644   2.489  12.337  1.00  0.00     0.198 A 
ATOM     84  F   UNL     1      -0.567   4.197  10.777  1.00  0.00    -0.203 F 
ATOM     85  F   UNL     1      -2.716  -0.455  12.581  1.00  0.00    -0.200 F 
ATOM     86  C   UNL     1      -1.193   1.326  12.832  1.00  0.00     0.200 A 
ATOM     87  F   UNL     1       0.373   3.082  12.976  1.00  0.00    -0.200 F 
ATOM     88  F   UNL     1      -0.752   0.812  13.988  1.00  0.00    -0.200 F 
ENDBRANCH  55  78
ENDBRANCH  29  30
ENDBRANCH  22  24
ENDBRANCH  21  22
ENDBRANCH   1  21
TORSDOF 12
