REMARK SMILES Cc1cccc(CC(=O)N2CCC3(CCC(=O)N([C@H](C)C(=O)OCCOC(=O)c4ccc(-c5c6nc(c(-c7c(F)c(F)c(F)c(F)c7F)c7ccc([nH]7)c(-c7c(F)c(F)c(F)c(F)c7F)c7nc(c(-c8c(F)c(F)c(F)c(F)c8F)c8ccc5[nH]8)C=C7)C=C6)cc4)C3)CC2)c1
REMARK SMILES IDX 24 1 23 2 21 3 22 4 19 5 20 6 18 7 8 8 9 9 10 10 11 11 94 12
REMARK SMILES IDX 12 13 93 14 13 15 14 16 92 17 15 18 16 19 17 20 7 21 6 22
REMARK SMILES IDX 1 23 2 24 3 25 95 26 4 27 5 28 25 29 26 30 27 31 28 32 29 33
REMARK SMILES IDX 30 34 91 35 31 36 90 37 32 38 33 39 34 40 84 41 35 42 89 43
REMARK SMILES IDX 83 44 85 45 36 46 88 47 82 48 81 49 37 51 69 52 49 53 68 54
REMARK SMILES IDX 50 55 53 56 67 57 86 58 51 59 52 60 66 62 87 63 54 64 38 65
REMARK SMILES IDX 39 66 47 67 40 68 41 69 45 70 48 71 42 72 43 73 46 74 44 75
REMARK SMILES IDX 70 76 71 77 79 78 72 79 73 80 77 81 80 82 74 83 75 84 78 85
REMARK SMILES IDX 76 86 55 87 56 88 64 89 57 90 58 91 62 92 65 93 59 94 60 95
REMARK SMILES IDX 63 96 61 97
REMARK H PARENT 85 50 53 61
REMARK Flexibility Score: inf
ROOT
ATOM      1  C   UNL     1      -3.032   5.247  -7.766  1.00  0.00     0.274 C 
ENDROOT
BRANCH   1   2
ATOM      2  O   UNL     1      -1.625   5.485  -7.866  1.00  0.00    -0.461 OA
BRANCH   2   3
ATOM      3  C   UNL     1      -0.880   4.382  -7.584  1.00  0.00     0.328 C 
ATOM      4  O   UNL     1      -1.371   3.273  -7.394  1.00  0.00    -0.250 OA
BRANCH   3   5
ATOM      5  C   UNL     1       0.583   4.760  -7.267  1.00  0.00     0.192 C 
ATOM      6  C   UNL     1       1.284   3.538  -6.684  1.00  0.00     0.044 C 
BRANCH   5   7
ATOM      7  N   UNL     1       1.407   5.442  -8.293  1.00  0.00    -0.329 N 
ATOM      8  C   UNL     1       7.876   5.307  -7.061  1.00  0.00     0.226 C 
ATOM      9  O   UNL     1       8.298   4.145  -7.045  1.00  0.00    -0.275 OA
ATOM     10  N   UNL     1       6.637   5.617  -7.621  1.00  0.00    -0.342 N 
ATOM     11  C   UNL     1       5.777   4.505  -7.995  1.00  0.00     0.120 C 
ATOM     12  C   UNL     1       6.262   6.911  -8.191  1.00  0.00     0.120 C 
ATOM     13  C   UNL     1       4.322   4.828  -7.693  1.00  0.00     0.030 C 
ATOM     14  C   UNL     1       4.789   7.264  -7.962  1.00  0.00     0.030 C 
ATOM     15  C   UNL     1       3.821   6.127  -8.363  1.00  0.00    -0.008 C 
ATOM     16  C   UNL     1       3.724   6.033  -9.897  1.00  0.00     0.019 C 
ATOM     17  C   UNL     1       2.393   6.441  -7.872  1.00  0.00     0.127 C 
ATOM     18  C   UNL     1       2.712   4.997 -10.356  1.00  0.00     0.101 C 
ATOM     19  C   UNL     1       1.413   4.922  -9.574  1.00  0.00     0.223 C 
ATOM     20  O   UNL     1       0.455   4.300 -10.031  1.00  0.00    -0.275 OA
BRANCH   8  21
ATOM     21  C   UNL     1       8.652   6.378  -6.307  1.00  0.00     0.135 C 
BRANCH  21  22
ATOM     22  C   UNL     1       9.222   7.504  -7.126  1.00  0.00    -0.038 A 
ATOM     23  C   UNL     1       8.841  11.291  -7.287  1.00  0.00     0.044 C 
ATOM     24  C   UNL     1       9.298   9.896  -7.592  1.00  0.00    -0.051 A 
ATOM     25  C   UNL     1      10.098   9.637  -8.710  1.00  0.00     0.003 A 
ATOM     26  C   UNL     1       8.897   8.828  -6.787  1.00  0.00     0.007 A 
ATOM     27  C   UNL     1      10.481   8.329  -9.018  1.00  0.00     0.001 A 
ATOM     28  C   UNL     1      10.043   7.263  -8.232  1.00  0.00     0.004 A 
ENDBRANCH  21  22
ENDBRANCH   8  21
ENDBRANCH   5   7
ENDBRANCH   3   5
ENDBRANCH   2   3
ENDBRANCH   1   2
BRANCH   1  29
ATOM     29  C   UNL     1      -3.565   5.047  -6.323  1.00  0.00     0.275 C 
BRANCH  29  30
ATOM     30  O   UNL     1      -2.625   5.016  -5.197  1.00  0.00    -0.458 OA
BRANCH  30  31
ATOM     31  C   UNL     1      -1.924   5.993  -4.557  1.00  0.00     0.338 C 
ATOM     32  O   UNL     1      -1.379   5.802  -3.475  1.00  0.00    -0.246 OA
BRANCH  31  33
ATOM     33  C   UNL     1      -1.619   7.218  -5.311  1.00  0.00     0.060 A 
ATOM     34  C   UNL     1      -0.298   7.701  -5.383  1.00  0.00     0.016 A 
ATOM     35  C   UNL     1      -2.599   7.751  -6.115  1.00  0.00     0.016 A 
ATOM     36  C   UNL     1       0.063   8.565  -6.420  1.00  0.00     0.010 A 
ATOM     37  C   UNL     1      -2.197   8.369  -7.265  1.00  0.00     0.010 A 
ATOM     38  C   UNL     1      -0.881   8.820  -7.414  1.00  0.00    -0.014 A 
BRANCH  38  39
ATOM     39  C   UNL     1      -0.735   9.750  -8.524  1.00  0.00     0.031 A 
ATOM     40  C   UNL     1       0.103   9.516  -9.703  1.00  0.00     0.074 A 
ATOM     41  C   UNL     1      -1.564  10.813  -8.451  1.00  0.00     0.049 A 
ATOM     42  N   UNL     1       0.896  10.404 -10.201  1.00  0.00    -0.248 NA
ATOM     43  C   UNL     1       0.058   8.271 -10.468  1.00  0.00     0.031 C 
ATOM     44  C   UNL     1      -1.851  11.860  -9.407  1.00  0.00     0.029 A 
ATOM     45  N   UNL     1      -2.309  11.173  -7.320  1.00  0.00    -0.354 N 
ATOM     46  C   UNL     1       1.181   9.989 -11.484  1.00  0.00     0.074 A 
ATOM     47  C   UNL     1       0.778   8.599 -11.551  1.00  0.00     0.031 C 
ATOM     48  C   UNL     1      -2.434  12.880  -8.744  1.00  0.00     0.029 A 
ATOM     49  C   UNL     1      -2.460  12.556  -7.321  1.00  0.00     0.049 A 
ATOM     50  H   UNL     1      -2.664  10.554  -6.642  1.00  0.00     0.167 HD
ATOM     51  C   UNL     1       1.478  10.898 -12.459  1.00  0.00     0.037 A 
ATOM     52  C   UNL     1      -1.864  13.222  -6.289  1.00  0.00     0.037 A 
ATOM     53  C   UNL     1       1.237  12.259 -11.986  1.00  0.00     0.049 A 
ATOM     54  C   UNL     1      -0.618  13.934  -6.750  1.00  0.00     0.074 A 
ATOM     55  C   UNL     1       0.130  13.081 -12.132  1.00  0.00     0.029 A 
ATOM     56  N   UNL     1       1.978  12.791 -10.934  1.00  0.00    -0.354 N 
ATOM     57  N   UNL     1      -0.082  13.759  -7.926  1.00  0.00    -0.248 NA
ATOM     58  C   UNL     1       0.131  14.878  -5.930  1.00  0.00     0.031 C 
ATOM     59  C   UNL     1       0.152  14.044 -11.096  1.00  0.00     0.029 A 
ATOM     60  C   UNL     1       1.284  13.831 -10.332  1.00  0.00     0.049 A 
ATOM     61  H   UNL     1       2.867  12.474 -10.656  1.00  0.00     0.167 HD
ATOM     62  C   UNL     1       1.042  14.520  -8.037  1.00  0.00     0.074 A 
ATOM     63  C   UNL     1       1.125  15.223  -6.769  1.00  0.00     0.031 C 
ATOM     64  C   UNL     1       1.816  14.510  -9.161  1.00  0.00     0.037 A 
BRANCH  51  65
ATOM     65  C   UNL     1       1.612  10.509 -13.912  1.00  0.00     0.064 A 
ATOM     66  C   UNL     1       1.048  11.272 -14.956  1.00  0.00     0.173 A 
ATOM     67  C   UNL     1       2.321   9.362 -14.321  1.00  0.00     0.173 A 
ATOM     68  F   UNL     1       0.389  12.411 -14.715  1.00  0.00    -0.203 F 
ATOM     69  C   UNL     1       1.128  10.884 -16.296  1.00  0.00     0.198 A 
ATOM     70  C   UNL     1       2.383   8.963 -15.662  1.00  0.00     0.198 A 
ATOM     71  F   UNL     1       2.970   8.606 -13.421  1.00  0.00    -0.203 F 
ATOM     72  F   UNL     1       0.557  11.643 -17.243  1.00  0.00    -0.200 F 
ATOM     73  C   UNL     1       1.780   9.721 -16.649  1.00  0.00     0.200 A 
ATOM     74  F   UNL     1       3.026   7.833 -15.994  1.00  0.00    -0.200 F 
ATOM     75  F   UNL     1       1.834   9.338 -17.932  1.00  0.00    -0.200 F 
ENDBRANCH  51  65
BRANCH  52  76
ATOM     76  C   UNL     1      -2.043  12.492  -4.984  1.00  0.00     0.064 A 
ATOM     77  C   UNL     1      -3.372  12.259  -4.559  1.00  0.00     0.173 A 
ATOM     78  C   UNL     1      -1.046  11.689  -4.411  1.00  0.00     0.173 A 
ATOM     79  F   UNL     1      -4.373  12.995  -5.068  1.00  0.00    -0.203 F 
ATOM     80  C   UNL     1      -3.702  11.182  -3.737  1.00  0.00     0.198 A 
ATOM     81  C   UNL     1      -1.380  10.631  -3.552  1.00  0.00     0.198 A 
ATOM     82  F   UNL     1       0.238  11.848  -4.757  1.00  0.00    -0.203 F 
ATOM     83  F   UNL     1      -4.990  10.899  -3.491  1.00  0.00    -0.200 F 
ATOM     84  C   UNL     1      -2.708  10.350  -3.258  1.00  0.00     0.200 A 
ATOM     85  F   UNL     1      -0.418   9.829  -3.073  1.00  0.00    -0.200 F 
ATOM     86  F   UNL     1      -3.033   9.253  -2.558  1.00  0.00    -0.200 F 
ENDBRANCH  52  76
BRANCH  64  87
ATOM     87  C   UNL     1       3.104  15.256  -9.286  1.00  0.00     0.064 A 
ATOM     88  C   UNL     1       4.037  15.356  -8.247  1.00  0.00     0.173 A 
ATOM     89  C   UNL     1       3.479  15.808 -10.530  1.00  0.00     0.173 A 
ATOM     90  F   UNL     1       3.822  14.761  -7.064  1.00  0.00    -0.203 F 
ATOM     91  C   UNL     1       5.239  16.041  -8.416  1.00  0.00     0.198 A 
ATOM     92  C   UNL     1       4.704  16.439 -10.711  1.00  0.00     0.198 A 
ATOM     93  F   UNL     1       2.673  15.731 -11.599  1.00  0.00    -0.203 F 
ATOM     94  F   UNL     1       6.082  16.164  -7.381  1.00  0.00    -0.200 F 
ATOM     95  C   UNL     1       5.574  16.576  -9.648  1.00  0.00     0.200 A 
ATOM     96  F   UNL     1       5.040  16.903 -11.922  1.00  0.00    -0.200 F 
ATOM     97  F   UNL     1       6.743  17.207  -9.813  1.00  0.00    -0.200 F 
ENDBRANCH  64  87
ENDBRANCH  38  39
ENDBRANCH  31  33
ENDBRANCH  30  31
ENDBRANCH  29  30
ENDBRANCH   1  29
TORSDOF 14
