REMARK SMILES CC[C@@H](C)[C@H](NC(=O)[C@H](C)N1C(=O)N2CCC3=c4cc(OC)ccc4=N[C@H]3[C@@]2(C)C1=O)C(=O)OCCOC(=O)c1ccc(-c2c3nc(c(-c4c(F)c(F)c(F)c(F)c4F)c4ccc([nH]4)c(-c4c(F)c(F)c(F)c(F)c4F)c4nc(c(-c5c(F)c(F)c(F)c(F)c5F)c5ccc2[nH]5)C=C4)C=C3)cc1
REMARK SMILES IDX 35 1 34 2 32 3 33 4 5 5 3 6 4 7 2 8 1 9 6 10 7 11 8 13 9 14
REMARK SMILES IDX 10 15 11 16 12 17 30 18 14 19 13 20 28 21 31 22 15 23 27 24
REMARK SMILES IDX 29 25 16 26 17 27 26 28 18 29 25 30 19 31 24 32 20 33 23 34
REMARK SMILES IDX 21 35 22 36 36 37 37 38 38 39 39 40 40 41 41 42 102 43 42 44
REMARK SMILES IDX 101 45 43 46 44 47 45 48 95 49 46 50 100 51 94 52 96 53
REMARK SMILES IDX 47 54 99 55 93 56 92 57 48 59 80 60 60 61 79 62 61 63 64 64
REMARK SMILES IDX 78 65 97 66 62 67 63 68 77 70 98 71 65 72 49 73 50 74 58 75
REMARK SMILES IDX 51 76 52 77 56 78 59 79 53 80 54 81 57 82 55 83 81 84 82 85
REMARK SMILES IDX 90 86 83 87 84 88 88 89 91 90 85 91 86 92 89 93 87 94 66 95
REMARK SMILES IDX 67 96 75 97 68 98 69 99 73 100 76 101 70 102 71 103 74 104
REMARK SMILES IDX 72 105
REMARK H PARENT 6 12 96 58 64 69
REMARK Flexibility Score: inf
ROOT
ATOM      1  C   UNL     1       5.990   3.616   1.896  1.00  0.00     0.274 C 
ENDROOT
BRANCH   1   2
ATOM      2  O   UNL     1       4.971   3.694   2.940  1.00  0.00    -0.461 OA
BRANCH   2   3
ATOM      3  C   UNL     1       4.913   4.873   3.609  1.00  0.00     0.329 C 
ATOM      4  O   UNL     1       5.652   5.820   3.332  1.00  0.00    -0.250 OA
BRANCH   3   5
ATOM      5  C   UNL     1       4.029   4.915   4.901  1.00  0.00     0.195 C 
BRANCH   5   6
ATOM      6  C   UNL     1       4.963   4.814   6.149  1.00  0.00     0.019 C 
ATOM      7  C   UNL     1       5.866   6.046   6.316  1.00  0.00     0.010 C 
BRANCH   6   8
ATOM      8  C   UNL     1       5.853   3.567   6.122  1.00  0.00     0.002 C 
ATOM      9  C   UNL     1       6.310   3.176   7.522  1.00  0.00     0.004 C 
ENDBRANCH   6   8
ENDBRANCH   5   6
BRANCH   5  10
ATOM     10  N   UNL     1       2.676   4.347   5.242  1.00  0.00    -0.341 N 
ATOM     11  C   UNL     1       2.059   3.121   5.334  1.00  0.00     0.243 C 
ATOM     12  H   UNL     1       2.046   5.069   5.466  1.00  0.00     0.164 HD
ATOM     13  O   UNL     1       1.093   3.015   6.094  1.00  0.00    -0.273 OA
BRANCH  11  14
ATOM     14  C   UNL     1       2.400   2.028   4.310  1.00  0.00     0.181 C 
ATOM     15  C   UNL     1       1.628   2.530   3.090  1.00  0.00     0.042 C 
BRANCH  14  16
ATOM     16  N   UNL     1       2.678   0.627   4.905  1.00  0.00    -0.250 N 
ATOM     17  C   UNL     1       2.663  -0.822   4.876  1.00  0.00     0.328 C 
ATOM     18  C   UNL     1       3.739   0.791   5.667  1.00  0.00     0.259 C 
ATOM     19  N   UNL     1       4.205  -1.277   5.352  1.00  0.00    -0.307 N 
ATOM     20  O   UNL     1       1.772  -1.594   4.565  1.00  0.00    -0.248 OA
ATOM     21  C   UNL     1       4.779  -0.047   5.043  1.00  0.00     0.147 C 
ATOM     22  O   UNL     1       3.757   1.430   6.705  1.00  0.00    -0.271 OA
ATOM     23  C   UNL     1       5.390  -2.381   4.795  1.00  0.00     0.127 C 
ATOM     24  C   UNL     1       4.661  -0.251   3.384  1.00  0.00     0.168 C 
ATOM     25  C   UNL     1       6.060   0.166   5.866  1.00  0.00     0.048 C 
ATOM     26  C   UNL     1       6.549  -1.597   3.546  1.00  0.00     0.055 C 
ATOM     27  C   UNL     1       5.877  -0.389   2.595  1.00  0.00    -0.032 C 
ATOM     28  N   UNL     1       3.564  -1.103   2.527  1.00  0.00    -0.274 NA
ATOM     29  C   UNL     1       5.327  -0.275   1.327  1.00  0.00     0.005 A 
ATOM     30  C   UNL     1       4.260  -1.318   1.415  1.00  0.00     0.066 A 
ATOM     31  C   UNL     1       4.288   0.897   0.994  1.00  0.00     0.056 A 
ATOM     32  C   UNL     1       3.680  -1.719   0.112  1.00  0.00     0.032 A 
ATOM     33  C   UNL     1       3.079   0.565   0.404  1.00  0.00     0.119 A 
ATOM     34  C   UNL     1       3.015  -0.658  -0.370  1.00  0.00     0.048 A 
BRANCH  33  35
ATOM     35  O   UNL     1       1.855   1.024   0.871  1.00  0.00    -0.497 OA
ATOM     36  C   UNL     1       0.787   0.080   1.166  1.00  0.00     0.278 C 
ENDBRANCH  33  35
ENDBRANCH  14  16
ENDBRANCH  11  14
ENDBRANCH   5  10
ENDBRANCH   3   5
ENDBRANCH   2   3
ENDBRANCH   1   2
BRANCH   1  37
ATOM     37  C   UNL     1       5.428   3.741   0.470  1.00  0.00     0.275 C 
BRANCH  37  38
ATOM     38  O   UNL     1       5.073   5.081   0.170  1.00  0.00    -0.458 OA
BRANCH  38  39
ATOM     39  C   UNL     1       3.836   5.440   0.605  1.00  0.00     0.338 C 
ATOM     40  O   UNL     1       2.997   4.782   1.159  1.00  0.00    -0.246 OA
BRANCH  39  41
ATOM     41  C   UNL     1       3.838   6.893   0.503  1.00  0.00     0.060 A 
ATOM     42  C   UNL     1       4.152   7.484  -0.719  1.00  0.00     0.016 A 
ATOM     43  C   UNL     1       3.711   7.617   1.690  1.00  0.00     0.016 A 
ATOM     44  C   UNL     1       4.428   8.833  -0.733  1.00  0.00     0.010 A 
ATOM     45  C   UNL     1       3.987   8.968   1.676  1.00  0.00     0.010 A 
ATOM     46  C   UNL     1       4.367   9.559   0.468  1.00  0.00    -0.014 A 
BRANCH  46  47
ATOM     47  C   UNL     1       4.648  10.989   0.421  1.00  0.00     0.031 A 
ATOM     48  C   UNL     1       5.990  11.490   0.826  1.00  0.00     0.074 A 
ATOM     49  C   UNL     1       3.663  11.761  -0.058  1.00  0.00     0.049 A 
ATOM     50  N   UNL     1       6.476  12.692   0.702  1.00  0.00    -0.248 NA
ATOM     51  C   UNL     1       6.911  10.524   1.452  1.00  0.00     0.031 C 
ATOM     52  C   UNL     1       2.328  11.275  -0.428  1.00  0.00     0.029 A 
ATOM     53  N   UNL     1       3.631  13.090  -0.349  1.00  0.00    -0.354 N 
ATOM     54  C   UNL     1       7.764  12.627   1.212  1.00  0.00     0.074 A 
ATOM     55  C   UNL     1       7.973  11.281   1.694  1.00  0.00     0.031 C 
ATOM     56  C   UNL     1       1.621  12.290  -0.941  1.00  0.00     0.029 A 
ATOM     57  C   UNL     1       2.445  13.490  -0.910  1.00  0.00     0.049 A 
ATOM     58  H   UNL     1       4.382  13.702  -0.174  1.00  0.00     0.167 HD
ATOM     59  C   UNL     1       8.677  13.621   1.240  1.00  0.00     0.037 A 
ATOM     60  C   UNL     1       2.089  14.702  -1.362  1.00  0.00     0.037 A 
ATOM     61  C   UNL     1       8.399  14.943   0.742  1.00  0.00     0.049 A 
ATOM     62  C   UNL     1       3.130  15.782  -1.307  1.00  0.00     0.074 A 
ATOM     63  C   UNL     1       9.235  16.041   0.691  1.00  0.00     0.029 A 
ATOM     64  N   UNL     1       7.176  15.339   0.209  1.00  0.00    -0.354 N 
ATOM     65  N   UNL     1       4.372  15.707  -0.884  1.00  0.00    -0.248 NA
ATOM     66  C   UNL     1       2.736  17.104  -1.796  1.00  0.00     0.031 C 
ATOM     67  C   UNL     1       8.504  17.113   0.170  1.00  0.00     0.029 A 
ATOM     68  C   UNL     1       7.228  16.672  -0.153  1.00  0.00     0.049 A 
ATOM     69  H   UNL     1       6.390  14.755   0.106  1.00  0.00     0.167 HD
ATOM     70  C   UNL     1       4.913  16.968  -1.061  1.00  0.00     0.074 A 
ATOM     71  C   UNL     1       3.870  17.779  -1.663  1.00  0.00     0.031 C 
ATOM     72  C   UNL     1       6.150  17.425  -0.747  1.00  0.00     0.037 A 
BRANCH  59  73
ATOM     73  C   UNL     1      10.037  13.332   1.800  1.00  0.00     0.064 A 
ATOM     74  C   UNL     1      10.961  12.538   1.105  1.00  0.00     0.173 A 
ATOM     75  C   UNL     1      10.458  13.930   2.998  1.00  0.00     0.173 A 
ATOM     76  F   UNL     1      10.604  11.928  -0.036  1.00  0.00    -0.203 F 
ATOM     77  C   UNL     1      12.257  12.359   1.583  1.00  0.00     0.198 A 
ATOM     78  C   UNL     1      11.761  13.768   3.461  1.00  0.00     0.198 A 
ATOM     79  F   UNL     1       9.612  14.693   3.706  1.00  0.00    -0.203 F 
ATOM     80  F   UNL     1      13.118  11.585   0.908  1.00  0.00    -0.200 F 
ATOM     81  C   UNL     1      12.660  12.985   2.752  1.00  0.00     0.200 A 
ATOM     82  F   UNL     1      12.152  14.381   4.587  1.00  0.00    -0.200 F 
ATOM     83  F   UNL     1      13.916  12.836   3.196  1.00  0.00    -0.200 F 
ENDBRANCH  59  73
BRANCH  60  84
ATOM     84  C   UNL     1       0.732  14.911  -1.922  1.00  0.00     0.064 A 
ATOM     85  C   UNL     1       0.542  15.182  -3.283  1.00  0.00     0.173 A 
ATOM     86  C   UNL     1      -0.412  14.786  -1.117  1.00  0.00     0.173 A 
ATOM     87  F   UNL     1       1.602  15.307  -4.095  1.00  0.00    -0.203 F 
ATOM     88  C   UNL     1      -0.737  15.341  -3.813  1.00  0.00     0.198 A 
ATOM     89  C   UNL     1      -1.690  14.913  -1.654  1.00  0.00     0.198 A 
ATOM     90  F   UNL     1      -0.287  14.504   0.189  1.00  0.00    -0.203 F 
ATOM     91  F   UNL     1      -0.889  15.634  -5.112  1.00  0.00    -0.200 F 
ATOM     92  C   UNL     1      -1.852  15.200  -3.000  1.00  0.00     0.200 A 
ATOM     93  F   UNL     1      -2.764  14.748  -0.869  1.00  0.00    -0.200 F 
ATOM     94  F   UNL     1      -3.081  15.340  -3.514  1.00  0.00    -0.200 F 
ENDBRANCH  60  84
BRANCH  72  95
ATOM     95  C   UNL     1       6.425  18.866  -1.048  1.00  0.00     0.064 A 
ATOM     96  C   UNL     1       5.856  19.888  -0.276  1.00  0.00     0.173 A 
ATOM     97  C   UNL     1       7.319  19.220  -2.069  1.00  0.00     0.173 A 
ATOM     98  F   UNL     1       4.986  19.592   0.701  1.00  0.00    -0.203 F 
ATOM     99  C   UNL     1       6.159  21.220  -0.528  1.00  0.00     0.198 A 
ATOM    100  C   UNL     1       7.646  20.551  -2.295  1.00  0.00     0.198 A 
ATOM    101  F   UNL     1       7.894  18.272  -2.824  1.00  0.00    -0.203 F 
ATOM    102  F   UNL     1       5.573  22.185   0.193  1.00  0.00    -0.200 F 
ATOM    103  C   UNL     1       7.062  21.550  -1.529  1.00  0.00     0.200 A 
ATOM    104  F   UNL     1       8.532  20.868  -3.248  1.00  0.00    -0.200 F 
ATOM    105  F   UNL     1       7.367  22.834  -1.758  1.00  0.00    -0.200 F 
ENDBRANCH  72  95
ENDBRANCH  46  47
ENDBRANCH  39  41
ENDBRANCH  38  39
ENDBRANCH  37  38
ENDBRANCH   1  37
TORSDOF 17
