REMARK SMILES O=C(OCCOC(=O)c1ccc(OC[C@H]2C[C@H]3CC[C@@H]2C3)c(Cl)c1)c1ccc(-c2c3nc(c(-c4c(F)c(F)c(F)c(F)c4F)c4ccc([nH]4)c(-c4c(F)c(F)c(F)c(F)c4F)c4nc(c(-c5c(F)c(F)c(F)c(F)c5F)c5ccc2[nH]5)C=C4)C=C3)cc1
REMARK SMILES IDX 5 1 4 2 3 3 2 4 1 5 25 6 26 7 87 8 27 9 86 10 28 11 29 12
REMARK SMILES IDX 30 13 80 14 31 15 85 16 79 17 81 18 32 19 84 20 78 21 77 22
REMARK SMILES IDX 33 24 65 25 45 26 64 27 46 28 49 29 63 30 82 31 47 32 48 33
REMARK SMILES IDX 62 35 83 36 50 37 34 38 35 39 43 40 36 41 37 42 41 43 44 44
REMARK SMILES IDX 38 45 39 46 42 47 40 48 66 49 67 50 75 51 68 52 69 53 73 54
REMARK SMILES IDX 76 55 70 56 71 57 74 58 72 59 51 60 52 61 60 62 53 63 54 64
REMARK SMILES IDX 58 65 61 66 55 67 56 68 59 69 57 70 6 71 7 72 8 73 9 74
REMARK SMILES IDX 10 75 24 76 11 77 22 78 12 79 23 80 13 81 14 82 15 83 16 84
REMARK SMILES IDX 20 85 17 86 19 87 21 88 18 89
REMARK H PARENT 81 23 49 34
REMARK Flexibility Score: inf
ROOT
ATOM      1  C   UNL     1      -7.837  -1.437   0.695  1.00  0.00     0.275 C 
ENDROOT
BRANCH   1   2
ATOM      2  C   UNL     1      -8.010  -0.143  -0.107  1.00  0.00     0.275 C 
BRANCH   2   3
ATOM      3  O   UNL     1      -6.831   0.672  -0.094  1.00  0.00    -0.458 OA
BRANCH   3   4
ATOM      4  C   UNL     1      -6.587   1.761   0.669  1.00  0.00     0.338 C 
ATOM      5  O   UNL     1      -5.720   2.551   0.298  1.00  0.00    -0.246 OA
BRANCH   4   6
ATOM      6  C   UNL     1      -7.155   1.947   2.048  1.00  0.00     0.060 A 
ATOM      7  C   UNL     1      -8.310   1.367   2.588  1.00  0.00     0.016 A 
ATOM      8  C   UNL     1      -6.367   2.716   2.913  1.00  0.00     0.016 A 
ATOM      9  C   UNL     1      -8.580   1.400   3.965  1.00  0.00     0.010 A 
ATOM     10  C   UNL     1      -6.637   2.747   4.282  1.00  0.00     0.010 A 
ATOM     11  C   UNL     1      -7.709   2.037   4.842  1.00  0.00    -0.014 A 
BRANCH  11  12
ATOM     12  C   UNL     1      -7.947   2.041   6.315  1.00  0.00     0.031 A 
ATOM     13  C   UNL     1      -8.103   3.368   7.004  1.00  0.00     0.074 A 
ATOM     14  C   UNL     1      -7.980   0.904   7.047  1.00  0.00     0.049 A 
ATOM     15  N   UNL     1      -8.255   3.637   8.275  1.00  0.00    -0.248 NA
ATOM     16  C   UNL     1      -8.043   4.562   6.144  1.00  0.00     0.031 C 
ATOM     17  C   UNL     1      -7.801  -0.455   6.534  1.00  0.00     0.029 A 
ATOM     18  N   UNL     1      -8.162   0.710   8.399  1.00  0.00    -0.354 N 
ATOM     19  C   UNL     1      -8.309   5.021   8.348  1.00  0.00     0.074 A 
ATOM     20  C   UNL     1      -8.011   5.535   7.034  1.00  0.00     0.031 C 
ATOM     21  C   UNL     1      -7.866  -1.335   7.551  1.00  0.00     0.029 A 
ATOM     22  C   UNL     1      -8.103  -0.609   8.794  1.00  0.00     0.049 A 
ATOM     23  H   UNL     1      -8.321   1.450   9.029  1.00  0.00     0.167 HD
ATOM     24  C   UNL     1      -8.681   5.805   9.386  1.00  0.00     0.037 A 
ATOM     25  C   UNL     1      -8.243  -1.164  10.016  1.00  0.00     0.037 A 
ATOM     26  C   UNL     1      -9.025   5.304  10.681  1.00  0.00     0.049 A 
ATOM     27  C   UNL     1      -8.584  -0.269  11.185  1.00  0.00     0.074 A 
ATOM     28  C   UNL     1      -9.451   6.001  11.794  1.00  0.00     0.029 A 
ATOM     29  N   UNL     1      -8.983   3.962  11.031  1.00  0.00    -0.354 N 
ATOM     30  N   UNL     1      -8.751   1.031  11.212  1.00  0.00    -0.248 NA
ATOM     31  C   UNL     1      -8.796  -0.923  12.486  1.00  0.00     0.031 C 
ATOM     32  C   UNL     1      -9.646   5.080  12.830  1.00  0.00     0.029 A 
ATOM     33  C   UNL     1      -9.375   3.808  12.348  1.00  0.00     0.049 A 
ATOM     34  H   UNL     1      -8.715   3.229  10.431  1.00  0.00     0.167 HD
ATOM     35  C   UNL     1      -9.148   1.341  12.507  1.00  0.00     0.074 A 
ATOM     36  C   UNL     1      -9.192   0.093  13.239  1.00  0.00     0.031 C 
ATOM     37  C   UNL     1      -9.457   2.548  13.040  1.00  0.00     0.037 A 
BRANCH  24  38
ATOM     38  C   UNL     1      -8.786   7.272   9.096  1.00  0.00     0.064 A 
ATOM     39  C   UNL     1      -9.770   7.763   8.219  1.00  0.00     0.173 A 
ATOM     40  C   UNL     1      -7.854   8.179   9.613  1.00  0.00     0.173 A 
ATOM     41  F   UNL     1     -10.668   6.926   7.675  1.00  0.00    -0.203 F 
ATOM     42  C   UNL     1      -9.773   9.094   7.819  1.00  0.00     0.198 A 
ATOM     43  C   UNL     1      -7.884   9.520   9.239  1.00  0.00     0.198 A 
ATOM     44  F   UNL     1      -6.895   7.761  10.452  1.00  0.00    -0.203 F 
ATOM     45  F   UNL     1     -10.658   9.514   6.903  1.00  0.00    -0.200 F 
ATOM     46  C   UNL     1      -8.830   9.972   8.329  1.00  0.00     0.200 A 
ATOM     47  F   UNL     1      -6.976  10.372   9.734  1.00  0.00    -0.200 F 
ATOM     48  F   UNL     1      -8.819  11.250   7.926  1.00  0.00    -0.200 F 
ENDBRANCH  24  38
BRANCH  25  49
ATOM     49  C   UNL     1      -8.130  -2.639  10.216  1.00  0.00     0.064 A 
ATOM     50  C   UNL     1      -9.251  -3.410  10.562  1.00  0.00     0.173 A 
ATOM     51  C   UNL     1      -6.892  -3.296  10.148  1.00  0.00     0.173 A 
ATOM     52  F   UNL     1     -10.456  -2.829  10.666  1.00  0.00    -0.203 F 
ATOM     53  C   UNL     1      -9.133  -4.765  10.873  1.00  0.00     0.198 A 
ATOM     54  C   UNL     1      -6.779  -4.658  10.434  1.00  0.00     0.198 A 
ATOM     55  F   UNL     1      -5.786  -2.612   9.823  1.00  0.00    -0.203 F 
ATOM     56  F   UNL     1     -10.211  -5.457  11.266  1.00  0.00    -0.200 F 
ATOM     57  C   UNL     1      -7.897  -5.388  10.809  1.00  0.00     0.200 A 
ATOM     58  F   UNL     1      -5.583  -5.259  10.365  1.00  0.00    -0.200 F 
ATOM     59  F   UNL     1      -7.780  -6.685  11.124  1.00  0.00    -0.200 F 
ENDBRANCH  25  49
BRANCH  37  60
ATOM     60  C   UNL     1      -9.950   2.578  14.455  1.00  0.00     0.064 A 
ATOM     61  C   UNL     1      -9.091   2.368  15.542  1.00  0.00     0.173 A 
ATOM     62  C   UNL     1     -11.290   2.899  14.724  1.00  0.00     0.173 A 
ATOM     63  F   UNL     1      -7.806   2.043  15.335  1.00  0.00    -0.203 F 
ATOM     64  C   UNL     1      -9.559   2.465  16.849  1.00  0.00     0.198 A 
ATOM     65  C   UNL     1     -11.747   3.027  16.032  1.00  0.00     0.198 A 
ATOM     66  F   UNL     1     -12.149   3.116  13.716  1.00  0.00    -0.203 F 
ATOM     67  F   UNL     1      -8.731   2.226  17.875  1.00  0.00    -0.200 F 
ATOM     68  C   UNL     1     -10.882   2.806  17.093  1.00  0.00     0.200 A 
ATOM     69  F   UNL     1     -13.020   3.372  16.264  1.00  0.00    -0.200 F 
ATOM     70  F   UNL     1     -11.325   2.918  18.352  1.00  0.00    -0.200 F 
ENDBRANCH  37  60
ENDBRANCH  11  12
ENDBRANCH   4   6
ENDBRANCH   3   4
ENDBRANCH   2   3
ENDBRANCH   1   2
BRANCH   1  71
ATOM     71  O   UNL     1      -7.213  -1.226   1.980  1.00  0.00    -0.458 OA
BRANCH  71  72
ATOM     72  C   UNL     1      -6.017  -1.841   2.162  1.00  0.00     0.338 C 
ATOM     73  O   UNL     1      -5.430  -2.551   1.367  1.00  0.00    -0.246 OA
BRANCH  72  74
ATOM     74  C   UNL     1      -5.498  -1.604   3.526  1.00  0.00     0.061 A 
ATOM     75  C   UNL     1      -5.320  -2.684   4.389  1.00  0.00     0.019 A 
ATOM     76  C   UNL     1      -5.064  -0.340   3.917  1.00  0.00     0.040 A 
ATOM     77  C   UNL     1      -4.598  -2.508   5.577  1.00  0.00     0.049 A 
ATOM     78  C   UNL     1      -4.428  -0.153   5.151  1.00  0.00     0.083 A 
ATOM     79  C   UNL     1      -4.058  -1.257   5.912  1.00  0.00     0.137 A 
ATOM     80  Cl  UNL     1      -4.221   1.454   5.727  1.00  0.00    -0.080 Cl
BRANCH  79  81
ATOM     81  O   UNL     1      -3.132  -1.285   6.921  1.00  0.00    -0.492 OA
BRANCH  81  82
ATOM     82  C   UNL     1      -1.980  -0.427   6.834  1.00  0.00     0.233 C 
BRANCH  82  83
ATOM     83  C   UNL     1      -0.878  -0.773   5.809  1.00  0.00     0.030 C 
ATOM     84  C   UNL     1      -1.170  -1.686   4.603  1.00  0.00     0.011 C 
ATOM     85  C   UNL     1      -0.131   0.427   5.145  1.00  0.00    -0.004 C 
ATOM     86  C   UNL     1      -0.510  -0.943   3.427  1.00  0.00    -0.010 C 
ATOM     87  C   UNL     1      -1.016   1.265   4.209  1.00  0.00     0.004 C 
ATOM     88  C   UNL     1       0.710  -0.308   4.093  1.00  0.00     0.007 C 
ATOM     89  C   UNL     1      -1.365   0.288   3.080  1.00  0.00     0.004 C 
ENDBRANCH  82  83
ENDBRANCH  81  82
ENDBRANCH  79  81
ENDBRANCH  72  74
ENDBRANCH  71  72
ENDBRANCH   1  71
TORSDOF 14
