REMARK SMILES O=C(CC[NH+]1CC[NH+](Cc2ccccc2C2CC2)CC1)OCCOC(=O)c1ccc(-c2c3nc(c(-c4c(F)c(F)c(F)c(F)c4F)c4ccc([nH]4)c(-c4c(F)c(F)c(F)c(F)c4F)c4nc(c(-c5c(F)c(F)c(F)c(F)c5F)c5ccc2[nH]5)C=C4)C=C3)cc1
REMARK SMILES IDX 21 1 2 2 1 3 3 4 4 5 5 6 6 7 20 8 7 10 19 11 8 12 9 14 10 15
REMARK SMILES IDX 11 16 15 17 12 18 14 19 13 20 16 21 17 22 18 23 22 24 23 25
REMARK SMILES IDX 24 26 25 27 26 28 27 29 28 30 89 31 29 32 88 33 30 34 31 35
REMARK SMILES IDX 32 36 82 37 33 38 87 39 81 40 83 41 34 42 86 43 80 44 79 45
REMARK SMILES IDX 35 47 67 48 47 49 66 50 48 51 51 52 65 53 84 54 49 55 50 56
REMARK SMILES IDX 64 58 85 59 52 60 36 61 37 62 45 63 38 64 39 65 43 66 46 67
REMARK SMILES IDX 40 68 41 69 44 70 42 71 68 72 69 73 77 74 70 75 71 76 75 77
REMARK SMILES IDX 78 78 72 79 73 80 76 81 74 82 53 83 54 84 62 85 55 86 56 87
REMARK SMILES IDX 60 88 63 89 57 90 58 91 61 92 59 93
REMARK H PARENT 5 9 8 13 83 46 51 57
REMARK Flexibility Score: inf
ROOT
ATOM      1  O   UNL     1       1.216   0.677  -0.232  1.00  0.00    -0.462 OA
ENDROOT
BRANCH   1   2
ATOM      2  C   UNL     1       1.444  -0.133  -1.307  1.00  0.00     0.311 C 
ATOM      3  O   UNL     1       0.854   0.026  -2.369  1.00  0.00    -0.252 OA
BRANCH   2   4
ATOM      4  C   UNL     1       2.287  -1.357  -1.007  1.00  0.00     0.184 C 
BRANCH   4   5
ATOM      5  C   UNL     1       3.339  -1.675  -2.083  1.00  0.00     0.274 C 
BRANCH   5   6
ATOM      6  N   UNL     1       4.765  -1.614  -1.757  1.00  0.00    -0.325 N 
ATOM      7  C   UNL     1       5.228  -0.508  -0.942  1.00  0.00     0.324 C 
ATOM      8  C   UNL     1       5.524  -2.836  -1.484  1.00  0.00     0.324 C 
ATOM      9  H   UNL     1       5.015  -1.406  -2.724  1.00  0.00     0.348 HD
ATOM     10  C   UNL     1       5.275  -0.870   0.558  1.00  0.00     0.324 C 
ATOM     11  C   UNL     1       5.990  -3.096  -0.014  1.00  0.00     0.324 C 
ATOM     12  N   UNL     1       6.198  -1.946   0.878  1.00  0.00    -0.322 N 
ATOM     13  H   UNL     1       5.964  -2.313   1.800  1.00  0.00     0.348 HD
BRANCH  12  14
ATOM     14  C   UNL     1       7.570  -1.522   1.175  1.00  0.00     0.299 C 
BRANCH  14  15
ATOM     15  C   UNL     1       8.202  -0.479   0.269  1.00  0.00     0.010 A 
ATOM     16  C   UNL     1       8.925  -0.978  -0.840  1.00  0.00     0.010 A 
ATOM     17  C   UNL     1       8.024   0.928   0.417  1.00  0.00    -0.036 A 
ATOM     18  C   UNL     1       9.414  -0.131  -1.829  1.00  0.00     0.001 A 
ATOM     19  C   UNL     1       8.537   1.749  -0.615  1.00  0.00     0.004 A 
ATOM     20  C   UNL     1       9.206   1.235  -1.725  1.00  0.00     0.000 A 
BRANCH  17  21
ATOM     21  C   UNL     1       7.196   1.644   1.478  1.00  0.00     0.020 C 
ATOM     22  C   UNL     1       7.188   1.325   2.950  1.00  0.00     0.009 C 
ATOM     23  C   UNL     1       7.883   2.557   2.468  1.00  0.00     0.009 C 
ENDBRANCH  17  21
ENDBRANCH  14  15
ENDBRANCH  12  14
ENDBRANCH   5   6
ENDBRANCH   4   5
ENDBRANCH   2   4
ENDBRANCH   1   2
BRANCH   1  24
ATOM     24  C   UNL     1       2.295   1.535   0.183  1.00  0.00     0.274 C 
BRANCH  24  25
ATOM     25  C   UNL     1       2.550   1.476   1.693  1.00  0.00     0.275 C 
BRANCH  25  26
ATOM     26  O   UNL     1       2.638   0.111   2.127  1.00  0.00    -0.458 OA
BRANCH  26  27
ATOM     27  C   UNL     1       1.463  -0.393   2.583  1.00  0.00     0.338 C 
ATOM     28  O   UNL     1       0.468   0.235   2.880  1.00  0.00    -0.246 OA
BRANCH  27  29
ATOM     29  C   UNL     1       1.478  -1.867   2.477  1.00  0.00     0.060 A 
ATOM     30  C   UNL     1       0.318  -2.464   1.973  1.00  0.00     0.016 A 
ATOM     31  C   UNL     1       2.567  -2.655   2.865  1.00  0.00     0.016 A 
ATOM     32  C   UNL     1       0.212  -3.850   1.925  1.00  0.00     0.010 A 
ATOM     33  C   UNL     1       2.460  -4.051   2.816  1.00  0.00     0.010 A 
ATOM     34  C   UNL     1       1.262  -4.652   2.392  1.00  0.00    -0.014 A 
BRANCH  34  35
ATOM     35  C   UNL     1       0.986  -6.093   2.609  1.00  0.00     0.031 A 
ATOM     36  C   UNL     1       0.534  -6.539   3.972  1.00  0.00     0.074 A 
ATOM     37  C   UNL     1       1.006  -6.968   1.589  1.00  0.00     0.049 A 
ATOM     38  N   UNL     1       0.038  -7.691   4.348  1.00  0.00    -0.248 NA
ATOM     39  C   UNL     1       0.644  -5.548   5.054  1.00  0.00     0.031 C 
ATOM     40  C   UNL     1       1.401  -6.660   0.218  1.00  0.00     0.029 A 
ATOM     41  N   UNL     1       0.657  -8.296   1.553  1.00  0.00    -0.354 N 
ATOM     42  C   UNL     1      -0.251  -7.551   5.699  1.00  0.00     0.074 A 
ATOM     43  C   UNL     1       0.178  -6.226   6.091  1.00  0.00     0.031 C 
ATOM     44  C   UNL     1       1.256  -7.765  -0.534  1.00  0.00     0.029 A 
ATOM     45  C   UNL     1       0.761  -8.857   0.305  1.00  0.00     0.049 A 
ATOM     46  H   UNL     1       0.361  -8.798   2.346  1.00  0.00     0.167 HD
ATOM     47  C   UNL     1      -0.843  -8.436   6.535  1.00  0.00     0.037 A 
ATOM     48  C   UNL     1       0.472 -10.105  -0.113  1.00  0.00     0.037 A 
ATOM     49  C   UNL     1      -1.254  -9.761   6.158  1.00  0.00     0.049 A 
ATOM     50  C   UNL     1      -0.110 -11.102   0.857  1.00  0.00     0.074 A 
ATOM     51  C   UNL     1      -1.876 -10.726   6.930  1.00  0.00     0.029 A 
ATOM     52  N   UNL     1      -1.065 -10.316   4.901  1.00  0.00    -0.354 N 
ATOM     53  N   UNL     1      -0.448 -10.939   2.113  1.00  0.00    -0.248 NA
ATOM     54  C   UNL     1      -0.365 -12.456   0.341  1.00  0.00     0.031 C 
ATOM     55  C   UNL     1      -2.015 -11.883   6.156  1.00  0.00     0.029 A 
ATOM     56  C   UNL     1      -1.527 -11.622   4.886  1.00  0.00     0.049 A 
ATOM     57  H   UNL     1      -0.662  -9.850   4.132  1.00  0.00     0.167 HD
ATOM     58  C   UNL     1      -0.985 -12.152   2.526  1.00  0.00     0.074 A 
ATOM     59  C   UNL     1      -0.935 -13.042   1.385  1.00  0.00     0.031 C 
ATOM     60  C   UNL     1      -1.480 -12.496   3.742  1.00  0.00     0.037 A 
BRANCH  47  61
ATOM     61  C   UNL     1      -1.062  -7.995   7.951  1.00  0.00     0.064 A 
ATOM     62  C   UNL     1      -2.032  -7.034   8.278  1.00  0.00     0.173 A 
ATOM     63  C   UNL     1      -0.298  -8.540   8.992  1.00  0.00     0.173 A 
ATOM     64  F   UNL     1      -2.777  -6.471   7.314  1.00  0.00    -0.203 F 
ATOM     65  C   UNL     1      -2.205  -6.612   9.593  1.00  0.00     0.198 A 
ATOM     66  C   UNL     1      -0.493  -8.135  10.309  1.00  0.00     0.198 A 
ATOM     67  F   UNL     1       0.640  -9.462   8.731  1.00  0.00    -0.203 F 
ATOM     68  F   UNL     1      -3.100  -5.655   9.876  1.00  0.00    -0.200 F 
ATOM     69  C   UNL     1      -1.440  -7.166  10.608  1.00  0.00     0.200 A 
ATOM     70  F   UNL     1       0.242  -8.677  11.290  1.00  0.00    -0.200 F 
ATOM     71  F   UNL     1      -1.606  -6.758  11.873  1.00  0.00    -0.200 F 
ENDBRANCH  47  61
BRANCH  48  72
ATOM     72  C   UNL     1       0.704 -10.482  -1.531  1.00  0.00     0.064 A 
ATOM     73  C   UNL     1      -0.367 -10.730  -2.400  1.00  0.00     0.173 A 
ATOM     74  C   UNL     1       2.004 -10.624  -2.038  1.00  0.00     0.173 A 
ATOM     75  F   UNL     1      -1.628 -10.634  -1.954  1.00  0.00    -0.203 F 
ATOM     76  C   UNL     1      -0.146 -11.122  -3.720  1.00  0.00     0.198 A 
ATOM     77  C   UNL     1       2.223 -10.991  -3.363  1.00  0.00     0.198 A 
ATOM     78  F   UNL     1       3.062 -10.402  -1.244  1.00  0.00    -0.203 F 
ATOM     79  F   UNL     1      -1.187 -11.396  -4.518  1.00  0.00    -0.200 F 
ATOM     80  C   UNL     1       1.148 -11.247  -4.201  1.00  0.00     0.200 A 
ATOM     81  F   UNL     1       3.476 -11.105  -3.826  1.00  0.00    -0.200 F 
ATOM     82  F   UNL     1       1.360 -11.624  -5.469  1.00  0.00    -0.200 F 
ENDBRANCH  48  72
BRANCH  60  83
ATOM     83  C   UNL     1      -2.038 -13.882   3.900  1.00  0.00     0.064 A 
ATOM     84  C   UNL     1      -1.207 -15.011   3.942  1.00  0.00     0.173 A 
ATOM     85  C   UNL     1      -3.418 -14.076   4.064  1.00  0.00     0.173 A 
ATOM     86  F   UNL     1       0.118 -14.880   3.778  1.00  0.00    -0.203 F 
ATOM     87  C   UNL     1      -1.740 -16.285   4.122  1.00  0.00     0.198 A 
ATOM     88  C   UNL     1      -3.944 -15.348   4.271  1.00  0.00     0.198 A 
ATOM     89  F   UNL     1      -4.257 -13.029   4.039  1.00  0.00    -0.203 F 
ATOM     90  F   UNL     1      -0.931 -17.354   4.118  1.00  0.00    -0.200 F 
ATOM     91  C   UNL     1      -3.106 -16.452   4.294  1.00  0.00     0.200 A 
ATOM     92  F   UNL     1      -5.263 -15.506   4.452  1.00  0.00    -0.200 F 
ATOM     93  F   UNL     1      -3.615 -17.678   4.476  1.00  0.00    -0.200 F 
ENDBRANCH  60  83
ENDBRANCH  34  35
ENDBRANCH  27  29
ENDBRANCH  26  27
ENDBRANCH  25  26
ENDBRANCH  24  25
ENDBRANCH   1  24
TORSDOF 16
