REMARK SMILES CC(=O)N[C@@H](Cc1c(OCC(C)C)ccc2ccccc12)C(=O)OCCOC(=O)c1ccc(-c2c3nc(c(-c4c(F)c(F)c(F)c(F)c4F)c4ccc([nH]4)c(-c4c(F)c(F)c(F)c(F)c4F)c4nc(c(-c5c(F)c(F)c(F)c(F)c5F)c5ccc2[nH]5)C=C4)C=C3)cc1
REMARK SMILES IDX 24 1 22 2 23 3 5 4 4 5 1 6 2 7 3 8 6 10 7 11 8 12 21 13
REMARK SMILES IDX 14 14 16 15 20 16 15 17 17 18 19 19 18 20 9 21 10 22 11 23
REMARK SMILES IDX 12 24 13 25 25 26 26 27 27 28 28 29 29 30 30 31 31 32 92 33
REMARK SMILES IDX 32 34 91 35 33 36 34 37 35 38 85 39 36 40 90 41 84 42 86 43
REMARK SMILES IDX 37 44 89 45 83 46 82 47 38 49 70 50 50 51 69 52 51 53 54 54
REMARK SMILES IDX 68 55 87 56 52 57 53 58 67 60 88 61 55 62 39 63 40 64 48 65
REMARK SMILES IDX 41 66 42 67 46 68 49 69 43 70 44 71 47 72 45 73 71 74 72 75
REMARK SMILES IDX 80 76 73 77 74 78 78 79 81 80 75 81 76 82 79 83 77 84 56 85
REMARK SMILES IDX 57 86 65 87 58 88 59 89 63 90 66 91 60 92 61 93 64 94 62 95
REMARK H PARENT 4 9 86 48 54 59
REMARK Flexibility Score: inf
ROOT
ATOM      1  O   UNL     1       0.237   3.270  -3.447  1.00  0.00    -0.461 OA
ENDROOT
BRANCH   1   2
ATOM      2  C   UNL     1       1.393   3.304  -2.726  1.00  0.00     0.329 C 
ATOM      3  O   UNL     1       1.916   4.324  -2.288  1.00  0.00    -0.250 OA
BRANCH   2   4
ATOM      4  C   UNL     1       2.032   1.912  -2.577  1.00  0.00     0.196 C 
BRANCH   4   5
ATOM      5  N   UNL     1       1.066   0.818  -2.754  1.00  0.00    -0.343 N 
ATOM      6  C   UNL     1       1.217  -0.195  -0.504  1.00  0.00     0.114 C 
ATOM      7  C   UNL     1       0.641  -0.142  -1.890  1.00  0.00     0.217 C 
ATOM      8  O   UNL     1      -0.208  -0.953  -2.256  1.00  0.00    -0.275 OA
ATOM      9  H   UNL     1       0.658   0.773  -3.649  1.00  0.00     0.164 HD
ENDBRANCH   4   5
BRANCH   4  10
ATOM     10  C   UNL     1       3.241   1.787  -3.535  1.00  0.00     0.077 C 
BRANCH  10  11
ATOM     11  C   UNL     1       2.821   1.684  -5.001  1.00  0.00     0.005 A 
ATOM     12  C   UNL     1       2.599   2.879  -5.727  1.00  0.00     0.123 A 
ATOM     13  C   UNL     1       2.521   0.417  -5.594  1.00  0.00    -0.011 A 
ATOM     14  C   UNL     1       1.966   2.823  -6.963  1.00  0.00     0.047 A 
ATOM     15  C   UNL     1       1.912   0.395  -6.872  1.00  0.00    -0.018 A 
ATOM     16  C   UNL     1       2.775  -0.837  -4.985  1.00  0.00     0.009 A 
ATOM     17  C   UNL     1       1.620   1.596  -7.524  1.00  0.00     0.012 A 
ATOM     18  C   UNL     1       1.584  -0.825  -7.484  1.00  0.00     0.009 A 
ATOM     19  C   UNL     1       2.450  -2.045  -5.607  1.00  0.00     0.001 A 
ATOM     20  C   UNL     1       1.854  -2.038  -6.858  1.00  0.00     0.001 A 
BRANCH  12  21
ATOM     21  O   UNL     1       3.059   4.026  -5.141  1.00  0.00    -0.493 OA
BRANCH  21  22
ATOM     22  C   UNL     1       2.772   5.308  -5.696  1.00  0.00     0.232 C 
BRANCH  22  23
ATOM     23  C   UNL     1       3.945   5.872  -6.518  1.00  0.00     0.020 C 
ATOM     24  C   UNL     1       4.249   5.065  -7.780  1.00  0.00     0.011 C 
ATOM     25  C   UNL     1       3.659   7.325  -6.899  1.00  0.00     0.011 C 
ENDBRANCH  22  23
ENDBRANCH  21  22
ENDBRANCH  12  21
ENDBRANCH  10  11
ENDBRANCH   4  10
ENDBRANCH   2   4
ENDBRANCH   1   2
BRANCH   1  26
ATOM     26  C   UNL     1      -0.379   4.538  -3.742  1.00  0.00     0.274 C 
BRANCH  26  27
ATOM     27  C   UNL     1      -1.651   4.744  -2.921  1.00  0.00     0.275 C 
BRANCH  27  28
ATOM     28  O   UNL     1      -1.344   4.854  -1.520  1.00  0.00    -0.458 OA
BRANCH  28  29
ATOM     29  C   UNL     1      -1.407   3.685  -0.844  1.00  0.00     0.338 C 
ATOM     30  O   UNL     1      -1.756   2.596  -1.261  1.00  0.00    -0.246 OA
BRANCH  29  31
ATOM     31  C   UNL     1      -0.826   3.860   0.490  1.00  0.00     0.060 A 
ATOM     32  C   UNL     1       0.419   3.276   0.728  1.00  0.00     0.016 A 
ATOM     33  C   UNL     1      -1.540   4.462   1.523  1.00  0.00     0.016 A 
ATOM     34  C   UNL     1       0.942   3.239   2.011  1.00  0.00     0.010 A 
ATOM     35  C   UNL     1      -1.002   4.451   2.813  1.00  0.00     0.010 A 
ATOM     36  C   UNL     1       0.227   3.815   3.066  1.00  0.00    -0.014 A 
BRANCH  36  37
ATOM     37  C   UNL     1       0.742   3.678   4.446  1.00  0.00     0.031 A 
ATOM     38  C   UNL     1       0.057   2.748   5.401  1.00  0.00     0.074 A 
ATOM     39  C   UNL     1       1.844   4.353   4.819  1.00  0.00     0.049 A 
ATOM     40  N   UNL     1       0.264   2.575   6.681  1.00  0.00    -0.248 NA
ATOM     41  C   UNL     1      -1.005   1.896   4.841  1.00  0.00     0.031 C 
ATOM     42  C   UNL     1       2.633   5.225   3.949  1.00  0.00     0.029 A 
ATOM     43  N   UNL     1       2.490   4.406   6.026  1.00  0.00    -0.354 N 
ATOM     44  C   UNL     1      -0.666   1.628   7.087  1.00  0.00     0.074 A 
ATOM     45  C   UNL     1      -1.436   1.258   5.919  1.00  0.00     0.031 C 
ATOM     46  C   UNL     1       3.661   5.727   4.652  1.00  0.00     0.029 A 
ATOM     47  C   UNL     1       3.567   5.257   6.031  1.00  0.00     0.049 A 
ATOM     48  H   UNL     1       2.210   3.885   6.813  1.00  0.00     0.167 HD
ATOM     49  C   UNL     1      -0.858   1.122   8.328  1.00  0.00     0.037 A 
ATOM     50  C   UNL     1       4.361   5.643   7.046  1.00  0.00     0.037 A 
ATOM     51  C   UNL     1      -0.064   1.475   9.475  1.00  0.00     0.049 A 
ATOM     52  C   UNL     1       4.101   5.099   8.422  1.00  0.00     0.074 A 
ATOM     53  C   UNL     1      -0.175   1.023  10.778  1.00  0.00     0.029 A 
ATOM     54  N   UNL     1       1.002   2.364   9.449  1.00  0.00    -0.354 N 
ATOM     55  N   UNL     1       3.187   4.244   8.813  1.00  0.00    -0.248 NA
ATOM     56  C   UNL     1       4.973   5.583   9.501  1.00  0.00     0.031 C 
ATOM     57  C   UNL     1       0.805   1.662  11.546  1.00  0.00     0.029 A 
ATOM     58  C   UNL     1       1.549   2.484  10.715  1.00  0.00     0.049 A 
ATOM     59  H   UNL     1       1.321   2.840   8.648  1.00  0.00     0.167 HD
ATOM     60  C   UNL     1       3.375   4.081  10.178  1.00  0.00     0.074 A 
ATOM     61  C   UNL     1       4.505   4.911  10.545  1.00  0.00     0.031 C 
ATOM     62  C   UNL     1       2.674   3.318  11.051  1.00  0.00     0.037 A 
BRANCH  49  63
ATOM     63  C   UNL     1      -1.997   0.167   8.515  1.00  0.00     0.064 A 
ATOM     64  C   UNL     1      -1.935  -1.158   8.063  1.00  0.00     0.173 A 
ATOM     65  C   UNL     1      -3.162   0.583   9.178  1.00  0.00     0.173 A 
ATOM     66  F   UNL     1      -0.849  -1.597   7.408  1.00  0.00    -0.203 F 
ATOM     67  C   UNL     1      -3.006  -2.029   8.251  1.00  0.00     0.198 A 
ATOM     68  C   UNL     1      -4.222  -0.296   9.383  1.00  0.00     0.198 A 
ATOM     69  F   UNL     1      -3.270   1.841   9.629  1.00  0.00    -0.203 F 
ATOM     70  F   UNL     1      -2.941  -3.281   7.777  1.00  0.00    -0.200 F 
ATOM     71  C   UNL     1      -4.145  -1.599   8.915  1.00  0.00     0.200 A 
ATOM     72  F   UNL     1      -5.319   0.120  10.031  1.00  0.00    -0.200 F 
ATOM     73  F   UNL     1      -5.174  -2.438   9.098  1.00  0.00    -0.200 F 
ENDBRANCH  49  63
BRANCH  50  74
ATOM     74  C   UNL     1       5.447   6.623   6.798  1.00  0.00     0.064 A 
ATOM     75  C   UNL     1       6.793   6.237   6.843  1.00  0.00     0.173 A 
ATOM     76  C   UNL     1       5.160   7.963   6.495  1.00  0.00     0.173 A 
ATOM     77  F   UNL     1       7.116   4.973   7.152  1.00  0.00    -0.203 F 
ATOM     78  C   UNL     1       7.812   7.156   6.600  1.00  0.00     0.198 A 
ATOM     79  C   UNL     1       6.178   8.874   6.228  1.00  0.00     0.198 A 
ATOM     80  F   UNL     1       3.887   8.381   6.442  1.00  0.00    -0.203 F 
ATOM     81  F   UNL     1       9.092   6.770   6.680  1.00  0.00    -0.200 F 
ATOM     82  C   UNL     1       7.503   8.472   6.285  1.00  0.00     0.200 A 
ATOM     83  F   UNL     1       5.875  10.141   5.912  1.00  0.00    -0.200 F 
ATOM     84  F   UNL     1       8.484   9.352   6.042  1.00  0.00    -0.200 F 
ENDBRANCH  50  74
BRANCH  62  85
ATOM     85  C   UNL     1       3.122   3.337  12.480  1.00  0.00     0.064 A 
ATOM     86  C   UNL     1       2.841   4.425  13.318  1.00  0.00     0.173 A 
ATOM     87  C   UNL     1       3.807   2.241  13.024  1.00  0.00     0.173 A 
ATOM     88  F   UNL     1       2.202   5.501  12.835  1.00  0.00    -0.203 F 
ATOM     89  C   UNL     1       3.247   4.423  14.649  1.00  0.00     0.198 A 
ATOM     90  C   UNL     1       4.193   2.233  14.361  1.00  0.00     0.198 A 
ATOM     91  F   UNL     1       4.095   1.176  12.261  1.00  0.00    -0.203 F 
ATOM     92  F   UNL     1       3.002   5.488  15.425  1.00  0.00    -0.200 F 
ATOM     93  C   UNL     1       3.917   3.325  15.171  1.00  0.00     0.200 A 
ATOM     94  F   UNL     1       4.834   1.170  14.866  1.00  0.00    -0.200 F 
ATOM     95  F   UNL     1       4.305   3.324  16.453  1.00  0.00    -0.200 F 
ENDBRANCH  62  85
ENDBRANCH  36  37
ENDBRANCH  29  31
ENDBRANCH  28  29
ENDBRANCH  27  28
ENDBRANCH  26  27
ENDBRANCH   1  26
TORSDOF 17
