REMARK SMILES O=C(OCCOC(=O)c1ccc(-c2c3nc(c(-c4c(F)c(F)c(F)c(F)c4F)c4ccc([nH]4)c(-c4c(F)c(F)c(F)c(F)c4F)c4nc(c(-c5c(F)c(F)c(F)c(F)c5F)c5ccc2[nH]5)C=C4)C=C3)cc1)c1ccc(CN2CCCCC2=O)cc1
REMARK SMILES IDX 4 1 3 2 2 3 1 4 72 5 73 6 85 7 74 8 84 9 75 10 76 11 77 12
REMARK SMILES IDX 78 13 82 14 79 15 81 16 83 17 80 18 5 19 6 20 7 21 8 22 9 23
REMARK SMILES IDX 10 24 71 25 11 26 70 27 12 28 13 29 14 30 64 31 15 32 69 33
REMARK SMILES IDX 63 34 65 35 16 36 68 37 62 38 61 39 17 41 49 42 29 43 48 44
REMARK SMILES IDX 30 45 33 46 47 47 66 48 31 49 32 50 46 52 67 53 34 54 18 55
REMARK SMILES IDX 19 56 27 57 20 58 21 59 25 60 28 61 22 62 23 63 26 64 24 65
REMARK SMILES IDX 50 66 51 67 59 68 52 69 53 70 57 71 60 72 54 73 55 74 58 75
REMARK SMILES IDX 56 76 35 77 36 78 44 79 37 80 38 81 42 82 45 83 39 84 40 85
REMARK SMILES IDX 43 86 41 87
REMARK H PARENT 65 40 33 51
REMARK Flexibility Score: inf
ROOT
ATOM      1  C   UNL     1       3.930   1.286  -0.888  1.00  0.00     0.275 C 
ENDROOT
BRANCH   1   2
ATOM      2  O   UNL     1       2.792   0.399  -0.918  1.00  0.00    -0.458 OA
BRANCH   2   3
ATOM      3  C   UNL     1       2.670  -0.893  -0.523  1.00  0.00     0.338 C 
ATOM      4  O   UNL     1       1.709  -1.540  -0.939  1.00  0.00    -0.246 OA
BRANCH   3   5
ATOM      5  C   UNL     1       3.558  -1.560   0.489  1.00  0.00     0.060 A 
ATOM      6  C   UNL     1       4.767  -1.062   0.958  1.00  0.00     0.016 A 
ATOM      7  C   UNL     1       3.098  -2.763   1.066  1.00  0.00     0.016 A 
ATOM      8  C   UNL     1       5.439  -1.671   2.013  1.00  0.00     0.006 A 
ATOM      9  C   UNL     1       3.807  -3.413   2.093  1.00  0.00     0.006 A 
ATOM     10  C   UNL     1       4.988  -2.860   2.589  1.00  0.00    -0.029 A 
BRANCH  10  11
ATOM     11  C   UNL     1       5.776  -3.487   3.724  1.00  0.00     0.155 C 
BRANCH  11  12
ATOM     12  N   UNL     1       7.165  -3.725   3.326  1.00  0.00    -0.338 N 
ATOM     13  C   UNL     1       7.465  -4.980   2.654  1.00  0.00     0.120 C 
ATOM     14  C   UNL     1       8.077  -2.688   3.431  1.00  0.00     0.222 C 
ATOM     15  C   UNL     1       8.955  -5.181   2.443  1.00  0.00     0.022 C 
ATOM     16  C   UNL     1       9.288  -2.712   2.512  1.00  0.00     0.100 C 
ATOM     17  O   UNL     1       7.889  -1.709   4.157  1.00  0.00    -0.275 OA
ATOM     18  C   UNL     1       9.491  -3.977   1.696  1.00  0.00     0.012 C 
ENDBRANCH  11  12
ENDBRANCH  10  11
ENDBRANCH   3   5
ENDBRANCH   2   3
ENDBRANCH   1   2
BRANCH   1  19
ATOM     19  C   UNL     1       3.951   2.216   0.335  1.00  0.00     0.275 C 
BRANCH  19  20
ATOM     20  O   UNL     1       3.653   1.524   1.560  1.00  0.00    -0.458 OA
BRANCH  20  21
ATOM     21  C   UNL     1       2.340   1.515   1.900  1.00  0.00     0.338 C 
ATOM     22  O   UNL     1       1.456   2.168   1.367  1.00  0.00    -0.246 OA
BRANCH  21  23
ATOM     23  C   UNL     1       2.062   0.493   2.941  1.00  0.00     0.060 A 
ATOM     24  C   UNL     1       0.813  -0.137   2.898  1.00  0.00     0.016 A 
ATOM     25  C   UNL     1       2.967   0.165   3.957  1.00  0.00     0.016 A 
ATOM     26  C   UNL     1       0.437  -1.032   3.901  1.00  0.00     0.010 A 
ATOM     27  C   UNL     1       2.595  -0.751   4.954  1.00  0.00     0.010 A 
ATOM     28  C   UNL     1       1.307  -1.318   4.962  1.00  0.00    -0.014 A 
BRANCH  28  29
ATOM     29  C   UNL     1       0.786  -2.072   6.136  1.00  0.00     0.031 A 
ATOM     30  C   UNL     1       0.409  -1.317   7.386  1.00  0.00     0.074 A 
ATOM     31  C   UNL     1       0.561  -3.398   6.082  1.00  0.00     0.049 A 
ATOM     32  N   UNL     1      -0.202  -1.745   8.464  1.00  0.00    -0.248 NA
ATOM     33  C   UNL     1       0.768   0.108   7.427  1.00  0.00     0.031 C 
ATOM     34  C   UNL     1       0.861  -4.262   4.944  1.00  0.00     0.029 A 
ATOM     35  N   UNL     1       0.006  -4.247   7.012  1.00  0.00    -0.354 N 
ATOM     36  C   UNL     1      -0.315  -0.641   9.299  1.00  0.00     0.074 A 
ATOM     37  C   UNL     1       0.344   0.461   8.631  1.00  0.00     0.031 C 
ATOM     38  C   UNL     1       0.478  -5.518   5.237  1.00  0.00     0.029 A 
ATOM     39  C   UNL     1      -0.095  -5.548   6.583  1.00  0.00     0.049 A 
ATOM     40  H   UNL     1      -0.290  -3.950   7.902  1.00  0.00     0.167 HD
ATOM     41  C   UNL     1      -0.933  -0.538  10.500  1.00  0.00     0.037 A 
ATOM     42  C   UNL     1      -0.605  -6.634   7.197  1.00  0.00     0.037 A 
ATOM     43  C   UNL     1      -1.596  -1.619  11.179  1.00  0.00     0.049 A 
ATOM     44  C   UNL     1      -1.238  -6.506   8.562  1.00  0.00     0.074 A 
ATOM     45  C   UNL     1      -2.287  -1.589  12.379  1.00  0.00     0.029 A 
ATOM     46  N   UNL     1      -1.640  -2.928  10.727  1.00  0.00    -0.354 N 
ATOM     47  N   UNL     1      -1.422  -5.438   9.297  1.00  0.00    -0.248 NA
ATOM     48  C   UNL     1      -1.754  -7.743   9.170  1.00  0.00     0.031 C 
ATOM     49  C   UNL     1      -2.701  -2.891  12.681  1.00  0.00     0.029 A 
ATOM     50  C   UNL     1      -2.319  -3.721  11.640  1.00  0.00     0.049 A 
ATOM     51  H   UNL     1      -1.248  -3.247   9.882  1.00  0.00     0.167 HD
ATOM     52  C   UNL     1      -2.116  -5.863  10.425  1.00  0.00     0.074 A 
ATOM     53  C   UNL     1      -2.324  -7.287  10.277  1.00  0.00     0.031 C 
ATOM     54  C   UNL     1      -2.547  -5.134  11.483  1.00  0.00     0.037 A 
BRANCH  41  55
ATOM     55  C   UNL     1      -0.915   0.806  11.168  1.00  0.00     0.064 A 
ATOM     56  C   UNL     1      -1.676   1.879  10.678  1.00  0.00     0.173 A 
ATOM     57  C   UNL     1      -0.154   1.013  12.327  1.00  0.00     0.173 A 
ATOM     58  F   UNL     1      -2.412   1.733   9.566  1.00  0.00    -0.203 F 
ATOM     59  C   UNL     1      -1.650   3.119  11.308  1.00  0.00     0.198 A 
ATOM     60  C   UNL     1      -0.154   2.247  12.971  1.00  0.00     0.198 A 
ATOM     61  F   UNL     1       0.585   0.017  12.839  1.00  0.00    -0.203 F 
ATOM     62  F   UNL     1      -2.345   4.144  10.796  1.00  0.00    -0.200 F 
ATOM     63  C   UNL     1      -0.895   3.301  12.457  1.00  0.00     0.200 A 
ATOM     64  F   UNL     1       0.565   2.417  14.089  1.00  0.00    -0.200 F 
ATOM     65  F   UNL     1      -0.875   4.495  13.066  1.00  0.00    -0.200 F 
ENDBRANCH  41  55
BRANCH  42  66
ATOM     66  C   UNL     1      -0.579  -7.957   6.518  1.00  0.00     0.064 A 
ATOM     67  C   UNL     1      -1.764  -8.572   6.088  1.00  0.00     0.173 A 
ATOM     68  C   UNL     1       0.622  -8.658   6.342  1.00  0.00     0.173 A 
ATOM     69  F   UNL     1      -2.941  -7.953   6.262  1.00  0.00    -0.203 F 
ATOM     70  C   UNL     1      -1.751  -9.851   5.534  1.00  0.00     0.198 A 
ATOM     71  C   UNL     1       0.636  -9.926   5.764  1.00  0.00     0.198 A 
ATOM     72  F   UNL     1       1.782  -8.116   6.740  1.00  0.00    -0.203 F 
ATOM     73  F   UNL     1      -2.904 -10.440   5.188  1.00  0.00    -0.200 F 
ATOM     74  C   UNL     1      -0.551 -10.525   5.370  1.00  0.00     0.200 A 
ATOM     75  F   UNL     1       1.798 -10.572   5.601  1.00  0.00    -0.200 F 
ATOM     76  F   UNL     1      -0.540 -11.759   4.847  1.00  0.00    -0.200 F 
ENDBRANCH  42  66
BRANCH  54  77
ATOM     77  C   UNL     1      -3.343  -5.842  12.546  1.00  0.00     0.064 A 
ATOM     78  C   UNL     1      -2.757  -6.771  13.418  1.00  0.00     0.173 A 
ATOM     79  C   UNL     1      -4.707  -5.556  12.717  1.00  0.00     0.173 A 
ATOM     80  F   UNL     1      -1.460  -7.091  13.293  1.00  0.00    -0.203 F 
ATOM     81  C   UNL     1      -3.513  -7.409  14.400  1.00  0.00     0.198 A 
ATOM     82  C   UNL     1      -5.452  -6.171  13.720  1.00  0.00     0.198 A 
ATOM     83  F   UNL     1      -5.318  -4.668  11.917  1.00  0.00    -0.203 F 
ATOM     84  F   UNL     1      -2.942  -8.332  15.188  1.00  0.00    -0.200 F 
ATOM     85  C   UNL     1      -4.856  -7.104  14.555  1.00  0.00     0.200 A 
ATOM     86  F   UNL     1      -6.746  -5.862  13.878  1.00  0.00    -0.200 F 
ATOM     87  F   UNL     1      -5.580  -7.714  15.504  1.00  0.00    -0.200 F 
ENDBRANCH  54  77
ENDBRANCH  28  29
ENDBRANCH  21  23
ENDBRANCH  20  21
ENDBRANCH  19  20
ENDBRANCH   1  19
TORSDOF 13
