REMARK SMILES CCc1nc2sc(C(=O)NCC(=O)OCCOC(=O)c3ccc(-c4c5nc(c(-c6c(F)c(F)c(F)c(F)c6F)c6ccc([nH]6)c(-c6c(F)c(F)c(F)c(F)c6F)c6nc(c(-c7c(F)c(F)c(F)c(F)c7F)c7ccc4[nH]7)C=C6)C=C5)cc3)c(N)c2c(C(F)(F)F)c1C
REMARK SMILES IDX 15 1 14 2 12 3 13 4 11 5 10 6 8 7 9 8 7 10 3 11 4 12 91 13
REMARK SMILES IDX 5 14 86 15 92 16 6 17 85 18 83 19 2 20 1 21 87 22 88 23
REMARK SMILES IDX 89 24 90 25 84 26 16 29 17 30 18 31 19 32 20 33 21 34 82 35
REMARK SMILES IDX 22 36 81 37 23 38 24 39 25 40 75 41 26 42 80 43 74 44 76 45
REMARK SMILES IDX 27 46 79 47 73 48 72 49 28 51 60 52 40 53 59 54 41 55 44 56
REMARK SMILES IDX 58 57 77 58 42 59 43 60 57 62 78 63 45 64 29 65 30 66 38 67
REMARK SMILES IDX 31 68 32 69 36 70 39 71 33 72 34 73 37 74 35 75 61 76 62 77
REMARK SMILES IDX 70 78 63 79 64 80 68 81 71 82 65 83 66 84 69 85 67 86 46 87
REMARK SMILES IDX 47 88 55 89 48 90 49 91 53 92 56 93 50 94 51 95 54 96 52 97
REMARK H PARENT 10 9 84 27 84 28 76 50 44 61
REMARK Flexibility Score: inf
ROOT
ATOM      1  C   UNL     1       6.559   2.296  -7.664  1.00  0.00     0.274 C 
ENDROOT
BRANCH   1   2
ATOM      2  O   UNL     1       5.357   1.542  -7.906  1.00  0.00    -0.461 OA
BRANCH   2   3
ATOM      3  C   UNL     1       4.353   2.188  -8.568  1.00  0.00     0.325 C 
ATOM      4  O   UNL     1       4.352   3.388  -8.835  1.00  0.00    -0.250 OA
BRANCH   3   5
ATOM      5  C   UNL     1       3.250   1.236  -9.043  1.00  0.00     0.239 C 
BRANCH   5   6
ATOM      6  N   UNL     1       3.353  -0.128  -8.580  1.00  0.00    -0.340 N 
ATOM      7  C   UNL     1       2.979  -0.728  -7.409  1.00  0.00     0.264 C 
ATOM      8  O   UNL     1       3.139  -1.955  -7.419  1.00  0.00    -0.268 OA
ATOM      9  H   UNL     1       3.771  -0.741  -9.228  1.00  0.00     0.164 HD
BRANCH   7  10
ATOM     10  C   UNL     1       2.456  -0.009  -6.242  1.00  0.00     0.118 A 
ATOM     11  C   UNL     1       0.929   1.148  -1.922  1.00  0.00     0.045 A 
ATOM     12  N   UNL     1       1.175   0.053  -2.665  1.00  0.00    -0.242 NA
ATOM     13  C   UNL     1       1.029   2.461  -2.414  1.00  0.00    -0.017 A 
ATOM     14  C   UNL     1       1.598   0.271  -3.917  1.00  0.00     0.127 A 
ATOM     15  C   UNL     1       1.517   2.663  -3.736  1.00  0.00     0.073 A 
ATOM     16  C   UNL     1       0.649   3.649  -1.566  1.00  0.00     0.047 C 
ATOM     17  S   UNL     1       1.943  -1.032  -4.935  1.00  0.00    -0.108 S 
ATOM     18  C   UNL     1       1.804   1.498  -4.511  1.00  0.00     0.048 A 
ATOM     19  C   UNL     1       2.287   1.315  -5.858  1.00  0.00     0.066 A 
BRANCH  11  20
ATOM     20  C   UNL     1       0.472   0.856  -0.506  1.00  0.00     0.053 C 
ATOM     21  C   UNL     1       0.957  -0.483   0.043  1.00  0.00     0.011 C 
ENDBRANCH  11  20
BRANCH  15  22
ATOM     22  C   UNL     1       1.738   4.035  -4.336  1.00  0.00     0.417 C 
ATOM     23  F   UNL     1       3.022   4.209  -4.775  1.00  0.00    -0.166 F 
ATOM     24  F   UNL     1       0.945   4.260  -5.425  1.00  0.00    -0.166 F 
ATOM     25  F   UNL     1       1.515   5.093  -3.511  1.00  0.00    -0.166 F 
ENDBRANCH  15  22
BRANCH  19  26
ATOM     26  N   UNL     1       2.558   2.403  -6.606  1.00  0.00    -0.397 N 
ATOM     27  H   UNL     1       2.888   2.297  -7.527  1.00  0.00     0.156 HD
ATOM     28  H   UNL     1       2.425   3.304  -6.231  1.00  0.00     0.156 HD
ENDBRANCH  19  26
ENDBRANCH   7  10
ENDBRANCH   5   6
ENDBRANCH   3   5
ENDBRANCH   2   3
ENDBRANCH   1   2
BRANCH   1  29
ATOM     29  C   UNL     1       7.545   2.160  -8.823  1.00  0.00     0.275 C 
BRANCH  29  30
ATOM     30  O   UNL     1       7.047   2.788 -10.005  1.00  0.00    -0.458 OA
BRANCH  30  31
ATOM     31  C   UNL     1       6.270   1.991 -10.771  1.00  0.00     0.338 C 
ATOM     32  O   UNL     1       5.904   0.854 -10.528  1.00  0.00    -0.246 OA
BRANCH  31  33
ATOM     33  C   UNL     1       5.961   2.647 -12.039  1.00  0.00     0.060 A 
ATOM     34  C   UNL     1       4.941   2.077 -12.807  1.00  0.00     0.016 A 
ATOM     35  C   UNL     1       6.869   3.571 -12.568  1.00  0.00     0.016 A 
ATOM     36  C   UNL     1       4.971   2.263 -14.168  1.00  0.00     0.010 A 
ATOM     37  C   UNL     1       6.903   3.749 -13.931  1.00  0.00     0.010 A 
ATOM     38  C   UNL     1       6.015   3.015 -14.714  1.00  0.00    -0.014 A 
BRANCH  38  39
ATOM     39  C   UNL     1       6.163   2.981 -16.152  1.00  0.00     0.031 A 
ATOM     40  C   UNL     1       5.140   3.741 -16.895  1.00  0.00     0.074 A 
ATOM     41  C   UNL     1       7.189   2.345 -16.745  1.00  0.00     0.049 A 
ATOM     42  N   UNL     1       4.281   3.295 -17.749  1.00  0.00    -0.248 NA
ATOM     43  C   UNL     1       4.989   5.163 -16.561  1.00  0.00     0.031 C 
ATOM     44  C   UNL     1       8.399   1.793 -16.129  1.00  0.00     0.029 A 
ATOM     45  N   UNL     1       7.397   2.150 -18.073  1.00  0.00    -0.354 N 
ATOM     46  C   UNL     1       3.575   4.409 -18.185  1.00  0.00     0.074 A 
ATOM     47  C   UNL     1       3.957   5.504 -17.331  1.00  0.00     0.031 C 
ATOM     48  C   UNL     1       9.304   1.527 -17.098  1.00  0.00     0.029 A 
ATOM     49  C   UNL     1       8.688   1.765 -18.393  1.00  0.00     0.049 A 
ATOM     50  H   UNL     1       6.692   2.272 -18.749  1.00  0.00     0.167 HD
ATOM     51  C   UNL     1       2.887   4.397 -19.357  1.00  0.00     0.037 A 
ATOM     52  C   UNL     1       9.218   1.736 -19.639  1.00  0.00     0.037 A 
ATOM     53  C   UNL     1       2.584   3.057 -19.782  1.00  0.00     0.049 A 
ATOM     54  C   UNL     1       8.089   1.693 -20.604  1.00  0.00     0.074 A 
ATOM     55  C   UNL     1       1.847   2.016 -19.251  1.00  0.00     0.029 A 
ATOM     56  N   UNL     1       3.344   2.500 -20.779  1.00  0.00    -0.354 N 
ATOM     57  N   UNL     1       7.295   0.671 -20.762  1.00  0.00    -0.248 NA
ATOM     58  C   UNL     1       7.588   2.957 -21.126  1.00  0.00     0.031 C 
ATOM     59  C   UNL     1       2.540   0.831 -19.635  1.00  0.00     0.029 A 
ATOM     60  C   UNL     1       3.643   1.218 -20.396  1.00  0.00     0.049 A 
ATOM     61  H   UNL     1       3.624   2.939 -21.615  1.00  0.00     0.167 HD
ATOM     62  C   UNL     1       6.050   1.226 -21.016  1.00  0.00     0.074 A 
ATOM     63  C   UNL     1       6.313   2.624 -21.340  1.00  0.00     0.031 C 
ATOM     64  C   UNL     1       4.905   0.572 -20.668  1.00  0.00     0.037 A 
BRANCH  51  65
ATOM     65  C   UNL     1       2.801   5.585 -20.278  1.00  0.00     0.064 A 
ATOM     66  C   UNL     1       1.939   5.533 -21.389  1.00  0.00     0.173 A 
ATOM     67  C   UNL     1       3.742   6.639 -20.282  1.00  0.00     0.173 A 
ATOM     68  F   UNL     1       1.024   4.558 -21.499  1.00  0.00    -0.203 F 
ATOM     69  C   UNL     1       2.060   6.426 -22.456  1.00  0.00     0.198 A 
ATOM     70  C   UNL     1       3.821   7.562 -21.321  1.00  0.00     0.198 A 
ATOM     71  F   UNL     1       4.692   6.752 -19.346  1.00  0.00    -0.203 F 
ATOM     72  F   UNL     1       1.304   6.261 -23.549  1.00  0.00    -0.200 F 
ATOM     73  C   UNL     1       3.004   7.437 -22.423  1.00  0.00     0.200 A 
ATOM     74  F   UNL     1       4.756   8.522 -21.278  1.00  0.00    -0.200 F 
ATOM     75  F   UNL     1       3.163   8.255 -23.471  1.00  0.00    -0.200 F 
ENDBRANCH  51  65
BRANCH  52  76
ATOM     76  C   UNL     1      10.601   2.068 -20.050  1.00  0.00     0.064 A 
ATOM     77  C   UNL     1      11.065   1.738 -21.333  1.00  0.00     0.173 A 
ATOM     78  C   UNL     1      11.397   2.961 -19.305  1.00  0.00     0.173 A 
ATOM     79  F   UNL     1      10.345   0.928 -22.122  1.00  0.00    -0.203 F 
ATOM     80  C   UNL     1      12.236   2.297 -21.854  1.00  0.00     0.198 A 
ATOM     81  C   UNL     1      12.572   3.508 -19.822  1.00  0.00     0.198 A 
ATOM     82  F   UNL     1      11.004   3.400 -18.101  1.00  0.00    -0.203 F 
ATOM     83  F   UNL     1      12.607   2.015 -23.111  1.00  0.00    -0.200 F 
ATOM     84  C   UNL     1      12.982   3.190 -21.103  1.00  0.00     0.200 A 
ATOM     85  F   UNL     1      13.266   4.396 -19.097  1.00  0.00    -0.200 F 
ATOM     86  F   UNL     1      14.067   3.776 -21.626  1.00  0.00    -0.200 F 
ENDBRANCH  52  76
BRANCH  64  87
ATOM     87  C   UNL     1       5.021  -0.873 -20.275  1.00  0.00     0.064 A 
ATOM     88  C   UNL     1       5.716  -1.317 -19.137  1.00  0.00     0.173 A 
ATOM     89  C   UNL     1       4.281  -1.822 -20.992  1.00  0.00     0.173 A 
ATOM     90  F   UNL     1       6.362  -0.454 -18.344  1.00  0.00    -0.203 F 
ATOM     91  C   UNL     1       5.704  -2.660 -18.763  1.00  0.00     0.198 A 
ATOM     92  C   UNL     1       4.240  -3.155 -20.594  1.00  0.00     0.198 A 
ATOM     93  F   UNL     1       3.551  -1.443 -22.053  1.00  0.00    -0.203 F 
ATOM     94  F   UNL     1       6.383  -3.062 -17.678  1.00  0.00    -0.200 F 
ATOM     95  C   UNL     1       4.959  -3.576 -19.487  1.00  0.00     0.200 A 
ATOM     96  F   UNL     1       3.478  -4.029 -21.268  1.00  0.00    -0.200 F 
ATOM     97  F   UNL     1       4.909  -4.858 -19.101  1.00  0.00    -0.200 F 
ENDBRANCH  64  87
ENDBRANCH  38  39
ENDBRANCH  31  33
ENDBRANCH  30  31
ENDBRANCH  29  30
ENDBRANCH   1  29
TORSDOF 16
