REMARK SMILES CCCOc1ccc(-c2nc(C#N)c(N3CCC(C(=O)OCCOC(=O)c4ccc(-c5c6nc(c(-c7c(F)c(F)c(F)c(F)c7F)c7ccc([nH]7)c(-c7c(F)c(F)c(F)c(F)c7F)c7nc(c(-c8c(F)c(F)c(F)c(F)c8F)c8ccc5[nH]8)C=C7)C=C6)cc4)CC3)o2)cc1
REMARK SMILES IDX 21 1 19 2 20 3 18 4 15 5 16 6 91 7 17 8 90 9 14 10 9 11
REMARK SMILES IDX 10 12 92 13 11 14 8 15 5 16 6 17 94 18 7 19 93 20 4 21 3 22
REMARK SMILES IDX 2 23 1 24 12 25 13 26 22 27 23 28 24 29 25 30 26 31 27 32
REMARK SMILES IDX 28 33 89 34 29 35 88 36 30 37 31 38 32 39 82 40 33 41 87 42
REMARK SMILES IDX 81 43 83 44 34 45 86 46 80 47 79 48 35 50 67 51 47 52 66 53
REMARK SMILES IDX 48 54 51 55 65 56 84 57 49 58 50 59 64 61 85 62 52 63 36 64
REMARK SMILES IDX 37 65 45 66 38 67 39 68 43 69 46 70 40 71 41 72 44 73 42 74
REMARK SMILES IDX 68 75 69 76 77 77 70 78 71 79 75 80 78 81 72 82 73 83 76 84
REMARK SMILES IDX 74 85 53 86 54 87 62 88 55 89 56 90 60 91 63 92 57 93 58 94
REMARK SMILES IDX 61 95 59 96
REMARK H PARENT 83 49 51 60
REMARK Flexibility Score: inf
ROOT
ATOM      1  O   UNL     1       1.388   4.136 -11.869  1.00  0.00    -0.462 OA
ENDROOT
BRANCH   1   2
ATOM      2  C   UNL     1       0.180   3.516 -11.804  1.00  0.00     0.309 C 
ATOM      3  O   UNL     1      -0.730   3.666 -12.614  1.00  0.00    -0.252 OA
BRANCH   2   4
ATOM      4  C   UNL     1       0.028   2.644 -10.576  1.00  0.00     0.103 C 
ATOM      5  N   UNL     1       0.607   2.087  -7.852  1.00  0.00    -0.340 N 
ATOM      6  C   UNL     1       1.138   1.164  -8.835  1.00  0.00     0.120 C 
ATOM      7  C   UNL     1      -0.666   2.721  -8.162  1.00  0.00     0.120 C 
ATOM      8  C   UNL     1       1.292   1.866 -10.175  1.00  0.00     0.037 C 
ATOM      9  C   UNL     1      -0.492   3.530  -9.442  1.00  0.00     0.037 C 
BRANCH   5  10
ATOM     10  C   UNL     1       1.340   2.526  -6.808  1.00  0.00     0.235 A 
ATOM     11  C   UNL     1       1.655   2.954  -4.713  1.00  0.00     0.230 A 
ATOM     12  N   UNL     1       2.812   3.277  -5.255  1.00  0.00    -0.196 NA
ATOM     13  O   UNL     1       0.706   2.536  -5.602  1.00  0.00    -0.419 OA
ATOM     14  C   UNL     1       2.627   2.970  -6.587  1.00  0.00     0.204 A 
BRANCH  11  15
ATOM     15  C   UNL     1       1.245   2.924  -3.320  1.00  0.00     0.037 A 
ATOM     16  C   UNL     1       0.542   2.753  -0.618  1.00  0.00     0.119 A 
ATOM     17  C   UNL     1       1.316   3.823  -1.063  1.00  0.00     0.047 A 
ATOM     18  C   UNL     1       0.047   1.821  -1.523  1.00  0.00     0.047 A 
ATOM     19  C   UNL     1       1.675   3.904  -2.414  1.00  0.00     0.017 A 
ATOM     20  C   UNL     1       0.420   1.887  -2.861  1.00  0.00     0.017 A 
BRANCH  16  21
ATOM     21  O   UNL     1       0.188   2.659   0.698  1.00  0.00    -0.494 OA
BRANCH  21  22
ATOM     22  C   UNL     1       1.040   1.766   1.439  1.00  0.00     0.229 C 
BRANCH  22  23
ATOM     23  C   UNL     1       0.616   0.295   1.324  1.00  0.00     0.038 C 
ATOM     24  C   UNL     1       1.512  -0.516   0.393  1.00  0.00     0.007 C 
ENDBRANCH  22  23
ENDBRANCH  21  22
ENDBRANCH  16  21
ENDBRANCH  11  15
BRANCH  14  25
ATOM     25  C   UNL     1       3.654   3.180  -7.557  1.00  0.00     0.125 C 
ATOM     26  N   UNL     1       4.474   3.351  -8.357  1.00  0.00    -0.190 NA
ENDBRANCH  14  25
ENDBRANCH   5  10
ENDBRANCH   2   4
ENDBRANCH   1   2
BRANCH   1  27
ATOM     27  C   UNL     1       1.651   4.895 -13.065  1.00  0.00     0.274 C 
BRANCH  27  28
ATOM     28  C   UNL     1       2.262   4.029 -14.158  1.00  0.00     0.275 C 
BRANCH  28  29
ATOM     29  O   UNL     1       1.334   3.042 -14.604  1.00  0.00    -0.458 OA
BRANCH  29  30
ATOM     30  C   UNL     1       1.456   1.853 -13.976  1.00  0.00     0.338 C 
ATOM     31  O   UNL     1       2.118   1.609 -12.982  1.00  0.00    -0.246 OA
BRANCH  30  32
ATOM     32  C   UNL     1       0.904   0.789 -14.806  1.00  0.00     0.060 A 
ATOM     33  C   UNL     1       0.789  -0.481 -14.230  1.00  0.00     0.016 A 
ATOM     34  C   UNL     1       0.966   0.986 -16.188  1.00  0.00     0.016 A 
ATOM     35  C   UNL     1       0.993  -1.577 -15.040  1.00  0.00     0.010 A 
ATOM     36  C   UNL     1       1.184  -0.102 -16.985  1.00  0.00     0.010 A 
ATOM     37  C   UNL     1       1.300  -1.355 -16.387  1.00  0.00    -0.014 A 
BRANCH  37  38
ATOM     38  C   UNL     1       1.557  -2.474 -17.264  1.00  0.00     0.031 A 
ATOM     39  C   UNL     1       0.297  -3.181 -17.581  1.00  0.00     0.074 A 
ATOM     40  C   UNL     1       2.764  -2.689 -17.827  1.00  0.00     0.049 A 
ATOM     41  N   UNL     1      -0.038  -4.366 -17.195  1.00  0.00    -0.248 NA
ATOM     42  C   UNL     1      -0.816  -2.409 -18.168  1.00  0.00     0.031 C 
ATOM     43  C   UNL     1       3.994  -1.902 -17.700  1.00  0.00     0.029 A 
ATOM     44  N   UNL     1       3.114  -3.645 -18.736  1.00  0.00    -0.354 N 
ATOM     45  C   UNL     1      -1.312  -4.568 -17.709  1.00  0.00     0.074 A 
ATOM     46  C   UNL     1      -1.825  -3.273 -18.055  1.00  0.00     0.031 C 
ATOM     47  C   UNL     1       4.869  -2.266 -18.668  1.00  0.00     0.029 A 
ATOM     48  C   UNL     1       4.315  -3.385 -19.407  1.00  0.00     0.049 A 
ATOM     49  H   UNL     1       2.570  -4.447 -18.906  1.00  0.00     0.167 HD
ATOM     50  C   UNL     1      -1.691  -5.806 -18.119  1.00  0.00     0.037 A 
ATOM     51  C   UNL     1       4.742  -4.028 -20.530  1.00  0.00     0.037 A 
ATOM     52  C   UNL     1      -0.838  -6.817 -17.544  1.00  0.00     0.049 A 
ATOM     53  C   UNL     1       4.003  -5.322 -20.590  1.00  0.00     0.074 A 
ATOM     54  C   UNL     1      -0.528  -7.183 -16.247  1.00  0.00     0.029 A 
ATOM     55  N   UNL     1       0.178  -7.310 -18.328  1.00  0.00    -0.354 N 
ATOM     56  N   UNL     1       4.192  -6.281 -19.723  1.00  0.00    -0.248 NA
ATOM     57  C   UNL     1       2.698  -5.308 -21.240  1.00  0.00     0.031 C 
ATOM     58  C   UNL     1       0.875  -7.435 -16.259  1.00  0.00     0.029 A 
ATOM     59  C   UNL     1       1.325  -7.327 -17.575  1.00  0.00     0.049 A 
ATOM     60  H   UNL     1       0.097  -7.601 -19.265  1.00  0.00     0.167 HD
ATOM     61  C   UNL     1       2.912  -6.693 -19.380  1.00  0.00     0.074 A 
ATOM     62  C   UNL     1       2.030  -6.082 -20.377  1.00  0.00     0.031 C 
ATOM     63  C   UNL     1       2.645  -7.215 -18.147  1.00  0.00     0.037 A 
BRANCH  50  64
ATOM     64  C   UNL     1      -2.529  -6.047 -19.347  1.00  0.00     0.064 A 
ATOM     65  C   UNL     1      -3.003  -7.346 -19.599  1.00  0.00     0.173 A 
ATOM     66  C   UNL     1      -2.642  -5.137 -20.424  1.00  0.00     0.173 A 
ATOM     67  F   UNL     1      -2.914  -8.297 -18.658  1.00  0.00    -0.203 F 
ATOM     68  C   UNL     1      -3.491  -7.720 -20.854  1.00  0.00     0.198 A 
ATOM     69  C   UNL     1      -3.183  -5.498 -21.654  1.00  0.00     0.198 A 
ATOM     70  F   UNL     1      -2.132  -3.901 -20.382  1.00  0.00    -0.203 F 
ATOM     71  F   UNL     1      -3.814  -8.999 -21.085  1.00  0.00    -0.200 F 
ATOM     72  C   UNL     1      -3.579  -6.797 -21.880  1.00  0.00     0.200 A 
ATOM     73  F   UNL     1      -3.234  -4.591 -22.641  1.00  0.00    -0.200 F 
ATOM     74  F   UNL     1      -3.994  -7.166 -23.098  1.00  0.00    -0.200 F 
ENDBRANCH  50  64
BRANCH  51  75
ATOM     75  C   UNL     1       5.464  -3.474 -21.707  1.00  0.00     0.064 A 
ATOM     76  C   UNL     1       6.046  -4.307 -22.682  1.00  0.00     0.173 A 
ATOM     77  C   UNL     1       5.352  -2.112 -22.050  1.00  0.00     0.173 A 
ATOM     78  F   UNL     1       6.146  -5.627 -22.470  1.00  0.00    -0.203 F 
ATOM     79  C   UNL     1       6.471  -3.809 -23.923  1.00  0.00     0.198 A 
ATOM     80  C   UNL     1       5.776  -1.617 -23.286  1.00  0.00     0.198 A 
ATOM     81  F   UNL     1       4.738  -1.248 -21.230  1.00  0.00    -0.203 F 
ATOM     82  F   UNL     1       6.971  -4.643 -24.847  1.00  0.00    -0.200 F 
ATOM     83  C   UNL     1       6.326  -2.466 -24.227  1.00  0.00     0.200 A 
ATOM     84  F   UNL     1       5.589  -0.323 -23.581  1.00  0.00    -0.200 F 
ATOM     85  F   UNL     1       6.673  -1.998 -25.434  1.00  0.00    -0.200 F 
ENDBRANCH  51  75
BRANCH  63  86
ATOM     86  C   UNL     1       3.811  -7.522 -17.244  1.00  0.00     0.064 A 
ATOM     87  C   UNL     1       4.718  -6.562 -16.759  1.00  0.00     0.173 A 
ATOM     88  C   UNL     1       3.929  -8.823 -16.741  1.00  0.00     0.173 A 
ATOM     89  F   UNL     1       4.604  -5.272 -17.098  1.00  0.00    -0.203 F 
ATOM     90  C   UNL     1       5.728  -6.905 -15.860  1.00  0.00     0.198 A 
ATOM     91  C   UNL     1       4.912  -9.155 -15.813  1.00  0.00     0.198 A 
ATOM     92  F   UNL     1       3.052  -9.768 -17.114  1.00  0.00    -0.203 F 
ATOM     93  F   UNL     1       6.589  -5.973 -15.425  1.00  0.00    -0.200 F 
ATOM     94  C   UNL     1       5.821  -8.202 -15.386  1.00  0.00     0.200 A 
ATOM     95  F   UNL     1       4.959 -10.398 -15.315  1.00  0.00    -0.200 F 
ATOM     96  F   UNL     1       6.769  -8.529 -14.496  1.00  0.00    -0.200 F 
ENDBRANCH  63  86
ENDBRANCH  37  38
ENDBRANCH  30  32
ENDBRANCH  29  30
ENDBRANCH  28  29
ENDBRANCH  27  28
ENDBRANCH   1  27
TORSDOF 17
