REMARK SMILES Cc1cc(Cl)ccc1Oc1cc(C)c(N)c(C(=O)OCCOC(=O)c2ccc(-c3c4nc(c(-c5c(F)c(F)c(F)c(F)c5F)c5ccc([nH]5)c(-c5c(F)c(F)c(F)c(F)c5F)c5nc(c(-c6c(F)c(F)c(F)c(F)c6F)c6ccc3[nH]6)C=C5)C=C4)cc2)c1
REMARK SMILES IDX 20 1 19 2 17 3 18 4 16 5 10 6 11 7 88 8 12 9 13 10 14 11
REMARK SMILES IDX 9 12 8 13 1 14 2 15 3 16 4 17 7 18 5 19 6 20 15 21 21 24
REMARK SMILES IDX 22 25 23 26 24 27 25 28 26 29 87 30 27 31 86 32 28 33 29 34
REMARK SMILES IDX 30 35 80 36 31 37 85 38 79 39 81 40 32 41 84 42 78 43 77 44
REMARK SMILES IDX 33 46 65 47 45 48 64 49 46 50 49 51 63 52 82 53 47 54 48 55
REMARK SMILES IDX 62 57 83 58 50 59 34 60 35 61 43 62 36 63 37 64 41 65 44 66
REMARK SMILES IDX 38 67 39 68 42 69 40 70 66 71 67 72 75 73 68 74 69 75 73 76
REMARK SMILES IDX 76 77 70 78 71 79 74 80 72 81 51 82 52 83 60 84 53 85 54 86
REMARK SMILES IDX 58 87 61 88 55 89 56 90 59 91 57 92
REMARK H PARENT 15 22 15 23 81 45 49 56
REMARK Flexibility Score: inf
ROOT
ATOM      1  C   UNL     1      -7.726  -0.067   4.113  1.00  0.00     0.275 C 
ENDROOT
BRANCH   1   2
ATOM      2  O   UNL     1      -6.733   0.065   3.071  1.00  0.00    -0.458 OA
BRANCH   2   3
ATOM      3  C   UNL     1      -7.216   0.134   1.804  1.00  0.00     0.340 C 
ATOM      4  O   UNL     1      -8.395   0.127   1.484  1.00  0.00    -0.246 OA
BRANCH   3   5
ATOM      5  C   UNL     1      -6.110   0.178   0.816  1.00  0.00     0.086 A 
ATOM      6  C   UNL     1      -4.103  -0.772  -0.086  1.00  0.00     0.128 A 
ATOM      7  C   UNL     1      -4.249  -0.030  -1.257  1.00  0.00     0.052 A 
ATOM      8  C   UNL     1      -5.083  -0.758   0.903  1.00  0.00     0.065 A 
ATOM      9  C   UNL     1      -5.245   0.945  -1.334  1.00  0.00    -0.024 A 
ATOM     10  C   UNL     1      -5.274   1.885  -2.509  1.00  0.00     0.047 C 
ATOM     11  C   UNL     1      -6.127   1.106  -0.248  1.00  0.00     0.049 A 
BRANCH   6  12
ATOM     12  O   UNL     1      -2.991  -1.528   0.155  1.00  0.00    -0.457 OA
BRANCH  12  13
ATOM     13  C   UNL     1      -1.737  -0.943   0.106  1.00  0.00     0.130 A 
ATOM     14  C   UNL     1      -2.298   1.564   0.551  1.00  0.00     0.048 C 
ATOM     15  C   UNL     1      -1.370   0.410   0.281  1.00  0.00    -0.007 A 
ATOM     16  C   UNL     1      -0.004   0.751   0.176  1.00  0.00     0.027 A 
ATOM     17  C   UNL     1       0.973  -0.221  -0.023  1.00  0.00     0.041 A 
ATOM     18  C   UNL     1      -0.733  -1.909  -0.083  1.00  0.00     0.049 A 
ATOM     19  Cl  UNL     1       2.629   0.237  -0.104  1.00  0.00    -0.084 Cl
ATOM     20  C   UNL     1       0.615  -1.555  -0.141  1.00  0.00     0.024 A 
ENDBRANCH  12  13
ENDBRANCH   6  12
BRANCH  11  21
ATOM     21  N   UNL     1      -6.816   2.312  -0.130  1.00  0.00    -0.398 N 
ATOM     22  H   UNL     1      -6.821   2.951  -0.879  1.00  0.00     0.156 HD
ATOM     23  H   UNL     1      -7.299   2.524   0.702  1.00  0.00     0.156 HD
ENDBRANCH  11  21
ENDBRANCH   3   5
ENDBRANCH   2   3
ENDBRANCH   1   2
BRANCH   1  24
ATOM     24  C   UNL     1      -7.879   1.234   4.899  1.00  0.00     0.275 C 
BRANCH  24  25
ATOM     25  O   UNL     1      -8.472   2.244   4.064  1.00  0.00    -0.458 OA
BRANCH  25  26
ATOM     26  C   UNL     1      -7.681   3.296   3.756  1.00  0.00     0.338 C 
ATOM     27  O   UNL     1      -6.553   3.525   4.160  1.00  0.00    -0.246 OA
BRANCH  26  28
ATOM     28  C   UNL     1      -8.342   4.154   2.757  1.00  0.00     0.060 A 
ATOM     29  C   UNL     1      -8.804   3.579   1.582  1.00  0.00     0.016 A 
ATOM     30  C   UNL     1      -8.313   5.543   2.881  1.00  0.00     0.016 A 
ATOM     31  C   UNL     1      -9.069   4.386   0.480  1.00  0.00     0.010 A 
ATOM     32  C   UNL     1      -8.750   6.350   1.819  1.00  0.00     0.010 A 
ATOM     33  C   UNL     1      -9.100   5.784   0.582  1.00  0.00    -0.014 A 
BRANCH  33  34
ATOM     34  C   UNL     1      -9.512   6.619  -0.591  1.00  0.00     0.031 A 
ATOM     35  C   UNL     1      -8.695   7.808  -1.037  1.00  0.00     0.074 A 
ATOM     36  C   UNL     1     -10.629   6.305  -1.284  1.00  0.00     0.049 A 
ATOM     37  N   UNL     1      -9.024   8.780  -1.853  1.00  0.00    -0.248 NA
ATOM     38  C   UNL     1      -7.334   7.930  -0.491  1.00  0.00     0.031 C 
ATOM     39  C   UNL     1     -11.499   5.156  -1.020  1.00  0.00     0.029 A 
ATOM     40  N   UNL     1     -11.226   6.916  -2.363  1.00  0.00    -0.354 N 
ATOM     41  C   UNL     1      -7.949   9.661  -1.859  1.00  0.00     0.074 A 
ATOM     42  C   UNL     1      -6.944   9.100  -0.982  1.00  0.00     0.031 C 
ATOM     43  C   UNL     1     -12.458   5.096  -1.949  1.00  0.00     0.029 A 
ATOM     44  C   UNL     1     -12.384   6.295  -2.768  1.00  0.00     0.049 A 
ATOM     45  H   UNL     1     -10.860   7.717  -2.802  1.00  0.00     0.167 HD
ATOM     46  C   UNL     1      -7.826  10.835  -2.527  1.00  0.00     0.037 A 
ATOM     47  C   UNL     1     -13.345   6.678  -3.630  1.00  0.00     0.037 A 
ATOM     48  C   UNL     1      -8.808  11.350  -3.450  1.00  0.00     0.049 A 
ATOM     49  C   UNL     1     -13.226   8.014  -4.296  1.00  0.00     0.074 A 
ATOM     50  C   UNL     1      -8.767  12.515  -4.197  1.00  0.00     0.029 A 
ATOM     51  N   UNL     1     -10.006  10.723  -3.761  1.00  0.00    -0.354 N 
ATOM     52  N   UNL     1     -12.251   8.886  -4.223  1.00  0.00    -0.248 NA
ATOM     53  C   UNL     1     -14.359   8.439  -5.126  1.00  0.00     0.031 C 
ATOM     54  C   UNL     1      -9.959  12.616  -4.923  1.00  0.00     0.029 A 
ATOM     55  C   UNL     1     -10.724  11.491  -4.664  1.00  0.00     0.049 A 
ATOM     56  H   UNL     1     -10.303   9.859  -3.394  1.00  0.00     0.167 HD
ATOM     57  C   UNL     1     -12.657   9.970  -4.984  1.00  0.00     0.074 A 
ATOM     58  C   UNL     1     -13.951   9.630  -5.541  1.00  0.00     0.031 C 
ATOM     59  C   UNL     1     -12.019  11.147  -5.192  1.00  0.00     0.037 A 
BRANCH  46  60
ATOM     60  C   UNL     1      -6.612  11.682  -2.259  1.00  0.00     0.064 A 
ATOM     61  C   UNL     1      -5.340  11.348  -2.744  1.00  0.00     0.173 A 
ATOM     62  C   UNL     1      -6.747  12.893  -1.557  1.00  0.00     0.173 A 
ATOM     63  F   UNL     1      -5.153  10.201  -3.413  1.00  0.00    -0.203 F 
ATOM     64  C   UNL     1      -4.246  12.184  -2.521  1.00  0.00     0.198 A 
ATOM     65  C   UNL     1      -5.657  13.737  -1.359  1.00  0.00     0.198 A 
ATOM     66  F   UNL     1      -7.943  13.267  -1.079  1.00  0.00    -0.203 F 
ATOM     67  F   UNL     1      -3.032  11.827  -2.964  1.00  0.00    -0.200 F 
ATOM     68  C   UNL     1      -4.406  13.380  -1.837  1.00  0.00     0.200 A 
ATOM     69  F   UNL     1      -5.819  14.899  -0.711  1.00  0.00    -0.200 F 
ATOM     70  F   UNL     1      -3.355  14.186  -1.635  1.00  0.00    -0.200 F 
ENDBRANCH  46  60
BRANCH  47  71
ATOM     71  C   UNL     1     -14.550   5.825  -3.807  1.00  0.00     0.064 A 
ATOM     72  C   UNL     1     -14.805   5.175  -5.020  1.00  0.00     0.173 A 
ATOM     73  C   UNL     1     -15.448   5.606  -2.748  1.00  0.00     0.173 A 
ATOM     74  F   UNL     1     -13.996   5.376  -6.071  1.00  0.00    -0.203 F 
ATOM     75  C   UNL     1     -15.903   4.329  -5.164  1.00  0.00     0.198 A 
ATOM     76  C   UNL     1     -16.521   4.731  -2.881  1.00  0.00     0.198 A 
ATOM     77  F   UNL     1     -15.252   6.210  -1.566  1.00  0.00    -0.203 F 
ATOM     78  F   UNL     1     -16.142   3.740  -6.344  1.00  0.00    -0.200 F 
ATOM     79  C   UNL     1     -16.751   4.095  -4.090  1.00  0.00     0.200 A 
ATOM     80  F   UNL     1     -17.322   4.492  -1.833  1.00  0.00    -0.200 F 
ATOM     81  F   UNL     1     -17.791   3.261  -4.223  1.00  0.00    -0.200 F 
ENDBRANCH  47  71
BRANCH  59  82
ATOM     82  C   UNL     1     -12.720  12.149  -6.057  1.00  0.00     0.064 A 
ATOM     83  C   UNL     1     -13.825  12.871  -5.583  1.00  0.00     0.173 A 
ATOM     84  C   UNL     1     -12.275  12.401  -7.362  1.00  0.00     0.173 A 
ATOM     85  F   UNL     1     -14.300  12.646  -4.349  1.00  0.00    -0.203 F 
ATOM     86  C   UNL     1     -14.474  13.796  -6.396  1.00  0.00     0.198 A 
ATOM     87  C   UNL     1     -12.911  13.345  -8.163  1.00  0.00     0.198 A 
ATOM     88  F   UNL     1     -11.222  11.734  -7.859  1.00  0.00    -0.203 F 
ATOM     89  F   UNL     1     -15.557  14.442  -5.941  1.00  0.00    -0.200 F 
ATOM     90  C   UNL     1     -14.013  14.037  -7.682  1.00  0.00     0.200 A 
ATOM     91  F   UNL     1     -12.460  13.582  -9.402  1.00  0.00    -0.200 F 
ATOM     92  F   UNL     1     -14.637  14.929  -8.462  1.00  0.00    -0.200 F 
ENDBRANCH  59  82
ENDBRANCH  33  34
ENDBRANCH  26  28
ENDBRANCH  25  26
ENDBRANCH  24  25
ENDBRANCH   1  24
TORSDOF 14
