REMARK SMILES CCN(CCC(=O)OCCOC(=O)c1ccc(-c2c3nc(c(-c4c(F)c(F)c(F)c(F)c4F)c4ccc([nH]4)c(-c4c(F)c(F)c(F)c(F)c4F)c4nc(c(-c5c(F)c(F)c(F)c(F)c5F)c5ccc2[nH]5)C=C4)C=C3)cc1)C(=O)N(C)CCc1cccs1
REMARK SMILES IDX 6 1 7 2 5 3 4 4 3 5 2 6 1 7 77 8 78 9 79 10 80 11 81 12
REMARK SMILES IDX 82 13 83 14 84 15 87 16 85 17 86 18 8 19 9 20 10 21 11 22
REMARK SMILES IDX 12 23 13 24 14 25 15 26 76 27 16 28 75 29 17 30 18 31 19 32
REMARK SMILES IDX 69 33 20 34 74 35 68 36 70 37 21 38 73 39 67 40 66 41 22 43
REMARK SMILES IDX 54 44 34 45 53 46 35 47 38 48 52 49 71 50 36 51 37 52 51 54
REMARK SMILES IDX 72 55 39 56 23 57 24 58 32 59 25 60 26 61 30 62 33 63 27 64
REMARK SMILES IDX 28 65 31 66 29 67 55 68 56 69 64 70 57 71 58 72 62 73 65 74
REMARK SMILES IDX 59 75 60 76 63 77 61 78 40 79 41 80 49 81 42 82 43 83 47 84
REMARK SMILES IDX 50 85 44 86 45 87 48 88 46 89
REMARK H PARENT 70 42 38 53
REMARK Flexibility Score: inf
ROOT
ATOM      1  C   UNL     1       1.391   0.854   5.612  1.00  0.00     0.307 C 
ATOM      2  O   UNL     1       0.988   1.240   6.703  1.00  0.00    -0.252 OA
ENDROOT
BRANCH   1   3
ATOM      3  C   UNL     1       0.470   0.298   4.553  1.00  0.00     0.144 C 
BRANCH   3   4
ATOM      4  C   UNL     1       0.428   1.155   3.291  1.00  0.00     0.133 C 
BRANCH   4   5
ATOM      5  N   UNL     1       1.143   0.565   2.151  1.00  0.00    -0.324 N 
BRANCH   5   6
ATOM      6  C   UNL     1       0.399  -0.389   1.318  1.00  0.00     0.118 C 
ATOM      7  C   UNL     1       0.574  -0.081  -0.168  1.00  0.00     0.027 C 
ENDBRANCH   5   6
BRANCH   5   8
ATOM      8  C   UNL     1       2.525   0.490   2.036  1.00  0.00     0.319 C 
ATOM      9  O   UNL     1       3.022  -0.549   1.611  1.00  0.00    -0.248 OA
BRANCH   8  10
ATOM     10  N   UNL     1       3.285   1.613   2.307  1.00  0.00    -0.327 N 
ATOM     11  C   UNL     1       2.716   2.946   2.171  1.00  0.00     0.148 C 
BRANCH  10  12
ATOM     12  C   UNL     1       4.758   1.560   2.177  1.00  0.00     0.126 C 
BRANCH  12  13
ATOM     13  C   UNL     1       5.560   0.457   2.903  1.00  0.00     0.068 C 
BRANCH  13  14
ATOM     14  C   UNL     1       5.660  -0.868   2.201  1.00  0.00     0.006 A 
ATOM     15  C   UNL     1       5.346  -2.114   2.713  1.00  0.00     0.015 A 
ATOM     16  S   UNL     1       6.178  -0.983   0.569  1.00  0.00    -0.149 S 
ATOM     17  C   UNL     1       5.332  -3.121   1.706  1.00  0.00     0.012 A 
ATOM     18  C   UNL     1       5.714  -2.626   0.479  1.00  0.00     0.065 A 
ENDBRANCH  13  14
ENDBRANCH  12  13
ENDBRANCH  10  12
ENDBRANCH   8  10
ENDBRANCH   5   8
ENDBRANCH   4   5
ENDBRANCH   3   4
ENDBRANCH   1   3
BRANCH   1  19
ATOM     19  O   UNL     1       2.688   0.852   5.214  1.00  0.00    -0.462 OA
BRANCH  19  20
ATOM     20  C   UNL     1       3.662   1.364   6.151  1.00  0.00     0.274 C 
BRANCH  20  21
ATOM     21  C   UNL     1       3.981   2.825   5.849  1.00  0.00     0.275 C 
BRANCH  21  22
ATOM     22  O   UNL     1       2.812   3.594   6.151  1.00  0.00    -0.458 OA
BRANCH  22  23
ATOM     23  C   UNL     1       2.612   4.713   5.429  1.00  0.00     0.338 C 
ATOM     24  O   UNL     1       3.342   5.218   4.594  1.00  0.00    -0.246 OA
BRANCH  23  25
ATOM     25  C   UNL     1       1.331   5.269   5.880  1.00  0.00     0.060 A 
ATOM     26  C   UNL     1       0.175   4.477   5.875  1.00  0.00     0.016 A 
ATOM     27  C   UNL     1       1.315   6.567   6.383  1.00  0.00     0.016 A 
ATOM     28  C   UNL     1      -1.004   4.973   6.415  1.00  0.00     0.010 A 
ATOM     29  C   UNL     1       0.145   7.048   6.958  1.00  0.00     0.010 A 
ATOM     30  C   UNL     1      -1.012   6.249   6.988  1.00  0.00    -0.014 A 
BRANCH  30  31
ATOM     31  C   UNL     1      -2.216   6.773   7.659  1.00  0.00     0.031 A 
ATOM     32  C   UNL     1      -2.969   7.897   7.022  1.00  0.00     0.074 A 
ATOM     33  C   UNL     1      -2.543   6.293   8.873  1.00  0.00     0.049 A 
ATOM     34  N   UNL     1      -3.911   8.651   7.519  1.00  0.00    -0.248 NA
ATOM     35  C   UNL     1      -2.588   8.234   5.640  1.00  0.00     0.031 C 
ATOM     36  C   UNL     1      -1.852   5.198   9.560  1.00  0.00     0.029 A 
ATOM     37  N   UNL     1      -3.509   6.686   9.760  1.00  0.00    -0.354 N 
ATOM     38  C   UNL     1      -4.227   9.562   6.520  1.00  0.00     0.074 A 
ATOM     39  C   UNL     1      -3.354   9.288   5.399  1.00  0.00     0.031 C 
ATOM     40  C   UNL     1      -2.400   5.026  10.773  1.00  0.00     0.029 A 
ATOM     41  C   UNL     1      -3.445   6.024  10.963  1.00  0.00     0.049 A 
ATOM     42  H   UNL     1      -4.183   7.374   9.557  1.00  0.00     0.167 HD
ATOM     43  C   UNL     1      -5.169  10.533   6.548  1.00  0.00     0.037 A 
ATOM     44  C   UNL     1      -4.133   6.235  12.100  1.00  0.00     0.037 A 
ATOM     45  C   UNL     1      -6.009  10.785   7.690  1.00  0.00     0.049 A 
ATOM     46  C   UNL     1      -5.160   7.336  12.109  1.00  0.00     0.074 A 
ATOM     47  C   UNL     1      -6.992  11.743   7.851  1.00  0.00     0.029 A 
ATOM     48  N   UNL     1      -5.956  10.061   8.875  1.00  0.00    -0.354 N 
ATOM     49  N   UNL     1      -5.463   8.190  11.159  1.00  0.00    -0.248 NA
ATOM     50  C   UNL     1      -5.944   7.499  13.338  1.00  0.00     0.031 C 
ATOM     51  C   UNL     1      -7.512  11.619   9.145  1.00  0.00     0.029 A 
ATOM     52  C   UNL     1      -6.887  10.552   9.773  1.00  0.00     0.049 A 
ATOM     53  H   UNL     1      -5.345   9.309   9.050  1.00  0.00     0.167 HD
ATOM     54  C   UNL     1      -6.485   8.978  11.666  1.00  0.00     0.074 A 
ATOM     55  C   UNL     1      -6.766   8.481  12.999  1.00  0.00     0.031 C 
ATOM     56  C   UNL     1      -7.133  10.022  11.091  1.00  0.00     0.037 A 
BRANCH  43  57
ATOM     57  C   UNL     1      -5.324  11.386   5.323  1.00  0.00     0.064 A 
ATOM     58  C   UNL     1      -5.849  10.866   4.129  1.00  0.00     0.173 A 
ATOM     59  C   UNL     1      -4.963  12.742   5.341  1.00  0.00     0.173 A 
ATOM     60  F   UNL     1      -6.193   9.572   4.051  1.00  0.00    -0.203 F 
ATOM     61  C   UNL     1      -5.984  11.664   2.995  1.00  0.00     0.198 A 
ATOM     62  C   UNL     1      -5.126  13.544   4.213  1.00  0.00     0.198 A 
ATOM     63  F   UNL     1      -4.454  13.292   6.453  1.00  0.00    -0.203 F 
ATOM     64  F   UNL     1      -6.444  11.131   1.854  1.00  0.00    -0.200 F 
ATOM     65  C   UNL     1      -5.630  13.003   3.040  1.00  0.00     0.200 A 
ATOM     66  F   UNL     1      -4.790  14.841   4.260  1.00  0.00    -0.200 F 
ATOM     67  F   UNL     1      -5.765  13.771   1.949  1.00  0.00    -0.200 F 
ENDBRANCH  43  57
BRANCH  44  68
ATOM     68  C   UNL     1      -3.869   5.403  13.304  1.00  0.00     0.064 A 
ATOM     69  C   UNL     1      -4.831   4.505  13.787  1.00  0.00     0.173 A 
ATOM     70  C   UNL     1      -2.651   5.484  13.998  1.00  0.00     0.173 A 
ATOM     71  F   UNL     1      -6.018   4.401  13.172  1.00  0.00    -0.203 F 
ATOM     72  C   UNL     1      -4.596   3.739  14.928  1.00  0.00     0.198 A 
ATOM     73  C   UNL     1      -2.405   4.694  15.120  1.00  0.00     0.198 A 
ATOM     74  F   UNL     1      -1.692   6.321  13.577  1.00  0.00    -0.203 F 
ATOM     75  F   UNL     1      -5.554   2.926  15.395  1.00  0.00    -0.200 F 
ATOM     76  C   UNL     1      -3.381   3.829  15.590  1.00  0.00     0.200 A 
ATOM     77  F   UNL     1      -1.223   4.772  15.746  1.00  0.00    -0.200 F 
ATOM     78  F   UNL     1      -3.154   3.090  16.684  1.00  0.00    -0.200 F 
ENDBRANCH  44  68
BRANCH  56  79
ATOM     79  C   UNL     1      -8.222  10.661  11.900  1.00  0.00     0.064 A 
ATOM     80  C   UNL     1      -7.935  11.457  13.019  1.00  0.00     0.173 A 
ATOM     81  C   UNL     1      -9.566  10.486  11.540  1.00  0.00     0.173 A 
ATOM     82  F   UNL     1      -6.664  11.638  13.411  1.00  0.00    -0.203 F 
ATOM     83  C   UNL     1      -8.958  12.026  13.769  1.00  0.00     0.198 A 
ATOM     84  C   UNL     1     -10.585  11.083  12.273  1.00  0.00     0.198 A 
ATOM     85  F   UNL     1      -9.888   9.739  10.473  1.00  0.00    -0.203 F 
ATOM     86  F   UNL     1      -8.666  12.734  14.869  1.00  0.00    -0.200 F 
ATOM     87  C   UNL     1     -10.281  11.844  13.393  1.00  0.00     0.200 A 
ATOM     88  F   UNL     1     -11.861  10.917  11.901  1.00  0.00    -0.200 F 
ATOM     89  F   UNL     1     -11.266  12.393  14.117  1.00  0.00    -0.200 F 
ENDBRANCH  56  79
ENDBRANCH  30  31
ENDBRANCH  23  25
ENDBRANCH  22  23
ENDBRANCH  21  22
ENDBRANCH  20  21
ENDBRANCH  19  20
ENDBRANCH   1  19
TORSDOF 19
