REMARK SMILES O=C(OCCOC(=O)c1cn(C2CN(C(=O)c3c[nH]nn3)C2)nn1)c1ccc(-c2c3nc(c(-c4c(F)c(F)c(F)c(F)c4F)c4ccc([nH]4)c(-c4c(F)c(F)c(F)c(F)c4F)c4nc(c(-c5c(F)c(F)c(F)c(F)c5F)c5ccc2[nH]5)C=C4)C=C3)cc1
REMARK SMILES IDX 4 1 3 2 2 3 1 4 25 5 26 6 87 7 27 8 86 9 28 10 29 11 30 12
REMARK SMILES IDX 80 13 31 14 85 15 79 16 81 17 32 18 84 19 78 20 77 21 33 23
REMARK SMILES IDX 65 24 45 25 64 26 46 27 49 28 63 29 82 30 47 31 48 32 62 34
REMARK SMILES IDX 83 35 50 36 34 37 35 38 43 39 36 40 37 41 41 42 44 43 38 44
REMARK SMILES IDX 39 45 42 46 40 47 66 48 67 49 75 50 68 51 69 52 73 53 76 54
REMARK SMILES IDX 70 55 71 56 74 57 72 58 51 59 52 60 60 61 53 62 54 63 58 64
REMARK SMILES IDX 61 65 55 66 56 67 59 68 57 69 5 70 6 71 7 72 8 73 9 74 10 75
REMARK SMILES IDX 24 76 11 77 23 78 12 79 13 80 22 81 14 82 15 83 16 84 17 85
REMARK SMILES IDX 18 86 21 87 19 88 20 89
REMARK H PARENT 81 22 49 33 19 90
REMARK Flexibility Score: inf
ROOT
ATOM      1  C   UNL     1       3.987   1.278  -0.912  1.00  0.00     0.275 C 
ENDROOT
BRANCH   1   2
ATOM      2  O   UNL     1       2.838   0.411  -0.873  1.00  0.00    -0.458 OA
BRANCH   2   3
ATOM      3  C   UNL     1       2.811  -0.904  -0.539  1.00  0.00     0.338 C 
ATOM      4  O   UNL     1       1.960  -1.651  -1.013  1.00  0.00    -0.246 OA
BRANCH   3   5
ATOM      5  C   UNL     1       3.660  -1.424   0.569  1.00  0.00     0.060 A 
ATOM      6  C   UNL     1       5.040  -1.236   0.654  1.00  0.00     0.016 A 
ATOM      7  C   UNL     1       3.025  -2.209   1.548  1.00  0.00     0.016 A 
ATOM      8  C   UNL     1       5.760  -1.745   1.736  1.00  0.00     0.010 A 
ATOM      9  C   UNL     1       3.746  -2.733   2.628  1.00  0.00     0.010 A 
ATOM     10  C   UNL     1       5.121  -2.494   2.729  1.00  0.00    -0.014 A 
BRANCH  10  11
ATOM     11  C   UNL     1       5.943  -3.092   3.803  1.00  0.00     0.031 A 
ATOM     12  C   UNL     1       6.379  -4.522   3.683  1.00  0.00     0.074 A 
ATOM     13  C   UNL     1       6.392  -2.328   4.815  1.00  0.00     0.049 A 
ATOM     14  N   UNL     1       7.193  -5.200   4.450  1.00  0.00    -0.248 NA
ATOM     15  C   UNL     1       5.875  -5.272   2.522  1.00  0.00     0.031 C 
ATOM     16  C   UNL     1       6.122  -0.900   4.985  1.00  0.00     0.029 A 
ATOM     17  N   UNL     1       7.161  -2.650   5.902  1.00  0.00    -0.354 N 
ATOM     18  C   UNL     1       7.380  -6.416   3.809  1.00  0.00     0.074 A 
ATOM     19  C   UNL     1       6.512  -6.427   2.652  1.00  0.00     0.031 C 
ATOM     20  C   UNL     1       6.642  -0.490   6.156  1.00  0.00     0.029 A 
ATOM     21  C   UNL     1       7.294  -1.622   6.803  1.00  0.00     0.049 A 
ATOM     22  H   UNL     1       7.577  -3.534   6.026  1.00  0.00     0.167 HD
ATOM     23  C   UNL     1       8.247  -7.406   4.127  1.00  0.00     0.037 A 
ATOM     24  C   UNL     1       7.854  -1.617   8.025  1.00  0.00     0.037 A 
ATOM     25  C   UNL     1       9.055  -7.422   5.316  1.00  0.00     0.049 A 
ATOM     26  C   UNL     1       8.566  -2.849   8.505  1.00  0.00     0.074 A 
ATOM     27  C   UNL     1       9.951  -8.385   5.747  1.00  0.00     0.029 A 
ATOM     28  N   UNL     1       9.039  -6.430   6.285  1.00  0.00    -0.354 N 
ATOM     29  N   UNL     1       8.772  -3.980   7.878  1.00  0.00    -0.248 NA
ATOM     30  C   UNL     1       9.150  -2.791   9.852  1.00  0.00     0.031 C 
ATOM     31  C   UNL     1      10.442  -7.995   6.999  1.00  0.00     0.029 A 
ATOM     32  C   UNL     1       9.885  -6.770   7.328  1.00  0.00     0.049 A 
ATOM     33  H   UNL     1       8.504  -5.605   6.239  1.00  0.00     0.167 HD
ATOM     34  C   UNL     1       9.560  -4.745   8.724  1.00  0.00     0.074 A 
ATOM     35  C   UNL     1       9.771  -3.960   9.923  1.00  0.00     0.031 C 
ATOM     36  C   UNL     1      10.091  -5.974   8.510  1.00  0.00     0.037 A 
BRANCH  23  37
ATOM     37  C   UNL     1       8.377  -8.531   3.146  1.00  0.00     0.064 A 
ATOM     38  C   UNL     1       9.032  -8.339   1.918  1.00  0.00     0.173 A 
ATOM     39  C   UNL     1       7.866  -9.804   3.427  1.00  0.00     0.173 A 
ATOM     40  F   UNL     1       9.527  -7.133   1.599  1.00  0.00    -0.203 F 
ATOM     41  C   UNL     1       9.149  -9.376   0.998  1.00  0.00     0.198 A 
ATOM     42  C   UNL     1       8.002 -10.845   2.511  1.00  0.00     0.198 A 
ATOM     43  F   UNL     1       7.232 -10.038   4.585  1.00  0.00    -0.203 F 
ATOM     44  F   UNL     1       9.742  -9.158  -0.184  1.00  0.00    -0.200 F 
ATOM     45  C   UNL     1       8.637 -10.629   1.296  1.00  0.00     0.200 A 
ATOM     46  F   UNL     1       7.512 -12.059   2.801  1.00  0.00    -0.200 F 
ATOM     47  F   UNL     1       8.748 -11.627   0.409  1.00  0.00    -0.200 F 
ENDBRANCH  23  37
BRANCH  24  48
ATOM     48  C   UNL     1       7.697  -0.449   8.926  1.00  0.00     0.064 A 
ATOM     49  C   UNL     1       8.761   0.404   9.238  1.00  0.00     0.173 A 
ATOM     50  C   UNL     1       6.476  -0.244   9.583  1.00  0.00     0.173 A 
ATOM     51  F   UNL     1       9.956   0.224   8.659  1.00  0.00    -0.203 F 
ATOM     52  C   UNL     1       8.615   1.403  10.201  1.00  0.00     0.198 A 
ATOM     53  C   UNL     1       6.327   0.758  10.537  1.00  0.00     0.198 A 
ATOM     54  F   UNL     1       5.440  -1.049   9.316  1.00  0.00    -0.203 F 
ATOM     55  F   UNL     1       9.663   2.172  10.527  1.00  0.00    -0.200 F 
ATOM     56  C   UNL     1       7.401   1.575  10.852  1.00  0.00     0.200 A 
ATOM     57  F   UNL     1       5.160   0.906  11.176  1.00  0.00    -0.200 F 
ATOM     58  F   UNL     1       7.276   2.512  11.803  1.00  0.00    -0.200 F 
ENDBRANCH  24  48
BRANCH  36  59
ATOM     59  C   UNL     1      11.023  -6.496   9.561  1.00  0.00     0.064 A 
ATOM     60  C   UNL     1      10.561  -6.958  10.800  1.00  0.00     0.173 A 
ATOM     61  C   UNL     1      12.405  -6.518   9.320  1.00  0.00     0.173 A 
ATOM     62  F   UNL     1       9.251  -6.929  11.086  1.00  0.00    -0.203 F 
ATOM     63  C   UNL     1      11.454  -7.397  11.774  1.00  0.00     0.198 A 
ATOM     64  C   UNL     1      13.292  -6.985  10.284  1.00  0.00     0.198 A 
ATOM     65  F   UNL     1      12.895  -6.083   8.149  1.00  0.00    -0.203 F 
ATOM     66  F   UNL     1      10.998  -7.780  12.975  1.00  0.00    -0.200 F 
ATOM     67  C   UNL     1      12.817  -7.415  11.513  1.00  0.00     0.200 A 
ATOM     68  F   UNL     1      14.607  -7.007  10.027  1.00  0.00    -0.200 F 
ATOM     69  F   UNL     1      13.675  -7.834  12.454  1.00  0.00    -0.200 F 
ENDBRANCH  36  59
ENDBRANCH  10  11
ENDBRANCH   3   5
ENDBRANCH   2   3
ENDBRANCH   1   2
BRANCH   1  70
ATOM     70  C   UNL     1       4.140   2.190   0.311  1.00  0.00     0.275 C 
BRANCH  70  71
ATOM     71  O   UNL     1       3.774   1.552   1.544  1.00  0.00    -0.457 OA
BRANCH  71  72
ATOM     72  C   UNL     1       2.441   1.659   1.844  1.00  0.00     0.360 C 
ATOM     73  O   UNL     1       1.651   2.361   1.223  1.00  0.00    -0.244 OA
BRANCH  72  74
ATOM     74  C   UNL     1       2.035   0.787   2.930  1.00  0.00     0.190 A 
ATOM     75  C   UNL     1       2.623   0.565   4.162  1.00  0.00     0.147 A 
ATOM     76  N   UNL     1       0.895   0.028   2.840  1.00  0.00    -0.123 NA
ATOM     77  N   UNL     1       1.745  -0.278   4.795  1.00  0.00    -0.245 N 
ATOM     78  N   UNL     1       0.760  -0.655   3.964  1.00  0.00    -0.066 NA
BRANCH  77  79
ATOM     79  C   UNL     1       1.654  -0.608   6.184  1.00  0.00     0.148 C 
ATOM     80  C   UNL     1       2.933  -1.134   6.856  1.00  0.00     0.149 C 
ATOM     81  C   UNL     1       1.809   0.635   7.092  1.00  0.00     0.149 C 
ATOM     82  N   UNL     1       2.601  -0.234   7.945  1.00  0.00    -0.333 N 
ATOM     83  C   UNL     1       2.491  -0.453   9.297  1.00  0.00     0.276 C 
ATOM     84  O   UNL     1       2.685  -1.546   9.820  1.00  0.00    -0.267 OA
BRANCH  83  85
ATOM     85  C   UNL     1       2.076   0.719  10.054  1.00  0.00     0.170 A 
ATOM     86  C   UNL     1       1.307   0.761  11.197  1.00  0.00     0.141 A 
ATOM     87  N   UNL     1       2.397   2.010   9.692  1.00  0.00    -0.125 NA
ATOM     88  N   UNL     1       1.198   2.089  11.473  1.00  0.00    -0.265 N 
ATOM     89  N   UNL     1       1.853   2.837  10.572  1.00  0.00    -0.069 NA
ATOM     90  H   UNL     1       0.701   2.456  12.240  1.00  0.00     0.191 HD
ENDBRANCH  83  85
ENDBRANCH  77  79
ENDBRANCH  72  74
ENDBRANCH  71  72
ENDBRANCH  70  71
ENDBRANCH   1  70
TORSDOF 13
