REMARK SMILES O=C(OCCOC(=O)c1cc([N+](=O)[O-])c(NCCC2=CCCCC2)c([N+](=O)[O-])c1)c1ccc(-c2c3nc(c(-c4c(F)c(F)c(F)c(F)c4F)c4ccc([nH]4)c(-c4c(F)c(F)c(F)c(F)c4F)c4nc(c(-c5c(F)c(F)c(F)c(F)c5F)c5ccc2[nH]5)C=C4)C=C3)cc1
REMARK SMILES IDX 5 1 4 2 3 3 2 4 1 5 30 6 31 7 92 8 32 9 91 10 33 11 34 12
REMARK SMILES IDX 35 13 85 14 36 15 90 16 84 17 86 18 37 19 89 20 83 21 82 22
REMARK SMILES IDX 38 24 70 25 50 26 69 27 51 28 54 29 68 30 87 31 52 32 53 33
REMARK SMILES IDX 67 35 88 36 55 37 39 38 40 39 48 40 41 41 42 42 46 43 49 44
REMARK SMILES IDX 43 45 44 46 47 47 45 48 71 49 72 50 80 51 73 52 74 53 78 54
REMARK SMILES IDX 81 55 75 56 76 57 79 58 77 59 56 60 57 61 65 62 58 63 59 64
REMARK SMILES IDX 63 65 66 66 60 67 61 68 64 69 62 70 6 71 7 72 8 73 9 74
REMARK SMILES IDX 10 75 29 76 11 77 25 78 15 79 12 80 13 81 14 82 26 83 27 84
REMARK SMILES IDX 28 85 16 86 17 88 18 89 19 90 20 91 24 92 21 93 23 94 22 95
REMARK H PARENT 86 23 54 34 16 87
REMARK Flexibility Score: inf
ROOT
ATOM      1  C   UNL     1       3.837  -0.482   2.193  1.00  0.00     0.275 C 
ENDROOT
BRANCH   1   2
ATOM      2  C   UNL     1       4.105   0.777   1.357  1.00  0.00     0.275 C 
BRANCH   2   3
ATOM      3  O   UNL     1       3.119   1.056   0.348  1.00  0.00    -0.458 OA
BRANCH   3   4
ATOM      4  C   UNL     1       2.992   0.586  -0.913  1.00  0.00     0.338 C 
ATOM      5  O   UNL     1       2.115   1.063  -1.631  1.00  0.00    -0.246 OA
BRANCH   4   6
ATOM      6  C   UNL     1       3.754  -0.589  -1.449  1.00  0.00     0.060 A 
ATOM      7  C   UNL     1       4.991  -1.052  -0.995  1.00  0.00     0.016 A 
ATOM      8  C   UNL     1       3.136  -1.306  -2.491  1.00  0.00     0.016 A 
ATOM      9  C   UNL     1       5.542  -2.244  -1.473  1.00  0.00     0.010 A 
ATOM     10  C   UNL     1       3.677  -2.503  -2.970  1.00  0.00     0.010 A 
ATOM     11  C   UNL     1       4.881  -2.988  -2.447  1.00  0.00    -0.014 A 
BRANCH  11  12
ATOM     12  C   UNL     1       5.521  -4.187  -3.029  1.00  0.00     0.031 A 
ATOM     13  C   UNL     1       6.131  -4.072  -4.391  1.00  0.00     0.074 A 
ATOM     14  C   UNL     1       5.600  -5.345  -2.345  1.00  0.00     0.049 A 
ATOM     15  N   UNL     1       6.702  -4.995  -5.117  1.00  0.00    -0.248 NA
ATOM     16  C   UNL     1       6.152  -2.728  -4.994  1.00  0.00     0.031 C 
ATOM     17  C   UNL     1       5.209  -5.540  -0.951  1.00  0.00     0.029 A 
ATOM     18  N   UNL     1       6.008  -6.593  -2.746  1.00  0.00    -0.354 N 
ATOM     19  C   UNL     1       7.201  -4.334  -6.228  1.00  0.00     0.074 A 
ATOM     20  C   UNL     1       6.800  -2.950  -6.127  1.00  0.00     0.031 C 
ATOM     21  C   UNL     1       5.276  -6.851  -0.654  1.00  0.00     0.029 A 
ATOM     22  C   UNL     1       5.704  -7.580  -1.836  1.00  0.00     0.049 A 
ATOM     23  H   UNL     1       6.470  -6.764  -3.598  1.00  0.00     0.167 HD
ATOM     24  C   UNL     1       7.971  -4.840  -7.216  1.00  0.00     0.037 A 
ATOM     25  C   UNL     1       5.732  -8.919  -1.968  1.00  0.00     0.037 A 
ATOM     26  C   UNL     1       8.353  -6.222  -7.302  1.00  0.00     0.049 A 
ATOM     27  C   UNL     1       6.370  -9.492  -3.195  1.00  0.00     0.074 A 
ATOM     28  C   UNL     1       9.155  -6.838  -8.243  1.00  0.00     0.029 A 
ATOM     29  N   UNL     1       7.935  -7.208  -6.420  1.00  0.00    -0.354 N 
ATOM     30  N   UNL     1       6.909  -8.859  -4.207  1.00  0.00    -0.248 NA
ATOM     31  C   UNL     1       6.466 -10.954  -3.270  1.00  0.00     0.031 C 
ATOM     32  C   UNL     1       9.164  -8.210  -7.973  1.00  0.00     0.029 A 
ATOM     33  C   UNL     1       8.413  -8.441  -6.831  1.00  0.00     0.049 A 
ATOM     34  H   UNL     1       7.381  -7.055  -5.621  1.00  0.00     0.167 HD
ATOM     35  C   UNL     1       7.456  -9.840  -5.016  1.00  0.00     0.074 A 
ATOM     36  C   UNL     1       7.180 -11.111  -4.376  1.00  0.00     0.031 C 
ATOM     37  C   UNL     1       8.137  -9.694  -6.177  1.00  0.00     0.037 A 
BRANCH  24  38
ATOM     38  C   UNL     1       8.436  -3.896  -8.280  1.00  0.00     0.064 A 
ATOM     39  C   UNL     1       9.431  -2.938  -8.032  1.00  0.00     0.173 A 
ATOM     40  C   UNL     1       7.904  -3.975  -9.575  1.00  0.00     0.173 A 
ATOM     41  F   UNL     1       9.953  -2.808  -6.803  1.00  0.00    -0.203 F 
ATOM     42  C   UNL     1       9.869  -2.086  -9.041  1.00  0.00     0.198 A 
ATOM     43  C   UNL     1       8.362  -3.137 -10.587  1.00  0.00     0.198 A 
ATOM     44  F   UNL     1       6.945  -4.868  -9.857  1.00  0.00    -0.203 F 
ATOM     45  F   UNL     1      10.796  -1.154  -8.775  1.00  0.00    -0.200 F 
ATOM     46  C   UNL     1       9.341  -2.192 -10.320  1.00  0.00     0.200 A 
ATOM     47  F   UNL     1       7.854  -3.243 -11.822  1.00  0.00    -0.200 F 
ATOM     48  F   UNL     1       9.772  -1.378 -11.293  1.00  0.00    -0.200 F 
ENDBRANCH  24  38
BRANCH  25  49
ATOM     49  C   UNL     1       5.127  -9.812  -0.949  1.00  0.00     0.064 A 
ATOM     50  C   UNL     1       5.904 -10.497  -0.009  1.00  0.00     0.173 A 
ATOM     51  C   UNL     1       3.747 -10.069  -0.964  1.00  0.00     0.173 A 
ATOM     52  F   UNL     1       7.236 -10.347  -0.009  1.00  0.00    -0.203 F 
ATOM     53  C   UNL     1       5.322 -11.393   0.888  1.00  0.00     0.198 A 
ATOM     54  C   UNL     1       3.159 -10.932  -0.041  1.00  0.00     0.198 A 
ATOM     55  F   UNL     1       2.982  -9.535  -1.924  1.00  0.00    -0.203 F 
ATOM     56  F   UNL     1       6.096 -12.086   1.734  1.00  0.00    -0.200 F 
ATOM     57  C   UNL     1       3.949 -11.598   0.882  1.00  0.00     0.200 A 
ATOM     58  F   UNL     1       1.837 -11.152  -0.073  1.00  0.00    -0.200 F 
ATOM     59  F   UNL     1       3.395 -12.468   1.739  1.00  0.00    -0.200 F 
ENDBRANCH  25  49
BRANCH  37  60
ATOM     60  C   UNL     1       8.671 -10.941  -6.807  1.00  0.00     0.064 A 
ATOM     61  C   UNL     1       7.823 -11.872  -7.422  1.00  0.00     0.173 A 
ATOM     62  C   UNL     1      10.051 -11.189  -6.821  1.00  0.00     0.173 A 
ATOM     63  F   UNL     1       6.494 -11.687  -7.410  1.00  0.00    -0.203 F 
ATOM     64  C   UNL     1       8.339 -13.021  -8.012  1.00  0.00     0.198 A 
ATOM     65  C   UNL     1      10.566 -12.320  -7.443  1.00  0.00     0.198 A 
ATOM     66  F   UNL     1      10.900 -10.324  -6.245  1.00  0.00    -0.203 F 
ATOM     67  F   UNL     1       7.509 -13.925  -8.549  1.00  0.00    -0.200 F 
ATOM     68  C   UNL     1       9.710 -13.239  -8.031  1.00  0.00     0.200 A 
ATOM     69  F   UNL     1      11.890 -12.521  -7.473  1.00  0.00    -0.200 F 
ATOM     70  F   UNL     1      10.205 -14.340  -8.610  1.00  0.00    -0.200 F 
ENDBRANCH  37  60
ENDBRANCH  11  12
ENDBRANCH   4   6
ENDBRANCH   3   4
ENDBRANCH   2   3
ENDBRANCH   1   2
BRANCH   1  71
ATOM     71  O   UNL     1       3.348  -1.603   1.433  1.00  0.00    -0.458 OA
BRANCH  71  72
ATOM     72  C   UNL     1       1.994  -1.717   1.376  1.00  0.00     0.338 C 
ATOM     73  O   UNL     1       1.172  -1.008   1.920  1.00  0.00    -0.246 OA
BRANCH  72  74
ATOM     74  C   UNL     1       1.635  -2.776   0.407  1.00  0.00     0.073 A 
ATOM     75  C   UNL     1       0.714  -2.495  -0.595  1.00  0.00     0.104 A 
ATOM     76  C   UNL     1       2.151  -4.060   0.498  1.00  0.00     0.104 A 
ATOM     77  C   UNL     1       0.462  -3.451  -1.607  1.00  0.00     0.300 A 
ATOM     78  C   UNL     1       1.822  -5.024  -0.489  1.00  0.00     0.300 A 
ATOM     79  C   UNL     1       1.087  -4.715  -1.671  1.00  0.00     0.192 A 
BRANCH  77  80
ATOM     80  N   UNL     1      -0.552  -3.057  -2.556  1.00  0.00     0.065 N 
ATOM     81  O   UNL     1      -0.270  -2.133  -3.329  1.00  0.00    -0.258 OA
ATOM     82  O   UNL     1      -1.636  -3.652  -2.496  1.00  0.00    -0.258 OA
ENDBRANCH  77  80
BRANCH  78  83
ATOM     83  N   UNL     1       2.160  -6.422  -0.164  1.00  0.00     0.065 N 
ATOM     84  O   UNL     1       2.011  -7.285  -1.035  1.00  0.00    -0.258 OA
ATOM     85  O   UNL     1       2.560  -6.665   0.986  1.00  0.00    -0.258 OA
ENDBRANCH  78  83
BRANCH  79  86
ATOM     86  N   UNL     1       1.155  -5.553  -2.781  1.00  0.00    -0.374 N 
ATOM     87  H   UNL     1       1.830  -6.266  -2.709  1.00  0.00     0.161 HD
BRANCH  86  88
ATOM     88  C   UNL     1       0.403  -5.561  -4.037  1.00  0.00     0.118 C 
BRANCH  88  89
ATOM     89  C   UNL     1       1.265  -5.967  -5.252  1.00  0.00     0.052 C 
BRANCH  89  90
ATOM     90  C   UNL     1       1.766  -7.394  -5.350  1.00  0.00    -0.072 C 
ATOM     91  C   UNL     1       0.934  -8.448  -5.455  1.00  0.00    -0.028 C 
ATOM     92  C   UNL     1       3.267  -7.566  -5.467  1.00  0.00     0.031 C 
ATOM     93  C   UNL     1       1.398  -9.870  -5.629  1.00  0.00     0.027 C 
ATOM     94  C   UNL     1       3.686  -8.928  -6.028  1.00  0.00     0.005 C 
ATOM     95  C   UNL     1       2.895 -10.054  -5.380  1.00  0.00     0.004 C 
ENDBRANCH  89  90
ENDBRANCH  88  89
ENDBRANCH  86  88
ENDBRANCH  79  86
ENDBRANCH  72  74
ENDBRANCH  71  72
ENDBRANCH   1  71
TORSDOF 17
