REMARK SMILES Cc1ccc(F)cc1S(=O)(=O)Nc1cc(C(=O)OCCOC(=O)c2ccc(-c3c4nc(c(-c5c(F)c(F)c(F)c(F)c5F)c5ccc([nH]5)c(-c5c(F)c(F)c(F)c(F)c5F)c5nc(c(-c6c(F)c(F)c(F)c(F)c6F)c6ccc3[nH]6)C=C5)C=C4)cc2)ccc1N(C)Cc1ccccc1
REMARK SMILES IDX 19 1 18 2 16 3 17 4 15 5 13 6 14 7 89 8 88 9 87 10 12 11
REMARK SMILES IDX 9 13 10 14 11 15 8 16 1 17 2 18 3 19 4 20 7 21 5 22 6 23
REMARK SMILES IDX 90 24 91 25 92 26 93 27 94 28 98 29 95 30 97 31 96 32 20 33
REMARK SMILES IDX 21 34 22 35 23 36 24 37 25 38 86 39 26 40 85 41 27 42 28 43
REMARK SMILES IDX 29 44 79 45 30 46 84 47 78 48 80 49 31 50 83 51 77 52 76 53
REMARK SMILES IDX 32 55 64 56 44 57 63 58 45 59 48 60 62 61 81 62 46 63 47 64
REMARK SMILES IDX 61 66 82 67 49 68 33 69 34 70 42 71 35 72 36 73 40 74 43 75
REMARK SMILES IDX 37 76 38 77 41 78 39 79 65 80 66 81 74 82 67 83 68 84 72 85
REMARK SMILES IDX 75 86 69 87 70 88 73 89 71 90 50 91 51 92 59 93 52 94 53 95
REMARK SMILES IDX 57 96 60 97 54 98 55 99 58 100 56 101
REMARK H PARENT 12 12 80 54 48 65
REMARK Flexibility Score: inf
ROOT
ATOM      1  C   UNL     1       8.365   2.878  -1.445  1.00  0.00     0.275 C 
ENDROOT
BRANCH   1   2
ATOM      2  O   UNL     1       7.397   2.365  -0.464  1.00  0.00    -0.458 OA
BRANCH   2   3
ATOM      3  C   UNL     1       6.428   1.557  -0.979  1.00  0.00     0.338 C 
ATOM      4  O   UNL     1       6.371   1.269  -2.172  1.00  0.00    -0.246 OA
BRANCH   3   5
ATOM      5  C   UNL     1       5.415   0.945  -0.032  1.00  0.00     0.062 A 
ATOM      6  C   UNL     1       3.770  -0.919   0.165  1.00  0.00     0.073 A 
ATOM      7  C   UNL     1       4.880  -0.276  -0.451  1.00  0.00     0.044 A 
ATOM      8  C   UNL     1       3.130  -0.442   1.308  1.00  0.00     0.061 A 
ATOM      9  C   UNL     1       3.747   0.771   1.780  1.00  0.00     0.029 A 
ATOM     10  C   UNL     1       4.852   1.462   1.126  1.00  0.00     0.018 A 
BRANCH   6  11
ATOM     11  N   UNL     1       3.078  -1.861  -0.644  1.00  0.00    -0.277 N 
ATOM     12  H   UNL     1       3.072  -2.835  -0.498  1.00  0.00     0.180 HD
BRANCH  11  13
ATOM     13  S   UNL     1       2.253  -1.049  -1.917  1.00  0.00     0.262 S 
ATOM     14  O   UNL     1       1.287  -1.950  -2.472  1.00  0.00    -0.201 OA
ATOM     15  O   UNL     1       3.303  -0.611  -2.826  1.00  0.00    -0.201 OA
BRANCH  13  16
ATOM     16  C   UNL     1       1.409   0.414  -1.201  1.00  0.00     0.093 A 
ATOM     17  C   UNL     1       2.935   2.179  -2.228  1.00  0.00     0.046 C 
ATOM     18  C   UNL     1       1.696   1.732  -1.531  1.00  0.00    -0.030 A 
ATOM     19  C   UNL     1       0.815   2.769  -1.107  1.00  0.00     0.008 A 
ATOM     20  C   UNL     1      -0.288   2.536  -0.290  1.00  0.00     0.039 A 
ATOM     21  C   UNL     1       0.392   0.261  -0.258  1.00  0.00     0.061 A 
ATOM     22  C   UNL     1      -0.460   1.267   0.180  1.00  0.00     0.124 A 
ATOM     23  F   UNL     1      -1.414   0.993   1.083  1.00  0.00    -0.207 F 
ENDBRANCH  13  16
ENDBRANCH  11  13
ENDBRANCH   6  11
BRANCH   8  24
ATOM     24  N   UNL     1       1.921  -1.018   1.811  1.00  0.00    -0.369 N 
ATOM     25  C   UNL     1       1.379  -0.344   3.002  1.00  0.00     0.144 C 
BRANCH  24  26
ATOM     26  C   UNL     1       1.323  -2.469   1.600  1.00  0.00     0.151 C 
BRANCH  26  27
ATOM     27  C   UNL     1       0.478  -3.076   0.385  1.00  0.00    -0.029 A 
ATOM     28  C   UNL     1      -0.601  -2.553  -0.376  1.00  0.00     0.005 A 
ATOM     29  C   UNL     1       0.724  -4.433   0.077  1.00  0.00     0.005 A 
ATOM     30  C   UNL     1      -1.049  -3.139  -1.589  1.00  0.00     0.000 A 
ATOM     31  C   UNL     1       0.191  -5.082  -1.062  1.00  0.00     0.000 A 
ATOM     32  C   UNL     1      -0.610  -4.394  -1.960  1.00  0.00     0.000 A 
ENDBRANCH  26  27
ENDBRANCH  24  26
ENDBRANCH   8  24
ENDBRANCH   3   5
ENDBRANCH   2   3
ENDBRANCH   1   2
BRANCH   1  33
ATOM     33  C   UNL     1       9.683   2.091  -1.557  1.00  0.00     0.275 C 
BRANCH  33  34
ATOM     34  O   UNL     1       9.495   0.838  -2.223  1.00  0.00    -0.458 OA
BRANCH  34  35
ATOM     35  C   UNL     1       9.113  -0.107  -1.350  1.00  0.00     0.338 C 
ATOM     36  O   UNL     1       8.958   0.024  -0.144  1.00  0.00    -0.246 OA
BRANCH  35  37
ATOM     37  C   UNL     1       9.090  -1.435  -1.969  1.00  0.00     0.060 A 
ATOM     38  C   UNL     1       7.874  -2.108  -1.773  1.00  0.00     0.016 A 
ATOM     39  C   UNL     1      10.311  -2.060  -1.729  1.00  0.00     0.016 A 
ATOM     40  C   UNL     1       7.851  -3.229  -0.964  1.00  0.00     0.010 A 
ATOM     41  C   UNL     1      10.293  -3.163  -0.914  1.00  0.00     0.010 A 
ATOM     42  C   UNL     1       9.064  -3.669  -0.453  1.00  0.00    -0.014 A 
BRANCH  42  43
ATOM     43  C   UNL     1       9.192  -4.782   0.460  1.00  0.00     0.031 A 
ATOM     44  C   UNL     1       9.254  -6.116  -0.157  1.00  0.00     0.074 A 
ATOM     45  C   UNL     1       9.617  -4.498   1.711  1.00  0.00     0.049 A 
ATOM     46  N   UNL     1       9.332  -7.216   0.498  1.00  0.00    -0.248 NA
ATOM     47  C   UNL     1       9.182  -6.315  -1.607  1.00  0.00     0.031 C 
ATOM     48  C   UNL     1      10.509  -5.289   2.547  1.00  0.00     0.029 A 
ATOM     49  N   UNL     1       9.269  -3.407   2.523  1.00  0.00    -0.354 N 
ATOM     50  C   UNL     1       9.672  -8.197  -0.409  1.00  0.00     0.074 A 
ATOM     51  C   UNL     1       9.428  -7.624  -1.708  1.00  0.00     0.031 C 
ATOM     52  C   UNL     1      10.480  -4.808   3.803  1.00  0.00     0.029 A 
ATOM     53  C   UNL     1       9.397  -3.843   3.870  1.00  0.00     0.049 A 
ATOM     54  H   UNL     1       8.990  -2.513   2.219  1.00  0.00     0.167 HD
ATOM     55  C   UNL     1      10.292  -9.316   0.059  1.00  0.00     0.037 A 
ATOM     56  C   UNL     1       8.290  -3.992   4.673  1.00  0.00     0.037 A 
ATOM     57  C   UNL     1      10.410  -9.250   1.514  1.00  0.00     0.049 A 
ATOM     58  C   UNL     1       7.965  -5.433   5.009  1.00  0.00     0.074 A 
ATOM     59  C   UNL     1      11.404  -8.815   2.374  1.00  0.00     0.029 A 
ATOM     60  N   UNL     1       9.252  -9.284   2.261  1.00  0.00    -0.354 N 
ATOM     61  N   UNL     1       8.594  -6.465   4.525  1.00  0.00    -0.248 NA
ATOM     62  C   UNL     1       6.785  -5.804   5.788  1.00  0.00     0.031 C 
ATOM     63  C   UNL     1      10.813  -8.589   3.652  1.00  0.00     0.029 A 
ATOM     64  C   UNL     1       9.469  -8.908   3.570  1.00  0.00     0.049 A 
ATOM     65  H   UNL     1       8.373  -9.547   1.903  1.00  0.00     0.167 HD
ATOM     66  C   UNL     1       7.916  -7.602   4.856  1.00  0.00     0.074 A 
ATOM     67  C   UNL     1       6.766  -7.133   5.610  1.00  0.00     0.031 C 
ATOM     68  C   UNL     1       8.325  -8.844   4.462  1.00  0.00     0.037 A 
BRANCH  55  69
ATOM     69  C   UNL     1      11.015 -10.335  -0.785  1.00  0.00     0.064 A 
ATOM     70  C   UNL     1      12.082 -11.075  -0.229  1.00  0.00     0.173 A 
ATOM     71  C   UNL     1      10.730 -10.632  -2.131  1.00  0.00     0.173 A 
ATOM     72  F   UNL     1      12.427 -10.948   1.059  1.00  0.00    -0.203 F 
ATOM     73  C   UNL     1      12.845 -11.976  -0.973  1.00  0.00     0.198 A 
ATOM     74  C   UNL     1      11.520 -11.506  -2.889  1.00  0.00     0.198 A 
ATOM     75  F   UNL     1       9.652 -10.133  -2.747  1.00  0.00    -0.203 F 
ATOM     76  F   UNL     1      13.845 -12.643  -0.381  1.00  0.00    -0.200 F 
ATOM     77  C   UNL     1      12.580 -12.175  -2.310  1.00  0.00     0.200 A 
ATOM     78  F   UNL     1      11.240 -11.703  -4.186  1.00  0.00    -0.200 F 
ATOM     79  F   UNL     1      13.326 -13.023  -3.030  1.00  0.00    -0.200 F 
ENDBRANCH  55  69
BRANCH  56  80
ATOM     80  C   UNL     1       7.198  -3.010   4.362  1.00  0.00     0.064 A 
ATOM     81  C   UNL     1       7.566  -1.653   4.408  1.00  0.00     0.173 A 
ATOM     82  C   UNL     1       6.263  -3.423   3.401  1.00  0.00     0.173 A 
ATOM     83  F   UNL     1       8.372  -1.200   5.380  1.00  0.00    -0.203 F 
ATOM     84  C   UNL     1       7.351  -0.864   3.295  1.00  0.00     0.198 A 
ATOM     85  C   UNL     1       6.074  -2.645   2.282  1.00  0.00     0.198 A 
ATOM     86  F   UNL     1       5.747  -4.659   3.417  1.00  0.00    -0.203 F 
ATOM     87  F   UNL     1       7.910   0.351   3.205  1.00  0.00    -0.200 F 
ATOM     88  C   UNL     1       6.719  -1.424   2.201  1.00  0.00     0.200 A 
ATOM     89  F   UNL     1       5.419  -3.149   1.226  1.00  0.00    -0.200 F 
ATOM     90  F   UNL     1       6.870  -0.853   1.012  1.00  0.00    -0.200 F 
ENDBRANCH  56  80
BRANCH  68  91
ATOM     91  C   UNL     1       7.623 -10.104   4.886  1.00  0.00     0.064 A 
ATOM     92  C   UNL     1       7.079 -10.251   6.172  1.00  0.00     0.173 A 
ATOM     93  C   UNL     1       7.544 -11.245   4.057  1.00  0.00     0.173 A 
ATOM     94  F   UNL     1       7.235  -9.297   7.102  1.00  0.00    -0.203 F 
ATOM     95  C   UNL     1       6.380 -11.395   6.548  1.00  0.00     0.198 A 
ATOM     96  C   UNL     1       6.908 -12.414   4.461  1.00  0.00     0.198 A 
ATOM     97  F   UNL     1       8.057 -11.271   2.820  1.00  0.00    -0.203 F 
ATOM     98  F   UNL     1       5.791 -11.444   7.750  1.00  0.00    -0.200 F 
ATOM     99  C   UNL     1       6.294 -12.476   5.692  1.00  0.00     0.200 A 
ATOM    100  F   UNL     1       6.886 -13.472   3.638  1.00  0.00    -0.200 F 
ATOM    101  F   UNL     1       5.628 -13.579   6.056  1.00  0.00    -0.200 F 
ENDBRANCH  68  91
ENDBRANCH  42  43
ENDBRANCH  35  37
ENDBRANCH  34  35
ENDBRANCH  33  34
ENDBRANCH   1  33
TORSDOF 17
