REMARK SMILES O=C(/C=C\c1ccc([N+](=O)[O-])cc1)OCCOC(=O)c1ccc(-c2c3nc(c(-c4c(F)c(F)c(F)c(F)c4F)c4ccc([nH]4)c(-c4c(F)c(F)c(F)c(F)c4F)c4nc(c(-c5c(F)c(F)c(F)c(F)c5F)c5ccc2[nH]5)C=C4)C=C3)cc1
REMARK SMILES IDX 15 1 14 2 2 3 1 4 3 5 4 6 5 7 6 8 13 9 7 10 12 11 8 12 9 13
REMARK SMILES IDX 10 14 11 15 16 16 17 17 18 18 19 19 20 20 21 21 82 22 22 23
REMARK SMILES IDX 81 24 23 25 24 26 25 27 75 28 26 29 80 30 74 31 76 32 27 33
REMARK SMILES IDX 79 34 73 35 72 36 28 38 60 39 40 40 59 41 41 42 44 43 58 44
REMARK SMILES IDX 77 45 42 46 43 47 57 49 78 50 45 51 29 52 30 53 38 54 31 55
REMARK SMILES IDX 32 56 36 57 39 58 33 59 34 60 37 61 35 62 61 63 62 64 70 65
REMARK SMILES IDX 63 66 64 67 68 68 71 69 65 70 66 71 69 72 67 73 46 74 47 75
REMARK SMILES IDX 55 76 48 77 49 78 53 79 56 80 50 81 51 82 54 83 52 84
REMARK H PARENT 76 37 44 48
REMARK Flexibility Score: inf
ROOT
ATOM      1  C   UNL     1       2.763   0.670  -1.524  1.00  0.00     0.275 C 
ENDROOT
BRANCH   1   2
ATOM      2  O   UNL     1       2.054  -0.067  -0.521  1.00  0.00    -0.459 OA
BRANCH   2   3
ATOM      3  C   UNL     1       2.617  -0.812   0.454  1.00  0.00     0.330 C 
ATOM      4  O   UNL     1       1.932  -1.649   1.043  1.00  0.00    -0.247 OA
BRANCH   3   5
ATOM      5  C   UNL     1       3.910  -0.445   1.076  1.00  0.00     0.094 C 
ATOM      6  C   UNL     1       5.226  -0.372   0.799  1.00  0.00     0.015 C 
BRANCH   6   7
ATOM      7  C   UNL     1       6.076  -0.602  -0.379  1.00  0.00    -0.025 A 
ATOM      8  C   UNL     1       7.088  -1.570  -0.321  1.00  0.00     0.015 A 
ATOM      9  C   UNL     1       6.059   0.240  -1.490  1.00  0.00     0.015 A 
ATOM     10  C   UNL     1       7.980  -1.752  -1.391  1.00  0.00     0.086 A 
ATOM     11  C   UNL     1       6.882   0.032  -2.599  1.00  0.00     0.086 A 
ATOM     12  C   UNL     1       7.841  -0.975  -2.547  1.00  0.00     0.269 A 
BRANCH  12  13
ATOM     13  N   UNL     1       8.720  -1.189  -3.700  1.00  0.00     0.062 N 
ATOM     14  O   UNL     1       9.709  -1.917  -3.543  1.00  0.00    -0.258 OA
ATOM     15  O   UNL     1       8.417  -0.628  -4.763  1.00  0.00    -0.258 OA
ENDBRANCH  12  13
ENDBRANCH   6   7
ENDBRANCH   3   5
ENDBRANCH   2   3
ENDBRANCH   1   2
BRANCH   1  16
ATOM     16  C   UNL     1       3.041   2.137  -1.168  1.00  0.00     0.275 C 
BRANCH  16  17
ATOM     17  O   UNL     1       3.022   2.363   0.239  1.00  0.00    -0.458 OA
BRANCH  17  18
ATOM     18  C   UNL     1       1.774   2.654   0.677  1.00  0.00     0.338 C 
ATOM     19  O   UNL     1       0.790   2.884  -0.002  1.00  0.00    -0.246 OA
BRANCH  18  20
ATOM     20  C   UNL     1       1.716   2.529   2.135  1.00  0.00     0.060 A 
ATOM     21  C   UNL     1       0.583   1.898   2.652  1.00  0.00     0.016 A 
ATOM     22  C   UNL     1       2.678   3.104   2.971  1.00  0.00     0.016 A 
ATOM     23  C   UNL     1       0.343   1.946   4.013  1.00  0.00     0.010 A 
ATOM     24  C   UNL     1       2.449   3.128   4.345  1.00  0.00     0.010 A 
ATOM     25  C   UNL     1       1.248   2.609   4.854  1.00  0.00    -0.014 A 
BRANCH  25  26
ATOM     26  C   UNL     1       0.814   2.895   6.234  1.00  0.00     0.031 A 
ATOM     27  C   UNL     1       0.317   4.273   6.562  1.00  0.00     0.074 A 
ATOM     28  C   UNL     1       0.752   1.888   7.120  1.00  0.00     0.049 A 
ATOM     29  N   UNL     1      -0.220   4.720   7.668  1.00  0.00    -0.248 NA
ATOM     30  C   UNL     1       0.433   5.289   5.501  1.00  0.00     0.031 C 
ATOM     31  C   UNL     1       1.181   0.514   6.857  1.00  0.00     0.029 A 
ATOM     32  N   UNL     1       0.279   1.857   8.402  1.00  0.00    -0.354 N 
ATOM     33  C   UNL     1      -0.517   6.056   7.428  1.00  0.00     0.074 A 
ATOM     34  C   UNL     1      -0.048   6.368   6.098  1.00  0.00     0.031 C 
ATOM     35  C   UNL     1       0.931  -0.235   7.943  1.00  0.00     0.029 A 
ATOM     36  C   UNL     1       0.357   0.616   8.981  1.00  0.00     0.049 A 
ATOM     37  H   UNL     1      -0.083   2.647   8.864  1.00  0.00     0.167 HD
ATOM     38  C   UNL     1      -1.149   6.932   8.243  1.00  0.00     0.037 A 
ATOM     39  C   UNL     1       0.006   0.224  10.219  1.00  0.00     0.037 A 
ATOM     40  C   UNL     1      -1.599   6.594   9.568  1.00  0.00     0.049 A 
ATOM     41  C   UNL     1      -0.628   1.241  11.130  1.00  0.00     0.074 A 
ATOM     42  C   UNL     1      -2.232   7.394  10.500  1.00  0.00     0.029 A 
ATOM     43  N   UNL     1      -1.452   5.340  10.148  1.00  0.00    -0.354 N 
ATOM     44  N   UNL     1      -0.923   2.498  10.893  1.00  0.00    -0.248 NA
ATOM     45  C   UNL     1      -0.990   0.783  12.476  1.00  0.00     0.031 C 
ATOM     46  C   UNL     1      -2.417   6.640  11.663  1.00  0.00     0.029 A 
ATOM     47  C   UNL     1      -1.962   5.350  11.435  1.00  0.00     0.049 A 
ATOM     48  H   UNL     1      -1.045   4.558   9.708  1.00  0.00     0.167 HD
ATOM     49  C   UNL     1      -1.529   2.974  12.047  1.00  0.00     0.074 A 
ATOM     50  C   UNL     1      -1.582   1.859  12.973  1.00  0.00     0.031 C 
ATOM     51  C   UNL     1      -1.998   4.217  12.325  1.00  0.00     0.037 A 
BRANCH  38  52
ATOM     52  C   UNL     1      -1.366   8.329   7.733  1.00  0.00     0.064 A 
ATOM     53  C   UNL     1      -2.257   8.604   6.683  1.00  0.00     0.173 A 
ATOM     54  C   UNL     1      -0.688   9.412   8.311  1.00  0.00     0.173 A 
ATOM     55  F   UNL     1      -2.920   7.604   6.080  1.00  0.00    -0.203 F 
ATOM     56  C   UNL     1      -2.438   9.903   6.214  1.00  0.00     0.198 A 
ATOM     57  C   UNL     1      -0.895  10.715   7.862  1.00  0.00     0.198 A 
ATOM     58  F   UNL     1       0.178   9.210   9.316  1.00  0.00    -0.203 F 
ATOM     59  F   UNL     1      -3.253  10.132   5.175  1.00  0.00    -0.200 F 
ATOM     60  C   UNL     1      -1.764  10.958   6.809  1.00  0.00     0.200 A 
ATOM     61  F   UNL     1      -0.250  11.734   8.445  1.00  0.00    -0.200 F 
ATOM     62  F   UNL     1      -1.943  12.209   6.361  1.00  0.00    -0.200 F 
ENDBRANCH  38  52
BRANCH  39  63
ATOM     63  C   UNL     1       0.253  -1.174  10.658  1.00  0.00     0.064 A 
ATOM     64  C   UNL     1      -0.801  -2.041  10.978  1.00  0.00     0.173 A 
ATOM     65  C   UNL     1       1.561  -1.669  10.784  1.00  0.00     0.173 A 
ATOM     66  F   UNL     1      -2.069  -1.615  10.887  1.00  0.00    -0.203 F 
ATOM     67  C   UNL     1      -0.556  -3.334  11.438  1.00  0.00     0.198 A 
ATOM     68  C   UNL     1       1.804  -2.973  11.209  1.00  0.00     0.198 A 
ATOM     69  F   UNL     1       2.608  -0.886  10.483  1.00  0.00    -0.203 F 
ATOM     70  F   UNL     1      -1.581  -4.120  11.796  1.00  0.00    -0.200 F 
ATOM     71  C   UNL     1       0.745  -3.800  11.549  1.00  0.00     0.200 A 
ATOM     72  F   UNL     1       3.062  -3.424  11.294  1.00  0.00    -0.200 F 
ATOM     73  F   UNL     1       0.980  -5.042  11.993  1.00  0.00    -0.200 F 
ENDBRANCH  39  63
BRANCH  51  74
ATOM     74  C   UNL     1      -2.636   4.414  13.669  1.00  0.00     0.064 A 
ATOM     75  C   UNL     1      -1.885   4.389  14.854  1.00  0.00     0.173 A 
ATOM     76  C   UNL     1      -4.015   4.653  13.769  1.00  0.00     0.173 A 
ATOM     77  F   UNL     1      -0.565   4.151  14.812  1.00  0.00    -0.203 F 
ATOM     78  C   UNL     1      -2.499   4.553  16.092  1.00  0.00     0.198 A 
ATOM     79  C   UNL     1      -4.619   4.858  15.005  1.00  0.00     0.198 A 
ATOM     80  F   UNL     1      -4.777   4.699  12.665  1.00  0.00    -0.203 F 
ATOM     81  F   UNL     1      -1.773   4.457  17.214  1.00  0.00    -0.200 F 
ATOM     82  C   UNL     1      -3.863   4.795  16.166  1.00  0.00     0.200 A 
ATOM     83  F   UNL     1      -5.933   5.112  15.074  1.00  0.00    -0.200 F 
ATOM     84  F   UNL     1      -4.451   4.958  17.359  1.00  0.00    -0.200 F 
ENDBRANCH  51  74
ENDBRANCH  25  26
ENDBRANCH  18  20
ENDBRANCH  17  18
ENDBRANCH  16  17
ENDBRANCH   1  16
TORSDOF 13
