REMARK SMILES CC[C@@H](NC(=O)NC1(CC(=O)OCCOC(=O)c2ccc(-c3c4nc(c(-c5c(F)c(F)c(F)c(F)c5F)c5ccc([nH]5)c(-c5c(F)c(F)c(F)c(F)c5F)c5nc(c(-c6c(F)c(F)c(F)c(F)c6F)c6ccc3[nH]6)C=C5)C=C4)cc2)CCC1)C(C)C
REMARK SMILES IDX 13 1 12 2 10 3 11 4 9 5 8 6 81 7 83 8 82 9 7 10 4 11 5 12
REMARK SMILES IDX 6 14 3 16 2 17 1 18 84 19 85 20 86 21 14 22 15 23 16 24
REMARK SMILES IDX 17 25 18 26 19 27 80 28 20 29 79 30 21 31 22 32 23 33 73 34
REMARK SMILES IDX 24 35 78 36 72 37 74 38 25 39 77 40 71 41 70 42 26 44 58 45
REMARK SMILES IDX 38 46 57 47 39 48 42 49 56 50 75 51 40 52 41 53 55 55 76 56
REMARK SMILES IDX 43 57 27 58 28 59 36 60 29 61 30 62 34 63 37 64 31 65 32 66
REMARK SMILES IDX 35 67 33 68 59 69 60 70 68 71 61 72 62 73 66 74 69 75 63 76
REMARK SMILES IDX 64 77 67 78 65 79 44 80 45 81 53 82 46 83 47 84 51 85 54 86
REMARK SMILES IDX 48 87 49 88 52 89 50 90
REMARK H PARENT 4 13 7 15 74 43 42 54
REMARK Flexibility Score: inf
ROOT
ATOM      1  C   UNL     1      -4.787  -5.565   0.726  1.00  0.00     0.274 C 
ENDROOT
BRANCH   1   2
ATOM      2  O   UNL     1      -3.348  -5.579   0.660  1.00  0.00    -0.462 OA
BRANCH   2   3
ATOM      3  C   UNL     1      -2.730  -4.563   0.015  1.00  0.00     0.308 C 
ATOM      4  O   UNL     1      -3.311  -3.631  -0.529  1.00  0.00    -0.252 OA
BRANCH   3   5
ATOM      5  C   UNL     1      -1.235  -4.751  -0.082  1.00  0.00     0.151 C 
BRANCH   5   6
ATOM      6  C   UNL     1      -0.486  -5.345   1.118  1.00  0.00     0.052 C 
ATOM      7  C   UNL     1       0.891  -6.071   0.823  1.00  0.00     0.029 C 
ATOM      8  C   UNL     1      -0.928  -6.814   1.578  1.00  0.00     0.029 C 
ATOM      9  C   UNL     1       0.123  -7.380   0.622  1.00  0.00     0.005 C 
BRANCH   6  10
ATOM     10  N   UNL     1      -0.496  -4.432   2.294  1.00  0.00    -0.332 N 
ATOM     11  N   UNL     1       0.572  -2.268   2.086  1.00  0.00    -0.335 N 
ATOM     12  C   UNL     1      -0.110  -3.222   2.703  1.00  0.00     0.315 C 
ATOM     13  H   UNL     1       0.544  -1.466   2.656  1.00  0.00     0.165 HD
ATOM     14  O   UNL     1      -0.451  -2.916   3.856  1.00  0.00    -0.249 OA
ATOM     15  H   UNL     1      -0.955  -4.883   3.039  1.00  0.00     0.165 HD
BRANCH  11  16
ATOM     16  C   UNL     1       1.356  -1.934   0.881  1.00  0.00     0.086 C 
BRANCH  16  17
ATOM     17  C   UNL     1       0.551  -1.027  -0.072  1.00  0.00     0.022 C 
ATOM     18  C   UNL     1       0.736   0.452   0.286  1.00  0.00     0.006 C 
ENDBRANCH  16  17
BRANCH  16  19
ATOM     19  C   UNL     1       2.083  -3.129   0.269  1.00  0.00     0.005 C 
ATOM     20  C   UNL     1       2.750  -2.898  -1.085  1.00  0.00     0.009 C 
ATOM     21  C   UNL     1       3.124  -3.668   1.261  1.00  0.00     0.009 C 
ENDBRANCH  16  19
ENDBRANCH  11  16
ENDBRANCH   6  10
ENDBRANCH   5   6
ENDBRANCH   3   5
ENDBRANCH   2   3
ENDBRANCH   1   2
BRANCH   1  22
ATOM     22  C   UNL     1      -5.261  -5.141   2.114  1.00  0.00     0.275 C 
BRANCH  22  23
ATOM     23  O   UNL     1      -4.952  -3.756   2.345  1.00  0.00    -0.458 OA
BRANCH  23  24
ATOM     24  C   UNL     1      -3.870  -3.534   3.128  1.00  0.00     0.338 C 
ATOM     25  O   UNL     1      -3.175  -4.367   3.680  1.00  0.00    -0.246 OA
BRANCH  24  26
ATOM     26  C   UNL     1      -3.621  -2.084   3.178  1.00  0.00     0.060 A 
ATOM     27  C   UNL     1      -2.873  -1.490   2.163  1.00  0.00     0.016 A 
ATOM     28  C   UNL     1      -4.036  -1.335   4.278  1.00  0.00     0.016 A 
ATOM     29  C   UNL     1      -2.473  -0.161   2.284  1.00  0.00     0.010 A 
ATOM     30  C   UNL     1      -3.682   0.018   4.364  1.00  0.00     0.010 A 
ATOM     31  C   UNL     1      -2.863   0.612   3.386  1.00  0.00    -0.014 A 
BRANCH  31  32
ATOM     32  C   UNL     1      -2.379   2.015   3.540  1.00  0.00     0.031 A 
ATOM     33  C   UNL     1      -1.549   2.409   4.735  1.00  0.00     0.074 A 
ATOM     34  C   UNL     1      -2.670   2.948   2.612  1.00  0.00     0.049 A 
ATOM     35  N   UNL     1      -1.174   3.602   5.130  1.00  0.00    -0.248 NA
ATOM     36  C   UNL     1      -1.085   1.318   5.605  1.00  0.00     0.031 C 
ATOM     37  C   UNL     1      -3.418   2.711   1.378  1.00  0.00     0.029 A 
ATOM     38  N   UNL     1      -2.371   4.289   2.567  1.00  0.00    -0.354 N 
ATOM     39  C   UNL     1      -0.479   3.410   6.318  1.00  0.00     0.074 A 
ATOM     40  C   UNL     1      -0.488   1.986   6.583  1.00  0.00     0.031 C 
ATOM     41  C   UNL     1      -3.505   3.859   0.689  1.00  0.00     0.029 A 
ATOM     42  C   UNL     1      -2.885   4.929   1.465  1.00  0.00     0.049 A 
ATOM     43  H   UNL     1      -1.841   4.747   3.258  1.00  0.00     0.167 HD
ATOM     44  C   UNL     1       0.112   4.335   7.114  1.00  0.00     0.037 A 
ATOM     45  C   UNL     1      -2.895   6.234   1.131  1.00  0.00     0.037 A 
ATOM     46  C   UNL     1       0.171   5.747   6.831  1.00  0.00     0.049 A 
ATOM     47  C   UNL     1      -2.268   7.245   2.049  1.00  0.00     0.074 A 
ATOM     48  C   UNL     1       0.777   6.751   7.567  1.00  0.00     0.029 A 
ATOM     49  N   UNL     1      -0.388   6.355   5.717  1.00  0.00    -0.354 N 
ATOM     50  N   UNL     1      -1.647   7.058   3.187  1.00  0.00    -0.248 NA
ATOM     51  C   UNL     1      -2.356   8.654   1.639  1.00  0.00     0.031 C 
ATOM     52  C   UNL     1       0.552   7.971   6.919  1.00  0.00     0.029 A 
ATOM     53  C   UNL     1      -0.154   7.722   5.755  1.00  0.00     0.049 A 
ATOM     54  H   UNL     1      -0.879   5.885   5.004  1.00  0.00     0.167 HD
ATOM     55  C   UNL     1      -1.254   8.317   3.618  1.00  0.00     0.074 A 
ATOM     56  C   UNL     1      -1.693   9.261   2.613  1.00  0.00     0.031 C 
ATOM     57  C   UNL     1      -0.588   8.657   4.749  1.00  0.00     0.037 A 
BRANCH  44  58
ATOM     58  C   UNL     1       0.728   3.854   8.397  1.00  0.00     0.064 A 
ATOM     59  C   UNL     1       1.923   3.121   8.419  1.00  0.00     0.173 A 
ATOM     60  C   UNL     1       0.132   4.176   9.628  1.00  0.00     0.173 A 
ATOM     61  F   UNL     1       2.528   2.783   7.271  1.00  0.00    -0.203 F 
ATOM     62  C   UNL     1       2.484   2.704   9.624  1.00  0.00     0.198 A 
ATOM     63  C   UNL     1       0.712   3.782  10.831  1.00  0.00     0.198 A 
ATOM     64  F   UNL     1      -1.005   4.886   9.664  1.00  0.00    -0.203 F 
ATOM     65  F   UNL     1       3.605   1.969   9.620  1.00  0.00    -0.200 F 
ATOM     66  C   UNL     1       1.883   3.040  10.828  1.00  0.00     0.200 A 
ATOM     67  F   UNL     1       0.138   4.122  11.993  1.00  0.00    -0.200 F 
ATOM     68  F   UNL     1       2.430   2.646  11.986  1.00  0.00    -0.200 F 
ENDBRANCH  44  58
BRANCH  45  69
ATOM     69  C   UNL     1      -3.549   6.662  -0.132  1.00  0.00     0.064 A 
ATOM     70  C   UNL     1      -2.789   7.130  -1.212  1.00  0.00     0.173 A 
ATOM     71  C   UNL     1      -4.942   6.604  -0.287  1.00  0.00     0.173 A 
ATOM     72  F   UNL     1      -1.456   7.230  -1.099  1.00  0.00    -0.203 F 
ATOM     73  C   UNL     1      -3.399   7.531  -2.398  1.00  0.00     0.198 A 
ATOM     74  C   UNL     1      -5.548   6.978  -1.483  1.00  0.00     0.198 A 
ATOM     75  F   UNL     1      -5.712   6.166   0.720  1.00  0.00    -0.203 F 
ATOM     76  F   UNL     1      -2.653   8.011  -3.403  1.00  0.00    -0.200 F 
ATOM     77  C   UNL     1      -4.777   7.447  -2.536  1.00  0.00     0.200 A 
ATOM     78  F   UNL     1      -6.878   6.883  -1.617  1.00  0.00    -0.200 F 
ATOM     79  F   UNL     1      -5.361   7.823  -3.681  1.00  0.00    -0.200 F 
ENDBRANCH  45  69
BRANCH  57  80
ATOM     80  C   UNL     1      -0.258  10.108   4.942  1.00  0.00     0.064 A 
ATOM     81  C   UNL     1      -1.242  11.051   5.273  1.00  0.00     0.173 A 
ATOM     82  C   UNL     1       1.066  10.558   4.814  1.00  0.00     0.173 A 
ATOM     83  F   UNL     1      -2.524  10.675   5.388  1.00  0.00    -0.203 F 
ATOM     84  C   UNL     1      -0.918  12.395   5.443  1.00  0.00     0.198 A 
ATOM     85  C   UNL     1       1.391  11.897   5.011  1.00  0.00     0.198 A 
ATOM     86  F   UNL     1       2.046   9.696   4.503  1.00  0.00    -0.203 F 
ATOM     87  F   UNL     1      -1.882  13.286   5.711  1.00  0.00    -0.200 F 
ATOM     88  C   UNL     1       0.398  12.816   5.318  1.00  0.00     0.200 A 
ATOM     89  F   UNL     1       2.664  12.300   4.899  1.00  0.00    -0.200 F 
ATOM     90  F   UNL     1       0.708  14.109   5.483  1.00  0.00    -0.200 F 
ENDBRANCH  57  80
ENDBRANCH  31  32
ENDBRANCH  24  26
ENDBRANCH  23  24
ENDBRANCH  22  23
ENDBRANCH   1  22
TORSDOF 16
