REMARK SMILES C[C@@H](C(=O)OCCOC(=O)c1ccc(-c2c3nc(c(-c4c(F)c(F)c(F)c(F)c4F)c4ccc([nH]4)c(-c4c(F)c(F)c(F)c(F)c4F)c4nc(c(-c5c(F)c(F)c(F)c(F)c5F)c5ccc2[nH]5)C=C4)C=C3)cc1)c1ccc(-c2cccc(OC(=O)NC3CC3)c2)c(F)c1
REMARK SMILES IDX 5 1 3 2 4 3 2 4 1 5 74 6 75 7 93 8 76 9 91 10 77 11 92 12
REMARK SMILES IDX 78 13 79 14 90 15 80 16 82 17 81 18 83 19 84 20 85 21 86 22
REMARK SMILES IDX 87 24 88 25 89 26 6 27 7 28 8 29 9 30 10 31 11 32 12 33
REMARK SMILES IDX 73 34 13 35 72 36 14 37 15 38 16 39 66 40 17 41 71 42 65 43
REMARK SMILES IDX 67 44 18 45 70 46 64 47 63 48 19 50 51 51 31 52 50 53 32 54
REMARK SMILES IDX 35 55 49 56 68 57 33 58 34 59 48 61 69 62 36 63 20 64 21 65
REMARK SMILES IDX 29 66 22 67 23 68 27 69 30 70 24 71 25 72 28 73 26 74 52 75
REMARK SMILES IDX 53 76 61 77 54 78 55 79 59 80 62 81 56 82 57 83 60 84 58 85
REMARK SMILES IDX 37 86 38 87 46 88 39 89 40 90 44 91 47 92 41 93 42 94 45 95
REMARK SMILES IDX 43 96
REMARK H PARENT 86 23 67 49 35 60
REMARK Flexibility Score: inf
ROOT
ATOM      1  O   UNL     1       2.226  -0.721   2.288  1.00  0.00    -0.462 OA
ENDROOT
BRANCH   1   2
ATOM      2  C   UNL     1       1.140  -1.423   1.867  1.00  0.00     0.313 C 
ATOM      3  O   UNL     1       0.488  -2.159   2.597  1.00  0.00    -0.252 OA
BRANCH   2   4
ATOM      4  C   UNL     1       0.865  -1.241   0.362  1.00  0.00     0.126 C 
ATOM      5  C   UNL     1       1.339   0.108  -0.178  1.00  0.00     0.025 C 
BRANCH   4   6
ATOM      6  C   UNL     1      -0.612  -1.522   0.113  1.00  0.00    -0.031 A 
ATOM      7  C   UNL     1      -1.587  -0.518   0.132  1.00  0.00     0.005 A 
ATOM      8  C   UNL     1      -1.023  -2.865   0.094  1.00  0.00     0.044 A 
ATOM      9  C   UNL     1      -2.934  -0.862   0.275  1.00  0.00     0.012 A 
ATOM     10  C   UNL     1      -2.357  -3.193   0.265  1.00  0.00     0.131 A 
ATOM     11  C   UNL     1      -3.323  -2.207   0.438  1.00  0.00     0.018 A 
ATOM     12  F   UNL     1      -2.695  -4.490   0.327  1.00  0.00    -0.206 F 
BRANCH  11  13
ATOM     13  C   UNL     1      -4.689  -2.570   0.826  1.00  0.00    -0.012 A 
ATOM     14  C   UNL     1      -5.747  -2.003   0.093  1.00  0.00     0.009 A 
ATOM     15  C   UNL     1      -4.952  -3.422   1.956  1.00  0.00     0.056 A 
ATOM     16  C   UNL     1      -7.043  -2.294   0.434  1.00  0.00     0.004 A 
ATOM     17  C   UNL     1      -6.262  -3.704   2.303  1.00  0.00     0.133 A 
ATOM     18  C   UNL     1      -7.275  -3.138   1.518  1.00  0.00     0.047 A 
BRANCH  17  19
ATOM     19  O   UNL     1      -6.644  -4.281   3.687  1.00  0.00    -0.410 OA
BRANCH  19  20
ATOM     20  C   UNL     1      -6.413  -5.118   4.909  1.00  0.00     0.412 C 
ATOM     21  O   UNL     1      -5.629  -6.063   4.838  1.00  0.00    -0.224 OA
ATOM     22  N   UNL     1      -7.133  -4.909   6.151  1.00  0.00    -0.318 N 
ATOM     23  H   UNL     1      -7.362  -5.764   6.580  1.00  0.00     0.167 HD
BRANCH  22  24
ATOM     24  C   UNL     1      -7.623  -3.741   6.961  1.00  0.00     0.085 C 
ATOM     25  C   UNL     1      -8.973  -3.015   6.985  1.00  0.00     0.027 C 
ATOM     26  C   UNL     1      -8.623  -3.942   8.094  1.00  0.00     0.027 C 
ENDBRANCH  22  24
ENDBRANCH  19  20
ENDBRANCH  17  19
ENDBRANCH  11  13
ENDBRANCH   4   6
ENDBRANCH   2   4
ENDBRANCH   1   2
BRANCH   1  27
ATOM     27  C   UNL     1       2.521  -0.853   3.691  1.00  0.00     0.274 C 
BRANCH  27  28
ATOM     28  C   UNL     1       1.898   0.286   4.497  1.00  0.00     0.275 C 
BRANCH  28  29
ATOM     29  O   UNL     1       0.453   0.213   4.522  1.00  0.00    -0.458 OA
BRANCH  29  30
ATOM     30  C   UNL     1      -0.209   1.189   3.870  1.00  0.00     0.338 C 
ATOM     31  O   UNL     1       0.298   2.108   3.209  1.00  0.00    -0.246 OA
BRANCH  30  32
ATOM     32  C   UNL     1      -1.671   1.083   4.036  1.00  0.00     0.060 A 
ATOM     33  C   UNL     1      -2.350  -0.016   3.525  1.00  0.00     0.016 A 
ATOM     34  C   UNL     1      -2.409   2.159   4.548  1.00  0.00     0.016 A 
ATOM     35  C   UNL     1      -3.752   0.015   3.442  1.00  0.00     0.010 A 
ATOM     36  C   UNL     1      -3.822   2.145   4.526  1.00  0.00     0.010 A 
ATOM     37  C   UNL     1      -4.528   1.090   3.925  1.00  0.00    -0.014 A 
BRANCH  37  38
ATOM     38  C   UNL     1      -6.039   1.080   3.721  1.00  0.00     0.031 A 
ATOM     39  C   UNL     1      -6.722   2.166   2.975  1.00  0.00     0.074 A 
ATOM     40  C   UNL     1      -6.808   0.036   4.115  1.00  0.00     0.049 A 
ATOM     41  N   UNL     1      -8.007   2.307   2.794  1.00  0.00    -0.248 NA
ATOM     42  C   UNL     1      -5.905   3.244   2.407  1.00  0.00     0.031 C 
ATOM     43  C   UNL     1      -6.213  -1.004   4.887  1.00  0.00     0.029 A 
ATOM     44  N   UNL     1      -8.116  -0.428   3.901  1.00  0.00    -0.354 N 
ATOM     45  C   UNL     1      -8.167   3.546   2.212  1.00  0.00     0.074 A 
ATOM     46  C   UNL     1      -6.841   4.085   1.987  1.00  0.00     0.031 C 
ATOM     47  C   UNL     1      -7.027  -2.051   4.821  1.00  0.00     0.029 A 
ATOM     48  C   UNL     1      -8.302  -1.808   4.176  1.00  0.00     0.049 A 
ATOM     49  H   UNL     1      -8.843   0.156   3.587  1.00  0.00     0.167 HD
ATOM     50  C   UNL     1      -9.338   4.178   1.976  1.00  0.00     0.037 A 
ATOM     51  C   UNL     1      -9.345  -2.680   3.860  1.00  0.00     0.037 A 
ATOM     52  C   UNL     1     -10.628   3.578   2.207  1.00  0.00     0.049 A 
ATOM     53  C   UNL     1     -10.587  -1.921   3.483  1.00  0.00     0.074 A 
ATOM     54  C   UNL     1     -11.881   4.159   2.155  1.00  0.00     0.029 A 
ATOM     55  N   UNL     1     -10.825   2.235   2.503  1.00  0.00    -0.354 N 
ATOM     56  N   UNL     1     -10.720  -0.681   3.092  1.00  0.00    -0.248 NA
ATOM     57  C   UNL     1     -11.843  -2.677   3.583  1.00  0.00     0.031 C 
ATOM     58  C   UNL     1     -12.835   3.171   2.426  1.00  0.00     0.029 A 
ATOM     59  C   UNL     1     -12.180   1.965   2.601  1.00  0.00     0.049 A 
ATOM     60  H   UNL     1     -10.107   1.572   2.626  1.00  0.00     0.167 HD
ATOM     61  C   UNL     1     -12.078  -0.488   2.974  1.00  0.00     0.074 A 
ATOM     62  C   UNL     1     -12.714  -1.776   3.167  1.00  0.00     0.031 C 
ATOM     63  C   UNL     1     -12.755   0.669   2.816  1.00  0.00     0.037 A 
BRANCH  50  64
ATOM     64  C   UNL     1      -9.254   5.613   1.577  1.00  0.00     0.064 A 
ATOM     65  C   UNL     1      -8.830   6.013   0.305  1.00  0.00     0.173 A 
ATOM     66  C   UNL     1      -9.574   6.610   2.513  1.00  0.00     0.173 A 
ATOM     67  F   UNL     1      -8.476   5.096  -0.608  1.00  0.00    -0.203 F 
ATOM     68  C   UNL     1      -8.709   7.363  -0.012  1.00  0.00     0.198 A 
ATOM     69  C   UNL     1      -9.479   7.957   2.184  1.00  0.00     0.198 A 
ATOM     70  F   UNL     1      -9.969   6.275   3.751  1.00  0.00    -0.203 F 
ATOM     71  F   UNL     1      -8.246   7.727  -1.216  1.00  0.00    -0.200 F 
ATOM     72  C   UNL     1      -9.039   8.333   0.925  1.00  0.00     0.200 A 
ATOM     73  F   UNL     1      -9.799   8.890   3.091  1.00  0.00    -0.200 F 
ATOM     74  F   UNL     1      -8.916   9.632   0.618  1.00  0.00    -0.200 F 
ENDBRANCH  50  64
BRANCH  51  75
ATOM     75  C   UNL     1      -9.523  -4.284   3.680  1.00  0.00     0.064 A 
ATOM     76  C   UNL     1      -9.890  -4.772   2.387  1.00  0.00     0.173 A 
ATOM     77  C   UNL     1      -9.559  -5.338   4.616  1.00  0.00     0.173 A 
ATOM     78  F   UNL     1     -10.214  -3.901   1.417  1.00  0.00    -0.203 F 
ATOM     79  C   UNL     1     -10.026  -6.135   2.047  1.00  0.00     0.198 A 
ATOM     80  C   UNL     1      -9.633  -6.709   4.287  1.00  0.00     0.198 A 
ATOM     81  F   UNL     1      -9.708  -5.135   5.918  1.00  0.00    -0.203 F 
ATOM     82  F   UNL     1     -10.390  -6.480   0.804  1.00  0.00    -0.200 F 
ATOM     83  C   UNL     1      -9.845  -7.112   2.994  1.00  0.00     0.200 A 
ATOM     84  F   UNL     1      -9.585  -7.624   5.268  1.00  0.00    -0.200 F 
ATOM     85  F   UNL     1      -9.995  -8.410   2.696  1.00  0.00    -0.200 F 
ENDBRANCH  51  75
BRANCH  63  86
ATOM     86  C   UNL     1     -14.237   0.544   2.913  1.00  0.00     0.064 A 
ATOM     87  C   UNL     1     -14.858   0.328   4.154  1.00  0.00     0.173 A 
ATOM     88  C   UNL     1     -15.027   0.572   1.761  1.00  0.00     0.173 A 
ATOM     89  F   UNL     1     -14.123   0.241   5.274  1.00  0.00    -0.203 F 
ATOM     90  C   UNL     1     -16.230   0.126   4.232  1.00  0.00     0.198 A 
ATOM     91  C   UNL     1     -16.402   0.392   1.847  1.00  0.00     0.198 A 
ATOM     92  F   UNL     1     -14.461   0.742   0.557  1.00  0.00    -0.203 F 
ATOM     93  F   UNL     1     -16.800  -0.138   5.415  1.00  0.00    -0.200 F 
ATOM     94  C   UNL     1     -17.000   0.165   3.079  1.00  0.00     0.200 A 
ATOM     95  F   UNL     1     -17.147   0.417   0.734  1.00  0.00    -0.200 F 
ATOM     96  F   UNL     1     -18.323  -0.038   3.154  1.00  0.00    -0.200 F 
ENDBRANCH  63  86
ENDBRANCH  37  38
ENDBRANCH  30  32
ENDBRANCH  29  30
ENDBRANCH  28  29
ENDBRANCH  27  28
ENDBRANCH   1  27
TORSDOF 16
