REMARK SMILES CCC1(C(=O)NCCc2ccc(C(=O)OCCOC(=O)c3ccc(-c4c5nc(c(-c6c(F)c(F)c(F)c(F)c6F)c6ccc([nH]6)c(-c6c(F)c(F)c(F)c(F)c6F)c6nc(c(-c7c(F)c(F)c(F)c(F)c7F)c7ccc4[nH]7)C=C6)C=C5)cc3)cc2)CCCC1
REMARK SMILES IDX 15 1 13 2 14 3 12 4 9 5 10 6 85 7 11 8 84 9 8 10 7 11 6 12
REMARK SMILES IDX 4 13 5 14 3 16 86 17 89 18 87 19 88 20 2 21 1 22 16 23 17 24
REMARK SMILES IDX 18 25 19 26 20 27 21 28 22 29 83 30 23 31 82 32 24 33 25 34
REMARK SMILES IDX 26 35 76 36 27 37 81 38 75 39 77 40 28 41 80 42 74 43 73 44
REMARK SMILES IDX 29 46 61 47 41 48 60 49 42 50 45 51 59 52 78 53 43 54 44 55
REMARK SMILES IDX 58 57 79 58 46 59 30 60 31 61 39 62 32 63 33 64 37 65 40 66
REMARK SMILES IDX 34 67 35 68 38 69 36 70 62 71 63 72 71 73 64 74 65 75 69 76
REMARK SMILES IDX 72 77 66 78 67 79 70 80 68 81 47 82 48 83 56 84 49 85 50 86
REMARK SMILES IDX 54 87 57 88 51 89 52 90 55 91 53 92
REMARK H PARENT 6 15 77 45 45 56
REMARK Flexibility Score: inf
ROOT
ATOM      1  O   UNL     1       0.070  -1.848  10.883  1.00  0.00    -0.458 OA
ENDROOT
BRANCH   1   2
ATOM      2  C   UNL     1      -0.166  -1.121   9.765  1.00  0.00     0.338 C 
ATOM      3  O   UNL     1      -0.844  -0.106   9.688  1.00  0.00    -0.246 OA
BRANCH   2   4
ATOM      4  C   UNL     1       0.579  -1.669   8.610  1.00  0.00     0.060 A 
ATOM      5  C   UNL     1       1.812  -2.626   6.288  1.00  0.00    -0.046 A 
ATOM      6  C   UNL     1       1.603  -1.256   6.449  1.00  0.00     0.004 A 
ATOM      7  C   UNL     1       1.450  -3.510   7.317  1.00  0.00     0.004 A 
ATOM      8  C   UNL     1       0.961  -0.788   7.589  1.00  0.00     0.016 A 
ATOM      9  C   UNL     1       0.844  -3.034   8.481  1.00  0.00     0.016 A 
BRANCH   5  10
ATOM     10  C   UNL     1       2.261  -3.155   4.950  1.00  0.00     0.056 C 
BRANCH  10  11
ATOM     11  C   UNL     1       1.036  -3.485   4.088  1.00  0.00     0.120 C 
BRANCH  11  12
ATOM     12  N   UNL     1       0.392  -2.305   3.537  1.00  0.00    -0.355 N 
ATOM     13  C   UNL     1       0.271  -1.805   2.282  1.00  0.00     0.226 C 
ATOM     14  O   UNL     1      -0.522  -0.862   2.181  1.00  0.00    -0.274 OA
ATOM     15  H   UNL     1      -0.051  -1.751   4.219  1.00  0.00     0.163 HD
BRANCH  13  16
ATOM     16  C   UNL     1       1.038  -2.356   1.049  1.00  0.00     0.049 C 
ATOM     17  C   UNL     1       0.668  -3.832   0.784  1.00  0.00     0.017 C 
ATOM     18  C   UNL     1       2.569  -2.330   1.214  1.00  0.00     0.017 C 
ATOM     19  C   UNL     1       1.948  -4.661   0.869  1.00  0.00     0.001 C 
ATOM     20  C   UNL     1       3.048  -3.760   1.401  1.00  0.00     0.001 C 
BRANCH  16  21
ATOM     21  C   UNL     1       0.630  -1.518  -0.209  1.00  0.00     0.013 C 
ATOM     22  C   UNL     1       1.097  -0.062  -0.229  1.00  0.00     0.005 C 
ENDBRANCH  16  21
ENDBRANCH  13  16
ENDBRANCH  11  12
ENDBRANCH  10  11
ENDBRANCH   5  10
ENDBRANCH   2   4
ENDBRANCH   1   2
BRANCH   1  23
ATOM     23  C   UNL     1      -0.507  -1.324  12.094  1.00  0.00     0.275 C 
BRANCH  23  24
ATOM     24  C   UNL     1       0.521  -0.518  12.888  1.00  0.00     0.275 C 
BRANCH  24  25
ATOM     25  O   UNL     1       0.870   0.697  12.198  1.00  0.00    -0.458 OA
BRANCH  25  26
ATOM     26  C   UNL     1       2.085   0.696  11.606  1.00  0.00     0.338 C 
ATOM     27  O   UNL     1       2.915  -0.197  11.605  1.00  0.00    -0.246 OA
BRANCH  26  28
ATOM     28  C   UNL     1       2.303   1.965  10.898  1.00  0.00     0.060 A 
ATOM     29  C   UNL     1       1.712   2.155   9.652  1.00  0.00     0.016 A 
ATOM     30  C   UNL     1       3.224   2.889  11.382  1.00  0.00     0.016 A 
ATOM     31  C   UNL     1       2.117   3.206   8.833  1.00  0.00     0.010 A 
ATOM     32  C   UNL     1       3.546   4.007  10.605  1.00  0.00     0.010 A 
ATOM     33  C   UNL     1       3.027   4.160   9.303  1.00  0.00    -0.014 A 
BRANCH  33  34
ATOM     34  C   UNL     1       3.474   5.298   8.449  1.00  0.00     0.031 A 
ATOM     35  C   UNL     1       4.945   5.518   8.209  1.00  0.00     0.074 A 
ATOM     36  C   UNL     1       2.585   6.156   7.910  1.00  0.00     0.049 A 
ATOM     37  N   UNL     1       5.569   6.585   7.778  1.00  0.00    -0.248 NA
ATOM     38  C   UNL     1       5.835   4.386   8.514  1.00  0.00     0.031 C 
ATOM     39  C   UNL     1       1.129   6.036   7.988  1.00  0.00     0.029 A 
ATOM     40  N   UNL     1       2.781   7.316   7.198  1.00  0.00    -0.354 N 
ATOM     41  C   UNL     1       6.924   6.280   7.835  1.00  0.00     0.074 A 
ATOM     42  C   UNL     1       7.032   4.925   8.329  1.00  0.00     0.031 C 
ATOM     43  C   UNL     1       0.565   7.065   7.338  1.00  0.00     0.029 A 
ATOM     44  C   UNL     1       1.614   7.974   6.893  1.00  0.00     0.049 A 
ATOM     45  H   UNL     1       3.671   7.644   6.934  1.00  0.00     0.167 HD
ATOM     46  C   UNL     1       7.977   7.070   7.513  1.00  0.00     0.037 A 
ATOM     47  C   UNL     1       1.405   9.199   6.375  1.00  0.00     0.037 A 
ATOM     48  C   UNL     1       7.854   8.394   6.959  1.00  0.00     0.049 A 
ATOM     49  C   UNL     1       2.585  10.073   6.058  1.00  0.00     0.074 A 
ATOM     50  C   UNL     1       8.857   9.275   6.592  1.00  0.00     0.029 A 
ATOM     51  N   UNL     1       6.649   9.018   6.671  1.00  0.00    -0.354 N 
ATOM     52  N   UNL     1       3.863   9.818   6.196  1.00  0.00    -0.248 NA
ATOM     53  C   UNL     1       2.294  11.416   5.535  1.00  0.00     0.031 C 
ATOM     54  C   UNL     1       8.259  10.445   6.112  1.00  0.00     0.029 A 
ATOM     55  C   UNL     1       6.884  10.274   6.135  1.00  0.00     0.049 A 
ATOM     56  H   UNL     1       5.759   8.627   6.824  1.00  0.00     0.167 HD
ATOM     57  C   UNL     1       4.528  10.953   5.756  1.00  0.00     0.074 A 
ATOM     58  C   UNL     1       3.513  11.898   5.339  1.00  0.00     0.031 C 
ATOM     59  C   UNL     1       5.861  11.191   5.703  1.00  0.00     0.037 A 
BRANCH  46  60
ATOM     60  C   UNL     1       9.357   6.545   7.790  1.00  0.00     0.064 A 
ATOM     61  C   UNL     1       9.935   5.523   7.025  1.00  0.00     0.173 A 
ATOM     62  C   UNL     1      10.128   7.110   8.819  1.00  0.00     0.173 A 
ATOM     63  F   UNL     1       9.238   4.941   6.039  1.00  0.00    -0.203 F 
ATOM     64  C   UNL     1      11.225   5.068   7.296  1.00  0.00     0.198 A 
ATOM     65  C   UNL     1      11.427   6.674   9.068  1.00  0.00     0.198 A 
ATOM     66  F   UNL     1       9.626   8.097   9.577  1.00  0.00    -0.203 F 
ATOM     67  F   UNL     1      11.741   4.059   6.581  1.00  0.00    -0.200 F 
ATOM     68  C   UNL     1      11.971   5.649   8.311  1.00  0.00     0.200 A 
ATOM     69  F   UNL     1      12.150   7.246  10.040  1.00  0.00    -0.200 F 
ATOM     70  F   UNL     1      13.214   5.215   8.563  1.00  0.00    -0.200 F 
ENDBRANCH  46  60
BRANCH  47  71
ATOM     71  C   UNL     1       0.014   9.689   6.179  1.00  0.00     0.064 A 
ATOM     72  C   UNL     1      -0.508   9.879   4.893  1.00  0.00     0.173 A 
ATOM     73  C   UNL     1      -0.824   9.963   7.271  1.00  0.00     0.173 A 
ATOM     74  F   UNL     1       0.263   9.658   3.818  1.00  0.00    -0.203 F 
ATOM     75  C   UNL     1      -1.813  10.329   4.706  1.00  0.00     0.198 A 
ATOM     76  C   UNL     1      -2.139  10.383   7.083  1.00  0.00     0.198 A 
ATOM     77  F   UNL     1      -0.372   9.801   8.523  1.00  0.00    -0.203 F 
ATOM     78  F   UNL     1      -2.276  10.541   3.466  1.00  0.00    -0.200 F 
ATOM     79  C   UNL     1      -2.631  10.571   5.801  1.00  0.00     0.200 A 
ATOM     80  F   UNL     1      -2.928  10.601   8.143  1.00  0.00    -0.200 F 
ATOM     81  F   UNL     1      -3.889  10.993   5.620  1.00  0.00    -0.200 F 
ENDBRANCH  47  71
BRANCH  59  82
ATOM     82  C   UNL     1       6.303  12.498   5.117  1.00  0.00     0.064 A 
ATOM     83  C   UNL     1       6.186  13.701   5.825  1.00  0.00     0.173 A 
ATOM     84  C   UNL     1       6.897  12.534   3.846  1.00  0.00     0.173 A 
ATOM     85  F   UNL     1       5.610  13.719   7.037  1.00  0.00    -0.203 F 
ATOM     86  C   UNL     1       6.634  14.899   5.275  1.00  0.00     0.198 A 
ATOM     87  C   UNL     1       7.367  13.729   3.310  1.00  0.00     0.198 A 
ATOM     88  F   UNL     1       7.035  11.406   3.132  1.00  0.00    -0.203 F 
ATOM     89  F   UNL     1       6.480  16.045   5.952  1.00  0.00    -0.200 F 
ATOM     90  C   UNL     1       7.231  14.911   4.022  1.00  0.00     0.200 A 
ATOM     91  F   UNL     1       7.952  13.736   2.104  1.00  0.00    -0.200 F 
ATOM     92  F   UNL     1       7.670  16.063   3.498  1.00  0.00    -0.200 F 
ENDBRANCH  59  82
ENDBRANCH  33  34
ENDBRANCH  26  28
ENDBRANCH  25  26
ENDBRANCH  24  25
ENDBRANCH  23  24
ENDBRANCH   1  23
TORSDOF 16
