REMARK SMILES CCc1ccc(Nc2nc(OCC(=O)OCCOC(=O)c3ccc(-c4c5nc(c(-c6c(F)c(F)c(F)c(F)c6F)c6ccc([nH]6)c(-c6c(F)c(F)c(F)c(F)c6F)c6nc(c(-c7c(F)c(F)c(F)c(F)c7F)c7ccc4[nH]7)C=C6)C=C5)cc3)cc(-c3cccnc3)n2)cc1
REMARK SMILES IDX 15 1 13 2 14 3 12 4 11 5 10 6 8 7 9 8 92 9 85 10 84 11 7 12
REMARK SMILES IDX 6 14 3 15 4 16 94 17 5 18 93 19 2 20 1 21 86 22 87 23 91 24
REMARK SMILES IDX 88 25 90 26 89 27 16 28 17 29 18 30 19 31 20 32 21 33 22 34
REMARK SMILES IDX 83 35 23 36 82 37 24 38 25 39 26 40 76 41 27 42 81 43 75 44
REMARK SMILES IDX 77 45 28 46 80 47 74 48 73 49 29 51 61 52 41 53 60 54 42 55
REMARK SMILES IDX 45 56 59 57 78 58 43 59 44 60 58 62 79 63 46 64 30 65 31 66
REMARK SMILES IDX 39 67 32 68 33 69 37 70 40 71 34 72 35 73 38 74 36 75 62 76
REMARK SMILES IDX 63 77 71 78 64 79 65 80 69 81 72 82 66 83 67 84 70 85 68 86
REMARK SMILES IDX 47 87 48 88 56 89 49 90 50 91 54 92 57 93 51 94 52 95 55 96
REMARK SMILES IDX 53 97
REMARK H PARENT 7 13 77 50 45 61
REMARK Flexibility Score: inf
ROOT
ATOM      1  O   UNL     1      -0.117  -3.159   9.975  1.00  0.00    -0.460 OA
ENDROOT
BRANCH   1   2
ATOM      2  C   UNL     1       0.322  -2.595  11.132  1.00  0.00     0.344 C 
ATOM      3  O   UNL     1       0.447  -3.195  12.195  1.00  0.00    -0.248 OA
BRANCH   2   4
ATOM      4  C   UNL     1       0.691  -1.121  10.995  1.00  0.00     0.353 C 
BRANCH   4   5
ATOM      5  O   UNL     1       0.363  -0.455   9.797  1.00  0.00    -0.466 OA
BRANCH   5   6
ATOM      6  C   UNL     1       1.313  -0.273   8.839  1.00  0.00     0.219 A 
ATOM      7  C   UNL     1       1.671   0.751   6.826  1.00  0.00     0.231 A 
ATOM      8  N   UNL     1       0.913   0.615   7.916  1.00  0.00    -0.177 NA
ATOM      9  N   UNL     1       2.854   0.152   6.663  1.00  0.00    -0.212 NA
ATOM     10  C   UNL     1       3.250  -0.714   7.602  1.00  0.00     0.081 A 
ATOM     11  C   UNL     1       2.497  -0.966   8.731  1.00  0.00     0.097 A 
BRANCH   7  12
ATOM     12  N   UNL     1       1.101   1.416   5.745  1.00  0.00    -0.324 N 
ATOM     13  H   UNL     1       0.771   2.331   5.900  1.00  0.00     0.170 HD
BRANCH  12  14
ATOM     14  C   UNL     1       0.957   0.889   4.448  1.00  0.00     0.041 A 
ATOM     15  C   UNL     1       0.583  -0.152   1.842  1.00  0.00    -0.048 A 
ATOM     16  C   UNL     1       0.991  -0.984   2.886  1.00  0.00     0.006 A 
ATOM     17  C   UNL     1       0.376   1.208   2.111  1.00  0.00     0.006 A 
ATOM     18  C   UNL     1       1.184  -0.466   4.165  1.00  0.00     0.026 A 
ATOM     19  C   UNL     1       0.568   1.723   3.399  1.00  0.00     0.026 A 
BRANCH  15  20
ATOM     20  C   UNL     1       0.321  -0.746   0.481  1.00  0.00     0.032 C 
ATOM     21  C   UNL     1       1.051  -0.035  -0.648  1.00  0.00     0.009 C 
ENDBRANCH  15  20
ENDBRANCH  12  14
ENDBRANCH   7  12
BRANCH  10  22
ATOM     22  C   UNL     1       4.454  -1.458   7.245  1.00  0.00     0.019 A 
ATOM     23  C   UNL     1       4.378  -2.727   6.660  1.00  0.00     0.013 A 
ATOM     24  C   UNL     1       5.728  -0.919   7.380  1.00  0.00     0.121 A 
ATOM     25  C   UNL     1       5.534  -3.420   6.312  1.00  0.00     0.021 A 
ATOM     26  N   UNL     1       6.879  -1.568   7.060  1.00  0.00    -0.264 NA
ATOM     27  C   UNL     1       6.752  -2.807   6.537  1.00  0.00     0.111 A 
ENDBRANCH  10  22
ENDBRANCH   5   6
ENDBRANCH   4   5
ENDBRANCH   2   4
ENDBRANCH   1   2
BRANCH   1  28
ATOM     28  C   UNL     1      -0.544  -4.534  10.081  1.00  0.00     0.274 C 
BRANCH  28  29
ATOM     29  C   UNL     1       0.542  -5.519   9.648  1.00  0.00     0.275 C 
BRANCH  29  30
ATOM     30  O   UNL     1       1.784  -5.267  10.334  1.00  0.00    -0.458 OA
BRANCH  30  31
ATOM     31  C   UNL     1       2.696  -4.624   9.582  1.00  0.00     0.338 C 
ATOM     32  O   UNL     1       2.558  -4.279   8.410  1.00  0.00    -0.246 OA
BRANCH  31  33
ATOM     33  C   UNL     1       3.926  -4.317  10.321  1.00  0.00     0.060 A 
ATOM     34  C   UNL     1       3.901  -3.456  11.422  1.00  0.00     0.016 A 
ATOM     35  C   UNL     1       5.146  -4.742   9.788  1.00  0.00     0.016 A 
ATOM     36  C   UNL     1       5.099  -2.983  11.960  1.00  0.00     0.010 A 
ATOM     37  C   UNL     1       6.343  -4.314  10.364  1.00  0.00     0.010 A 
ATOM     38  C   UNL     1       6.330  -3.419  11.445  1.00  0.00    -0.014 A 
BRANCH  38  39
ATOM     39  C   UNL     1       7.607  -3.014  12.083  1.00  0.00     0.031 A 
ATOM     40  C   UNL     1       8.577  -2.102  11.391  1.00  0.00     0.074 A 
ATOM     41  C   UNL     1       7.919  -3.539  13.281  1.00  0.00     0.049 A 
ATOM     42  N   UNL     1       9.800  -1.775  11.727  1.00  0.00    -0.248 NA
ATOM     43  C   UNL     1       8.111  -1.477  10.151  1.00  0.00     0.031 C 
ATOM     44  C   UNL     1       7.064  -4.441  14.052  1.00  0.00     0.029 A 
ATOM     45  N   UNL     1       9.051  -3.412  14.042  1.00  0.00    -0.354 N 
ATOM     46  C   UNL     1      10.256  -0.930  10.722  1.00  0.00     0.074 A 
ATOM     47  C   UNL     1       9.181  -0.795   9.763  1.00  0.00     0.031 C 
ATOM     48  C   UNL     1       7.709  -4.804  15.170  1.00  0.00     0.029 A 
ATOM     49  C   UNL     1       9.037  -4.197  15.166  1.00  0.00     0.049 A 
ATOM     50  H   UNL     1       9.799  -2.817  13.806  1.00  0.00     0.167 HD
ATOM     51  C   UNL     1      11.463  -0.327  10.614  1.00  0.00     0.037 A 
ATOM     52  C   UNL     1      10.001  -4.439  16.071  1.00  0.00     0.037 A 
ATOM     53  C   UNL     1      12.520  -0.442  11.586  1.00  0.00     0.049 A 
ATOM     54  C   UNL     1      11.332  -3.765  15.930  1.00  0.00     0.074 A 
ATOM     55  C   UNL     1      13.758   0.177  11.596  1.00  0.00     0.029 A 
ATOM     56  N   UNL     1      12.457  -1.231  12.724  1.00  0.00    -0.354 N 
ATOM     57  N   UNL     1      11.751  -2.959  14.986  1.00  0.00    -0.248 NA
ATOM     58  C   UNL     1      12.324  -4.035  16.979  1.00  0.00     0.031 C 
ATOM     59  C   UNL     1      14.457  -0.259  12.729  1.00  0.00     0.029 A 
ATOM     60  C   UNL     1      13.641  -1.128  13.435  1.00  0.00     0.049 A 
ATOM     61  H   UNL     1      11.686  -1.783  12.987  1.00  0.00     0.167 HD
ATOM     62  C   UNL     1      13.050  -2.620  15.327  1.00  0.00     0.074 A 
ATOM     63  C   UNL     1      13.348  -3.297  16.573  1.00  0.00     0.031 C 
ATOM     64  C   UNL     1      13.919  -1.818  14.667  1.00  0.00     0.037 A 
BRANCH  51  65
ATOM     65  C   UNL     1      11.727   0.512   9.401  1.00  0.00     0.064 A 
ATOM     66  C   UNL     1      11.236   1.820   9.295  1.00  0.00     0.173 A 
ATOM     67  C   UNL     1      12.563   0.035   8.380  1.00  0.00     0.173 A 
ATOM     68  F   UNL     1      10.434   2.320  10.246  1.00  0.00    -0.203 F 
ATOM     69  C   UNL     1      11.575   2.624   8.208  1.00  0.00     0.198 A 
ATOM     70  C   UNL     1      12.911   0.846   7.302  1.00  0.00     0.198 A 
ATOM     71  F   UNL     1      13.067  -1.207   8.444  1.00  0.00    -0.203 F 
ATOM     72  F   UNL     1      11.095   3.873   8.124  1.00  0.00    -0.200 F 
ATOM     73  C   UNL     1      12.418   2.139   7.218  1.00  0.00     0.200 A 
ATOM     74  F   UNL     1      13.737   0.382   6.355  1.00  0.00    -0.200 F 
ATOM     75  F   UNL     1      12.762   2.922   6.186  1.00  0.00    -0.200 F 
ENDBRANCH  51  65
BRANCH  52  76
ATOM     76  C   UNL     1       9.729  -5.395  17.169  1.00  0.00     0.064 A 
ATOM     77  C   UNL     1       9.475  -4.945  18.469  1.00  0.00     0.173 A 
ATOM     78  C   UNL     1       9.658  -6.773  16.920  1.00  0.00     0.173 A 
ATOM     79  F   UNL     1       9.546  -3.636  18.751  1.00  0.00    -0.203 F 
ATOM     80  C   UNL     1       9.159  -5.843  19.486  1.00  0.00     0.198 A 
ATOM     81  C   UNL     1       9.322  -7.667  17.932  1.00  0.00     0.198 A 
ATOM     82  F   UNL     1       9.885  -7.245  15.685  1.00  0.00    -0.203 F 
ATOM     83  F   UNL     1       8.935  -5.393  20.727  1.00  0.00    -0.200 F 
ATOM     84  C   UNL     1       9.074  -7.201  19.215  1.00  0.00     0.200 A 
ATOM     85  F   UNL     1       9.226  -8.976  17.663  1.00  0.00    -0.200 F 
ATOM     86  F   UNL     1       8.753  -8.062  20.190  1.00  0.00    -0.200 F 
ENDBRANCH  52  76
BRANCH  64  87
ATOM     87  C   UNL     1      15.267  -1.627  15.288  1.00  0.00     0.064 A 
ATOM     88  C   UNL     1      16.263  -2.606  15.175  1.00  0.00     0.173 A 
ATOM     89  C   UNL     1      15.568  -0.449  15.986  1.00  0.00     0.173 A 
ATOM     90  F   UNL     1      16.009  -3.755  14.531  1.00  0.00    -0.203 F 
ATOM     91  C   UNL     1      17.513  -2.420  15.758  1.00  0.00     0.198 A 
ATOM     92  C   UNL     1      16.825  -0.260  16.553  1.00  0.00     0.198 A 
ATOM     93  F   UNL     1      14.644   0.514  16.117  1.00  0.00    -0.203 F 
ATOM     94  F   UNL     1      18.441  -3.383  15.671  1.00  0.00    -0.200 F 
ATOM     95  C   UNL     1      17.793  -1.246  16.443  1.00  0.00     0.200 A 
ATOM     96  F   UNL     1      17.096   0.875  17.213  1.00  0.00    -0.200 F 
ATOM     97  F   UNL     1      18.996  -1.071  17.008  1.00  0.00    -0.200 F 
ENDBRANCH  64  87
ENDBRANCH  38  39
ENDBRANCH  31  33
ENDBRANCH  30  31
ENDBRANCH  29  30
ENDBRANCH  28  29
ENDBRANCH   1  28
TORSDOF 17
