REMARK SMILES O=C(CC[C@@H]1COc2ccc(Br)cc2C1=O)OCCOC(=O)c1ccc(-c2c3nc(c(-c4c(F)c(F)c(F)c(F)c4F)c4ccc([nH]4)c(-c4c(F)c(F)c(F)c(F)c4F)c4nc(c(-c5c(F)c(F)c(F)c(F)c5F)c5ccc2[nH]5)C=C4)C=C3)cc1
REMARK SMILES IDX 18 1 17 2 2 3 1 4 3 5 4 6 5 7 6 8 15 9 7 10 14 11 16 12 8 13
REMARK SMILES IDX 13 14 9 15 11 16 10 17 12 18 19 19 20 20 21 21 22 22 23 23
REMARK SMILES IDX 24 24 85 25 25 26 84 27 26 28 27 29 28 30 78 31 29 32 83 33
REMARK SMILES IDX 77 34 79 35 30 36 82 37 76 38 75 39 31 41 63 42 43 43 62 44
REMARK SMILES IDX 44 45 47 46 61 47 80 48 45 49 46 50 60 52 81 53 48 54 32 55
REMARK SMILES IDX 33 56 41 57 34 58 35 59 39 60 42 61 36 62 37 63 40 64 38 65
REMARK SMILES IDX 64 66 65 67 73 68 66 69 67 70 71 71 74 72 68 73 69 74 72 75
REMARK SMILES IDX 70 76 49 77 50 78 58 79 51 80 52 81 56 82 59 83 53 84 54 85
REMARK SMILES IDX 57 86 55 87
REMARK H PARENT 79 40 47 51
REMARK Flexibility Score: inf
ROOT
ATOM      1  C   UNL     1       3.975   0.186  -1.332  1.00  0.00     0.274 C 
ENDROOT
BRANCH   1   2
ATOM      2  O   UNL     1       2.703  -0.246  -0.801  1.00  0.00    -0.462 OA
BRANCH   2   3
ATOM      3  C   UNL     1       2.491  -0.682   0.464  1.00  0.00     0.305 C 
ATOM      4  O   UNL     1       1.550  -1.435   0.711  1.00  0.00    -0.252 OA
BRANCH   3   5
ATOM      5  C   UNL     1       3.387  -0.193   1.581  1.00  0.00     0.123 C 
BRANCH   5   6
ATOM      6  C   UNL     1       4.219  -1.311   2.230  1.00  0.00     0.027 C 
BRANCH   6   7
ATOM      7  C   UNL     1       5.334  -1.806   1.311  1.00  0.00     0.099 C 
ATOM      8  C   UNL     1       6.052  -3.060   1.783  1.00  0.00     0.241 C 
ATOM      9  C   UNL     1       6.447  -0.790   1.143  1.00  0.00     0.173 C 
ATOM     10  O   UNL     1       6.888  -3.576   0.726  1.00  0.00    -0.492 OA
ATOM     11  C   UNL     1       7.562  -1.263   0.314  1.00  0.00     0.061 A 
ATOM     12  O   UNL     1       6.414   0.362   1.554  1.00  0.00    -0.294 OA
ATOM     13  C   UNL     1       7.676  -2.639   0.105  1.00  0.00     0.130 A 
ATOM     14  C   UNL     1       8.393  -0.351  -0.340  1.00  0.00     0.031 A 
ATOM     15  C   UNL     1       8.606  -3.107  -0.818  1.00  0.00     0.048 A 
ATOM     16  C   UNL     1       9.326  -0.834  -1.251  1.00  0.00     0.018 A 
ATOM     17  C   UNL     1       9.428  -2.204  -1.503  1.00  0.00     0.019 A 
ATOM     18  Br  UNL     1      10.432   0.380  -2.186  1.00  0.00    -0.051 Br
ENDBRANCH   6   7
ENDBRANCH   5   6
ENDBRANCH   3   5
ENDBRANCH   2   3
ENDBRANCH   1   2
BRANCH   1  19
ATOM     19  C   UNL     1       4.019   1.677  -1.650  1.00  0.00     0.275 C 
BRANCH  19  20
ATOM     20  O   UNL     1       3.759   2.431  -0.459  1.00  0.00    -0.458 OA
BRANCH  20  21
ATOM     21  C   UNL     1       2.459   2.776  -0.287  1.00  0.00     0.338 C 
ATOM     22  O   UNL     1       1.567   2.689  -1.109  1.00  0.00    -0.246 OA
BRANCH  21  23
ATOM     23  C   UNL     1       2.229   3.125   1.133  1.00  0.00     0.060 A 
ATOM     24  C   UNL     1       3.231   3.674   1.941  1.00  0.00     0.016 A 
ATOM     25  C   UNL     1       0.957   2.873   1.662  1.00  0.00     0.016 A 
ATOM     26  C   UNL     1       2.942   4.011   3.265  1.00  0.00     0.010 A 
ATOM     27  C   UNL     1       0.667   3.217   2.981  1.00  0.00     0.010 A 
ATOM     28  C   UNL     1       1.650   3.813   3.782  1.00  0.00    -0.014 A 
BRANCH  28  29
ATOM     29  C   UNL     1       1.280   4.393   5.093  1.00  0.00     0.031 A 
ATOM     30  C   UNL     1       1.157   3.552   6.324  1.00  0.00     0.074 A 
ATOM     31  C   UNL     1       1.024   5.714   5.141  1.00  0.00     0.049 A 
ATOM     32  N   UNL     1       0.904   3.933   7.551  1.00  0.00    -0.248 NA
ATOM     33  C   UNL     1       1.334   2.102   6.165  1.00  0.00     0.031 C 
ATOM     34  C   UNL     1       1.073   6.618   3.991  1.00  0.00     0.029 A 
ATOM     35  N   UNL     1       0.674   6.524   6.190  1.00  0.00    -0.354 N 
ATOM     36  C   UNL     1       0.913   2.777   8.316  1.00  0.00     0.074 A 
ATOM     37  C   UNL     1       1.154   1.673   7.410  1.00  0.00     0.031 C 
ATOM     38  C   UNL     1       0.784   7.862   4.400  1.00  0.00     0.029 A 
ATOM     39  C   UNL     1       0.511   7.839   5.833  1.00  0.00     0.049 A 
ATOM     40  H   UNL     1       0.552   6.195   7.110  1.00  0.00     0.167 HD
ATOM     41  C   UNL     1       0.753   2.661   9.655  1.00  0.00     0.037 A 
ATOM     42  C   UNL     1       0.182   8.910   6.579  1.00  0.00     0.037 A 
ATOM     43  C   UNL     1       0.505   3.765  10.547  1.00  0.00     0.049 A 
ATOM     44  C   UNL     1      -0.035   8.740   8.054  1.00  0.00     0.074 A 
ATOM     45  C   UNL     1       0.398   3.749  11.928  1.00  0.00     0.029 A 
ATOM     46  N   UNL     1       0.309   5.079  10.148  1.00  0.00    -0.354 N 
ATOM     47  N   UNL     1       0.074   7.657   8.783  1.00  0.00    -0.248 NA
ATOM     48  C   UNL     1      -0.416   9.940   8.812  1.00  0.00     0.031 C 
ATOM     49  C   UNL     1       0.089   5.042  12.360  1.00  0.00     0.029 A 
ATOM     50  C   UNL     1       0.047   5.874  11.253  1.00  0.00     0.049 A 
ATOM     51  H   UNL     1       0.350   5.399   9.218  1.00  0.00     0.167 HD
ATOM     52  C   UNL     1      -0.203   8.046  10.085  1.00  0.00     0.074 A 
ATOM     53  C   UNL     1      -0.476   9.467  10.050  1.00  0.00     0.031 C 
ATOM     54  C   UNL     1      -0.225   7.287  11.207  1.00  0.00     0.037 A 
BRANCH  41  55
ATOM     55  C   UNL     1       0.865   1.297  10.266  1.00  0.00     0.064 A 
ATOM     56  C   UNL     1       2.114   0.681  10.434  1.00  0.00     0.173 A 
ATOM     57  C   UNL     1      -0.263   0.658  10.803  1.00  0.00     0.173 A 
ATOM     58  F   UNL     1       3.221   1.252   9.937  1.00  0.00    -0.203 F 
ATOM     59  C   UNL     1       2.229  -0.526  11.118  1.00  0.00     0.198 A 
ATOM     60  C   UNL     1      -0.141  -0.539  11.503  1.00  0.00     0.198 A 
ATOM     61  F   UNL     1      -1.477   1.214  10.679  1.00  0.00    -0.203 F 
ATOM     62  F   UNL     1       3.431  -1.101  11.261  1.00  0.00    -0.200 F 
ATOM     63  C   UNL     1       1.104  -1.129  11.662  1.00  0.00     0.200 A 
ATOM     64  F   UNL     1      -1.226  -1.112  12.042  1.00  0.00    -0.200 F 
ATOM     65  F   UNL     1       1.221  -2.276  12.344  1.00  0.00    -0.200 F 
ENDBRANCH  41  55
BRANCH  42  66
ATOM     66  C   UNL     1       0.083  10.242   5.936  1.00  0.00     0.064 A 
ATOM     67  C   UNL     1       1.064  11.217   6.156  1.00  0.00     0.173 A 
ATOM     68  C   UNL     1      -0.970  10.554   5.063  1.00  0.00     0.173 A 
ATOM     69  F   UNL     1       2.079  10.967   6.995  1.00  0.00    -0.203 F 
ATOM     70  C   UNL     1       0.993  12.460   5.531  1.00  0.00     0.198 A 
ATOM     71  C   UNL     1      -1.028  11.789   4.421  1.00  0.00     0.198 A 
ATOM     72  F   UNL     1      -1.928   9.649   4.816  1.00  0.00    -0.203 F 
ATOM     73  F   UNL     1       1.929  13.386   5.778  1.00  0.00    -0.200 F 
ATOM     74  C   UNL     1      -0.049  12.742   4.659  1.00  0.00     0.200 A 
ATOM     75  F   UNL     1      -2.027  12.052   3.569  1.00  0.00    -0.200 F 
ATOM     76  F   UNL     1      -0.110  13.934   4.050  1.00  0.00    -0.200 F 
ENDBRANCH  42  66
BRANCH  54  77
ATOM     77  C   UNL     1      -0.547   7.972  12.501  1.00  0.00     0.064 A 
ATOM     78  C   UNL     1      -1.859   8.347  12.819  1.00  0.00     0.173 A 
ATOM     79  C   UNL     1       0.451   8.180  13.465  1.00  0.00     0.173 A 
ATOM     80  F   UNL     1      -2.844   8.182  11.923  1.00  0.00    -0.203 F 
ATOM     81  C   UNL     1      -2.161   8.910  14.056  1.00  0.00     0.198 A 
ATOM     82  C   UNL     1       0.142   8.721  14.709  1.00  0.00     0.198 A 
ATOM     83  F   UNL     1       1.722   7.832  13.208  1.00  0.00    -0.203 F 
ATOM     84  F   UNL     1      -3.419   9.282  14.332  1.00  0.00    -0.200 F 
ATOM     85  C   UNL     1      -1.163   9.086  15.003  1.00  0.00     0.200 A 
ATOM     86  F   UNL     1       1.105   8.880  15.627  1.00  0.00    -0.200 F 
ATOM     87  F   UNL     1      -1.459   9.610  16.201  1.00  0.00    -0.200 F 
ENDBRANCH  54  77
ENDBRANCH  28  29
ENDBRANCH  21  23
ENDBRANCH  20  21
ENDBRANCH  19  20
ENDBRANCH   1  19
TORSDOF 13
