REMARK SMILES O=C(OCCOC(=O)c1cnc2c(ccn2C2CCCCC2)c1)c1ccc(-c2c3nc(c(-c4c(F)c(F)c(F)c(F)c4F)c4ccc([nH]4)c(-c4c(F)c(F)c(F)c(F)c4F)c4nc(c(-c5c(F)c(F)c(F)c(F)c5F)c5ccc2[nH]5)C=C4)C=C3)cc1
REMARK SMILES IDX 4 1 3 2 2 3 1 4 24 5 25 6 86 7 26 8 85 9 27 10 28 11 29 12
REMARK SMILES IDX 79 13 30 14 84 15 78 16 80 17 31 18 83 19 77 20 76 21 32 23
REMARK SMILES IDX 64 24 44 25 63 26 45 27 48 28 62 29 81 30 46 31 47 32 61 34
REMARK SMILES IDX 82 35 49 36 33 37 34 38 42 39 35 40 36 41 40 42 43 43 37 44
REMARK SMILES IDX 38 45 41 46 39 47 65 48 66 49 74 50 67 51 68 52 72 53 75 54
REMARK SMILES IDX 69 55 70 56 73 57 71 58 50 59 51 60 59 61 52 62 53 63 57 64
REMARK SMILES IDX 60 65 54 66 55 67 58 68 56 69 5 70 6 71 7 72 8 73 9 74 10 75
REMARK SMILES IDX 23 76 11 77 13 78 12 79 14 80 16 81 15 82 17 83 18 84 22 85
REMARK SMILES IDX 19 86 21 87 20 88
REMARK H PARENT 80 22 48 33
REMARK Flexibility Score: inf
ROOT
ATOM      1  C   UNL     1       4.760  -0.376  -1.336  1.00  0.00     0.275 C 
ENDROOT
BRANCH   1   2
ATOM      2  O   UNL     1       3.609  -1.197  -1.044  1.00  0.00    -0.458 OA
BRANCH   2   3
ATOM      3  C   UNL     1       2.571  -0.716  -0.327  1.00  0.00     0.338 C 
ATOM      4  O   UNL     1       1.484  -0.445  -0.822  1.00  0.00    -0.246 OA
BRANCH   3   5
ATOM      5  C   UNL     1       2.741  -0.809   1.146  1.00  0.00     0.060 A 
ATOM      6  C   UNL     1       3.987  -0.778   1.778  1.00  0.00     0.016 A 
ATOM      7  C   UNL     1       1.576  -0.931   1.920  1.00  0.00     0.016 A 
ATOM      8  C   UNL     1       4.078  -0.938   3.151  1.00  0.00     0.010 A 
ATOM      9  C   UNL     1       1.662  -1.079   3.298  1.00  0.00     0.010 A 
ATOM     10  C   UNL     1       2.918  -1.122   3.900  1.00  0.00    -0.014 A 
BRANCH  10  11
ATOM     11  C   UNL     1       3.080  -1.371   5.323  1.00  0.00     0.031 A 
ATOM     12  C   UNL     1       3.517  -0.224   6.166  1.00  0.00     0.074 A 
ATOM     13  C   UNL     1       2.773  -2.565   5.865  1.00  0.00     0.049 A 
ATOM     14  N   UNL     1       4.555  -0.140   6.937  1.00  0.00    -0.248 NA
ATOM     15  C   UNL     1       2.707   1.002   6.114  1.00  0.00     0.031 C 
ATOM     16  C   UNL     1       2.074  -3.689   5.238  1.00  0.00     0.029 A 
ATOM     17  N   UNL     1       2.948  -2.980   7.149  1.00  0.00    -0.354 N 
ATOM     18  C   UNL     1       4.462   1.093   7.580  1.00  0.00     0.074 A 
ATOM     19  C   UNL     1       3.354   1.789   6.975  1.00  0.00     0.031 C 
ATOM     20  C   UNL     1       1.698  -4.564   6.197  1.00  0.00     0.029 A 
ATOM     21  C   UNL     1       2.247  -4.129   7.470  1.00  0.00     0.049 A 
ATOM     22  H   UNL     1       3.522  -2.505   7.792  1.00  0.00     0.167 HD
ATOM     23  C   UNL     1       5.199   1.401   8.683  1.00  0.00     0.037 A 
ATOM     24  C   UNL     1       2.070  -4.636   8.712  1.00  0.00     0.037 A 
ATOM     25  C   UNL     1       6.350   0.555   8.821  1.00  0.00     0.049 A 
ATOM     26  C   UNL     1       3.130  -4.075   9.585  1.00  0.00     0.074 A 
ATOM     27  C   UNL     1       7.485   0.332   8.066  1.00  0.00     0.029 A 
ATOM     28  N   UNL     1       6.312  -0.469   9.732  1.00  0.00    -0.354 N 
ATOM     29  N   UNL     1       4.396  -4.366   9.484  1.00  0.00    -0.248 NA
ATOM     30  C   UNL     1       2.824  -2.867  10.336  1.00  0.00     0.031 C 
ATOM     31  C   UNL     1       7.774  -1.054   8.232  1.00  0.00     0.029 A 
ATOM     32  C   UNL     1       6.814  -1.577   9.100  1.00  0.00     0.049 A 
ATOM     33  H   UNL     1       5.987  -0.418  10.660  1.00  0.00     0.167 HD
ATOM     34  C   UNL     1       5.056  -3.186   9.793  1.00  0.00     0.074 A 
ATOM     35  C   UNL     1       4.046  -2.334  10.410  1.00  0.00     0.031 C 
ATOM     36  C   UNL     1       6.286  -2.908   9.272  1.00  0.00     0.037 A 
BRANCH  23  37
ATOM     37  C   UNL     1       4.722   2.295   9.796  1.00  0.00     0.064 A 
ATOM     38  C   UNL     1       5.632   2.775  10.759  1.00  0.00     0.173 A 
ATOM     39  C   UNL     1       3.356   2.463  10.107  1.00  0.00     0.173 A 
ATOM     40  F   UNL     1       6.954   2.631  10.582  1.00  0.00    -0.203 F 
ATOM     41  C   UNL     1       5.201   3.340  11.963  1.00  0.00     0.198 A 
ATOM     42  C   UNL     1       2.930   3.074  11.285  1.00  0.00     0.198 A 
ATOM     43  F   UNL     1       2.391   1.946   9.335  1.00  0.00    -0.203 F 
ATOM     44  F   UNL     1       6.099   3.685  12.896  1.00  0.00    -0.200 F 
ATOM     45  C   UNL     1       3.851   3.489  12.225  1.00  0.00     0.200 A 
ATOM     46  F   UNL     1       1.617   3.188  11.532  1.00  0.00    -0.200 F 
ATOM     47  F   UNL     1       3.435   3.984  13.398  1.00  0.00    -0.200 F 
ENDBRANCH  23  37
BRANCH  24  48
ATOM     48  C   UNL     1       0.859  -5.295   9.250  1.00  0.00     0.064 A 
ATOM     49  C   UNL     1       0.911  -6.039  10.439  1.00  0.00     0.173 A 
ATOM     50  C   UNL     1      -0.425  -4.976   8.764  1.00  0.00     0.173 A 
ATOM     51  F   UNL     1       2.095  -6.344  10.991  1.00  0.00    -0.203 F 
ATOM     52  C   UNL     1      -0.252  -6.417  11.116  1.00  0.00     0.198 A 
ATOM     53  C   UNL     1      -1.584  -5.363   9.435  1.00  0.00     0.198 A 
ATOM     54  F   UNL     1      -0.580  -4.199   7.682  1.00  0.00    -0.203 F 
ATOM     55  F   UNL     1      -0.163  -7.068  12.284  1.00  0.00    -0.200 F 
ATOM     56  C   UNL     1      -1.498  -6.069  10.619  1.00  0.00     0.200 A 
ATOM     57  F   UNL     1      -2.781  -4.989   8.961  1.00  0.00    -0.200 F 
ATOM     58  F   UNL     1      -2.610  -6.376  11.301  1.00  0.00    -0.200 F 
ENDBRANCH  24  48
BRANCH  36  59
ATOM     59  C   UNL     1       7.017  -4.019   8.574  1.00  0.00     0.064 A 
ATOM     60  C   UNL     1       6.562  -4.622   7.388  1.00  0.00     0.173 A 
ATOM     61  C   UNL     1       8.294  -4.372   9.028  1.00  0.00     0.173 A 
ATOM     62  F   UNL     1       5.399  -4.258   6.833  1.00  0.00    -0.203 F 
ATOM     63  C   UNL     1       7.333  -5.567   6.716  1.00  0.00     0.198 A 
ATOM     64  C   UNL     1       9.079  -5.290   8.334  1.00  0.00     0.198 A 
ATOM     65  F   UNL     1       8.806  -3.782  10.120  1.00  0.00    -0.203 F 
ATOM     66  F   UNL     1       6.874  -6.132   5.589  1.00  0.00    -0.200 F 
ATOM     67  C   UNL     1       8.595  -5.894   7.185  1.00  0.00     0.200 A 
ATOM     68  F   UNL     1      10.319  -5.563   8.761  1.00  0.00    -0.200 F 
ATOM     69  F   UNL     1       9.357  -6.767   6.511  1.00  0.00    -0.200 F 
ENDBRANCH  36  59
ENDBRANCH  10  11
ENDBRANCH   3   5
ENDBRANCH   2   3
ENDBRANCH   1   2
BRANCH   1  70
ATOM     70  C   UNL     1       4.532   1.124  -1.536  1.00  0.00     0.275 C 
BRANCH  70  71
ATOM     71  O   UNL     1       3.965   1.758  -0.374  1.00  0.00    -0.458 OA
BRANCH  71  72
ATOM     72  C   UNL     1       2.823   2.448  -0.597  1.00  0.00     0.339 C 
ATOM     73  O   UNL     1       2.237   2.596  -1.670  1.00  0.00    -0.246 OA
BRANCH  72  74
ATOM     74  C   UNL     1       2.328   3.021   0.649  1.00  0.00     0.079 A 
ATOM     75  C   UNL     1       2.956   4.137   1.178  1.00  0.00     0.129 A 
ATOM     76  C   UNL     1       1.162   2.534   1.243  1.00  0.00     0.029 A 
ATOM     77  N   UNL     1       2.518   4.845   2.245  1.00  0.00    -0.237 NA
ATOM     78  C   UNL     1       0.689   3.214   2.377  1.00  0.00     0.020 A 
ATOM     79  C   UNL     1       1.381   4.355   2.784  1.00  0.00     0.140 A 
ATOM     80  C   UNL     1      -0.405   3.051   3.267  1.00  0.00     0.030 A 
ATOM     81  N   UNL     1       0.655   4.941   3.796  1.00  0.00    -0.329 N 
ATOM     82  C   UNL     1      -0.391   4.115   4.144  1.00  0.00     0.088 A 
BRANCH  81  83
ATOM     83  C   UNL     1       0.856   6.288   4.330  1.00  0.00     0.088 C 
ATOM     84  C   UNL     1       2.171   6.428   5.109  1.00  0.00     0.025 C 
ATOM     85  C   UNL     1       0.704   7.364   3.238  1.00  0.00     0.025 C 
ATOM     86  C   UNL     1       2.357   7.849   5.639  1.00  0.00     0.002 C 
ATOM     87  C   UNL     1       0.915   8.771   3.789  1.00  0.00     0.002 C 
ATOM     88  C   UNL     1       2.246   8.886   4.525  1.00  0.00     0.000 C 
ENDBRANCH  81  83
ENDBRANCH  72  74
ENDBRANCH  71  72
ENDBRANCH  70  71
ENDBRANCH   1  70
TORSDOF 12
