REMARK SMILES CC1(C)C[C@@](Cc2ccccc2)(C(=O)OCCOC(=O)c2ccc(-c3c4nc(c(-c5c(F)c(F)c(F)c(F)c5F)c5ccc([nH]5)c(-c5c(F)c(F)c(F)c(F)c5F)c5nc(c(-c6c(F)c(F)c(F)c(F)c6F)c6ccc3[nH]6)C=C5)C=C4)cc2)CCO1
REMARK SMILES IDX 16 1 15 2 13 3 14 4 5 5 1 6 2 7 3 8 4 9 86 10 85 11 84 12
REMARK SMILES IDX 6 13 7 14 8 15 12 16 9 17 11 18 10 19 17 20 18 21 19 22
REMARK SMILES IDX 20 23 21 24 22 25 83 26 23 27 82 28 24 29 25 30 26 31 76 32
REMARK SMILES IDX 27 33 81 34 75 35 77 36 28 37 80 38 74 39 73 40 29 42 61 43
REMARK SMILES IDX 41 44 60 45 42 46 45 47 59 48 78 49 43 50 44 51 58 53 79 54
REMARK SMILES IDX 46 55 30 56 31 57 39 58 32 59 33 60 37 61 40 62 34 63 35 64
REMARK SMILES IDX 38 65 36 66 62 67 63 68 71 69 64 70 65 71 69 72 72 73 66 74
REMARK SMILES IDX 67 75 70 76 68 77 47 78 48 79 56 80 49 81 50 82 54 83 57 84
REMARK SMILES IDX 51 85 52 86 55 87 53 88
REMARK H PARENT 77 41 45 52
REMARK Flexibility Score: inf
ROOT
ATOM      1  C   UNL     1       4.198   1.877  -3.205  1.00  0.00     0.274 C 
ENDROOT
BRANCH   1   2
ATOM      2  O   UNL     1       2.872   2.452  -3.167  1.00  0.00    -0.462 OA
BRANCH   2   3
ATOM      3  C   UNL     1       2.120   2.031  -2.112  1.00  0.00     0.312 C 
ATOM      4  O   UNL     1       2.546   1.235  -1.288  1.00  0.00    -0.252 OA
BRANCH   3   5
ATOM      5  C   UNL     1       0.685   2.570  -2.098  1.00  0.00     0.077 C 
ATOM      6  C   UNL     1       0.722   0.212   0.400  1.00  0.00     0.042 C 
ATOM      7  C   UNL     1      -0.363   1.188  -0.088  1.00  0.00     0.064 C 
ATOM      8  C   UNL     1      -1.220   1.485   1.161  1.00  0.00     0.042 C 
ATOM      9  C   UNL     1       0.093   2.552  -0.664  1.00  0.00     0.054 C 
ATOM     10  O   UNL     1      -1.208   0.553  -1.053  1.00  0.00    -0.376 OA
ATOM     11  C   UNL     1      -0.593   0.346  -2.325  1.00  0.00     0.162 C 
ATOM     12  C   UNL     1      -0.191   1.658  -2.990  1.00  0.00     0.047 C 
BRANCH   5  13
ATOM     13  C   UNL     1       0.623   4.014  -2.703  1.00  0.00     0.054 C 
BRANCH  13  14
ATOM     14  C   UNL     1       1.314   5.152  -1.977  1.00  0.00    -0.047 A 
ATOM     15  C   UNL     1       0.713   5.780  -0.876  1.00  0.00     0.004 A 
ATOM     16  C   UNL     1       2.524   5.671  -2.458  1.00  0.00     0.004 A 
ATOM     17  C   UNL     1       1.313   6.881  -0.260  1.00  0.00     0.000 A 
ATOM     18  C   UNL     1       3.121   6.778  -1.847  1.00  0.00     0.000 A 
ATOM     19  C   UNL     1       2.518   7.381  -0.746  1.00  0.00     0.000 A 
ENDBRANCH  13  14
ENDBRANCH   5  13
ENDBRANCH   3   5
ENDBRANCH   2   3
ENDBRANCH   1   2
BRANCH   1  20
ATOM     20  C   UNL     1       5.215   2.676  -2.379  1.00  0.00     0.275 C 
BRANCH  20  21
ATOM     21  O   UNL     1       4.747   2.877  -1.034  1.00  0.00    -0.458 OA
BRANCH  21  22
ATOM     22  C   UNL     1       5.174   4.003  -0.416  1.00  0.00     0.338 C 
ATOM     23  O   UNL     1       6.006   4.791  -0.851  1.00  0.00    -0.246 OA
BRANCH  22  24
ATOM     24  C   UNL     1       4.482   4.194   0.886  1.00  0.00     0.060 A 
ATOM     25  C   UNL     1       3.215   3.661   1.120  1.00  0.00     0.016 A 
ATOM     26  C   UNL     1       5.065   4.994   1.869  1.00  0.00     0.016 A 
ATOM     27  C   UNL     1       2.495   3.990   2.273  1.00  0.00     0.010 A 
ATOM     28  C   UNL     1       4.381   5.255   3.066  1.00  0.00     0.010 A 
ATOM     29  C   UNL     1       3.074   4.780   3.272  1.00  0.00    -0.014 A 
BRANCH  29  30
ATOM     30  C   UNL     1       2.331   5.120   4.521  1.00  0.00     0.031 A 
ATOM     31  C   UNL     1       2.067   6.559   4.882  1.00  0.00     0.074 A 
ATOM     32  C   UNL     1       1.897   4.149   5.350  1.00  0.00     0.049 A 
ATOM     33  N   UNL     1       1.651   7.070   6.015  1.00  0.00    -0.248 NA
ATOM     34  C   UNL     1       2.297   7.555   3.825  1.00  0.00     0.031 C 
ATOM     35  C   UNL     1       2.003   2.712   5.105  1.00  0.00     0.029 A 
ATOM     36  N   UNL     1       1.288   4.230   6.582  1.00  0.00    -0.354 N 
ATOM     37  C   UNL     1       1.611   8.445   5.822  1.00  0.00     0.074 A 
ATOM     38  C   UNL     1       2.037   8.691   4.460  1.00  0.00     0.031 C 
ATOM     39  C   UNL     1       1.473   2.047   6.142  1.00  0.00     0.029 A 
ATOM     40  C   UNL     1       1.077   3.005   7.168  1.00  0.00     0.049 A 
ATOM     41  H   UNL     1       1.028   5.082   7.001  1.00  0.00     0.167 HD
ATOM     42  C   UNL     1       1.262   9.412   6.705  1.00  0.00     0.037 A 
ATOM     43  C   UNL     1       0.677   2.681   8.413  1.00  0.00     0.037 A 
ATOM     44  C   UNL     1       0.816   9.168   8.054  1.00  0.00     0.049 A 
ATOM     45  C   UNL     1       0.389   3.772   9.407  1.00  0.00     0.074 A 
ATOM     46  C   UNL     1       0.451  10.087   9.024  1.00  0.00     0.029 A 
ATOM     47  N   UNL     1       0.670   7.912   8.622  1.00  0.00    -0.354 N 
ATOM     48  N   UNL     1       0.422   5.071   9.242  1.00  0.00    -0.248 NA
ATOM     49  C   UNL     1       0.033   3.349  10.769  1.00  0.00     0.031 C 
ATOM     50  C   UNL     1       0.125   9.388  10.192  1.00  0.00     0.029 A 
ATOM     51  C   UNL     1       0.242   8.033   9.936  1.00  0.00     0.049 A 
ATOM     52  H   UNL     1       0.844   7.059   8.161  1.00  0.00     0.167 HD
ATOM     53  C   UNL     1       0.081   5.620  10.470  1.00  0.00     0.074 A 
ATOM     54  C   UNL     1      -0.173   4.513  11.368  1.00  0.00     0.031 C 
ATOM     55  C   UNL     1      -0.008   6.925  10.822  1.00  0.00     0.037 A 
BRANCH  42  56
ATOM     56  C   UNL     1       1.389  10.840   6.261  1.00  0.00     0.064 A 
ATOM     57  C   UNL     1       0.470  11.428   5.381  1.00  0.00     0.173 A 
ATOM     58  C   UNL     1       2.417  11.647   6.774  1.00  0.00     0.173 A 
ATOM     59  F   UNL     1      -0.524  10.697   4.855  1.00  0.00    -0.203 F 
ATOM     60  C   UNL     1       0.586  12.769   5.018  1.00  0.00     0.198 A 
ATOM     61  C   UNL     1       2.516  12.991   6.427  1.00  0.00     0.198 A 
ATOM     62  F   UNL     1       3.317  11.133   7.626  1.00  0.00    -0.203 F 
ATOM     63  F   UNL     1      -0.284  13.304   4.150  1.00  0.00    -0.200 F 
ATOM     64  C   UNL     1       1.603  13.550   5.546  1.00  0.00     0.200 A 
ATOM     65  F   UNL     1       3.493  13.747   6.948  1.00  0.00    -0.200 F 
ATOM     66  F   UNL     1       1.707  14.841   5.202  1.00  0.00    -0.200 F 
ENDBRANCH  42  56
BRANCH  43  67
ATOM     67  C   UNL     1       0.596   1.251   8.811  1.00  0.00     0.064 A 
ATOM     68  C   UNL     1      -0.638   0.643   9.079  1.00  0.00     0.173 A 
ATOM     69  C   UNL     1       1.752   0.464   8.928  1.00  0.00     0.173 A 
ATOM     70  F   UNL     1      -1.767   1.363   9.014  1.00  0.00    -0.203 F 
ATOM     71  C   UNL     1      -0.711  -0.697   9.453  1.00  0.00     0.198 A 
ATOM     72  C   UNL     1       1.674  -0.883   9.270  1.00  0.00     0.198 A 
ATOM     73  F   UNL     1       2.957   1.001   8.690  1.00  0.00    -0.203 F 
ATOM     74  F   UNL     1      -1.899  -1.245   9.743  1.00  0.00    -0.200 F 
ATOM     75  C   UNL     1       0.443  -1.462   9.538  1.00  0.00     0.200 A 
ATOM     76  F   UNL     1       2.791  -1.620   9.338  1.00  0.00    -0.200 F 
ATOM     77  F   UNL     1       0.370  -2.753   9.886  1.00  0.00    -0.200 F 
ENDBRANCH  43  67
BRANCH  55  78
ATOM     78  C   UNL     1      -0.424   7.228  12.231  1.00  0.00     0.064 A 
ATOM     79  C   UNL     1       0.452   7.040  13.310  1.00  0.00     0.173 A 
ATOM     80  C   UNL     1      -1.705   7.730  12.501  1.00  0.00     0.173 A 
ATOM     81  F   UNL     1       1.681   6.545  13.104  1.00  0.00    -0.203 F 
ATOM     82  C   UNL     1       0.050   7.323  14.613  1.00  0.00     0.198 A 
ATOM     83  C   UNL     1      -2.094   8.035  13.803  1.00  0.00     0.198 A 
ATOM     84  F   UNL     1      -2.578   7.930  11.503  1.00  0.00    -0.203 F 
ATOM     85  F   UNL     1       0.887   7.094  15.635  1.00  0.00    -0.200 F 
ATOM     86  C   UNL     1      -1.219   7.825  14.858  1.00  0.00     0.200 A 
ATOM     87  F   UNL     1      -3.319   8.528  14.037  1.00  0.00    -0.200 F 
ATOM     88  F   UNL     1      -1.603   8.098  16.112  1.00  0.00    -0.200 F 
ENDBRANCH  55  78
ENDBRANCH  29  30
ENDBRANCH  22  24
ENDBRANCH  21  22
ENDBRANCH  20  21
ENDBRANCH   1  20
TORSDOF 13
