REMARK SMILES O=C(OCCOC(=O)[C@@H]1[C@@H](C(=O)NCCCn2ccnc2)[C@@H]2C=C[C@H]1C2)c1ccc(-c2c3nc(c(-c4c(F)c(F)c(F)c(F)c4F)c4ccc([nH]4)c(-c4c(F)c(F)c(F)c(F)c4F)c4nc(c(-c5c(F)c(F)c(F)c(F)c5F)c5ccc2[nH]5)C=C4)C=C3)cc1
REMARK SMILES IDX 6 1 5 2 4 3 3 4 2 5 1 6 27 7 28 8 89 9 29 10 88 11 30 12
REMARK SMILES IDX 31 13 32 14 82 15 33 16 87 17 81 18 83 19 34 20 86 21 80 22
REMARK SMILES IDX 79 23 35 25 67 26 47 27 66 28 48 29 51 30 65 31 84 32 49 33
REMARK SMILES IDX 50 34 64 36 85 37 52 38 36 39 37 40 45 41 38 42 39 43 43 44
REMARK SMILES IDX 46 45 40 46 41 47 44 48 42 49 68 50 69 51 77 52 70 53 71 54
REMARK SMILES IDX 75 55 78 56 72 57 73 58 76 59 74 60 53 61 54 62 62 63 55 64
REMARK SMILES IDX 56 65 60 66 63 67 57 68 58 69 61 70 59 71 7 72 8 73 9 74
REMARK SMILES IDX 10 75 25 76 22 77 24 78 26 79 23 80 11 81 12 82 13 83 14 85
REMARK SMILES IDX 15 86 16 87 17 88 18 89 21 90 19 91 20 92
REMARK H PARENT 83 24 51 35 13 84
REMARK Flexibility Score: inf
ROOT
ATOM      1  O   UNL     1       3.836  -0.014   1.492  1.00  0.00    -0.462 OA
ENDROOT
BRANCH   1   2
ATOM      2  C   UNL     1       4.663   1.049   0.971  1.00  0.00     0.274 C 
BRANCH   2   3
ATOM      3  C   UNL     1       4.918   0.964  -0.537  1.00  0.00     0.275 C 
BRANCH   3   4
ATOM      4  O   UNL     1       3.782   0.899  -1.417  1.00  0.00    -0.458 OA
BRANCH   4   5
ATOM      5  C   UNL     1       2.657   0.282  -0.991  1.00  0.00     0.338 C 
ATOM      6  O   UNL     1       1.678   0.874  -0.589  1.00  0.00    -0.246 OA
BRANCH   5   7
ATOM      7  C   UNL     1       2.646  -1.185  -1.250  1.00  0.00     0.060 A 
ATOM      8  C   UNL     1       3.791  -1.976  -1.392  1.00  0.00     0.016 A 
ATOM      9  C   UNL     1       1.389  -1.795  -1.269  1.00  0.00     0.016 A 
ATOM     10  C   UNL     1       3.683  -3.349  -1.607  1.00  0.00     0.010 A 
ATOM     11  C   UNL     1       1.289  -3.175  -1.375  1.00  0.00     0.010 A 
ATOM     12  C   UNL     1       2.427  -3.958  -1.611  1.00  0.00    -0.014 A 
BRANCH  12  13
ATOM     13  C   UNL     1       2.290  -5.400  -1.885  1.00  0.00     0.031 A 
ATOM     14  C   UNL     1       3.050  -6.418  -1.043  1.00  0.00     0.074 A 
ATOM     15  C   UNL     1       1.383  -5.794  -2.811  1.00  0.00     0.049 A 
ATOM     16  N   UNL     1       3.198  -7.698  -1.257  1.00  0.00    -0.248 NA
ATOM     17  C   UNL     1       3.720  -5.979   0.198  1.00  0.00     0.031 C 
ATOM     18  C   UNL     1       0.440  -4.987  -3.602  1.00  0.00     0.029 A 
ATOM     19  N   UNL     1       1.050  -7.061  -3.174  1.00  0.00    -0.354 N 
ATOM     20  C   UNL     1       3.911  -8.221  -0.176  1.00  0.00     0.074 A 
ATOM     21  C   UNL     1       4.252  -7.107   0.672  1.00  0.00     0.031 C 
ATOM     22  C   UNL     1      -0.499  -5.787  -4.151  1.00  0.00     0.029 A 
ATOM     23  C   UNL     1      -0.120  -7.164  -3.910  1.00  0.00     0.049 A 
ATOM     24  H   UNL     1       1.597  -7.843  -2.933  1.00  0.00     0.167 HD
ATOM     25  C   UNL     1       4.646  -9.368  -0.181  1.00  0.00     0.037 A 
ATOM     26  C   UNL     1      -0.744  -8.304  -4.286  1.00  0.00     0.037 A 
ATOM     27  C   UNL     1       5.287  -9.585  -1.434  1.00  0.00     0.049 A 
ATOM     28  C   UNL     1       0.267  -9.387  -4.235  1.00  0.00     0.074 A 
ATOM     29  C   UNL     1       6.335  -8.966  -2.081  1.00  0.00     0.029 A 
ATOM     30  N   UNL     1       4.648 -10.334  -2.387  1.00  0.00    -0.354 N 
ATOM     31  N   UNL     1       1.296  -9.452  -5.033  1.00  0.00    -0.248 NA
ATOM     32  C   UNL     1       0.382 -10.131  -2.990  1.00  0.00     0.031 C 
ATOM     33  C   UNL     1       5.929  -8.927  -3.444  1.00  0.00     0.029 A 
ATOM     34  C   UNL     1       4.705  -9.592  -3.537  1.00  0.00     0.049 A 
ATOM     35  H   UNL     1       4.234 -11.219  -2.270  1.00  0.00     0.167 HD
ATOM     36  C   UNL     1       2.338  -9.871  -4.222  1.00  0.00     0.074 A 
ATOM     37  C   UNL     1       1.700 -10.345  -2.993  1.00  0.00     0.031 C 
ATOM     38  C   UNL     1       3.634  -9.545  -4.500  1.00  0.00     0.037 A 
BRANCH  25  39
ATOM     39  C   UNL     1       4.217 -10.521   0.682  1.00  0.00     0.064 A 
ATOM     40  C   UNL     1       5.061 -11.634   0.856  1.00  0.00     0.173 A 
ATOM     41  C   UNL     1       2.901 -10.656   1.157  1.00  0.00     0.173 A 
ATOM     42  F   UNL     1       6.321 -11.606   0.398  1.00  0.00    -0.203 F 
ATOM     43  C   UNL     1       4.601 -12.817   1.442  1.00  0.00     0.198 A 
ATOM     44  C   UNL     1       2.459 -11.817   1.787  1.00  0.00     0.198 A 
ATOM     45  F   UNL     1       1.988  -9.703   0.924  1.00  0.00    -0.203 F 
ATOM     46  F   UNL     1       5.403 -13.889   1.501  1.00  0.00    -0.200 F 
ATOM     47  C   UNL     1       3.301 -12.906   1.911  1.00  0.00     0.200 A 
ATOM     48  F   UNL     1       1.191 -11.892   2.216  1.00  0.00    -0.200 F 
ATOM     49  F   UNL     1       2.845 -14.051   2.435  1.00  0.00    -0.200 F 
ENDBRANCH  25  39
BRANCH  26  50
ATOM     50  C   UNL     1      -2.194  -8.563  -4.414  1.00  0.00     0.064 A 
ATOM     51  C   UNL     1      -2.670  -9.666  -5.138  1.00  0.00     0.173 A 
ATOM     52  C   UNL     1      -3.125  -7.899  -3.591  1.00  0.00     0.173 A 
ATOM     53  F   UNL     1      -1.836 -10.375  -5.911  1.00  0.00    -0.203 F 
ATOM     54  C   UNL     1      -3.994 -10.100  -5.022  1.00  0.00     0.198 A 
ATOM     55  C   UNL     1      -4.448  -8.330  -3.480  1.00  0.00     0.198 A 
ATOM     56  F   UNL     1      -2.744  -6.880  -2.806  1.00  0.00    -0.203 F 
ATOM     57  F   UNL     1      -4.397 -11.197  -5.678  1.00  0.00    -0.200 F 
ATOM     58  C   UNL     1      -4.878  -9.440  -4.184  1.00  0.00     0.200 A 
ATOM     59  F   UNL     1      -5.282  -7.707  -2.637  1.00  0.00    -0.200 F 
ATOM     60  F   UNL     1      -6.128  -9.897  -4.021  1.00  0.00    -0.200 F 
ENDBRANCH  26  50
BRANCH  38  61
ATOM     61  C   UNL     1       3.951  -8.865  -5.801  1.00  0.00     0.064 A 
ATOM     62  C   UNL     1       3.467  -7.595  -6.160  1.00  0.00     0.173 A 
ATOM     63  C   UNL     1       4.953  -9.421  -6.607  1.00  0.00     0.173 A 
ATOM     64  F   UNL     1       2.595  -6.941  -5.388  1.00  0.00    -0.203 F 
ATOM     65  C   UNL     1       3.944  -6.931  -7.288  1.00  0.00     0.198 A 
ATOM     66  C   UNL     1       5.456  -8.738  -7.710  1.00  0.00     0.198 A 
ATOM     67  F   UNL     1       5.504 -10.600  -6.276  1.00  0.00    -0.203 F 
ATOM     68  F   UNL     1       3.470  -5.715  -7.601  1.00  0.00    -0.200 F 
ATOM     69  C   UNL     1       4.946  -7.498  -8.055  1.00  0.00     0.200 A 
ATOM     70  F   UNL     1       6.470  -9.264  -8.411  1.00  0.00    -0.200 F 
ATOM     71  F   UNL     1       5.448  -6.833  -9.105  1.00  0.00    -0.200 F 
ENDBRANCH  38  61
ENDBRANCH  12  13
ENDBRANCH   5   7
ENDBRANCH   4   5
ENDBRANCH   3   4
ENDBRANCH   2   3
ENDBRANCH   1   2
BRANCH   1  72
ATOM     72  C   UNL     1       2.907   0.396   2.409  1.00  0.00     0.310 C 
ATOM     73  O   UNL     1       2.748   1.567   2.736  1.00  0.00    -0.252 OA
BRANCH  72  74
ATOM     74  C   UNL     1       2.221  -0.758   3.131  1.00  0.00     0.119 C 
ATOM     75  C   UNL     1       1.567  -1.893   2.258  1.00  0.00     0.100 C 
ATOM     76  C   UNL     1       1.008  -0.261   3.965  1.00  0.00     0.027 C 
ATOM     77  C   UNL     1       0.099  -1.872   2.721  1.00  0.00     0.025 C 
ATOM     78  C   UNL     1       0.008   0.398   3.042  1.00  0.00    -0.027 C 
ATOM     79  C   UNL     1       0.257  -1.572   4.212  1.00  0.00     0.017 C 
ATOM     80  C   UNL     1      -0.518  -0.565   2.276  1.00  0.00    -0.027 C 
BRANCH  75  81
ATOM     81  C   UNL     1       2.399  -3.150   2.447  1.00  0.00     0.224 C 
ATOM     82  O   UNL     1       3.627  -3.080   2.287  1.00  0.00    -0.275 OA
ATOM     83  N   UNL     1       1.969  -4.386   2.765  1.00  0.00    -0.356 N 
ATOM     84  H   UNL     1       2.713  -5.030   2.780  1.00  0.00     0.163 HD
BRANCH  83  85
ATOM     85  C   UNL     1       0.705  -5.030   3.091  1.00  0.00     0.117 C 
BRANCH  85  86
ATOM     86  C   UNL     1       0.670  -6.522   2.732  1.00  0.00     0.043 C 
BRANCH  86  87
ATOM     87  C   UNL     1       1.912  -7.343   3.054  1.00  0.00     0.125 C 
BRANCH  87  88
ATOM     88  N   UNL     1       2.240  -7.640   4.426  1.00  0.00    -0.337 N 
ATOM     89  C   UNL     1       2.887  -6.811   5.298  1.00  0.00     0.107 A 
ATOM     90  C   UNL     1       2.307  -8.908   4.938  1.00  0.00     0.199 A 
ATOM     91  C   UNL     1       3.322  -7.633   6.313  1.00  0.00     0.130 A 
ATOM     92  N   UNL     1       2.955  -8.931   6.079  1.00  0.00    -0.245 NA
ENDBRANCH  87  88
ENDBRANCH  86  87
ENDBRANCH  85  86
ENDBRANCH  83  85
ENDBRANCH  75  81
ENDBRANCH  72  74
ENDBRANCH   1  72
TORSDOF 16
