REMARK SMILES C[C@](NC(=O)c1ccc(Br)o1)(C(=O)OCCOC(=O)c1ccc(-c2c3nc(c(-c4c(F)c(F)c(F)c(F)c4F)c4ccc([nH]4)c(-c4c(F)c(F)c(F)c(F)c4F)c4nc(c(-c5c(F)c(F)c(F)c(F)c5F)c5ccc2[nH]5)C=C4)C=C3)cc1)C(F)(F)F
REMARK SMILES IDX 15 1 14 2 12 3 13 4 2 5 1 6 83 7 84 8 85 9 86 10 3 11 4 12
REMARK SMILES IDX 5 14 6 15 7 16 11 17 8 18 9 19 10 20 16 21 17 22 18 23 19 24
REMARK SMILES IDX 20 25 21 26 82 27 22 28 81 29 23 30 24 31 25 32 75 33 26 34
REMARK SMILES IDX 80 35 74 36 76 37 27 38 79 39 73 40 72 41 28 43 60 44 40 45
REMARK SMILES IDX 59 46 41 47 44 48 58 49 77 50 42 51 43 52 57 54 78 55 45 56
REMARK SMILES IDX 29 57 30 58 38 59 31 60 32 61 36 62 39 63 33 64 34 65 37 66
REMARK SMILES IDX 35 67 61 68 62 69 70 70 63 71 64 72 68 73 71 74 65 75 66 76
REMARK SMILES IDX 69 77 67 78 46 79 47 80 55 81 48 82 49 83 53 84 56 85 50 86
REMARK SMILES IDX 51 87 54 88 52 89
REMARK H PARENT 3 13 76 42 44 53
REMARK Flexibility Score: inf
ROOT
ATOM      1  C   UNL     1      -2.737  -1.108  -0.348  1.00  0.00     0.274 C 
ENDROOT
BRANCH   1   2
ATOM      2  O   UNL     1      -1.302  -0.961  -0.271  1.00  0.00    -0.460 OA
BRANCH   2   3
ATOM      3  C   UNL     1      -0.596  -1.092  -1.429  1.00  0.00     0.341 C 
ATOM      4  O   UNL     1      -1.117  -1.264  -2.525  1.00  0.00    -0.249 OA
BRANCH   3   5
ATOM      5  C   UNL     1       0.924  -1.099  -1.203  1.00  0.00     0.231 C 
ATOM      6  C   UNL     1       1.440  -2.439  -1.741  1.00  0.00     0.058 C 
BRANCH   5   7
ATOM      7  C   UNL     1       1.511   0.003  -2.098  1.00  0.00     0.422 C 
ATOM      8  F   UNL     1       1.125   1.232  -1.685  1.00  0.00    -0.168 F 
ATOM      9  F   UNL     1       2.869  -0.010  -2.037  1.00  0.00    -0.168 F 
ATOM     10  F   UNL     1       1.187  -0.119  -3.402  1.00  0.00    -0.168 F 
ENDBRANCH   5   7
BRANCH   5  11
ATOM     11  N   UNL     1       1.263  -0.788   0.226  1.00  0.00    -0.326 N 
ATOM     12  C   UNL     1       1.456  -1.537   1.351  1.00  0.00     0.288 C 
ATOM     13  H   UNL     1       1.370   0.177   0.389  1.00  0.00     0.165 HD
ATOM     14  O   UNL     1       1.466  -0.946   2.430  1.00  0.00    -0.266 OA
BRANCH  12  15
ATOM     15  C   UNL     1       1.689  -2.947   1.234  1.00  0.00     0.192 A 
ATOM     16  C   UNL     1       2.823  -3.664   0.898  1.00  0.00     0.057 A 
ATOM     17  O   UNL     1       0.667  -3.805   1.523  1.00  0.00    -0.444 OA
ATOM     18  C   UNL     1       2.464  -5.032   0.960  1.00  0.00     0.059 A 
ATOM     19  C   UNL     1       1.149  -5.066   1.364  1.00  0.00     0.170 A 
ATOM     20  Br  UNL     1       0.152  -6.615   1.650  1.00  0.00    -0.008 Br
ENDBRANCH  12  15
ENDBRANCH   5  11
ENDBRANCH   3   5
ENDBRANCH   2   3
ENDBRANCH   1   2
BRANCH   1  21
ATOM     21  C   UNL     1      -3.452   0.224  -0.125  1.00  0.00     0.275 C 
BRANCH  21  22
ATOM     22  O   UNL     1      -3.241   1.111  -1.238  1.00  0.00    -0.458 OA
BRANCH  22  23
ATOM     23  C   UNL     1      -2.212   1.972  -1.088  1.00  0.00     0.338 C 
ATOM     24  O   UNL     1      -1.470   2.090  -0.127  1.00  0.00    -0.246 OA
BRANCH  23  25
ATOM     25  C   UNL     1      -1.992   2.689  -2.347  1.00  0.00     0.060 A 
ATOM     26  C   UNL     1      -1.128   2.112  -3.273  1.00  0.00     0.016 A 
ATOM     27  C   UNL     1      -2.491   3.973  -2.549  1.00  0.00     0.016 A 
ATOM     28  C   UNL     1      -0.662   2.848  -4.351  1.00  0.00     0.010 A 
ATOM     29  C   UNL     1      -2.099   4.678  -3.691  1.00  0.00     0.010 A 
ATOM     30  C   UNL     1      -1.155   4.134  -4.584  1.00  0.00    -0.014 A 
BRANCH  30  31
ATOM     31  C   UNL     1      -0.659   4.924  -5.738  1.00  0.00     0.031 A 
ATOM     32  C   UNL     1       0.026   6.237  -5.501  1.00  0.00     0.074 A 
ATOM     33  C   UNL     1      -0.822   4.470  -6.995  1.00  0.00     0.049 A 
ATOM     34  N   UNL     1       0.285   7.202  -6.346  1.00  0.00    -0.248 NA
ATOM     35  C   UNL     1       0.466   6.507  -4.123  1.00  0.00     0.031 C 
ATOM     36  C   UNL     1      -1.399   3.176  -7.361  1.00  0.00     0.029 A 
ATOM     37  N   UNL     1      -0.527   5.056  -8.200  1.00  0.00    -0.354 N 
ATOM     38  C   UNL     1       0.844   8.222  -5.590  1.00  0.00     0.074 A 
ATOM     39  C   UNL     1       0.913   7.751  -4.223  1.00  0.00     0.031 C 
ATOM     40  C   UNL     1      -1.409   3.062  -8.697  1.00  0.00     0.029 A 
ATOM     41  C   UNL     1      -0.931   4.311  -9.279  1.00  0.00     0.049 A 
ATOM     42  H   UNL     1      -0.070   5.925  -8.282  1.00  0.00     0.167 HD
ATOM     43  C   UNL     1       1.243   9.447  -6.006  1.00  0.00     0.037 A 
ATOM     44  C   UNL     1      -0.980   4.622 -10.587  1.00  0.00     0.037 A 
ATOM     45  C   UNL     1       1.227   9.875  -7.380  1.00  0.00     0.049 A 
ATOM     46  C   UNL     1      -0.544   5.987 -11.030  1.00  0.00     0.074 A 
ATOM     47  C   UNL     1       1.625  11.088  -7.915  1.00  0.00     0.029 A 
ATOM     48  N   UNL     1       0.806   9.088  -8.443  1.00  0.00    -0.354 N 
ATOM     49  N   UNL     1      -0.100   6.984 -10.304  1.00  0.00    -0.248 NA
ATOM     50  C   UNL     1      -0.638   6.280 -12.465  1.00  0.00     0.031 C 
ATOM     51  C   UNL     1       1.418  11.044  -9.299  1.00  0.00     0.029 A 
ATOM     52  C   UNL     1       0.924   9.792  -9.630  1.00  0.00     0.049 A 
ATOM     53  H   UNL     1       0.472   8.165  -8.364  1.00  0.00     0.167 HD
ATOM     54  C   UNL     1       0.138   8.024 -11.190  1.00  0.00     0.074 A 
ATOM     55  C   UNL     1      -0.194   7.529 -12.512  1.00  0.00     0.031 C 
ATOM     56  C   UNL     1       0.585   9.277 -10.931  1.00  0.00     0.037 A 
BRANCH  43  57
ATOM     57  C   UNL     1       1.668  10.428  -4.955  1.00  0.00     0.064 A 
ATOM     58  C   UNL     1       2.895  10.324  -4.286  1.00  0.00     0.173 A 
ATOM     59  C   UNL     1       0.824  11.498  -4.617  1.00  0.00     0.173 A 
ATOM     60  F   UNL     1       3.729   9.310  -4.559  1.00  0.00    -0.203 F 
ATOM     61  C   UNL     1       3.250  11.241  -3.298  1.00  0.00     0.198 A 
ATOM     62  C   UNL     1       1.192  12.426  -3.647  1.00  0.00     0.198 A 
ATOM     63  F   UNL     1      -0.361  11.643  -5.230  1.00  0.00    -0.203 F 
ATOM     64  F   UNL     1       4.407  11.096  -2.636  1.00  0.00    -0.200 F 
ATOM     65  C   UNL     1       2.401  12.292  -2.982  1.00  0.00     0.200 A 
ATOM     66  F   UNL     1       0.373  13.444  -3.350  1.00  0.00    -0.200 F 
ATOM     67  F   UNL     1       2.744  13.171  -2.030  1.00  0.00    -0.200 F 
ENDBRANCH  43  57
BRANCH  44  68
ATOM     68  C   UNL     1      -1.531   3.630 -11.544  1.00  0.00     0.064 A 
ATOM     69  C   UNL     1      -0.697   2.939 -12.430  1.00  0.00     0.173 A 
ATOM     70  C   UNL     1      -2.897   3.307 -11.542  1.00  0.00     0.173 A 
ATOM     71  F   UNL     1       0.611   3.230 -12.482  1.00  0.00    -0.203 F 
ATOM     72  C   UNL     1      -1.207   1.955 -13.274  1.00  0.00     0.198 A 
ATOM     73  C   UNL     1      -3.401   2.305 -12.367  1.00  0.00     0.198 A 
ATOM     74  F   UNL     1      -3.735   3.940 -10.707  1.00  0.00    -0.203 F 
ATOM     75  F   UNL     1      -0.391   1.317 -14.125  1.00  0.00    -0.200 F 
ATOM     76  C   UNL     1      -2.555   1.630 -13.233  1.00  0.00     0.200 A 
ATOM     77  F   UNL     1      -4.700   1.984 -12.310  1.00  0.00    -0.200 F 
ATOM     78  F   UNL     1      -3.039   0.666 -14.028  1.00  0.00    -0.200 F 
ENDBRANCH  44  68
BRANCH  56  79
ATOM     79  C   UNL     1       0.756  10.192 -12.103  1.00  0.00     0.064 A 
ATOM     80  C   UNL     1      -0.344  10.820 -12.704  1.00  0.00     0.173 A 
ATOM     81  C   UNL     1       2.036  10.480 -12.598  1.00  0.00     0.173 A 
ATOM     82  F   UNL     1      -1.588  10.560 -12.273  1.00  0.00    -0.203 F 
ATOM     83  C   UNL     1      -0.168  11.698 -13.769  1.00  0.00     0.198 A 
ATOM     84  C   UNL     1       2.209  11.373 -13.650  1.00  0.00     0.198 A 
ATOM     85  F   UNL     1       3.117   9.903 -12.052  1.00  0.00    -0.203 F 
ATOM     86  F   UNL     1      -1.234  12.267 -14.350  1.00  0.00    -0.200 F 
ATOM     87  C   UNL     1       1.108  11.979 -14.237  1.00  0.00     0.200 A 
ATOM     88  F   UNL     1       3.442  11.648 -14.098  1.00  0.00    -0.200 F 
ATOM     89  F   UNL     1       1.276  12.829 -15.258  1.00  0.00    -0.200 F 
ENDBRANCH  56  79
ENDBRANCH  30  31
ENDBRANCH  23  25
ENDBRANCH  22  23
ENDBRANCH  21  22
ENDBRANCH   1  21
TORSDOF 14
