REMARK SMILES CN1C(=O)C[C@@H](C(=O)OCCOC(=O)c2ccc(-c3c4nc(c(-c5c(F)c(F)c(F)c(F)c5F)c5ccc([nH]5)c(-c5c(F)c(F)c(F)c(F)c5F)c5nc(c(-c6c(F)c(F)c(F)c(F)c6F)c6ccc3[nH]6)C=C5)C=C4)cc2)C12CC[NH+](CCSc1ccccc1)CC2
REMARK SMILES IDX 10 1 9 2 7 3 8 4 6 5 1 6 2 7 3 8 78 9 4 10 5 11 79 12 92 13
REMARK SMILES IDX 80 14 91 15 81 16 82 18 83 19 84 20 85 21 86 22 90 23 87 24
REMARK SMILES IDX 89 25 88 26 11 27 12 28 13 29 14 30 15 31 16 32 77 33 17 34
REMARK SMILES IDX 76 35 18 36 19 37 20 38 70 39 21 40 75 41 69 42 71 43 22 44
REMARK SMILES IDX 74 45 68 46 67 47 23 49 55 50 35 51 54 52 36 53 39 54 53 55
REMARK SMILES IDX 72 56 37 57 38 58 52 60 73 61 40 62 24 63 25 64 33 65 26 66
REMARK SMILES IDX 27 67 31 68 34 69 28 70 29 71 32 72 30 73 56 74 57 75 65 76
REMARK SMILES IDX 58 77 59 78 63 79 66 80 60 81 61 82 64 83 62 84 41 85 42 86
REMARK SMILES IDX 50 87 43 88 44 89 48 90 51 91 45 92 46 93 49 94 47 95
REMARK H PARENT 81 17 71 48 39 59
REMARK Flexibility Score: inf
ROOT
ATOM      1  C   UNL     1       1.155  -1.423  -6.466  1.00  0.00     0.274 C 
ENDROOT
BRANCH   1   2
ATOM      2  O   UNL     1       1.032  -0.999  -5.092  1.00  0.00    -0.462 OA
BRANCH   2   3
ATOM      3  C   UNL     1       0.431   0.194  -4.941  1.00  0.00     0.311 C 
ATOM      4  O   UNL     1       0.136   0.936  -5.878  1.00  0.00    -0.252 OA
BRANCH   3   5
ATOM      5  C   UNL     1       0.090   0.615  -3.538  1.00  0.00     0.134 C 
ATOM      6  C   UNL     1       1.604  -0.279  -0.190  1.00  0.00     0.147 C 
ATOM      7  N   UNL     1       1.234   0.187  -1.518  1.00  0.00    -0.339 N 
ATOM      8  C   UNL     1       1.766   1.381  -1.989  1.00  0.00     0.223 C 
ATOM      9  C   UNL     1       0.011  -0.239  -2.235  1.00  0.00     0.067 C 
ATOM     10  O   UNL     1       2.664   2.018  -1.488  1.00  0.00    -0.275 OA
ATOM     11  C   UNL     1       0.962   1.825  -3.176  1.00  0.00     0.118 C 
ATOM     12  C   UNL     1      -0.068  -1.789  -2.325  1.00  0.00     0.091 C 
ATOM     13  C   UNL     1      -1.217   0.334  -1.497  1.00  0.00     0.091 C 
ATOM     14  C   UNL     1      -1.312  -2.517  -1.736  1.00  0.00     0.264 C 
ATOM     15  C   UNL     1      -2.484  -0.418  -1.846  1.00  0.00     0.264 C 
ATOM     16  N   UNL     1      -2.419  -1.713  -1.242  1.00  0.00    -0.334 N 
ATOM     17  H   UNL     1      -3.233  -2.207  -1.607  1.00  0.00     0.348 HD
BRANCH  16  18
ATOM     18  C   UNL     1      -2.857  -1.859   0.151  1.00  0.00     0.273 C 
BRANCH  18  19
ATOM     19  C   UNL     1      -2.700  -0.733   1.222  1.00  0.00     0.136 C 
BRANCH  19  20
ATOM     20  S   UNL     1      -4.046   0.533   1.370  1.00  0.00    -0.120 SA
BRANCH  20  21
ATOM     21  C   UNL     1      -3.562   1.887   0.304  1.00  0.00     0.007 A 
ATOM     22  C   UNL     1      -2.403   2.647   0.493  1.00  0.00     0.015 A 
ATOM     23  C   UNL     1      -4.412   2.217  -0.764  1.00  0.00     0.015 A 
ATOM     24  C   UNL     1      -2.061   3.656  -0.424  1.00  0.00     0.001 A 
ATOM     25  C   UNL     1      -4.061   3.204  -1.690  1.00  0.00     0.001 A 
ATOM     26  C   UNL     1      -2.877   3.916  -1.526  1.00  0.00     0.000 A 
ENDBRANCH  20  21
ENDBRANCH  19  20
ENDBRANCH  18  19
ENDBRANCH  16  18
ENDBRANCH   3   5
ENDBRANCH   2   3
ENDBRANCH   1   2
BRANCH   1  27
ATOM     27  C   UNL     1      -0.037  -2.282  -6.911  1.00  0.00     0.275 C 
BRANCH  27  28
ATOM     28  O   UNL     1      -1.280  -1.544  -7.000  1.00  0.00    -0.458 OA
BRANCH  28  29
ATOM     29  C   UNL     1      -2.039  -1.604  -5.886  1.00  0.00     0.338 C 
ATOM     30  O   UNL     1      -1.742  -2.155  -4.837  1.00  0.00    -0.246 OA
BRANCH  29  31
ATOM     31  C   UNL     1      -3.331  -0.918  -6.002  1.00  0.00     0.060 A 
ATOM     32  C   UNL     1      -3.477   0.349  -5.436  1.00  0.00     0.016 A 
ATOM     33  C   UNL     1      -4.454  -1.650  -6.391  1.00  0.00     0.016 A 
ATOM     34  C   UNL     1      -4.755   0.864  -5.212  1.00  0.00     0.010 A 
ATOM     35  C   UNL     1      -5.731  -1.099  -6.230  1.00  0.00     0.010 A 
ATOM     36  C   UNL     1      -5.899   0.158  -5.624  1.00  0.00    -0.014 A 
BRANCH  36  37
ATOM     37  C   UNL     1      -7.255   0.757  -5.472  1.00  0.00     0.031 A 
ATOM     38  C   UNL     1      -8.323   0.102  -4.639  1.00  0.00     0.074 A 
ATOM     39  C   UNL     1      -7.541   1.902  -6.122  1.00  0.00     0.049 A 
ATOM     40  N   UNL     1      -9.596   0.402  -4.541  1.00  0.00    -0.248 NA
ATOM     41  C   UNL     1      -7.913  -1.044  -3.816  1.00  0.00     0.031 C 
ATOM     42  C   UNL     1      -6.601   2.653  -6.953  1.00  0.00     0.029 A 
ATOM     43  N   UNL     1      -8.704   2.630  -6.194  1.00  0.00    -0.354 N 
ATOM     44  C   UNL     1     -10.150  -0.544  -3.688  1.00  0.00     0.074 A 
ATOM     45  C   UNL     1      -9.070  -1.424  -3.288  1.00  0.00     0.031 C 
ATOM     46  C   UNL     1      -7.211   3.745  -7.430  1.00  0.00     0.029 A 
ATOM     47  C   UNL     1      -8.609   3.728  -7.012  1.00  0.00     0.049 A 
ATOM     48  H   UNL     1      -9.524   2.389  -5.705  1.00  0.00     0.167 HD
ATOM     49  C   UNL     1     -11.440  -0.668  -3.285  1.00  0.00     0.037 A 
ATOM     50  C   UNL     1      -9.544   4.600  -7.431  1.00  0.00     0.037 A 
ATOM     51  C   UNL     1     -12.506   0.234  -3.649  1.00  0.00     0.049 A 
ATOM     52  C   UNL     1     -10.965   4.438  -6.981  1.00  0.00     0.074 A 
ATOM     53  C   UNL     1     -13.832   0.211  -3.249  1.00  0.00     0.029 A 
ATOM     54  N   UNL     1     -12.369   1.325  -4.496  1.00  0.00    -0.354 N 
ATOM     55  N   UNL     1     -11.482   3.522  -6.200  1.00  0.00    -0.248 NA
ATOM     56  C   UNL     1     -11.935   5.419  -7.485  1.00  0.00     0.031 C 
ATOM     57  C   UNL     1     -14.506   1.259  -3.888  1.00  0.00     0.029 A 
ATOM     58  C   UNL     1     -13.591   1.965  -4.650  1.00  0.00     0.049 A 
ATOM     59  H   UNL     1     -11.528   1.604  -4.925  1.00  0.00     0.167 HD
ATOM     60  C   UNL     1     -12.836   3.810  -6.122  1.00  0.00     0.074 A 
ATOM     61  C   UNL     1     -13.057   5.004  -6.913  1.00  0.00     0.031 C 
ATOM     62  C   UNL     1     -13.809   3.138  -5.459  1.00  0.00     0.037 A 
BRANCH  49  63
ATOM     63  C   UNL     1     -11.793  -1.856  -2.434  1.00  0.00     0.064 A 
ATOM     64  C   UNL     1     -11.405  -1.954  -1.090  1.00  0.00     0.173 A 
ATOM     65  C   UNL     1     -12.575  -2.894  -2.967  1.00  0.00     0.173 A 
ATOM     66  F   UNL     1     -10.654  -0.993  -0.532  1.00  0.00    -0.203 F 
ATOM     67  C   UNL     1     -11.762  -3.061  -0.320  1.00  0.00     0.198 A 
ATOM     68  C   UNL     1     -12.952  -3.985  -2.188  1.00  0.00     0.198 A 
ATOM     69  F   UNL     1     -12.984  -2.845  -4.244  1.00  0.00    -0.203 F 
ATOM     70  F   UNL     1     -11.343  -3.155   0.949  1.00  0.00    -0.200 F 
ATOM     71  C   UNL     1     -12.538  -4.071  -0.868  1.00  0.00     0.200 A 
ATOM     72  F   UNL     1     -13.716  -4.952  -2.715  1.00  0.00    -0.200 F 
ATOM     73  F   UNL     1     -12.883  -5.132  -0.125  1.00  0.00    -0.200 F 
ENDBRANCH  49  63
BRANCH  50  74
ATOM     74  C   UNL     1      -9.148   5.679  -8.370  1.00  0.00     0.064 A 
ATOM     75  C   UNL     1      -9.062   7.010  -7.946  1.00  0.00     0.173 A 
ATOM     76  C   UNL     1      -8.775   5.385  -9.691  1.00  0.00     0.173 A 
ATOM     77  F   UNL     1      -9.429   7.341  -6.699  1.00  0.00    -0.203 F 
ATOM     78  C   UNL     1      -8.609   8.008  -8.806  1.00  0.00     0.198 A 
ATOM     79  C   UNL     1      -8.294   6.377 -10.539  1.00  0.00     0.198 A 
ATOM     80  F   UNL     1      -8.836   4.122 -10.139  1.00  0.00    -0.203 F 
ATOM     81  F   UNL     1      -8.551   9.278  -8.383  1.00  0.00    -0.200 F 
ATOM     82  C   UNL     1      -8.212   7.688 -10.097  1.00  0.00     0.200 A 
ATOM     83  F   UNL     1      -7.892   6.059 -11.777  1.00  0.00    -0.200 F 
ATOM     84  F   UNL     1      -7.748   8.643 -10.913  1.00  0.00    -0.200 F 
ENDBRANCH  50  74
BRANCH  62  85
ATOM     85  C   UNL     1     -15.204   3.681  -5.564  1.00  0.00     0.064 A 
ATOM     86  C   UNL     1     -15.952   3.549  -6.743  1.00  0.00     0.173 A 
ATOM     87  C   UNL     1     -15.804   4.328  -4.474  1.00  0.00     0.173 A 
ATOM     88  F   UNL     1     -15.416   2.955  -7.820  1.00  0.00    -0.203 F 
ATOM     89  C   UNL     1     -17.242   4.066  -6.834  1.00  0.00     0.198 A 
ATOM     90  C   UNL     1     -17.102   4.822  -4.560  1.00  0.00     0.198 A 
ATOM     91  F   UNL     1     -15.131   4.479  -3.323  1.00  0.00    -0.203 F 
ATOM     92  F   UNL     1     -17.922   3.970  -7.986  1.00  0.00    -0.200 F 
ATOM     93  C   UNL     1     -17.818   4.698  -5.742  1.00  0.00     0.200 A 
ATOM     94  F   UNL     1     -17.660   5.426  -3.502  1.00  0.00    -0.200 F 
ATOM     95  F   UNL     1     -19.058   5.196  -5.832  1.00  0.00    -0.200 F 
ENDBRANCH  62  85
ENDBRANCH  36  37
ENDBRANCH  29  31
ENDBRANCH  28  29
ENDBRANCH  27  28
ENDBRANCH   1  27
TORSDOF 15
