REMARK SMILES CS(=O)(=O)N(Cc1ccc(Cl)cc1)c1ccc(C(=O)Nc2ccccc2C(=O)OCCOC(=O)c2ccc(-c3c4nc(c(-c5c(F)c(F)c(F)c(F)c5F)c5ccc([nH]5)c(-c5c(F)c(F)c(F)c(F)c5F)c5nc(c(-c6c(F)c(F)c(F)c(F)c6F)c6ccc3[nH]6)C=C5)C=C4)cc2)cc1
REMARK SMILES IDX 29 1 27 2 28 3 26 4 21 5 22 6 23 7 25 8 24 9 20 10 18 11
REMARK SMILES IDX 19 12 17 14 14 15 15 16 99 17 16 18 98 19 5 20 2 21 1 22
REMARK SMILES IDX 3 23 4 24 6 25 7 26 8 27 13 28 9 29 12 30 10 31 11 32 30 33
REMARK SMILES IDX 31 34 32 35 33 36 34 37 35 38 36 39 97 40 37 41 96 42 38 43
REMARK SMILES IDX 39 44 40 45 90 46 41 47 95 48 89 49 91 50 42 51 94 52 88 53
REMARK SMILES IDX 87 54 43 56 75 57 55 58 74 59 56 60 59 61 73 62 92 63 57 64
REMARK SMILES IDX 58 65 72 67 93 68 60 69 44 70 45 71 53 72 46 73 47 74 51 75
REMARK SMILES IDX 54 76 48 77 49 78 52 79 50 80 76 81 77 82 85 83 78 84 79 85
REMARK SMILES IDX 83 86 86 87 80 88 81 89 84 90 82 91 61 92 62 93 70 94 63 95
REMARK SMILES IDX 64 96 68 97 71 98 65 99 66 100 69 101 67 102
REMARK H PARENT 20 13 91 55 59 66
REMARK Flexibility Score: inf
ROOT
ATOM      1  O   UNL     1      -1.700  -5.790  -5.579  1.00  0.00    -0.458 OA
ENDROOT
BRANCH   1   2
ATOM      2  C   UNL     1      -2.072  -5.153  -4.443  1.00  0.00     0.340 C 
ATOM      3  O   UNL     1      -1.715  -4.038  -4.093  1.00  0.00    -0.246 OA
BRANCH   2   4
ATOM      4  C   UNL     1      -3.032  -5.953  -3.652  1.00  0.00     0.083 A 
ATOM      5  C   UNL     1      -2.807  -7.268  -3.214  1.00  0.00     0.056 A 
ATOM      6  C   UNL     1      -3.860  -7.950  -2.577  1.00  0.00     0.027 A 
ATOM      7  C   UNL     1      -5.067  -7.312  -2.281  1.00  0.00     0.002 A 
ATOM      8  C   UNL     1      -4.249  -5.320  -3.340  1.00  0.00     0.018 A 
ATOM      9  C   UNL     1      -5.256  -5.989  -2.649  1.00  0.00     0.001 A 
BRANCH   5  10
ATOM     10  N   UNL     1      -1.611  -8.006  -3.317  1.00  0.00    -0.321 N 
ATOM     11  C   UNL     1      -0.290  -7.628  -3.305  1.00  0.00     0.255 C 
ATOM     12  O   UNL     1       0.572  -8.425  -3.675  1.00  0.00    -0.269 OA
ATOM     13  H   UNL     1      -1.748  -8.976  -3.416  1.00  0.00     0.170 HD
BRANCH  11  14
ATOM     14  C   UNL     1       0.142  -6.315  -2.776  1.00  0.00     0.040 A 
ATOM     15  C   UNL     1       0.937  -3.702  -1.964  1.00  0.00     0.052 A 
ATOM     16  C   UNL     1       1.541  -4.367  -3.050  1.00  0.00     0.028 A 
ATOM     17  C   UNL     1      -0.017  -4.438  -1.244  1.00  0.00     0.028 A 
ATOM     18  C   UNL     1       1.167  -5.655  -3.444  1.00  0.00     0.016 A 
ATOM     19  C   UNL     1      -0.418  -5.726  -1.644  1.00  0.00     0.016 A 
BRANCH  15  20
ATOM     20  N   UNL     1       1.457  -2.385  -1.526  1.00  0.00    -0.266 N 
BRANCH  20  21
ATOM     21  S   UNL     1       0.533  -1.504  -0.385  1.00  0.00     0.232 S 
ATOM     22  C   UNL     1       1.578  -0.128   0.068  1.00  0.00     0.183 C 
ATOM     23  O   UNL     1       0.388  -2.299   0.818  1.00  0.00    -0.207 OA
ATOM     24  O   UNL     1      -0.630  -0.963  -1.061  1.00  0.00    -0.207 OA
ENDBRANCH  20  21
BRANCH  20  25
ATOM     25  C   UNL     1       2.093  -1.547  -2.593  1.00  0.00     0.170 C 
BRANCH  25  26
ATOM     26  C   UNL     1       3.596  -1.766  -2.751  1.00  0.00    -0.027 A 
ATOM     27  C   UNL     1       4.279  -2.817  -2.112  1.00  0.00     0.007 A 
ATOM     28  C   UNL     1       4.315  -0.950  -3.639  1.00  0.00     0.007 A 
ATOM     29  C   UNL     1       5.614  -3.097  -2.412  1.00  0.00     0.021 A 
ATOM     30  C   UNL     1       5.662  -1.212  -3.917  1.00  0.00     0.021 A 
ATOM     31  C   UNL     1       6.298  -2.297  -3.319  1.00  0.00     0.041 A 
ATOM     32  Cl  UNL     1       7.931  -2.663  -3.717  1.00  0.00    -0.084 Cl
ENDBRANCH  25  26
ENDBRANCH  20  25
ENDBRANCH  15  20
ENDBRANCH  11  14
ENDBRANCH   5  10
ENDBRANCH   2   4
ENDBRANCH   1   2
BRANCH   1  33
ATOM     33  C   UNL     1      -0.657  -5.141  -6.340  1.00  0.00     0.275 C 
BRANCH  33  34
ATOM     34  C   UNL     1      -1.194  -4.290  -7.485  1.00  0.00     0.275 C 
BRANCH  34  35
ATOM     35  O   UNL     1      -1.911  -3.157  -6.963  1.00  0.00    -0.458 OA
BRANCH  35  36
ATOM     36  C   UNL     1      -3.210  -3.083  -7.310  1.00  0.00     0.338 C 
ATOM     37  O   UNL     1      -3.825  -3.821  -8.070  1.00  0.00    -0.246 OA
BRANCH  36  38
ATOM     38  C   UNL     1      -3.864  -1.968  -6.614  1.00  0.00     0.060 A 
ATOM     39  C   UNL     1      -3.996  -2.015  -5.229  1.00  0.00     0.016 A 
ATOM     40  C   UNL     1      -4.518  -0.979  -7.343  1.00  0.00     0.016 A 
ATOM     41  C   UNL     1      -4.884  -1.169  -4.577  1.00  0.00     0.010 A 
ATOM     42  C   UNL     1      -5.330  -0.058  -6.675  1.00  0.00     0.010 A 
ATOM     43  C   UNL     1      -5.567  -0.181  -5.293  1.00  0.00    -0.014 A 
BRANCH  43  44
ATOM     44  C   UNL     1      -6.595   0.655  -4.620  1.00  0.00     0.031 A 
ATOM     45  C   UNL     1      -8.016   0.620  -5.115  1.00  0.00     0.074 A 
ATOM     46  C   UNL     1      -6.280   1.411  -3.551  1.00  0.00     0.049 A 
ATOM     47  N   UNL     1      -9.012   1.423  -4.839  1.00  0.00    -0.248 NA
ATOM     48  C   UNL     1      -8.359  -0.457  -6.059  1.00  0.00     0.031 C 
ATOM     49  C   UNL     1      -4.965   1.474  -2.913  1.00  0.00     0.029 A 
ATOM     50  N   UNL     1      -7.051   2.268  -2.806  1.00  0.00    -0.354 N 
ATOM     51  C   UNL     1     -10.071   0.997  -5.631  1.00  0.00     0.074 A 
ATOM     52  C   UNL     1      -9.606  -0.146  -6.386  1.00  0.00     0.031 C 
ATOM     53  C   UNL     1      -5.029   2.295  -1.854  1.00  0.00     0.029 A 
ATOM     54  C   UNL     1      -6.358   2.891  -1.797  1.00  0.00     0.049 A 
ATOM     55  H   UNL     1      -8.008   2.422  -2.978  1.00  0.00     0.167 HD
ATOM     56  C   UNL     1     -11.313   1.526  -5.725  1.00  0.00     0.037 A 
ATOM     57  C   UNL     1      -6.736   3.870  -0.954  1.00  0.00     0.037 A 
ATOM     58  C   UNL     1     -11.788   2.616  -4.914  1.00  0.00     0.049 A 
ATOM     59  C   UNL     1      -8.118   4.446  -1.079  1.00  0.00     0.074 A 
ATOM     60  C   UNL     1     -13.028   3.231  -4.928  1.00  0.00     0.029 A 
ATOM     61  N   UNL     1     -11.045   3.234  -3.919  1.00  0.00    -0.354 N 
ATOM     62  N   UNL     1      -9.079   4.113  -1.905  1.00  0.00    -0.248 NA
ATOM     63  C   UNL     1      -8.458   5.552  -0.174  1.00  0.00     0.031 C 
ATOM     64  C   UNL     1     -13.027   4.236  -3.954  1.00  0.00     0.029 A 
ATOM     65  C   UNL     1     -11.799   4.225  -3.313  1.00  0.00     0.049 A 
ATOM     66  H   UNL     1     -10.119   3.002  -3.679  1.00  0.00     0.167 HD
ATOM     67  C   UNL     1     -10.135   4.968  -1.626  1.00  0.00     0.074 A 
ATOM     68  C   UNL     1      -9.707   5.816  -0.531  1.00  0.00     0.031 C 
ATOM     69  C   UNL     1     -11.345   5.055  -2.228  1.00  0.00     0.037 A 
BRANCH  56  70
ATOM     70  C   UNL     1     -12.231   0.967  -6.771  1.00  0.00     0.064 A 
ATOM     71  C   UNL     1     -12.859  -0.277  -6.626  1.00  0.00     0.173 A 
ATOM     72  C   UNL     1     -12.508   1.712  -7.928  1.00  0.00     0.173 A 
ATOM     73  F   UNL     1     -12.612  -1.035  -5.547  1.00  0.00    -0.203 F 
ATOM     74  C   UNL     1     -13.718  -0.764  -7.609  1.00  0.00     0.198 A 
ATOM     75  C   UNL     1     -13.385   1.234  -8.898  1.00  0.00     0.198 A 
ATOM     76  F   UNL     1     -11.933   2.910  -8.115  1.00  0.00    -0.203 F 
ATOM     77  F   UNL     1     -14.279  -1.973  -7.468  1.00  0.00    -0.200 F 
ATOM     78  C   UNL     1     -13.985  -0.006  -8.740  1.00  0.00     0.200 A 
ATOM     79  F   UNL     1     -13.648   1.972  -9.985  1.00  0.00    -0.200 F 
ATOM     80  F   UNL     1     -14.817  -0.473  -9.681  1.00  0.00    -0.200 F 
ENDBRANCH  56  70
BRANCH  57  81
ATOM     81  C   UNL     1      -5.766   4.405   0.037  1.00  0.00     0.064 A 
ATOM     82  C   UNL     1      -5.939   4.185   1.409  1.00  0.00     0.173 A 
ATOM     83  C   UNL     1      -4.638   5.134  -0.371  1.00  0.00     0.173 A 
ATOM     84  F   UNL     1      -7.017   3.520   1.850  1.00  0.00    -0.203 F 
ATOM     85  C   UNL     1      -5.024   4.679   2.337  1.00  0.00     0.198 A 
ATOM     86  C   UNL     1      -3.708   5.599   0.554  1.00  0.00     0.198 A 
ATOM     87  F   UNL     1      -4.429   5.375  -1.674  1.00  0.00    -0.203 F 
ATOM     88  F   UNL     1      -5.232   4.488   3.647  1.00  0.00    -0.200 F 
ATOM     89  C   UNL     1      -3.904   5.377   1.908  1.00  0.00     0.200 A 
ATOM     90  F   UNL     1      -2.621   6.261   0.134  1.00  0.00    -0.200 F 
ATOM     91  F   UNL     1      -3.018   5.840   2.800  1.00  0.00    -0.200 F 
ENDBRANCH  57  81
BRANCH  69  92
ATOM     92  C   UNL     1     -12.287   6.096  -1.706  1.00  0.00     0.064 A 
ATOM     93  C   UNL     1     -12.111   7.454  -2.010  1.00  0.00     0.173 A 
ATOM     94  C   UNL     1     -13.386   5.730  -0.916  1.00  0.00     0.173 A 
ATOM     95  F   UNL     1     -11.063   7.850  -2.748  1.00  0.00    -0.203 F 
ATOM     96  C   UNL     1     -12.993   8.413  -1.521  1.00  0.00     0.198 A 
ATOM     97  C   UNL     1     -14.277   6.690  -0.447  1.00  0.00     0.198 A 
ATOM     98  F   UNL     1     -13.595   4.443  -0.603  1.00  0.00    -0.203 F 
ATOM     99  F   UNL     1     -12.784   9.709  -1.788  1.00  0.00    -0.200 F 
ATOM    100  C   UNL     1     -14.077   8.030  -0.745  1.00  0.00     0.200 A 
ATOM    101  F   UNL     1     -15.328   6.319   0.297  1.00  0.00    -0.200 F 
ATOM    102  F   UNL     1     -14.925   8.955  -0.275  1.00  0.00    -0.200 F 
ENDBRANCH  69  92
ENDBRANCH  43  44
ENDBRANCH  36  38
ENDBRANCH  35  36
ENDBRANCH  34  35
ENDBRANCH  33  34
ENDBRANCH   1  33
TORSDOF 17
