REMARK SMILES CCCCOC(=O)[C@@H]1[C@H]2c3ccccc3[C@H](c3ccccc32)[C@@H]1C(=O)OCCOC(=O)c1ccc(-c2c3nc(c(-c4c(F)c(F)c(F)c(F)c4F)c4ccc([nH]4)c(-c4c(F)c(F)c(F)c(F)c4F)c4nc(c(-c5c(F)c(F)c(F)c(F)c5F)c5ccc2[nH]5)C=C4)C=C3)cc1
REMARK SMILES IDX 26 1 24 2 25 3 23 4 8 5 9 6 22 7 10 8 16 9 21 10 17 11 15 12
REMARK SMILES IDX 11 13 20 14 18 15 14 16 12 17 19 18 13 19 6 20 7 21 5 22
REMARK SMILES IDX 4 23 3 24 2 25 1 26 27 27 28 28 29 29 30 30 31 31 32 32
REMARK SMILES IDX 33 33 94 34 34 35 93 36 35 37 36 38 37 39 87 40 38 41 92 42
REMARK SMILES IDX 86 43 88 44 39 45 91 46 85 47 84 48 40 50 72 51 52 52 71 53
REMARK SMILES IDX 53 54 56 55 70 56 89 57 54 58 55 59 69 61 90 62 57 63 41 64
REMARK SMILES IDX 42 65 50 66 43 67 44 68 48 69 51 70 45 71 46 72 49 73 47 74
REMARK SMILES IDX 73 75 74 76 82 77 75 78 76 79 80 80 83 81 77 82 78 83 81 84
REMARK SMILES IDX 79 85 58 86 59 87 67 88 60 89 61 90 65 91 68 92 62 93 63 94
REMARK SMILES IDX 66 95 64 96
REMARK H PARENT 88 49 56 60
REMARK Flexibility Score: inf
ROOT
ATOM      1  O   UNL     1      -5.767  -0.174   1.711  1.00  0.00    -0.462 OA
ENDROOT
BRANCH   1   2
ATOM      2  C   UNL     1      -4.430  -0.209   1.893  1.00  0.00     0.310 C 
ATOM      3  O   UNL     1      -3.753   0.757   2.233  1.00  0.00    -0.252 OA
BRANCH   2   4
ATOM      4  C   UNL     1      -3.804  -1.553   1.570  1.00  0.00     0.126 C 
ATOM      5  C   UNL     1      -3.354  -1.698   0.073  1.00  0.00     0.126 C 
ATOM      6  C   UNL     1      -3.870  -3.053  -0.502  1.00  0.00     0.065 C 
ATOM      7  C   UNL     1      -5.387  -3.087  -0.319  1.00  0.00    -0.036 A 
ATOM      8  C   UNL     1      -3.287  -4.122   0.434  1.00  0.00    -0.036 A 
ATOM      9  C   UNL     1      -4.648  -2.791   2.010  1.00  0.00     0.065 C 
ATOM     10  C   UNL     1      -6.325  -3.180  -1.338  1.00  0.00     0.004 A 
ATOM     11  C   UNL     1      -5.803  -2.952   1.027  1.00  0.00    -0.036 A 
ATOM     12  C   UNL     1      -3.714  -3.984   1.785  1.00  0.00    -0.036 A 
ATOM     13  C   UNL     1      -2.433  -5.152   0.070  1.00  0.00     0.004 A 
ATOM     14  C   UNL     1      -7.681  -3.131  -1.008  1.00  0.00     0.000 A 
ATOM     15  C   UNL     1      -7.152  -2.928   1.356  1.00  0.00     0.004 A 
ATOM     16  C   UNL     1      -3.295  -4.879   2.760  1.00  0.00     0.004 A 
ATOM     17  C   UNL     1      -2.009  -6.048   1.056  1.00  0.00     0.000 A 
ATOM     18  C   UNL     1      -8.091  -3.010   0.328  1.00  0.00     0.000 A 
ATOM     19  C   UNL     1      -2.438  -5.915   2.386  1.00  0.00     0.000 A 
BRANCH   5  20
ATOM     20  C   UNL     1      -3.778  -0.510  -0.766  1.00  0.00     0.310 C 
ATOM     21  O   UNL     1      -4.794  -0.446  -1.439  1.00  0.00    -0.252 OA
BRANCH  20  22
ATOM     22  O   UNL     1      -2.909   0.523  -0.577  1.00  0.00    -0.465 OA
BRANCH  22  23
ATOM     23  C   UNL     1      -3.406   1.831  -0.910  1.00  0.00     0.233 C 
BRANCH  23  24
ATOM     24  C   UNL     1      -2.882   2.320  -2.258  1.00  0.00     0.041 C 
BRANCH  24  25
ATOM     25  C   UNL     1      -3.296   1.468  -3.458  1.00  0.00     0.000 C 
ATOM     26  C   UNL     1      -4.779   1.567  -3.791  1.00  0.00     0.004 C 
ENDBRANCH  24  25
ENDBRANCH  23  24
ENDBRANCH  22  23
ENDBRANCH  20  22
ENDBRANCH   5  20
ENDBRANCH   2   4
ENDBRANCH   1   2
BRANCH   1  27
ATOM     27  C   UNL     1      -6.439   1.077   1.944  1.00  0.00     0.274 C 
BRANCH  27  28
ATOM     28  C   UNL     1      -7.031   1.135   3.354  1.00  0.00     0.275 C 
BRANCH  28  29
ATOM     29  O   UNL     1      -5.998   1.293   4.343  1.00  0.00    -0.458 OA
BRANCH  29  30
ATOM     30  C   UNL     1      -5.480   0.139   4.834  1.00  0.00     0.338 C 
ATOM     31  O   UNL     1      -5.866  -0.993   4.622  1.00  0.00    -0.246 OA
BRANCH  30  32
ATOM     32  C   UNL     1      -4.216   0.447   5.529  1.00  0.00     0.060 A 
ATOM     33  C   UNL     1      -4.138   1.464   6.481  1.00  0.00     0.016 A 
ATOM     34  C   UNL     1      -3.084  -0.308   5.198  1.00  0.00     0.016 A 
ATOM     35  C   UNL     1      -2.912   1.733   7.091  1.00  0.00     0.010 A 
ATOM     36  C   UNL     1      -1.857  -0.026   5.791  1.00  0.00     0.010 A 
ATOM     37  C   UNL     1      -1.767   0.995   6.742  1.00  0.00    -0.014 A 
BRANCH  37  38
ATOM     38  C   UNL     1      -0.493   1.228   7.452  1.00  0.00     0.031 A 
ATOM     39  C   UNL     1       0.590   2.062   6.848  1.00  0.00     0.074 A 
ATOM     40  C   UNL     1      -0.331   0.662   8.660  1.00  0.00     0.049 A 
ATOM     41  N   UNL     1       1.696   2.494   7.398  1.00  0.00    -0.248 NA
ATOM     42  C   UNL     1       0.419   2.451   5.442  1.00  0.00     0.031 C 
ATOM     43  C   UNL     1      -1.303  -0.220   9.304  1.00  0.00     0.029 A 
ATOM     44  N   UNL     1       0.695   0.755   9.562  1.00  0.00    -0.354 N 
ATOM     45  C   UNL     1       2.336   3.239   6.420  1.00  0.00     0.074 A 
ATOM     46  C   UNL     1       1.530   3.142   5.220  1.00  0.00     0.031 C 
ATOM     47  C   UNL     1      -0.848  -0.553  10.521  1.00  0.00     0.029 A 
ATOM     48  C   UNL     1       0.446   0.090  10.735  1.00  0.00     0.049 A 
ATOM     49  H   UNL     1       1.528   1.250   9.386  1.00  0.00     0.167 HD
ATOM     50  C   UNL     1       3.478   3.959   6.530  1.00  0.00     0.037 A 
ATOM     51  C   UNL     1       1.166   0.036  11.870  1.00  0.00     0.037 A 
ATOM     52  C   UNL     1       4.284   4.014   7.724  1.00  0.00     0.049 A 
ATOM     53  C   UNL     1       2.446   0.815  11.961  1.00  0.00     0.074 A 
ATOM     54  C   UNL     1       5.436   4.745   7.958  1.00  0.00     0.029 A 
ATOM     55  N   UNL     1       4.029   3.290   8.882  1.00  0.00    -0.354 N 
ATOM     56  N   UNL     1       2.995   1.604  11.070  1.00  0.00    -0.248 NA
ATOM     57  C   UNL     1       3.199   0.705  13.216  1.00  0.00     0.031 C 
ATOM     58  C   UNL     1       5.903   4.426   9.239  1.00  0.00     0.029 A 
ATOM     59  C   UNL     1       5.019   3.532   9.822  1.00  0.00     0.049 A 
ATOM     60  H   UNL     1       3.259   2.692   9.015  1.00  0.00     0.167 HD
ATOM     61  C   UNL     1       4.152   2.096  11.656  1.00  0.00     0.074 A 
ATOM     62  C   UNL     1       4.215   1.528  12.989  1.00  0.00     0.031 C 
ATOM     63  C   UNL     1       5.076   2.941  11.137  1.00  0.00     0.037 A 
BRANCH  50  64
ATOM     64  C   UNL     1       3.911   4.757   5.335  1.00  0.00     0.064 A 
ATOM     65  C   UNL     1       3.191   5.888   4.919  1.00  0.00     0.173 A 
ATOM     66  C   UNL     1       5.070   4.420   4.621  1.00  0.00     0.173 A 
ATOM     67  F   UNL     1       2.072   6.252   5.564  1.00  0.00    -0.203 F 
ATOM     68  C   UNL     1       3.599   6.634   3.816  1.00  0.00     0.198 A 
ATOM     69  C   UNL     1       5.490   5.185   3.535  1.00  0.00     0.198 A 
ATOM     70  F   UNL     1       5.802   3.356   4.981  1.00  0.00    -0.203 F 
ATOM     71  F   UNL     1       2.870   7.685   3.413  1.00  0.00    -0.200 F 
ATOM     72  C   UNL     1       4.751   6.286   3.128  1.00  0.00     0.200 A 
ATOM     73  F   UNL     1       6.612   4.856   2.879  1.00  0.00    -0.200 F 
ATOM     74  F   UNL     1       5.146   7.008   2.071  1.00  0.00    -0.200 F 
ENDBRANCH  50  64
BRANCH  51  75
ATOM     75  C   UNL     1       0.622  -0.714  13.028  1.00  0.00     0.064 A 
ATOM     76  C   UNL     1       0.065  -0.030  14.116  1.00  0.00     0.173 A 
ATOM     77  C   UNL     1       0.563  -2.114  13.031  1.00  0.00     0.173 A 
ATOM     78  F   UNL     1       0.108   1.310  14.158  1.00  0.00    -0.203 F 
ATOM     79  C   UNL     1      -0.538  -0.720  15.164  1.00  0.00     0.198 A 
ATOM     80  C   UNL     1      -0.059  -2.803  14.070  1.00  0.00     0.198 A 
ATOM     81  F   UNL     1       1.072  -2.810  12.004  1.00  0.00    -0.203 F 
ATOM     82  F   UNL     1      -1.059  -0.044  16.197  1.00  0.00    -0.200 F 
ATOM     83  C   UNL     1      -0.609  -2.105  15.135  1.00  0.00     0.200 A 
ATOM     84  F   UNL     1      -0.142  -4.139  14.030  1.00  0.00    -0.200 F 
ATOM     85  F   UNL     1      -1.213  -2.767  16.131  1.00  0.00    -0.200 F 
ENDBRANCH  51  75
BRANCH  63  86
ATOM     86  C   UNL     1       6.247   3.295  12.005  1.00  0.00     0.064 A 
ATOM     87  C   UNL     1       7.277   2.374  12.247  1.00  0.00     0.173 A 
ATOM     88  C   UNL     1       6.374   4.583  12.545  1.00  0.00     0.173 A 
ATOM     89  F   UNL     1       7.193   1.125  11.766  1.00  0.00    -0.203 F 
ATOM     90  C   UNL     1       8.387   2.728  13.009  1.00  0.00     0.198 A 
ATOM     91  C   UNL     1       7.498   4.941  13.284  1.00  0.00     0.198 A 
ATOM     92  F   UNL     1       5.418   5.501  12.337  1.00  0.00    -0.203 F 
ATOM     93  F   UNL     1       9.344   1.823  13.255  1.00  0.00    -0.200 F 
ATOM     94  C   UNL     1       8.501   4.013  13.518  1.00  0.00     0.200 A 
ATOM     95  F   UNL     1       7.613   6.187  13.765  1.00  0.00    -0.200 F 
ATOM     96  F   UNL     1       9.578   4.356  14.239  1.00  0.00    -0.200 F 
ENDBRANCH  63  86
ENDBRANCH  37  38
ENDBRANCH  30  32
ENDBRANCH  29  30
ENDBRANCH  28  29
ENDBRANCH  27  28
ENDBRANCH   1  27
TORSDOF 16
