REMARK SMILES COc1ccccc1-c1ccc(O)c(C(=O)OCCOC(=O)c2ccc(-c3c4nc(c(-c5c(F)c(F)c(F)c(F)c5F)c5ccc([nH]5)c(-c5c(F)c(F)c(F)c(F)c5F)c5nc(c(-c6c(F)c(F)c(F)c(F)c6F)c6ccc3[nH]6)C=C5)C=C4)cc2)c1
REMARK SMILES IDX 18 1 17 2 15 3 16 4 14 5 9 6 10 7 86 8 11 9 12 10 8 11 3 12
REMARK SMILES IDX 4 13 5 14 7 15 6 16 2 17 1 18 13 19 19 21 20 22 21 23 22 24
REMARK SMILES IDX 23 25 24 26 85 27 25 28 84 29 26 30 27 31 28 32 78 33 29 34
REMARK SMILES IDX 83 35 77 36 79 37 30 38 82 39 76 40 75 41 31 43 63 44 43 45
REMARK SMILES IDX 62 46 44 47 47 48 61 49 80 50 45 51 46 52 60 54 81 55 48 56
REMARK SMILES IDX 32 57 33 58 41 59 34 60 35 61 39 62 42 63 36 64 37 65 40 66
REMARK SMILES IDX 38 67 64 68 65 69 73 70 66 71 67 72 71 73 74 74 68 75 69 76
REMARK SMILES IDX 72 77 70 78 49 79 50 80 58 81 51 82 52 83 56 84 59 85 53 86
REMARK SMILES IDX 54 87 57 88 55 89
REMARK H PARENT 13 20 79 42 47 53
REMARK Flexibility Score: inf
ROOT
ATOM      1  C   UNL     1       4.455  -3.462  -2.950  1.00  0.00     0.275 C 
ENDROOT
BRANCH   1   2
ATOM      2  O   UNL     1       4.067  -2.229  -2.314  1.00  0.00    -0.458 OA
BRANCH   2   3
ATOM      3  C   UNL     1       4.185  -2.187  -0.966  1.00  0.00     0.342 C 
ATOM      4  O   UNL     1       4.544  -3.102  -0.237  1.00  0.00    -0.246 OA
BRANCH   3   5
ATOM      5  C   UNL     1       3.917  -0.831  -0.429  1.00  0.00     0.102 A 
ATOM      6  C   UNL     1       2.974   1.410  -0.636  1.00  0.00    -0.014 A 
ATOM      7  C   UNL     1       3.509   1.731   0.623  1.00  0.00     0.013 A 
ATOM      8  C   UNL     1       3.240   0.139  -1.179  1.00  0.00     0.028 A 
ATOM      9  C   UNL     1       4.185   0.773   1.376  1.00  0.00     0.048 A 
ATOM     10  C   UNL     1       4.344  -0.513   0.870  1.00  0.00     0.130 A 
BRANCH   6  11
ATOM     11  C   UNL     1       2.021   2.327  -1.281  1.00  0.00     0.024 A 
ATOM     12  C   UNL     1       0.682   1.948  -1.520  1.00  0.00     0.126 A 
ATOM     13  C   UNL     1      -0.232   2.838  -2.088  1.00  0.00     0.047 A 
ATOM     14  C   UNL     1       0.162   4.137  -2.399  1.00  0.00     0.004 A 
ATOM     15  C   UNL     1       2.398   3.639  -1.617  1.00  0.00     0.012 A 
ATOM     16  C   UNL     1       1.477   4.536  -2.168  1.00  0.00     0.001 A 
BRANCH  12  17
ATOM     17  O   UNL     1       0.215   0.676  -1.281  1.00  0.00    -0.496 OA
ATOM     18  C   UNL     1       0.016   0.431   0.112  1.00  0.00     0.278 C 
ENDBRANCH  12  17
ENDBRANCH   6  11
BRANCH  10  19
ATOM     19  O   UNL     1       4.950  -1.412   1.708  1.00  0.00    -0.507 OA
ATOM     20  H   UNL     1       5.215  -1.147   2.567  1.00  0.00     0.293 HD
ENDBRANCH  10  19
ENDBRANCH   3   5
ENDBRANCH   2   3
ENDBRANCH   1   2
BRANCH   1  21
ATOM     21  C   UNL     1       5.830  -3.332  -3.611  1.00  0.00     0.275 C 
BRANCH  21  22
ATOM     22  O   UNL     1       6.866  -3.153  -2.625  1.00  0.00    -0.458 OA
BRANCH  22  23
ATOM     23  C   UNL     1       7.253  -1.873  -2.419  1.00  0.00     0.338 C 
ATOM     24  O   UNL     1       6.883  -0.880  -3.030  1.00  0.00    -0.246 OA
BRANCH  23  25
ATOM     25  C   UNL     1       8.064  -1.798  -1.192  1.00  0.00     0.060 A 
ATOM     26  C   UNL     1       7.631  -0.920  -0.197  1.00  0.00     0.016 A 
ATOM     27  C   UNL     1       9.232  -2.542  -1.012  1.00  0.00     0.016 A 
ATOM     28  C   UNL     1       8.321  -0.819   1.007  1.00  0.00     0.010 A 
ATOM     29  C   UNL     1       9.956  -2.405   0.181  1.00  0.00     0.010 A 
ATOM     30  C   UNL     1       9.499  -1.547   1.198  1.00  0.00    -0.014 A 
BRANCH  30  31
ATOM     31  C   UNL     1      10.294  -1.319   2.427  1.00  0.00     0.031 A 
ATOM     32  C   UNL     1      11.416  -0.322   2.399  1.00  0.00     0.074 A 
ATOM     33  C   UNL     1       9.987  -1.957   3.570  1.00  0.00     0.049 A 
ATOM     34  N   UNL     1      12.264   0.001   3.342  1.00  0.00    -0.248 NA
ATOM     35  C   UNL     1      11.602   0.417   1.141  1.00  0.00     0.031 C 
ATOM     36  C   UNL     1       8.878  -2.893   3.742  1.00  0.00     0.029 A 
ATOM     37  N   UNL     1      10.587  -1.915   4.805  1.00  0.00    -0.354 N 
ATOM     38  C   UNL     1      13.091   0.968   2.789  1.00  0.00     0.074 A 
ATOM     39  C   UNL     1      12.649   1.178   1.427  1.00  0.00     0.031 C 
ATOM     40  C   UNL     1       8.891  -3.357   5.004  1.00  0.00     0.029 A 
ATOM     41  C   UNL     1      10.027  -2.775   5.717  1.00  0.00     0.049 A 
ATOM     42  H   UNL     1      11.347  -1.325   5.015  1.00  0.00     0.167 HD
ATOM     43  C   UNL     1      14.126   1.620   3.369  1.00  0.00     0.037 A 
ATOM     44  C   UNL     1      10.409  -3.079   6.973  1.00  0.00     0.037 A 
ATOM     45  C   UNL     1      14.558   1.419   4.726  1.00  0.00     0.049 A 
ATOM     46  C   UNL     1      11.610  -2.388   7.568  1.00  0.00     0.074 A 
ATOM     47  C   UNL     1      15.587   2.048   5.405  1.00  0.00     0.029 A 
ATOM     48  N   UNL     1      13.989   0.515   5.610  1.00  0.00    -0.354 N 
ATOM     49  N   UNL     1      12.380  -1.464   7.045  1.00  0.00    -0.248 NA
ATOM     50  C   UNL     1      11.996  -2.783   8.932  1.00  0.00     0.031 C 
ATOM     51  C   UNL     1      15.673   1.489   6.684  1.00  0.00     0.029 A 
ATOM     52  C   UNL     1      14.665   0.549   6.819  1.00  0.00     0.049 A 
ATOM     53  H   UNL     1      13.219  -0.065   5.408  1.00  0.00     0.167 HD
ATOM     54  C   UNL     1      13.320  -1.151   8.019  1.00  0.00     0.074 A 
ATOM     55  C   UNL     1      13.016  -1.972   9.172  1.00  0.00     0.031 C 
ATOM     56  C   UNL     1      14.344  -0.265   7.963  1.00  0.00     0.037 A 
BRANCH  43  57
ATOM     57  C   UNL     1      14.897   2.587   2.523  1.00  0.00     0.064 A 
ATOM     58  C   UNL     1      14.384   3.847   2.186  1.00  0.00     0.173 A 
ATOM     59  C   UNL     1      16.192   2.264   2.090  1.00  0.00     0.173 A 
ATOM     60  F   UNL     1      13.145   4.196   2.564  1.00  0.00    -0.203 F 
ATOM     61  C   UNL     1      15.137   4.746   1.434  1.00  0.00     0.198 A 
ATOM     62  C   UNL     1      16.950   3.173   1.359  1.00  0.00     0.198 A 
ATOM     63  F   UNL     1      16.727   1.071   2.390  1.00  0.00    -0.203 F 
ATOM     64  F   UNL     1      14.617   5.934   1.095  1.00  0.00    -0.200 F 
ATOM     65  C   UNL     1      16.421   4.412   1.029  1.00  0.00     0.200 A 
ATOM     66  F   UNL     1      18.194   2.853   0.978  1.00  0.00    -0.200 F 
ATOM     67  F   UNL     1      17.148   5.282   0.316  1.00  0.00    -0.200 F 
ENDBRANCH  43  57
BRANCH  44  68
ATOM     68  C   UNL     1       9.682  -4.122   7.744  1.00  0.00     0.064 A 
ATOM     69  C   UNL     1       8.955  -3.801   8.899  1.00  0.00     0.173 A 
ATOM     70  C   UNL     1       9.745  -5.472   7.367  1.00  0.00     0.173 A 
ATOM     71  F   UNL     1       8.891  -2.529   9.319  1.00  0.00    -0.203 F 
ATOM     72  C   UNL     1       8.341  -4.794   9.661  1.00  0.00     0.198 A 
ATOM     73  C   UNL     1       9.105  -6.459   8.112  1.00  0.00     0.198 A 
ATOM     74  F   UNL     1      10.435  -5.833   6.275  1.00  0.00    -0.203 F 
ATOM     75  F   UNL     1       7.704  -4.468  10.794  1.00  0.00    -0.200 F 
ATOM     76  C   UNL     1       8.413  -6.122   9.264  1.00  0.00     0.200 A 
ATOM     77  F   UNL     1       9.173  -7.739   7.722  1.00  0.00    -0.200 F 
ATOM     78  F   UNL     1       7.830  -7.076  10.002  1.00  0.00    -0.200 F 
ENDBRANCH  44  68
BRANCH  56  79
ATOM     79  C   UNL     1      15.191  -0.107   9.192  1.00  0.00     0.064 A 
ATOM     80  C   UNL     1      16.101  -1.096   9.591  1.00  0.00     0.173 A 
ATOM     81  C   UNL     1      15.124   1.070   9.953  1.00  0.00     0.173 A 
ATOM     82  F   UNL     1      16.193  -2.245   8.906  1.00  0.00    -0.203 F 
ATOM     83  C   UNL     1      16.897  -0.922  10.721  1.00  0.00     0.198 A 
ATOM     84  C   UNL     1      15.942   1.253  11.065  1.00  0.00     0.198 A 
ATOM     85  F   UNL     1      14.275   2.051   9.610  1.00  0.00    -0.203 F 
ATOM     86  F   UNL     1      17.729  -1.899  11.109  1.00  0.00    -0.200 F 
ATOM     87  C   UNL     1      16.822   0.255  11.452  1.00  0.00     0.200 A 
ATOM     88  F   UNL     1      15.878   2.397  11.761  1.00  0.00    -0.200 F 
ATOM     89  F   UNL     1      17.596   0.424  12.533  1.00  0.00    -0.200 F 
ENDBRANCH  56  79
ENDBRANCH  30  31
ENDBRANCH  23  25
ENDBRANCH  22  23
ENDBRANCH  21  22
ENDBRANCH   1  21
TORSDOF 14
