REMARK SMILES CCOc1ccccc1[C@H]1CC(C(=O)OCCOC(=O)c2ccc(-c3c4nc(c(-c5c(F)c(F)c(F)c(F)c5F)c5ccc([nH]5)c(-c5c(F)c(F)c(F)c(F)c5F)c5nc(c(-c6c(F)c(F)c(F)c(F)c6F)c6ccc3[nH]6)C=C5)C=C4)cc2)=Nc2c(C(=O)Nc3ccccc3)cnn21
REMARK SMILES IDX 16 1 15 2 13 3 14 4 12 5 10 6 11 7 98 8 85 9 97 10 84 11
REMARK SMILES IDX 86 12 96 13 9 14 4 15 5 16 6 17 8 18 7 19 3 20 2 21 1 22
REMARK SMILES IDX 87 23 88 24 89 25 90 27 91 28 95 29 92 30 94 31 93 32 17 33
REMARK SMILES IDX 18 34 19 35 20 36 21 37 22 38 83 39 23 40 82 41 24 42 25 43
REMARK SMILES IDX 26 44 76 45 27 46 81 47 75 48 77 49 28 50 80 51 74 52 73 53
REMARK SMILES IDX 29 55 61 56 41 57 60 58 42 59 45 60 59 61 78 62 43 63 44 64
REMARK SMILES IDX 58 66 79 67 46 68 30 69 31 70 39 71 32 72 33 73 37 74 40 75
REMARK SMILES IDX 34 76 35 77 38 78 36 79 62 80 63 81 71 82 64 83 65 84 69 85
REMARK SMILES IDX 72 86 66 87 67 88 70 89 68 90 47 91 48 92 56 93 49 94 50 95
REMARK SMILES IDX 54 96 57 97 51 98 52 99 55 100 53 101
REMARK H PARENT 89 26 77 54 45 65
REMARK Flexibility Score: inf
ROOT
ATOM      1  C   UNL     1      -1.405  -4.273  -1.131  1.00  0.00     0.275 C 
ENDROOT
BRANCH   1   2
ATOM      2  O   UNL     1      -0.909  -2.911  -1.140  1.00  0.00    -0.458 OA
BRANCH   2   3
ATOM      3  C   UNL     1       0.234  -2.717  -0.487  1.00  0.00     0.352 C 
ATOM      4  O   UNL     1       0.862  -3.563   0.132  1.00  0.00    -0.245 OA
BRANCH   3   5
ATOM      5  C   UNL     1       0.890  -1.355  -0.619  1.00  0.00     0.130 C 
ATOM      6  C   UNL     1       3.923  -0.064  -0.383  1.00  0.00     0.150 C 
ATOM      7  C   UNL     1       2.829  -1.621  -0.866  1.00  0.00     0.096 C 
ATOM      8  N   UNL     1       2.902   1.429   0.073  1.00  0.00    -0.239 N 
ATOM      9  C   UNL     1       1.152   1.387   0.162  1.00  0.00     0.164 A 
ATOM     10  N   UNL     1       3.320   2.675   0.312  1.00  0.00    -0.178 NA
ATOM     11  N   UNL     1       0.271  -0.036  -0.259  1.00  0.00    -0.225 NA
ATOM     12  C   UNL     1       0.910   2.653   0.706  1.00  0.00     0.104 A 
ATOM     13  C   UNL     1       2.221   3.309   0.746  1.00  0.00     0.151 A 
BRANCH   6  14
ATOM     14  C   UNL     1       4.746  -0.656   0.718  1.00  0.00     0.019 A 
ATOM     15  C   UNL     1       4.187  -0.473   1.958  1.00  0.00     0.124 A 
ATOM     16  C   UNL     1       4.650  -1.122   3.087  1.00  0.00     0.047 A 
ATOM     17  C   UNL     1       5.580  -2.147   2.913  1.00  0.00     0.004 A 
ATOM     18  C   UNL     1       5.658  -1.696   0.532  1.00  0.00     0.010 A 
ATOM     19  C   UNL     1       6.041  -2.469   1.631  1.00  0.00     0.001 A 
BRANCH  15  20
ATOM     20  O   UNL     1       2.984   0.172   1.921  1.00  0.00    -0.494 OA
BRANCH  20  21
ATOM     21  C   UNL     1       2.139  -0.405   0.749  1.00  0.00     0.226 C 
ATOM     22  C   UNL     1       2.062   0.203  -1.331  1.00  0.00     0.049 C 
ENDBRANCH  20  21
ENDBRANCH  15  20
ENDBRANCH   6  14
BRANCH  12  23
ATOM     23  C   UNL     1      -0.295   3.385   1.145  1.00  0.00     0.261 C 
ATOM     24  O   UNL     1      -0.180   4.534   1.588  1.00  0.00    -0.269 OA
ATOM     25  N   UNL     1      -1.592   2.951   0.972  1.00  0.00    -0.322 N 
ATOM     26  H   UNL     1      -2.265   3.670   0.951  1.00  0.00     0.170 HD
BRANCH  25  27
ATOM     27  C   UNL     1      -2.108   1.672   0.822  1.00  0.00     0.041 A 
ATOM     28  C   UNL     1      -3.124   1.456  -0.115  1.00  0.00     0.026 A 
ATOM     29  C   UNL     1      -1.613   0.620   1.569  1.00  0.00     0.026 A 
ATOM     30  C   UNL     1      -3.508   0.155  -0.441  1.00  0.00     0.002 A 
ATOM     31  C   UNL     1      -1.974  -0.670   1.206  1.00  0.00     0.002 A 
ATOM     32  C   UNL     1      -2.907  -0.914   0.203  1.00  0.00     0.000 A 
ENDBRANCH  25  27
ENDBRANCH  12  23
ENDBRANCH   3   5
ENDBRANCH   2   3
ENDBRANCH   1   2
BRANCH   1  33
ATOM     33  C   UNL     1      -1.665  -4.929   0.234  1.00  0.00     0.275 C 
BRANCH  33  34
ATOM     34  O   UNL     1      -2.451  -4.101   1.090  1.00  0.00    -0.458 OA
BRANCH  34  35
ATOM     35  C   UNL     1      -1.841  -3.816   2.259  1.00  0.00     0.338 C 
ATOM     36  O   UNL     1      -0.696  -4.075   2.593  1.00  0.00    -0.246 OA
BRANCH  35  37
ATOM     37  C   UNL     1      -2.743  -3.138   3.182  1.00  0.00     0.060 A 
ATOM     38  C   UNL     1      -2.146  -2.210   4.047  1.00  0.00     0.016 A 
ATOM     39  C   UNL     1      -4.036  -3.629   3.370  1.00  0.00     0.016 A 
ATOM     40  C   UNL     1      -2.765  -1.931   5.230  1.00  0.00     0.010 A 
ATOM     41  C   UNL     1      -4.652  -3.357   4.567  1.00  0.00     0.010 A 
ATOM     42  C   UNL     1      -3.952  -2.605   5.512  1.00  0.00    -0.014 A 
BRANCH  42  43
ATOM     43  C   UNL     1      -4.464  -2.456   6.852  1.00  0.00     0.031 A 
ATOM     44  C   UNL     1      -4.929  -1.073   7.096  1.00  0.00     0.074 A 
ATOM     45  C   UNL     1      -4.449  -3.507   7.694  1.00  0.00     0.049 A 
ATOM     46  N   UNL     1      -4.450  -0.226   7.944  1.00  0.00    -0.248 NA
ATOM     47  C   UNL     1      -5.865  -0.479   6.123  1.00  0.00     0.031 C 
ATOM     48  C   UNL     1      -4.090  -4.900   7.399  1.00  0.00     0.029 A 
ATOM     49  N   UNL     1      -4.862  -3.570   8.991  1.00  0.00    -0.354 N 
ATOM     50  C   UNL     1      -5.192   0.936   7.766  1.00  0.00     0.074 A 
ATOM     51  C   UNL     1      -5.880   0.796   6.513  1.00  0.00     0.031 C 
ATOM     52  C   UNL     1      -4.558  -5.703   8.382  1.00  0.00     0.029 A 
ATOM     53  C   UNL     1      -5.124  -4.875   9.425  1.00  0.00     0.049 A 
ATOM     54  H   UNL     1      -4.964  -2.777   9.566  1.00  0.00     0.167 HD
ATOM     55  C   UNL     1      -5.443   1.736   8.835  1.00  0.00     0.037 A 
ATOM     56  C   UNL     1      -5.882  -5.179  10.511  1.00  0.00     0.037 A 
ATOM     57  C   UNL     1      -4.420   1.566   9.840  1.00  0.00     0.049 A 
ATOM     58  C   UNL     1      -5.896  -3.960  11.373  1.00  0.00     0.074 A 
ATOM     59  C   UNL     1      -3.053   1.762   9.868  1.00  0.00     0.029 A 
ATOM     60  N   UNL     1      -4.702   0.736  10.897  1.00  0.00    -0.354 N 
ATOM     61  N   UNL     1      -4.826  -3.500  11.965  1.00  0.00    -0.248 NA
ATOM     62  C   UNL     1      -6.940  -2.977  11.106  1.00  0.00     0.031 C 
ATOM     63  C   UNL     1      -2.537   0.674  10.634  1.00  0.00     0.029 A 
ATOM     64  C   UNL     1      -3.615  -0.069  11.112  1.00  0.00     0.049 A 
ATOM     65  H   UNL     1      -5.542   0.722  11.412  1.00  0.00     0.167 HD
ATOM     66  C   UNL     1      -4.865  -2.130  11.737  1.00  0.00     0.074 A 
ATOM     67  C   UNL     1      -6.210  -1.863  11.229  1.00  0.00     0.031 C 
ATOM     68  C   UNL     1      -3.720  -1.389  11.686  1.00  0.00     0.037 A 
BRANCH  55  69
ATOM     69  C   UNL     1      -6.838   2.223   9.168  1.00  0.00     0.064 A 
ATOM     70  C   UNL     1      -7.009   3.009  10.324  1.00  0.00     0.173 A 
ATOM     71  C   UNL     1      -8.027   1.689   8.619  1.00  0.00     0.173 A 
ATOM     72  F   UNL     1      -5.952   3.568  10.933  1.00  0.00    -0.203 F 
ATOM     73  C   UNL     1      -8.253   3.143  10.946  1.00  0.00     0.198 A 
ATOM     74  C   UNL     1      -9.271   1.862   9.219  1.00  0.00     0.198 A 
ATOM     75  F   UNL     1      -8.043   0.889   7.550  1.00  0.00    -0.203 F 
ATOM     76  F   UNL     1      -8.340   3.777  12.123  1.00  0.00    -0.200 F 
ATOM     77  C   UNL     1      -9.380   2.557  10.401  1.00  0.00     0.200 A 
ATOM     78  F   UNL     1     -10.347   1.270   8.680  1.00  0.00    -0.200 F 
ATOM     79  F   UNL     1     -10.558   2.619  11.034  1.00  0.00    -0.200 F 
ENDBRANCH  55  69
BRANCH  56  80
ATOM     80  C   UNL     1      -6.908  -6.249  10.618  1.00  0.00     0.064 A 
ATOM     81  C   UNL     1      -7.449  -6.622  11.860  1.00  0.00     0.173 A 
ATOM     82  C   UNL     1      -7.577  -6.738   9.477  1.00  0.00     0.173 A 
ATOM     83  F   UNL     1      -6.909  -6.157  12.996  1.00  0.00    -0.203 F 
ATOM     84  C   UNL     1      -8.594  -7.424  11.953  1.00  0.00     0.198 A 
ATOM     85  C   UNL     1      -8.715  -7.540   9.571  1.00  0.00     0.198 A 
ATOM     86  F   UNL     1      -7.199  -6.370   8.245  1.00  0.00    -0.203 F 
ATOM     87  F   UNL     1      -9.113  -7.716  13.154  1.00  0.00    -0.200 F 
ATOM     88  C   UNL     1      -9.231  -7.875  10.808  1.00  0.00     0.200 A 
ATOM     89  F   UNL     1      -9.343  -7.933   8.453  1.00  0.00    -0.200 F 
ATOM     90  F   UNL     1     -10.359  -8.594  10.893  1.00  0.00    -0.200 F 
ENDBRANCH  56  80
BRANCH  68  91
ATOM     91  C   UNL     1      -2.434  -2.053  12.090  1.00  0.00     0.064 A 
ATOM     92  C   UNL     1      -1.843  -3.123  11.396  1.00  0.00     0.173 A 
ATOM     93  C   UNL     1      -1.700  -1.478  13.134  1.00  0.00     0.173 A 
ATOM     94  F   UNL     1      -2.438  -3.659  10.322  1.00  0.00    -0.203 F 
ATOM     95  C   UNL     1      -0.592  -3.620  11.764  1.00  0.00     0.198 A 
ATOM     96  C   UNL     1      -0.438  -1.950  13.477  1.00  0.00     0.198 A 
ATOM     97  F   UNL     1      -2.191  -0.415  13.791  1.00  0.00    -0.203 F 
ATOM     98  F   UNL     1      -0.051  -4.648  11.094  1.00  0.00    -0.200 F 
ATOM     99  C   UNL     1       0.111  -3.028  12.801  1.00  0.00     0.200 A 
ATOM    100  F   UNL     1       0.258  -1.341  14.445  1.00  0.00    -0.200 F 
ATOM    101  F   UNL     1       1.329  -3.478  13.133  1.00  0.00    -0.200 F 
ENDBRANCH  68  91
ENDBRANCH  42  43
ENDBRANCH  35  37
ENDBRANCH  34  35
ENDBRANCH  33  34
ENDBRANCH   1  33
TORSDOF 16
