REMARK SMILES Cn1ncc2c(NCCC3=CCCCC3)c(C(=O)OCCOC(=O)c3ccc(-c4c5nc(c(-c6c(F)c(F)c(F)c(F)c6F)c6ccc([nH]6)c(-c6c(F)c(F)c(F)c(F)c6F)c6nc(c(-c7c(F)c(F)c(F)c(F)c7F)c7ccc4[nH]7)C=C6)C=C5)cc3)cnc21
REMARK SMILES IDX 20 1 19 2 17 3 18 4 16 5 1 6 2 7 3 8 90 9 4 10 5 11 89 12
REMARK SMILES IDX 6 13 88 14 7 15 8 17 9 18 10 19 11 20 15 21 12 22 14 23
REMARK SMILES IDX 13 24 21 25 22 26 23 27 24 28 25 29 26 30 87 31 27 32 86 33
REMARK SMILES IDX 28 34 29 35 30 36 80 37 31 38 85 39 79 40 81 41 32 42 84 43
REMARK SMILES IDX 78 44 77 45 33 47 65 48 45 49 64 50 46 51 49 52 63 53 82 54
REMARK SMILES IDX 47 55 48 56 62 58 83 59 50 60 34 61 35 62 43 63 36 64 37 65
REMARK SMILES IDX 41 66 44 67 38 68 39 69 42 70 40 71 66 72 67 73 75 74 68 75
REMARK SMILES IDX 69 76 73 77 76 78 70 79 71 80 74 81 72 82 51 83 52 84 60 85
REMARK SMILES IDX 53 86 54 87 58 88 61 89 55 90 56 91 59 92 57 93
REMARK H PARENT 7 16 81 46 49 57
REMARK Flexibility Score: inf
ROOT
ATOM      1  C   UNL     1       4.955   7.640  -0.196  1.00  0.00     0.275 C 
ENDROOT
BRANCH   1   2
ATOM      2  O   UNL     1       4.315   6.345  -0.145  1.00  0.00    -0.458 OA
BRANCH   2   3
ATOM      3  C   UNL     1       3.049   6.311   0.375  1.00  0.00     0.341 C 
ATOM      4  O   UNL     1       2.485   7.257   0.872  1.00  0.00    -0.246 OA
BRANCH   3   5
ATOM      5  C   UNL     1       2.404   4.971   0.171  1.00  0.00     0.102 A 
ATOM      6  C   UNL     1       1.400  -0.050  -0.284  1.00  0.00     0.176 C 
ATOM      7  N   UNL     1       0.826   1.262  -0.128  1.00  0.00    -0.250 N 
ATOM      8  N   UNL     1      -0.500   1.384   0.068  1.00  0.00    -0.179 NA
ATOM      9  C   UNL     1       1.496   2.455  -0.110  1.00  0.00     0.159 A 
ATOM     10  C   UNL     1      -0.655   2.699   0.251  1.00  0.00     0.147 A 
ATOM     11  C   UNL     1       0.556   3.439   0.190  1.00  0.00     0.063 A 
ATOM     12  N   UNL     1       2.815   2.613  -0.323  1.00  0.00    -0.236 NA
ATOM     13  C   UNL     1       0.993   4.784   0.350  1.00  0.00     0.063 A 
ATOM     14  C   UNL     1       3.214   3.894  -0.186  1.00  0.00     0.131 A 
BRANCH  13  15
ATOM     15  N   UNL     1       0.178   5.861   0.678  1.00  0.00    -0.383 N 
ATOM     16  H   UNL     1       0.645   6.723   0.762  1.00  0.00     0.160 HD
BRANCH  15  17
ATOM     17  C   UNL     1      -1.256   5.916   0.918  1.00  0.00     0.117 C 
BRANCH  17  18
ATOM     18  C   UNL     1      -1.583   6.757   2.169  1.00  0.00     0.052 C 
BRANCH  18  19
ATOM     19  C   UNL     1      -1.358   8.244   2.000  1.00  0.00    -0.072 C 
ATOM     20  C   UNL     1      -0.136   8.786   2.144  1.00  0.00    -0.028 C 
ATOM     21  C   UNL     1      -2.571   9.091   1.700  1.00  0.00     0.031 C 
ATOM     22  C   UNL     1       0.167  10.236   1.944  1.00  0.00     0.027 C 
ATOM     23  C   UNL     1      -2.240  10.522   1.263  1.00  0.00     0.005 C 
ATOM     24  C   UNL     1      -1.078  11.110   2.058  1.00  0.00     0.004 C 
ENDBRANCH  18  19
ENDBRANCH  17  18
ENDBRANCH  15  17
ENDBRANCH  13  15
ENDBRANCH   3   5
ENDBRANCH   2   3
ENDBRANCH   1   2
BRANCH   1  25
ATOM     25  C   UNL     1       4.681   8.381  -1.505  1.00  0.00     0.275 C 
BRANCH  25  26
ATOM     26  O   UNL     1       3.300   8.717  -1.619  1.00  0.00    -0.458 OA
BRANCH  26  27
ATOM     27  C   UNL     1       2.542   7.737  -2.156  1.00  0.00     0.338 C 
ATOM     28  O   UNL     1       2.918   6.635  -2.526  1.00  0.00    -0.246 OA
BRANCH  27  29
ATOM     29  C   UNL     1       1.171   8.211  -2.350  1.00  0.00     0.060 A 
ATOM     30  C   UNL     1       0.245   7.254  -2.776  1.00  0.00     0.016 A 
ATOM     31  C   UNL     1       0.923   9.587  -2.440  1.00  0.00     0.016 A 
ATOM     32  C   UNL     1      -0.820   7.677  -3.532  1.00  0.00     0.010 A 
ATOM     33  C   UNL     1      -0.135  10.010  -3.208  1.00  0.00     0.010 A 
ATOM     34  C   UNL     1      -0.919   9.040  -3.826  1.00  0.00    -0.014 A 
BRANCH  34  35
ATOM     35  C   UNL     1      -1.782   9.402  -4.923  1.00  0.00     0.031 A 
ATOM     36  C   UNL     1      -3.209   9.551  -4.584  1.00  0.00     0.074 A 
ATOM     37  C   UNL     1      -1.275   9.600  -6.152  1.00  0.00     0.049 A 
ATOM     38  N   UNL     1      -4.195   8.817  -4.979  1.00  0.00    -0.248 NA
ATOM     39  C   UNL     1      -3.566  10.576  -3.596  1.00  0.00     0.031 C 
ATOM     40  C   UNL     1       0.123   9.747  -6.566  1.00  0.00     0.029 A 
ATOM     41  N   UNL     1      -1.959   9.790  -7.307  1.00  0.00    -0.354 N 
ATOM     42  C   UNL     1      -5.330   9.365  -4.395  1.00  0.00     0.074 A 
ATOM     43  C   UNL     1      -4.874  10.361  -3.458  1.00  0.00     0.031 C 
ATOM     44  C   UNL     1       0.160  10.226  -7.832  1.00  0.00     0.029 A 
ATOM     45  C   UNL     1      -1.197  10.295  -8.345  1.00  0.00     0.049 A 
ATOM     46  H   UNL     1      -2.917   9.587  -7.399  1.00  0.00     0.167 HD
ATOM     47  C   UNL     1      -6.579   9.086  -4.854  1.00  0.00     0.037 A 
ATOM     48  C   UNL     1      -1.702  10.839  -9.479  1.00  0.00     0.037 A 
ATOM     49  C   UNL     1      -6.598   7.921  -5.695  1.00  0.00     0.049 A 
ATOM     50  C   UNL     1      -3.099  10.337  -9.627  1.00  0.00     0.074 A 
ATOM     51  C   UNL     1      -6.317   6.585  -5.486  1.00  0.00     0.029 A 
ATOM     52  N   UNL     1      -6.585   8.095  -7.058  1.00  0.00    -0.354 N 
ATOM     53  N   UNL     1      -3.394   9.091  -9.889  1.00  0.00    -0.248 NA
ATOM     54  C   UNL     1      -4.168  11.109  -9.004  1.00  0.00     0.031 C 
ATOM     55  C   UNL     1      -5.670   6.152  -6.680  1.00  0.00     0.029 A 
ATOM     56  C   UNL     1      -5.635   7.237  -7.556  1.00  0.00     0.049 A 
ATOM     57  H   UNL     1      -7.148   8.714  -7.577  1.00  0.00     0.167 HD
ATOM     58  C   UNL     1      -4.514   8.815  -9.114  1.00  0.00     0.074 A 
ATOM     59  C   UNL     1      -4.986  10.115  -8.645  1.00  0.00     0.031 C 
ATOM     60  C   UNL     1      -4.788   7.549  -8.682  1.00  0.00     0.037 A 
BRANCH  47  61
ATOM     61  C   UNL     1      -7.729  10.042  -4.764  1.00  0.00     0.064 A 
ATOM     62  C   UNL     1      -9.042   9.580  -4.958  1.00  0.00     0.173 A 
ATOM     63  C   UNL     1      -7.559  11.443  -4.754  1.00  0.00     0.173 A 
ATOM     64  F   UNL     1      -9.302   8.265  -5.017  1.00  0.00    -0.203 F 
ATOM     65  C   UNL     1     -10.103  10.463  -5.171  1.00  0.00     0.198 A 
ATOM     66  C   UNL     1      -8.628  12.320  -4.910  1.00  0.00     0.198 A 
ATOM     67  F   UNL     1      -6.345  12.006  -4.703  1.00  0.00    -0.203 F 
ATOM     68  F   UNL     1     -11.321   9.982  -5.458  1.00  0.00    -0.200 F 
ATOM     69  C   UNL     1      -9.896  11.831  -5.146  1.00  0.00     0.200 A 
ATOM     70  F   UNL     1      -8.403  13.642  -4.902  1.00  0.00    -0.200 F 
ATOM     71  F   UNL     1     -10.903  12.677  -5.396  1.00  0.00    -0.200 F 
ENDBRANCH  47  61
BRANCH  48  72
ATOM     72  C   UNL     1      -1.188  12.043 -10.173  1.00  0.00     0.064 A 
ATOM     73  C   UNL     1      -1.584  12.355 -11.481  1.00  0.00     0.173 A 
ATOM     74  C   UNL     1      -0.485  13.049  -9.476  1.00  0.00     0.173 A 
ATOM     75  F   UNL     1      -2.303  11.477 -12.195  1.00  0.00    -0.203 F 
ATOM     76  C   UNL     1      -1.300  13.601 -12.055  1.00  0.00     0.198 A 
ATOM     77  C   UNL     1      -0.193  14.285 -10.052  1.00  0.00     0.198 A 
ATOM     78  F   UNL     1      -0.144  12.892  -8.189  1.00  0.00    -0.203 F 
ATOM     79  F   UNL     1      -1.740  13.885 -13.289  1.00  0.00    -0.200 F 
ATOM     80  C   UNL     1      -0.610  14.566 -11.338  1.00  0.00     0.200 A 
ATOM     81  F   UNL     1       0.443  15.220  -9.331  1.00  0.00    -0.200 F 
ATOM     82  F   UNL     1      -0.383  15.775 -11.868  1.00  0.00    -0.200 F 
ENDBRANCH  48  72
BRANCH  60  83
ATOM     83  C   UNL     1      -3.948   6.427  -9.223  1.00  0.00     0.064 A 
ATOM     84  C   UNL     1      -2.570   6.310  -8.972  1.00  0.00     0.173 A 
ATOM     85  C   UNL     1      -4.580   5.353  -9.861  1.00  0.00     0.173 A 
ATOM     86  F   UNL     1      -1.920   7.242  -8.265  1.00  0.00    -0.203 F 
ATOM     87  C   UNL     1      -1.849   5.191  -9.386  1.00  0.00     0.198 A 
ATOM     88  C   UNL     1      -3.865   4.219 -10.242  1.00  0.00     0.198 A 
ATOM     89  F   UNL     1      -5.906   5.378 -10.066  1.00  0.00    -0.203 F 
ATOM     90  F   UNL     1      -0.533   5.110  -9.140  1.00  0.00    -0.200 F 
ATOM     91  C   UNL     1      -2.500   4.144 -10.015  1.00  0.00     0.200 A 
ATOM     92  F   UNL     1      -4.507   3.184 -10.802  1.00  0.00    -0.200 F 
ATOM     93  F   UNL     1      -1.817   3.047 -10.373  1.00  0.00    -0.200 F 
ENDBRANCH  60  83
ENDBRANCH  34  35
ENDBRANCH  27  29
ENDBRANCH  26  27
ENDBRANCH  25  26
ENDBRANCH   1  25
TORSDOF 15
