REMARK SMILES CCN1C(=O)c2ccccc2[S@@](=O)c2ccc(C(=O)OCCOC(=O)c3ccc(-c4c5nc(c(-c6c(F)c(F)c(F)c(F)c6F)c6ccc([nH]6)c(-c6c(F)c(F)c(F)c(F)c6F)c6nc(c(-c7c(F)c(F)c(F)c(F)c7F)c7ccc4[nH]7)C=C6)C=C5)cc3)cc21
REMARK SMILES IDX 22 1 21 2 20 3 18 4 19 5 17 6 3 7 4 8 90 9 5 10 6 11 14 12
REMARK SMILES IDX 89 13 7 14 11 15 12 16 15 17 8 18 10 19 13 20 16 21 9 22
REMARK SMILES IDX 2 23 1 24 23 25 24 26 25 27 26 28 27 29 88 30 28 31 87 32
REMARK SMILES IDX 29 33 30 34 31 35 81 36 32 37 86 38 80 39 82 40 33 41 85 42
REMARK SMILES IDX 79 43 78 44 34 46 66 47 46 48 65 49 47 50 50 51 64 52 83 53
REMARK SMILES IDX 48 54 49 55 63 57 84 58 51 59 35 60 36 61 44 62 37 63 38 64
REMARK SMILES IDX 42 65 45 66 39 67 40 68 43 69 41 70 67 71 68 72 76 73 69 74
REMARK SMILES IDX 70 75 74 76 77 77 71 78 72 79 75 80 73 81 52 82 53 83 61 84
REMARK SMILES IDX 54 85 55 86 59 87 62 88 56 89 57 90 60 91 58 92
REMARK H PARENT 82 45 50 56
REMARK Flexibility Score: inf
ROOT
ATOM      1  C   UNL     1       3.186   1.156   4.513  1.00  0.00     0.275 C 
ENDROOT
BRANCH   1   2
ATOM      2  C   UNL     1       3.518   1.490   3.057  1.00  0.00     0.275 C 
BRANCH   2   3
ATOM      3  O   UNL     1       3.142   0.418   2.169  1.00  0.00    -0.458 OA
BRANCH   3   4
ATOM      4  C   UNL     1       4.154  -0.338   1.670  1.00  0.00     0.338 C 
ATOM      5  O   UNL     1       5.336  -0.217   1.920  1.00  0.00    -0.246 OA
BRANCH   4   6
ATOM      6  C   UNL     1       3.627  -1.427   0.796  1.00  0.00     0.062 A 
ATOM      7  N   UNL     1       0.791  -1.893  -1.643  1.00  0.00    -0.307 N 
ATOM      8  C   UNL     1       0.214  -2.747  -2.605  1.00  0.00     0.259 C 
ATOM      9  C   UNL     1       1.924  -2.262  -0.804  1.00  0.00     0.061 A 
ATOM     10  O   UNL     1      -0.212  -2.364  -3.696  1.00  0.00    -0.269 OA
ATOM     11  C   UNL     1      -0.188  -4.093  -2.189  1.00  0.00     0.056 A 
ATOM     12  C   UNL     1       2.701  -3.442  -0.936  1.00  0.00     0.068 A 
ATOM     13  C   UNL     1       2.387  -1.333   0.154  1.00  0.00     0.043 A 
ATOM     14  C   UNL     1      -1.558  -4.393  -2.255  1.00  0.00     0.015 A 
ATOM     15  C   UNL     1       0.730  -5.063  -1.825  1.00  0.00     0.057 A 
ATOM     16  S   UNL     1       2.474  -4.825  -2.070  1.00  0.00     0.088 S 
ATOM     17  C   UNL     1       3.924  -3.566  -0.229  1.00  0.00     0.021 A 
ATOM     18  C   UNL     1      -2.018  -5.657  -1.899  1.00  0.00     0.001 A 
ATOM     19  C   UNL     1       0.259  -6.327  -1.437  1.00  0.00     0.019 A 
ATOM     20  O   UNL     1       2.638  -4.232  -3.435  1.00  0.00    -0.249 OA
ATOM     21  C   UNL     1       4.415  -2.544   0.570  1.00  0.00     0.017 A 
ATOM     22  C   UNL     1      -1.109  -6.619  -1.467  1.00  0.00     0.001 A 
BRANCH   7  23
ATOM     23  C   UNL     1       0.429  -0.477  -1.885  1.00  0.00     0.122 C 
ATOM     24  C   UNL     1       0.050   0.446  -0.730  1.00  0.00     0.028 C 
ENDBRANCH   7  23
ENDBRANCH   4   6
ENDBRANCH   3   4
ENDBRANCH   2   3
ENDBRANCH   1   2
BRANCH   1  25
ATOM     25  O   UNL     1       4.043   0.109   5.007  1.00  0.00    -0.458 OA
BRANCH  25  26
ATOM     26  C   UNL     1       3.500  -1.129   5.016  1.00  0.00     0.338 C 
ATOM     27  O   UNL     1       2.358  -1.448   4.729  1.00  0.00    -0.246 OA
BRANCH  26  28
ATOM     28  C   UNL     1       4.569  -2.112   5.234  1.00  0.00     0.060 A 
ATOM     29  C   UNL     1       5.023  -2.470   6.498  1.00  0.00     0.016 A 
ATOM     30  C   UNL     1       5.069  -2.752   4.104  1.00  0.00     0.016 A 
ATOM     31  C   UNL     1       6.013  -3.458   6.605  1.00  0.00     0.010 A 
ATOM     32  C   UNL     1       6.022  -3.754   4.206  1.00  0.00     0.010 A 
ATOM     33  C   UNL     1       6.520  -4.109   5.460  1.00  0.00    -0.014 A 
BRANCH  33  34
ATOM     34  C   UNL     1       7.518  -5.205   5.561  1.00  0.00     0.031 A 
ATOM     35  C   UNL     1       8.883  -5.080   4.939  1.00  0.00     0.074 A 
ATOM     36  C   UNL     1       7.160  -6.354   6.164  1.00  0.00     0.049 A 
ATOM     37  N   UNL     1       9.890  -5.918   4.984  1.00  0.00    -0.248 NA
ATOM     38  C   UNL     1       9.144  -3.880   4.128  1.00  0.00     0.031 C 
ATOM     39  C   UNL     1       5.827  -6.642   6.694  1.00  0.00     0.029 A 
ATOM     40  N   UNL     1       7.883  -7.485   6.447  1.00  0.00    -0.354 N 
ATOM     41  C   UNL     1      10.897  -5.344   4.218  1.00  0.00     0.074 A 
ATOM     42  C   UNL     1      10.354  -4.132   3.648  1.00  0.00     0.031 C 
ATOM     43  C   UNL     1       5.849  -7.832   7.312  1.00  0.00     0.029 A 
ATOM     44  C   UNL     1       7.188  -8.403   7.196  1.00  0.00     0.049 A 
ATOM     45  H   UNL     1       8.809  -7.625   6.143  1.00  0.00     0.167 HD
ATOM     46  C   UNL     1      12.173  -5.766   4.045  1.00  0.00     0.037 A 
ATOM     47  C   UNL     1       7.595  -9.557   7.756  1.00  0.00     0.037 A 
ATOM     48  C   UNL     1      12.712  -6.963   4.636  1.00  0.00     0.049 A 
ATOM     49  C   UNL     1       9.023  -9.990   7.584  1.00  0.00     0.074 A 
ATOM     50  C   UNL     1      14.007  -7.449   4.580  1.00  0.00     0.029 A 
ATOM     51  N   UNL     1      11.980  -7.864   5.397  1.00  0.00    -0.354 N 
ATOM     52  N   UNL     1       9.996  -9.390   6.943  1.00  0.00    -0.248 NA
ATOM     53  C   UNL     1       9.412 -11.257   8.218  1.00  0.00     0.031 C 
ATOM     54  C   UNL     1      14.050  -8.662   5.275  1.00  0.00     0.029 A 
ATOM     55  C   UNL     1      12.793  -8.909   5.805  1.00  0.00     0.049 A 
ATOM     56  H   UNL     1      11.025  -7.774   5.615  1.00  0.00     0.167 HD
ATOM     57  C   UNL     1      11.116 -10.193   7.109  1.00  0.00     0.074 A 
ATOM     58  C   UNL     1      10.705 -11.315   7.930  1.00  0.00     0.031 C 
ATOM     59  C   UNL     1      12.368 -10.018   6.622  1.00  0.00     0.037 A 
BRANCH  46  60
ATOM     60  C   UNL     1      13.090  -4.905   3.220  1.00  0.00     0.064 A 
ATOM     61  C   UNL     1      13.499  -3.639   3.671  1.00  0.00     0.173 A 
ATOM     62  C   UNL     1      13.612  -5.362   2.001  1.00  0.00     0.173 A 
ATOM     63  F   UNL     1      13.030  -3.152   4.830  1.00  0.00    -0.203 F 
ATOM     64  C   UNL     1      14.367  -2.852   2.919  1.00  0.00     0.198 A 
ATOM     65  C   UNL     1      14.507  -4.585   1.266  1.00  0.00     0.198 A 
ATOM     66  F   UNL     1      13.268  -6.568   1.526  1.00  0.00    -0.203 F 
ATOM     67  F   UNL     1      14.701  -1.628   3.350  1.00  0.00    -0.200 F 
ATOM     68  C   UNL     1      14.876  -3.328   1.722  1.00  0.00     0.200 A 
ATOM     69  F   UNL     1      15.014  -5.054   0.118  1.00  0.00    -0.200 F 
ATOM     70  F   UNL     1      15.722  -2.575   1.005  1.00  0.00    -0.200 F 
ENDBRANCH  46  60
BRANCH  47  71
ATOM     71  C   UNL     1       6.654 -10.316   8.619  1.00  0.00     0.064 A 
ATOM     72  C   UNL     1       6.820 -10.327  10.011  1.00  0.00     0.173 A 
ATOM     73  C   UNL     1       5.541 -10.984   8.088  1.00  0.00     0.173 A 
ATOM     74  F   UNL     1       7.875  -9.712  10.564  1.00  0.00    -0.203 F 
ATOM     75  C   UNL     1       5.910 -10.980  10.839  1.00  0.00     0.198 A 
ATOM     76  C   UNL     1       4.618 -11.614   8.919  1.00  0.00     0.198 A 
ATOM     77  F   UNL     1       5.332 -10.991   6.763  1.00  0.00    -0.203 F 
ATOM     78  F   UNL     1       6.103 -10.991  12.165  1.00  0.00    -0.200 F 
ATOM     79  C   UNL     1       4.804 -11.614  10.294  1.00  0.00     0.200 A 
ATOM     80  F   UNL     1       3.540 -12.209   8.390  1.00  0.00    -0.200 F 
ATOM     81  F   UNL     1       3.917 -12.222  11.092  1.00  0.00    -0.200 F 
ENDBRANCH  47  71
BRANCH  59  82
ATOM     82  C   UNL     1      13.397 -11.055   6.965  1.00  0.00     0.064 A 
ATOM     83  C   UNL     1      13.377 -12.327   6.375  1.00  0.00     0.173 A 
ATOM     84  C   UNL     1      14.458 -10.747   7.830  1.00  0.00     0.173 A 
ATOM     85  F   UNL     1      12.376 -12.673   5.552  1.00  0.00    -0.203 F 
ATOM     86  C   UNL     1      14.375 -13.257   6.649  1.00  0.00     0.198 A 
ATOM     87  C   UNL     1      15.470 -11.669   8.078  1.00  0.00     0.198 A 
ATOM     88  F   UNL     1      14.527  -9.540   8.413  1.00  0.00    -0.203 F 
ATOM     89  F   UNL     1      14.319 -14.478   6.099  1.00  0.00    -0.200 F 
ATOM     90  C   UNL     1      15.426 -12.924   7.490  1.00  0.00     0.200 A 
ATOM     91  F   UNL     1      16.493 -11.341   8.879  1.00  0.00    -0.200 F 
ATOM     92  F   UNL     1      16.396 -13.815   7.737  1.00  0.00    -0.200 F 
ENDBRANCH  59  82
ENDBRANCH  33  34
ENDBRANCH  26  28
ENDBRANCH  25  26
ENDBRANCH   1  25
TORSDOF 12
