REMARK SMILES C[C@@H](Sc1nncn1C)[C@@H](C)C(=O)OCCOC(=O)c1ccc(-c2c3nc(c(-c4c(F)c(F)c(F)c(F)c4F)c4ccc([nH]4)c(-c4c(F)c(F)c(F)c(F)c4F)c4nc(c(-c5c(F)c(F)c(F)c(F)c5F)c5ccc2[nH]5)C=C4)C=C3)cc1
REMARK SMILES IDX 15 1 14 2 12 3 13 4 10 5 11 6 2 7 1 8 3 9 4 10 5 11 8 12
REMARK SMILES IDX 6 13 7 14 9 15 16 16 17 17 18 18 19 19 20 20 21 21 82 22
REMARK SMILES IDX 22 23 81 24 23 25 24 26 25 27 75 28 26 29 80 30 74 31 76 32
REMARK SMILES IDX 27 33 79 34 73 35 72 36 28 38 60 39 40 40 59 41 41 42 44 43
REMARK SMILES IDX 58 44 77 45 42 46 43 47 57 49 78 50 45 51 29 52 30 53 38 54
REMARK SMILES IDX 31 55 32 56 36 57 39 58 33 59 34 60 37 61 35 62 61 63 62 64
REMARK SMILES IDX 70 65 63 66 64 67 68 68 71 69 65 70 66 71 69 72 67 73 46 74
REMARK SMILES IDX 47 75 55 76 48 77 49 78 53 79 56 80 50 81 51 82 54 83 52 84
REMARK H PARENT 76 37 44 48
REMARK Flexibility Score: inf
ROOT
ATOM      1  C   UNL     1      -1.395  -2.664   4.037  1.00  0.00     0.274 C 
ENDROOT
BRANCH   1   2
ATOM      2  O   UNL     1      -0.738  -2.150   2.861  1.00  0.00    -0.462 OA
BRANCH   2   3
ATOM      3  C   UNL     1      -1.510  -1.382   2.051  1.00  0.00     0.309 C 
ATOM      4  O   UNL     1      -2.701  -1.150   2.234  1.00  0.00    -0.252 OA
BRANCH   3   5
ATOM      5  C   UNL     1      -0.789  -0.894   0.805  1.00  0.00     0.109 C 
ATOM      6  C   UNL     1      -1.199  -1.851  -0.319  1.00  0.00     0.021 C 
BRANCH   5   7
ATOM      7  C   UNL     1       0.744  -0.715   0.945  1.00  0.00     0.065 C 
ATOM      8  C   UNL     1       1.403  -0.443  -0.414  1.00  0.00     0.021 C 
BRANCH   7   9
ATOM      9  S   UNL     1       1.105   0.724   2.044  1.00  0.00    -0.082 SA
BRANCH   9  10
ATOM     10  C   UNL     1       2.805   0.556   2.299  1.00  0.00     0.191 A 
ATOM     11  N   UNL     1       3.508  -0.549   2.203  1.00  0.00    -0.124 NA
ATOM     12  N   UNL     1       3.634   1.598   2.603  1.00  0.00    -0.312 N 
ATOM     13  N   UNL     1       4.826  -0.230   2.445  1.00  0.00    -0.138 NA
ATOM     14  C   UNL     1       4.884   1.060   2.684  1.00  0.00     0.226 A 
ATOM     15  C   UNL     1       3.304   2.987   2.773  1.00  0.00     0.153 C 
ENDBRANCH   9  10
ENDBRANCH   7   9
ENDBRANCH   5   7
ENDBRANCH   3   5
ENDBRANCH   2   3
ENDBRANCH   1   2
BRANCH   1  16
ATOM     16  C   UNL     1      -1.205  -1.723   5.225  1.00  0.00     0.275 C 
BRANCH  16  17
ATOM     17  O   UNL     1      -1.735  -0.427   4.899  1.00  0.00    -0.458 OA
BRANCH  17  18
ATOM     18  C   UNL     1      -0.992   0.629   5.294  1.00  0.00     0.338 C 
ATOM     19  O   UNL     1       0.017   0.617   5.976  1.00  0.00    -0.246 OA
BRANCH  18  20
ATOM     20  C   UNL     1      -1.617   1.874   4.809  1.00  0.00     0.060 A 
ATOM     21  C   UNL     1      -1.955   2.039   3.464  1.00  0.00     0.016 A 
ATOM     22  C   UNL     1      -1.790   2.925   5.710  1.00  0.00     0.016 A 
ATOM     23  C   UNL     1      -2.419   3.270   3.003  1.00  0.00     0.010 A 
ATOM     24  C   UNL     1      -2.319   4.136   5.262  1.00  0.00     0.010 A 
ATOM     25  C   UNL     1      -2.616   4.326   3.902  1.00  0.00    -0.014 A 
BRANCH  25  26
ATOM     26  C   UNL     1      -3.111   5.643   3.434  1.00  0.00     0.031 A 
ATOM     27  C   UNL     1      -2.228   6.853   3.536  1.00  0.00     0.074 A 
ATOM     28  C   UNL     1      -4.365   5.760   2.959  1.00  0.00     0.049 A 
ATOM     29  N   UNL     1      -2.525   8.116   3.362  1.00  0.00    -0.248 NA
ATOM     30  C   UNL     1      -0.821   6.610   3.891  1.00  0.00     0.031 C 
ATOM     31  C   UNL     1      -5.308   4.656   2.779  1.00  0.00     0.029 A 
ATOM     32  N   UNL     1      -5.067   6.869   2.558  1.00  0.00    -0.354 N 
ATOM     33  C   UNL     1      -1.357   8.819   3.625  1.00  0.00     0.074 A 
ATOM     34  C   UNL     1      -0.345   7.844   3.976  1.00  0.00     0.031 C 
ATOM     35  C   UNL     1      -6.466   5.142   2.305  1.00  0.00     0.029 A 
ATOM     36  C   UNL     1      -6.366   6.595   2.209  1.00  0.00     0.049 A 
ATOM     37  H   UNL     1      -4.677   7.772   2.523  1.00  0.00     0.167 HD
ATOM     38  C   UNL     1      -1.152  10.156   3.577  1.00  0.00     0.037 A 
ATOM     39  C   UNL     1      -7.376   7.426   1.891  1.00  0.00     0.037 A 
ATOM     40  C   UNL     1      -2.155  11.118   3.200  1.00  0.00     0.049 A 
ATOM     41  C   UNL     1      -7.135   8.909   1.887  1.00  0.00     0.074 A 
ATOM     42  C   UNL     1      -2.038  12.492   3.093  1.00  0.00     0.029 A 
ATOM     43  N   UNL     1      -3.464  10.801   2.865  1.00  0.00    -0.354 N 
ATOM     44  N   UNL     1      -6.033   9.568   2.151  1.00  0.00    -0.248 NA
ATOM     45  C   UNL     1      -8.282   9.765   1.555  1.00  0.00     0.031 C 
ATOM     46  C   UNL     1      -3.286  13.011   2.727  1.00  0.00     0.029 A 
ATOM     47  C   UNL     1      -4.169  11.956   2.568  1.00  0.00     0.049 A 
ATOM     48  H   UNL     1      -3.836   9.889   2.842  1.00  0.00     0.167 HD
ATOM     49  C   UNL     1      -6.348  10.911   2.003  1.00  0.00     0.074 A 
ATOM     50  C   UNL     1      -7.741  10.974   1.611  1.00  0.00     0.031 C 
ATOM     51  C   UNL     1      -5.555  11.996   2.180  1.00  0.00     0.037 A 
BRANCH  38  52
ATOM     52  C   UNL     1       0.203  10.665   3.968  1.00  0.00     0.064 A 
ATOM     53  C   UNL     1       1.319  10.510   3.134  1.00  0.00     0.173 A 
ATOM     54  C   UNL     1       0.378  11.350   5.181  1.00  0.00     0.173 A 
ATOM     55  F   UNL     1       1.208   9.847   1.974  1.00  0.00    -0.203 F 
ATOM     56  C   UNL     1       2.566  11.006   3.509  1.00  0.00     0.198 A 
ATOM     57  C   UNL     1       1.620  11.865   5.541  1.00  0.00     0.198 A 
ATOM     58  F   UNL     1      -0.659  11.526   6.013  1.00  0.00    -0.203 F 
ATOM     59  F   UNL     1       3.628  10.809   2.716  1.00  0.00    -0.200 F 
ATOM     60  C   UNL     1       2.714  11.688   4.707  1.00  0.00     0.200 A 
ATOM     61  F   UNL     1       1.759  12.530   6.696  1.00  0.00    -0.200 F 
ATOM     62  F   UNL     1       3.914  12.167   5.064  1.00  0.00    -0.200 F 
ENDBRANCH  38  52
BRANCH  39  63
ATOM     63  C   UNL     1      -8.716   6.868   1.579  1.00  0.00     0.064 A 
ATOM     64  C   UNL     1      -9.222   6.900   0.273  1.00  0.00     0.173 A 
ATOM     65  C   UNL     1      -9.511   6.285   2.576  1.00  0.00     0.173 A 
ATOM     66  F   UNL     1      -8.508   7.471  -0.707  1.00  0.00    -0.203 F 
ATOM     67  C   UNL     1     -10.479   6.376  -0.023  1.00  0.00     0.198 A 
ATOM     68  C   UNL     1     -10.756   5.738   2.274  1.00  0.00     0.198 A 
ATOM     69  F   UNL     1      -9.071   6.232   3.842  1.00  0.00    -0.203 F 
ATOM     70  F   UNL     1     -10.955   6.451  -1.272  1.00  0.00    -0.200 F 
ATOM     71  C   UNL     1     -11.241   5.788   0.976  1.00  0.00     0.200 A 
ATOM     72  F   UNL     1     -11.485   5.161   3.240  1.00  0.00    -0.200 F 
ATOM     73  F   UNL     1     -12.446   5.278   0.689  1.00  0.00    -0.200 F 
ENDBRANCH  39  63
BRANCH  51  74
ATOM     74  C   UNL     1      -6.171  13.339   1.925  1.00  0.00     0.064 A 
ATOM     75  C   UNL     1      -7.071  13.915   2.834  1.00  0.00     0.173 A 
ATOM     76  C   UNL     1      -5.834  14.069   0.776  1.00  0.00     0.173 A 
ATOM     77  F   UNL     1      -7.436  13.247   3.938  1.00  0.00    -0.203 F 
ATOM     78  C   UNL     1      -7.627  15.168   2.589  1.00  0.00     0.198 A 
ATOM     79  C   UNL     1      -6.373  15.331   0.548  1.00  0.00     0.198 A 
ATOM     80  F   UNL     1      -4.974  13.561  -0.119  1.00  0.00    -0.203 F 
ATOM     81  F   UNL     1      -8.516  15.683   3.449  1.00  0.00    -0.200 F 
ATOM     82  C   UNL     1      -7.273  15.877   1.451  1.00  0.00     0.200 A 
ATOM     83  F   UNL     1      -6.024  16.019  -0.548  1.00  0.00    -0.200 F 
ATOM     84  F   UNL     1      -7.807  17.084   1.219  1.00  0.00    -0.200 F 
ENDBRANCH  51  74
ENDBRANCH  25  26
ENDBRANCH  18  20
ENDBRANCH  17  18
ENDBRANCH  16  17
ENDBRANCH   1  16
TORSDOF 14
