REMARK SMILES C[C@H](C(=O)OCCOC(=O)c1ccc(-c2c3nc(c(-c4c(F)c(F)c(F)c(F)c4F)c4ccc([nH]4)c(-c4c(F)c(F)c(F)c(F)c4F)c4nc(c(-c5c(F)c(F)c(F)c(F)c5F)c5ccc2[nH]5)C=C4)C=C3)cc1)[C@@H](C)C(=O)[C@H]1CC[C@H](C)CC1
REMARK SMILES IDX 6 1 5 2 3 3 4 4 2 5 1 6 74 7 75 8 76 9 77 10 78 11 82 12
REMARK SMILES IDX 81 13 80 14 83 15 79 16 84 17 7 18 8 19 9 20 10 21 11 22
REMARK SMILES IDX 12 23 73 24 13 25 72 26 14 27 15 28 16 29 66 30 17 31 71 32
REMARK SMILES IDX 65 33 67 34 18 35 70 36 64 37 63 38 19 40 51 41 31 42 50 43
REMARK SMILES IDX 32 44 35 45 49 46 68 47 33 48 34 49 48 51 69 52 36 53 20 54
REMARK SMILES IDX 21 55 29 56 22 57 23 58 27 59 30 60 24 61 25 62 28 63 26 64
REMARK SMILES IDX 52 65 53 66 61 67 54 68 55 69 59 70 62 71 56 72 57 73 60 74
REMARK SMILES IDX 58 75 37 76 38 77 46 78 39 79 40 80 44 81 47 82 41 83 42 84
REMARK SMILES IDX 45 85 43 86
REMARK H PARENT 67 39 35 50
REMARK Flexibility Score: inf
ROOT
ATOM      1  C   UNL     1      -4.620   0.310   5.619  1.00  0.00     0.274 C 
ENDROOT
BRANCH   1   2
ATOM      2  O   UNL     1      -4.561   0.408   4.179  1.00  0.00    -0.462 OA
BRANCH   2   3
ATOM      3  C   UNL     1      -3.496   1.059   3.646  1.00  0.00     0.309 C 
ATOM      4  O   UNL     1      -2.561   1.516   4.295  1.00  0.00    -0.252 OA
BRANCH   3   5
ATOM      5  C   UNL     1      -3.597   1.262   2.146  1.00  0.00     0.106 C 
ATOM      6  C   UNL     1      -4.380   0.151   1.453  1.00  0.00     0.021 C 
BRANCH   5   7
ATOM      7  C   UNL     1      -3.984   2.723   1.799  1.00  0.00     0.067 C 
ATOM      8  C   UNL     1      -3.994   2.961   0.285  1.00  0.00     0.017 C 
BRANCH   7   9
ATOM      9  C   UNL     1      -5.330   3.187   2.371  1.00  0.00     0.139 C 
ATOM     10  O   UNL     1      -6.381   2.676   1.973  1.00  0.00    -0.299 OA
BRANCH   9  11
ATOM     11  C   UNL     1      -5.380   4.261   3.478  1.00  0.00     0.056 C 
ATOM     12  C   UNL     1      -3.971   6.715   6.866  1.00  0.00     0.007 C 
ATOM     13  C   UNL     1      -4.047   5.784   5.661  1.00  0.00    -0.014 C 
ATOM     14  C   UNL     1      -4.561   6.492   4.399  1.00  0.00     0.004 C 
ATOM     15  C   UNL     1      -4.946   4.590   5.979  1.00  0.00     0.004 C 
ATOM     16  C   UNL     1      -4.588   5.542   3.189  1.00  0.00     0.012 C 
ATOM     17  C   UNL     1      -4.971   3.633   4.804  1.00  0.00     0.012 C 
ENDBRANCH   9  11
ENDBRANCH   7   9
ENDBRANCH   5   7
ENDBRANCH   3   5
ENDBRANCH   2   3
ENDBRANCH   1   2
BRANCH   1  18
ATOM     18  C   UNL     1      -4.022  -0.987   6.164  1.00  0.00     0.275 C 
BRANCH  18  19
ATOM     19  O   UNL     1      -2.587  -0.966   6.092  1.00  0.00    -0.458 OA
BRANCH  19  20
ATOM     20  C   UNL     1      -2.076  -1.427   4.927  1.00  0.00     0.338 C 
ATOM     21  O   UNL     1      -2.684  -1.958   4.014  1.00  0.00    -0.246 OA
BRANCH  20  22
ATOM     22  C   UNL     1      -0.663  -1.028   4.816  1.00  0.00     0.060 A 
ATOM     23  C   UNL     1      -0.259  -0.428   3.617  1.00  0.00     0.016 A 
ATOM     24  C   UNL     1       0.257  -1.276   5.835  1.00  0.00     0.016 A 
ATOM     25  C   UNL     1       1.070  -0.082   3.421  1.00  0.00     0.010 A 
ATOM     26  C   UNL     1       1.600  -0.957   5.628  1.00  0.00     0.010 A 
ATOM     27  C   UNL     1       2.009  -0.383   4.410  1.00  0.00    -0.014 A 
BRANCH  27  28
ATOM     28  C   UNL     1       3.445  -0.266   4.088  1.00  0.00     0.031 A 
ATOM     29  C   UNL     1       4.171  -1.498   3.636  1.00  0.00     0.074 A 
ATOM     30  C   UNL     1       4.066   0.921   4.158  1.00  0.00     0.049 A 
ATOM     31  N   UNL     1       5.441  -1.669   3.384  1.00  0.00    -0.248 NA
ATOM     32  C   UNL     1       3.348  -2.704   3.440  1.00  0.00     0.031 C 
ATOM     33  C   UNL     1       3.429   2.188   4.510  1.00  0.00     0.029 A 
ATOM     34  N   UNL     1       5.378   1.250   3.939  1.00  0.00    -0.354 N 
ATOM     35  C   UNL     1       5.574  -3.002   3.021  1.00  0.00     0.074 A 
ATOM     36  C   UNL     1       4.259  -3.601   3.095  1.00  0.00     0.031 C 
ATOM     37  C   UNL     1       4.358   3.159   4.500  1.00  0.00     0.029 A 
ATOM     38  C   UNL     1       5.657   2.571   4.183  1.00  0.00     0.049 A 
ATOM     39  H   UNL     1       6.055   0.602   3.637  1.00  0.00     0.167 HD
ATOM     40  C   UNL     1       6.698  -3.663   2.660  1.00  0.00     0.037 A 
ATOM     41  C   UNL     1       6.840   3.215   4.182  1.00  0.00     0.037 A 
ATOM     42  C   UNL     1       7.996  -3.050   2.588  1.00  0.00     0.049 A 
ATOM     43  C   UNL     1       8.088   2.439   3.851  1.00  0.00     0.074 A 
ATOM     44  C   UNL     1       9.205  -3.622   2.237  1.00  0.00     0.029 A 
ATOM     45  N   UNL     1       8.250  -1.716   2.876  1.00  0.00    -0.354 N 
ATOM     46  N   UNL     1       8.216   1.175   3.523  1.00  0.00    -0.248 NA
ATOM     47  C   UNL     1       9.357   3.177   3.894  1.00  0.00     0.031 C 
ATOM     48  C   UNL     1      10.198  -2.644   2.356  1.00  0.00     0.029 A 
ATOM     49  C   UNL     1       9.601  -1.450   2.732  1.00  0.00     0.049 A 
ATOM     50  H   UNL     1       7.570  -1.056   3.143  1.00  0.00     0.167 HD
ATOM     51  C   UNL     1       9.570   0.971   3.298  1.00  0.00     0.074 A 
ATOM     52  C   UNL     1      10.222   2.247   3.514  1.00  0.00     0.031 C 
ATOM     53  C   UNL     1      10.219  -0.166   2.946  1.00  0.00     0.037 A 
BRANCH  40  54
ATOM     54  C   UNL     1       6.573  -5.128   2.366  1.00  0.00     0.064 A 
ATOM     55  C   UNL     1       5.944  -5.599   1.204  1.00  0.00     0.173 A 
ATOM     56  C   UNL     1       7.100  -6.074   3.257  1.00  0.00     0.173 A 
ATOM     57  F   UNL     1       5.404  -4.736   0.330  1.00  0.00    -0.203 F 
ATOM     58  C   UNL     1       5.827  -6.965   0.957  1.00  0.00     0.198 A 
ATOM     59  C   UNL     1       7.005  -7.438   2.994  1.00  0.00     0.198 A 
ATOM     60  F   UNL     1       7.708  -5.676   4.385  1.00  0.00    -0.203 F 
ATOM     61  F   UNL     1       5.180  -7.395  -0.136  1.00  0.00    -0.200 F 
ATOM     62  C   UNL     1       6.363  -7.883   1.849  1.00  0.00     0.200 A 
ATOM     63  F   UNL     1       7.530  -8.323   3.853  1.00  0.00    -0.200 F 
ATOM     64  F   UNL     1       6.253  -9.197   1.608  1.00  0.00    -0.200 F 
ENDBRANCH  40  54
BRANCH  41  65
ATOM     65  C   UNL     1       6.902   4.657   4.531  1.00  0.00     0.064 A 
ATOM     66  C   UNL     1       7.243   5.620   3.572  1.00  0.00     0.173 A 
ATOM     67  C   UNL     1       6.630   5.102   5.834  1.00  0.00     0.173 A 
ATOM     68  F   UNL     1       7.537   5.242   2.319  1.00  0.00    -0.203 F 
ATOM     69  C   UNL     1       7.324   6.971   3.905  1.00  0.00     0.198 A 
ATOM     70  C   UNL     1       6.683   6.456   6.159  1.00  0.00     0.198 A 
ATOM     71  F   UNL     1       6.302   4.221   6.790  1.00  0.00    -0.203 F 
ATOM     72  F   UNL     1       7.694   7.866   2.980  1.00  0.00    -0.200 F 
ATOM     73  C   UNL     1       7.037   7.388   5.197  1.00  0.00     0.200 A 
ATOM     74  F   UNL     1       6.395   6.855   7.405  1.00  0.00    -0.200 F 
ATOM     75  F   UNL     1       7.111   8.688   5.515  1.00  0.00    -0.200 F 
ENDBRANCH  41  65
BRANCH  53  76
ATOM     76  C   UNL     1      11.701  -0.071   2.736  1.00  0.00     0.064 A 
ATOM     77  C   UNL     1      12.589   0.062   3.813  1.00  0.00     0.173 A 
ATOM     78  C   UNL     1      12.239  -0.160   1.443  1.00  0.00     0.173 A 
ATOM     79  F   UNL     1      12.120   0.165   5.066  1.00  0.00    -0.203 F 
ATOM     80  C   UNL     1      13.963   0.126   3.601  1.00  0.00     0.198 A 
ATOM     81  C   UNL     1      13.615  -0.125   1.238  1.00  0.00     0.198 A 
ATOM     82  F   UNL     1      11.431  -0.296   0.382  1.00  0.00    -0.203 F 
ATOM     83  F   UNL     1      14.792   0.297   4.640  1.00  0.00    -0.200 F 
ATOM     84  C   UNL     1      14.475   0.025   2.315  1.00  0.00     0.200 A 
ATOM     85  F   UNL     1      14.109  -0.236  -0.003  1.00  0.00    -0.200 F 
ATOM     86  F   UNL     1      15.799   0.079   2.114  1.00  0.00    -0.200 F 
ENDBRANCH  53  76
ENDBRANCH  27  28
ENDBRANCH  20  22
ENDBRANCH  19  20
ENDBRANCH  18  19
ENDBRANCH   1  18
TORSDOF 14
