REMARK SMILES O=C(OCCOC(=O)c1cccc(Br)c1O[C@@H]1CCOC2(CCC2)C1)c1ccc(-c2c3nc(c(-c4c(F)c(F)c(F)c(F)c4F)c4ccc([nH]4)c(-c4c(F)c(F)c(F)c(F)c4F)c4nc(c(-c5c(F)c(F)c(F)c(F)c5F)c5ccc2[nH]5)C=C4)C=C3)cc1
REMARK SMILES IDX 4 1 3 2 2 3 1 4 26 5 27 6 88 7 28 8 87 9 29 10 30 11 31 12
REMARK SMILES IDX 81 13 32 14 86 15 80 16 82 17 33 18 85 19 79 20 78 21 34 23
REMARK SMILES IDX 66 24 46 25 65 26 47 27 50 28 64 29 83 30 48 31 49 32 63 34
REMARK SMILES IDX 84 35 51 36 35 37 36 38 44 39 37 40 38 41 42 42 45 43 39 44
REMARK SMILES IDX 40 45 43 46 41 47 67 48 68 49 76 50 69 51 70 52 74 53 77 54
REMARK SMILES IDX 71 55 72 56 75 57 73 58 52 59 53 60 61 61 54 62 55 63 59 64
REMARK SMILES IDX 62 65 56 66 57 67 60 68 58 69 5 70 6 71 7 72 8 73 9 74 10 75
REMARK SMILES IDX 15 76 11 77 13 78 12 79 14 80 16 81 17 82 18 83 25 84 19 85
REMARK SMILES IDX 21 86 20 87 22 88 24 89 23 90
REMARK H PARENT 82 22 50 33
REMARK Flexibility Score: inf
ROOT
ATOM      1  C   UNL     1       4.222  -0.284   1.897  1.00  0.00     0.275 C 
ENDROOT
BRANCH   1   2
ATOM      2  O   UNL     1       3.427   0.727   1.272  1.00  0.00    -0.458 OA
BRANCH   2   3
ATOM      3  C   UNL     1       3.452   1.142  -0.011  1.00  0.00     0.338 C 
ATOM      4  O   UNL     1       2.715   2.079  -0.322  1.00  0.00    -0.246 OA
BRANCH   3   5
ATOM      5  C   UNL     1       4.285   0.525  -1.108  1.00  0.00     0.060 A 
ATOM      6  C   UNL     1       5.144  -0.581  -1.058  1.00  0.00     0.016 A 
ATOM      7  C   UNL     1       4.114   1.112  -2.360  1.00  0.00     0.016 A 
ATOM      8  C   UNL     1       5.721  -1.141  -2.215  1.00  0.00     0.010 A 
ATOM      9  C   UNL     1       4.654   0.534  -3.508  1.00  0.00     0.010 A 
ATOM     10  C   UNL     1       5.428  -0.637  -3.476  1.00  0.00    -0.014 A 
BRANCH  10  11
ATOM     11  C   UNL     1       5.925  -1.272  -4.745  1.00  0.00     0.031 A 
ATOM     12  C   UNL     1       6.515  -0.389  -5.816  1.00  0.00     0.074 A 
ATOM     13  C   UNL     1       5.748  -2.587  -5.021  1.00  0.00     0.049 A 
ATOM     14  N   UNL     1       6.758  -0.648  -7.076  1.00  0.00    -0.248 NA
ATOM     15  C   UNL     1       6.782   1.008  -5.438  1.00  0.00     0.031 C 
ATOM     16  C   UNL     1       5.133  -3.580  -4.138  1.00  0.00     0.029 A 
ATOM     17  N   UNL     1       6.042  -3.318  -6.154  1.00  0.00    -0.354 N 
ATOM     18  C   UNL     1       7.128   0.569  -7.632  1.00  0.00     0.074 A 
ATOM     19  C   UNL     1       6.914   1.578  -6.623  1.00  0.00     0.031 C 
ATOM     20  C   UNL     1       5.092  -4.775  -4.755  1.00  0.00     0.029 A 
ATOM     21  C   UNL     1       5.661  -4.641  -6.089  1.00  0.00     0.049 A 
ATOM     22  H   UNL     1       6.486  -2.928  -6.942  1.00  0.00     0.167 HD
ATOM     23  C   UNL     1       7.700   0.824  -8.832  1.00  0.00     0.037 A 
ATOM     24  C   UNL     1       5.759  -5.635  -6.998  1.00  0.00     0.037 A 
ATOM     25  C   UNL     1       8.062  -0.197  -9.771  1.00  0.00     0.049 A 
ATOM     26  C   UNL     1       6.427  -5.348  -8.321  1.00  0.00     0.074 A 
ATOM     27  C   UNL     1       8.791  -0.075 -10.938  1.00  0.00     0.029 A 
ATOM     28  N   UNL     1       7.743  -1.538  -9.629  1.00  0.00    -0.354 N 
ATOM     29  N   UNL     1       6.896  -4.214  -8.780  1.00  0.00    -0.248 NA
ATOM     30  C   UNL     1       6.611  -6.484  -9.239  1.00  0.00     0.031 C 
ATOM     31  C   UNL     1       8.884  -1.341 -11.523  1.00  0.00     0.029 A 
ATOM     32  C   UNL     1       8.252  -2.256 -10.696  1.00  0.00     0.049 A 
ATOM     33  H   UNL     1       7.231  -1.922  -8.880  1.00  0.00     0.167 HD
ATOM     34  C   UNL     1       7.479  -4.509 -10.006  1.00  0.00     0.074 A 
ATOM     35  C   UNL     1       7.306  -5.929 -10.222  1.00  0.00     0.031 C 
ATOM     36  C   UNL     1       8.109  -3.678 -10.871  1.00  0.00     0.037 A 
BRANCH  23  37
ATOM     37  C   UNL     1       8.040   2.256  -9.140  1.00  0.00     0.064 A 
ATOM     38  C   UNL     1       8.986   2.968  -8.384  1.00  0.00     0.173 A 
ATOM     39  C   UNL     1       7.395   2.933 -10.184  1.00  0.00     0.173 A 
ATOM     40  F   UNL     1       9.632   2.369  -7.370  1.00  0.00    -0.203 F 
ATOM     41  C   UNL     1       9.214   4.322  -8.608  1.00  0.00     0.198 A 
ATOM     42  C   UNL     1       7.663   4.277 -10.438  1.00  0.00     0.198 A 
ATOM     43  F   UNL     1       6.496   2.299 -10.951  1.00  0.00    -0.203 F 
ATOM     44  F   UNL     1      10.043   5.000  -7.803  1.00  0.00    -0.200 F 
ATOM     45  C   UNL     1       8.556   4.974  -9.637  1.00  0.00     0.200 A 
ATOM     46  F   UNL     1       7.042   4.903 -11.447  1.00  0.00    -0.200 F 
ATOM     47  F   UNL     1       8.772   6.279  -9.849  1.00  0.00    -0.200 F 
ENDBRANCH  23  37
BRANCH  24  48
ATOM     48  C   UNL     1       5.274  -7.013  -6.693  1.00  0.00     0.064 A 
ATOM     49  C   UNL     1       6.177  -8.076  -6.530  1.00  0.00     0.173 A 
ATOM     50  C   UNL     1       3.905  -7.314  -6.622  1.00  0.00     0.173 A 
ATOM     51  F   UNL     1       7.496  -7.848  -6.606  1.00  0.00    -0.203 F 
ATOM     52  C   UNL     1       5.733  -9.387  -6.358  1.00  0.00     0.198 A 
ATOM     53  C   UNL     1       3.462  -8.623  -6.422  1.00  0.00     0.198 A 
ATOM     54  F   UNL     1       2.995  -6.339  -6.755  1.00  0.00    -0.203 F 
ATOM     55  F   UNL     1       6.621 -10.387  -6.274  1.00  0.00    -0.200 F 
ATOM     56  C   UNL     1       4.376  -9.660  -6.304  1.00  0.00     0.200 A 
ATOM     57  F   UNL     1       2.149  -8.883  -6.356  1.00  0.00    -0.200 F 
ATOM     58  F   UNL     1       3.949 -10.922  -6.151  1.00  0.00    -0.200 F 
ENDBRANCH  24  48
BRANCH  36  59
ATOM     59  C   UNL     1       8.727  -4.280 -12.098  1.00  0.00     0.064 A 
ATOM     60  C   UNL     1       7.947  -4.740 -13.167  1.00  0.00     0.173 A 
ATOM     61  C   UNL     1      10.124  -4.307 -12.239  1.00  0.00     0.173 A 
ATOM     62  F   UNL     1       6.609  -4.750 -13.072  1.00  0.00    -0.203 F 
ATOM     63  C   UNL     1       8.544  -5.215 -14.332  1.00  0.00     0.198 A 
ATOM     64  C   UNL     1      10.715  -4.749 -13.417  1.00  0.00     0.198 A 
ATOM     65  F   UNL     1      10.913  -3.871 -11.245  1.00  0.00    -0.203 F 
ATOM     66  F   UNL     1       7.782  -5.681 -15.330  1.00  0.00    -0.200 F 
ATOM     67  C   UNL     1       9.926  -5.205 -14.461  1.00  0.00     0.200 A 
ATOM     68  F   UNL     1      12.049  -4.719 -13.547  1.00  0.00    -0.200 F 
ATOM     69  F   UNL     1      10.496  -5.636 -15.594  1.00  0.00    -0.200 F 
ENDBRANCH  36  59
ENDBRANCH  10  11
ENDBRANCH   3   5
ENDBRANCH   2   3
ENDBRANCH   1   2
BRANCH   1  70
ATOM     70  C   UNL     1       3.594  -1.677   1.780  1.00  0.00     0.275 C 
BRANCH  70  71
ATOM     71  O   UNL     1       3.126  -1.975   0.450  1.00  0.00    -0.458 OA
BRANCH  71  72
ATOM     72  C   UNL     1       1.804  -1.741   0.193  1.00  0.00     0.342 C 
ATOM     73  O   UNL     1       0.976  -1.376   1.002  1.00  0.00    -0.246 OA
BRANCH  72  74
ATOM     74  C   UNL     1       1.534  -2.049  -1.242  1.00  0.00     0.103 A 
ATOM     75  C   UNL     1       2.075  -3.221  -1.758  1.00  0.00     0.020 A 
ATOM     76  C   UNL     1       0.687  -1.240  -2.050  1.00  0.00     0.148 A 
ATOM     77  C   UNL     1       1.781  -3.590  -3.055  1.00  0.00     0.002 A 
ATOM     78  C   UNL     1       0.303  -1.532  -3.456  1.00  0.00     0.060 A 
ATOM     79  C   UNL     1       0.947  -2.797  -3.867  1.00  0.00     0.019 A 
ATOM     80  Br  UNL     1      -1.369  -0.044  -4.768  1.00  0.00    -0.047 Br
BRANCH  76  81
ATOM     81  O   UNL     1       0.176  -0.131  -1.451  1.00  0.00    -0.488 OA
BRANCH  81  82
ATOM     82  C   UNL     1      -0.597   0.227  -2.549  1.00  0.00     0.178 C 
ATOM     83  C   UNL     1      -1.790  -1.295  -2.772  1.00  0.00     0.074 C 
ATOM     84  C   UNL     1       0.747   0.629  -3.894  1.00  0.00     0.080 C 
ATOM     85  C   UNL     1      -1.562  -2.384  -4.340  1.00  0.00     0.165 C 
ATOM     86  C   UNL     1       0.895  -0.564  -5.383  1.00  0.00     0.072 C 
ATOM     87  O   UNL     1      -0.308  -1.901  -5.579  1.00  0.00    -0.375 OA
ATOM     88  C   UNL     1       1.098   0.162  -6.793  1.00  0.00     0.036 C 
ATOM     89  C   UNL     1       2.410  -0.920  -5.560  1.00  0.00     0.036 C 
ATOM     90  C   UNL     1       2.238  -0.841  -7.066  1.00  0.00     0.006 C 
ENDBRANCH  81  82
ENDBRANCH  76  81
ENDBRANCH  72  74
ENDBRANCH  71  72
ENDBRANCH  70  71
ENDBRANCH   1  70
TORSDOF 13
