REMARK SMILES Cc1ccccc1NC(=O)c1ccccc1NC(=O)CCC(=O)OCCOC(=O)c1ccc(-c2c3nc(c(-c4c(F)c(F)c(F)c(F)c4F)c4ccc([nH]4)c(-c4c(F)c(F)c(F)c(F)c4F)c4nc(c(-c5c(F)c(F)c(F)c(F)c5F)c5ccc2[nH]5)C=C4)C=C3)cc1
REMARK SMILES IDX 24 1 22 2 23 3 21 4 20 5 18 6 17 7 19 9 16 10 11 11 12 12
REMARK SMILES IDX 13 13 15 14 14 15 9 16 8 17 10 19 7 20 1 21 2 22 3 23 4 24
REMARK SMILES IDX 6 25 5 26 25 27 26 28 27 29 28 30 29 31 30 32 31 33 92 34
REMARK SMILES IDX 32 35 91 36 33 37 34 38 35 39 85 40 36 41 90 42 84 43 86 44
REMARK SMILES IDX 37 45 89 46 83 47 82 48 38 50 70 51 50 52 69 53 51 54 54 55
REMARK SMILES IDX 68 56 87 57 52 58 53 59 67 61 88 62 55 63 39 64 40 65 48 66
REMARK SMILES IDX 41 67 42 68 46 69 49 70 43 71 44 72 47 73 45 74 71 75 72 76
REMARK SMILES IDX 80 77 73 78 74 79 78 80 81 81 75 82 76 83 79 84 77 85 56 86
REMARK SMILES IDX 57 87 65 88 58 89 59 90 63 91 66 92 60 93 61 94 64 95 62 96
REMARK H PARENT 17 8 8 18 86 49 54 60
REMARK Flexibility Score: inf
ROOT
ATOM      1  O   UNL     1       0.456   3.438   2.797  1.00  0.00    -0.462 OA
ENDROOT
BRANCH   1   2
ATOM      2  C   UNL     1      -0.466   2.541   3.126  1.00  0.00     0.306 C 
ATOM      3  O   UNL     1      -1.617   2.822   2.959  1.00  0.00    -0.252 OA
BRANCH   2   4
ATOM      4  C   UNL     1      -0.238   1.181   3.660  1.00  0.00     0.132 C 
BRANCH   4   5
ATOM      5  C   UNL     1      -1.545   0.472   3.146  1.00  0.00     0.112 C 
BRANCH   5   6
ATOM      6  C   UNL     1      -1.270   0.273   1.686  1.00  0.00     0.224 C 
ATOM      7  N   UNL     1      -1.135   1.320   0.802  1.00  0.00    -0.325 N 
ATOM      8  H   UNL     1      -0.207   1.364   0.477  1.00  0.00     0.169 HD
ATOM      9  O   UNL     1      -0.638  -0.773   1.488  1.00  0.00    -0.275 OA
BRANCH   7  10
ATOM     10  C   UNL     1      -1.907   2.368   0.202  1.00  0.00     0.054 A 
ATOM     11  C   UNL     1      -1.244   3.318  -0.656  1.00  0.00     0.063 A 
ATOM     12  C   UNL     1      -1.896   4.529  -1.024  1.00  0.00     0.016 A 
ATOM     13  C   UNL     1      -3.211   4.777  -0.625  1.00  0.00     0.001 A 
ATOM     14  C   UNL     1      -3.265   2.580   0.476  1.00  0.00     0.027 A 
ATOM     15  C   UNL     1      -3.902   3.785   0.080  1.00  0.00     0.002 A 
BRANCH  11  16
ATOM     16  C   UNL     1       0.209   3.264  -1.037  1.00  0.00     0.257 C 
ATOM     17  N   UNL     1       0.897   2.091  -1.292  1.00  0.00    -0.322 N 
ATOM     18  H   UNL     1       1.875   2.197  -1.335  1.00  0.00     0.170 HD
ATOM     19  O   UNL     1       0.852   4.318  -1.027  1.00  0.00    -0.269 OA
BRANCH  17  20
ATOM     20  C   UNL     1       0.447   0.768  -1.500  1.00  0.00     0.044 A 
ATOM     21  C   UNL     1       2.577  -0.158  -0.351  1.00  0.00     0.046 C 
ATOM     22  C   UNL     1       1.204  -0.296  -0.961  1.00  0.00    -0.027 A 
ATOM     23  C   UNL     1       0.574  -1.547  -0.804  1.00  0.00     0.005 A 
ATOM     24  C   UNL     1      -0.786  -1.708  -1.089  1.00  0.00     0.000 A 
ATOM     25  C   UNL     1      -0.860   0.534  -1.959  1.00  0.00     0.026 A 
ATOM     26  C   UNL     1      -1.501  -0.671  -1.672  1.00  0.00     0.002 A 
ENDBRANCH  17  20
ENDBRANCH  11  16
ENDBRANCH   7  10
ENDBRANCH   5   6
ENDBRANCH   4   5
ENDBRANCH   2   4
ENDBRANCH   1   2
BRANCH   1  27
ATOM     27  C   UNL     1      -0.138   4.743   2.434  1.00  0.00     0.274 C 
BRANCH  27  28
ATOM     28  C   UNL     1      -1.740   5.038   2.241  1.00  0.00     0.275 C 
BRANCH  28  29
ATOM     29  O   UNL     1      -3.120   4.675   2.895  1.00  0.00    -0.458 OA
BRANCH  29  30
ATOM     30  C   UNL     1      -3.610   3.660   3.757  1.00  0.00     0.338 C 
ATOM     31  O   UNL     1      -4.564   2.947   3.493  1.00  0.00    -0.246 OA
BRANCH  30  32
ATOM     32  C   UNL     1      -2.893   3.612   5.065  1.00  0.00     0.060 A 
ATOM     33  C   UNL     1      -2.584   2.686   6.085  1.00  0.00     0.016 A 
ATOM     34  C   UNL     1      -2.179   4.725   5.119  1.00  0.00     0.016 A 
ATOM     35  C   UNL     1      -1.460   3.006   6.939  1.00  0.00     0.010 A 
ATOM     36  C   UNL     1      -0.916   4.356   5.239  1.00  0.00     0.010 A 
ATOM     37  C   UNL     1      -0.639   4.034   6.501  1.00  0.00    -0.014 A 
BRANCH  37  38
ATOM     38  C   UNL     1       0.539   4.897   6.762  1.00  0.00     0.031 A 
ATOM     39  C   UNL     1       1.807   4.128   6.810  1.00  0.00     0.074 A 
ATOM     40  C   UNL     1       0.337   6.246   6.430  1.00  0.00     0.049 A 
ATOM     41  N   UNL     1       2.528   3.826   7.840  1.00  0.00    -0.248 NA
ATOM     42  C   UNL     1       2.260   3.373   5.617  1.00  0.00     0.031 C 
ATOM     43  C   UNL     1       1.075   7.502   6.338  1.00  0.00     0.029 A 
ATOM     44  N   UNL     1      -0.940   6.787   6.061  1.00  0.00    -0.354 N 
ATOM     45  C   UNL     1       3.757   3.469   7.287  1.00  0.00     0.074 A 
ATOM     46  C   UNL     1       3.413   2.841   6.036  1.00  0.00     0.031 C 
ATOM     47  C   UNL     1       0.211   8.528   6.606  1.00  0.00     0.029 A 
ATOM     48  C   UNL     1      -1.153   7.998   6.690  1.00  0.00     0.049 A 
ATOM     49  H   UNL     1      -1.576   6.355   5.446  1.00  0.00     0.167 HD
ATOM     50  C   UNL     1       4.814   4.339   7.429  1.00  0.00     0.037 A 
ATOM     51  C   UNL     1      -2.055   7.922   7.712  1.00  0.00     0.037 A 
ATOM     52  C   UNL     1       4.331   5.631   7.936  1.00  0.00     0.049 A 
ATOM     53  C   UNL     1      -1.226   7.695   8.950  1.00  0.00     0.074 A 
ATOM     54  C   UNL     1       4.237   6.904   7.407  1.00  0.00     0.029 A 
ATOM     55  N   UNL     1       3.530   5.636   9.069  1.00  0.00    -0.354 N 
ATOM     56  N   UNL     1      -0.051   7.123   8.927  1.00  0.00    -0.248 NA
ATOM     57  C   UNL     1      -1.558   8.249  10.248  1.00  0.00     0.031 C 
ATOM     58  C   UNL     1       3.334   7.648   8.237  1.00  0.00     0.029 A 
ATOM     59  C   UNL     1       2.808   6.802   9.203  1.00  0.00     0.049 A 
ATOM     60  H   UNL     1       3.482   4.888   9.708  1.00  0.00     0.167 HD
ATOM     61  C   UNL     1       0.591   7.334  10.098  1.00  0.00     0.074 A 
ATOM     62  C   UNL     1      -0.404   8.030  10.903  1.00  0.00     0.031 C 
ATOM     63  C   UNL     1       1.879   6.936  10.328  1.00  0.00     0.037 A 
BRANCH  50  64
ATOM     64  C   UNL     1       6.238   4.127   6.938  1.00  0.00     0.064 A 
ATOM     65  C   UNL     1       7.220   5.113   7.199  1.00  0.00     0.173 A 
ATOM     66  C   UNL     1       6.739   2.950   6.341  1.00  0.00     0.173 A 
ATOM     67  F   UNL     1       6.906   6.260   7.815  1.00  0.00    -0.203 F 
ATOM     68  C   UNL     1       8.572   4.944   6.884  1.00  0.00     0.198 A 
ATOM     69  C   UNL     1       8.096   2.786   6.015  1.00  0.00     0.198 A 
ATOM     70  F   UNL     1       5.952   1.897   6.091  1.00  0.00    -0.203 F 
ATOM     71  F   UNL     1       9.448   5.913   7.184  1.00  0.00    -0.200 F 
ATOM     72  C   UNL     1       9.012   3.780   6.294  1.00  0.00     0.200 A 
ATOM     73  F   UNL     1       8.514   1.642   5.453  1.00  0.00    -0.200 F 
ATOM     74  F   UNL     1      10.312   3.608   6.018  1.00  0.00    -0.200 F 
ENDBRANCH  50  64
BRANCH  51  75
ATOM     75  C   UNL     1      -3.336   7.197   7.309  1.00  0.00     0.064 A 
ATOM     76  C   UNL     1      -4.011   7.645   6.140  1.00  0.00     0.173 A 
ATOM     77  C   UNL     1      -3.757   5.953   7.809  1.00  0.00     0.173 A 
ATOM     78  F   UNL     1      -3.683   8.828   5.594  1.00  0.00    -0.203 F 
ATOM     79  C   UNL     1      -4.929   6.850   5.443  1.00  0.00     0.198 A 
ATOM     80  C   UNL     1      -4.732   5.182   7.141  1.00  0.00     0.198 A 
ATOM     81  F   UNL     1      -3.158   5.417   8.881  1.00  0.00    -0.203 F 
ATOM     82  F   UNL     1      -5.364   7.235   4.232  1.00  0.00    -0.200 F 
ATOM     83  C   UNL     1      -5.288   5.615   5.942  1.00  0.00     0.200 A 
ATOM     84  F   UNL     1      -5.024   3.946   7.578  1.00  0.00    -0.200 F 
ATOM     85  F   UNL     1      -6.071   4.799   5.219  1.00  0.00    -0.200 F 
ENDBRANCH  51  75
BRANCH  63  86
ATOM     86  C   UNL     1       2.381   6.677  11.721  1.00  0.00     0.064 A 
ATOM     87  C   UNL     1       1.523   6.465  12.810  1.00  0.00     0.173 A 
ATOM     88  C   UNL     1       3.757   6.497  11.989  1.00  0.00     0.173 A 
ATOM     89  F   UNL     1       0.199   6.337  12.658  1.00  0.00    -0.203 F 
ATOM     90  C   UNL     1       2.006   6.316  14.102  1.00  0.00     0.198 A 
ATOM     91  C   UNL     1       4.228   6.199  13.259  1.00  0.00     0.198 A 
ATOM     92  F   UNL     1       4.696   6.575  11.036  1.00  0.00    -0.203 F 
ATOM     93  F   UNL     1       1.143   6.292  15.125  1.00  0.00    -0.200 F 
ATOM     94  C   UNL     1       3.359   6.176  14.327  1.00  0.00     0.200 A 
ATOM     95  F   UNL     1       5.529   5.936  13.436  1.00  0.00    -0.200 F 
ATOM     96  F   UNL     1       3.822   5.995  15.568  1.00  0.00    -0.200 F 
ENDBRANCH  63  86
ENDBRANCH  37  38
ENDBRANCH  30  32
ENDBRANCH  29  30
ENDBRANCH  28  29
ENDBRANCH  27  28
ENDBRANCH   1  27
TORSDOF 16
