REMARK SMILES O=C(OCCOC(=O)[C@@H](CO)N1C(=O)c2c(Cl)c(Cl)c(Cl)c(Cl)c2C1=O)c1ccc(-c2c3nc(c(-c4c(F)c(F)c(F)c(F)c4F)c4ccc([nH]4)c(-c4c(F)c(F)c(F)c(F)c4F)c4nc(c(-c5c(F)c(F)c(F)c(F)c5F)c5ccc2[nH]5)C=C4)C=C3)cc1
REMARK SMILES IDX 4 1 3 2 2 3 1 4 27 5 28 6 89 7 29 8 88 9 30 10 31 11 32 12
REMARK SMILES IDX 82 13 33 14 87 15 81 16 83 17 34 18 86 19 80 20 79 21 35 23
REMARK SMILES IDX 67 24 47 25 66 26 48 27 51 28 65 29 84 30 49 31 50 32 64 34
REMARK SMILES IDX 85 35 52 36 36 37 37 38 45 39 38 40 39 41 43 42 46 43 40 44
REMARK SMILES IDX 41 45 44 46 42 47 68 48 69 49 77 50 70 51 71 52 75 53 78 54
REMARK SMILES IDX 72 55 73 56 76 57 74 58 53 59 54 60 62 61 55 62 56 63 60 64
REMARK SMILES IDX 63 65 57 66 58 67 61 68 59 69 5 70 6 71 7 72 8 73 9 74 10 75
REMARK SMILES IDX 11 76 12 78 13 79 25 80 14 81 15 82 24 83 26 84 16 85 22 86
REMARK SMILES IDX 17 87 18 88 20 89 23 90 19 91 21 92
REMARK H PARENT 83 22 51 33 11 77
REMARK Flexibility Score: inf
ROOT
ATOM      1  C   UNL     1       4.301  -1.538  -0.605  1.00  0.00     0.275 C 
ENDROOT
BRANCH   1   2
ATOM      2  O   UNL     1       3.457  -1.320   0.532  1.00  0.00    -0.458 OA
BRANCH   2   3
ATOM      3  C   UNL     1       3.186  -0.161   1.169  1.00  0.00     0.338 C 
ATOM      4  O   UNL     1       2.143  -0.095   1.819  1.00  0.00    -0.246 OA
BRANCH   3   5
ATOM      5  C   UNL     1       4.044   1.075   1.101  1.00  0.00     0.060 A 
ATOM      6  C   UNL     1       5.245   1.244   0.398  1.00  0.00     0.016 A 
ATOM      7  C   UNL     1       3.512   2.206   1.744  1.00  0.00     0.016 A 
ATOM      8  C   UNL     1       5.834   2.508   0.241  1.00  0.00     0.010 A 
ATOM      9  C   UNL     1       4.074   3.471   1.564  1.00  0.00     0.010 A 
ATOM     10  C   UNL     1       5.234   3.637   0.791  1.00  0.00    -0.014 A 
BRANCH  10  11
ATOM     11  C   UNL     1       5.849   4.979   0.668  1.00  0.00     0.031 A 
ATOM     12  C   UNL     1       6.368   5.607   1.928  1.00  0.00     0.074 A 
ATOM     13  C   UNL     1       5.919   5.642  -0.506  1.00  0.00     0.049 A 
ATOM     14  N   UNL     1       6.918   6.778   2.110  1.00  0.00    -0.248 NA
ATOM     15  C   UNL     1       6.230   4.807   3.159  1.00  0.00     0.031 C 
ATOM     16  C   UNL     1       5.464   5.151  -1.810  1.00  0.00     0.029 A 
ATOM     17  N   UNL     1       6.393   6.901  -0.787  1.00  0.00    -0.354 N 
ATOM     18  C   UNL     1       7.211   6.832   3.464  1.00  0.00     0.074 A 
ATOM     19  C   UNL     1       6.647   5.655   4.079  1.00  0.00     0.031 C 
ATOM     20  C   UNL     1       5.637   6.114  -2.735  1.00  0.00     0.029 A 
ATOM     21  C   UNL     1       6.228   7.282  -2.098  1.00  0.00     0.049 A 
ATOM     22  H   UNL     1       6.813   7.479  -0.110  1.00  0.00     0.167 HD
ATOM     23  C   UNL     1       7.960   7.739   4.129  1.00  0.00     0.037 A 
ATOM     24  C   UNL     1       6.530   8.443  -2.709  1.00  0.00     0.037 A 
ATOM     25  C   UNL     1       8.509   8.912   3.519  1.00  0.00     0.049 A 
ATOM     26  C   UNL     1       7.244   9.508  -1.923  1.00  0.00     0.074 A 
ATOM     27  C   UNL     1       9.300   9.893   4.082  1.00  0.00     0.029 A 
ATOM     28  N   UNL     1       8.296   9.270   2.194  1.00  0.00    -0.354 N 
ATOM     29  N   UNL     1       7.604   9.507  -0.664  1.00  0.00    -0.248 NA
ATOM     30  C   UNL     1       7.638  10.715  -2.663  1.00  0.00     0.031 C 
ATOM     31  C   UNL     1       9.518  10.878   3.113  1.00  0.00     0.029 A 
ATOM     32  C   UNL     1       8.916  10.478   1.929  1.00  0.00     0.049 A 
ATOM     33  H   UNL     1       7.782   8.743   1.541  1.00  0.00     0.167 HD
ATOM     34  C   UNL     1       8.305  10.688  -0.470  1.00  0.00     0.074 A 
ATOM     35  C   UNL     1       8.315  11.382  -1.741  1.00  0.00     0.031 C 
ATOM     36  C   UNL     1       8.907  11.147   0.654  1.00  0.00     0.037 A 
BRANCH  23  37
ATOM     37  C   UNL     1       8.212   7.449   5.577  1.00  0.00     0.064 A 
ATOM     38  C   UNL     1       8.976   6.337   5.974  1.00  0.00     0.173 A 
ATOM     39  C   UNL     1       7.608   8.222   6.576  1.00  0.00     0.173 A 
ATOM     40  F   UNL     1       9.550   5.547   5.053  1.00  0.00    -0.203 F 
ATOM     41  C   UNL     1       9.067   5.971   7.313  1.00  0.00     0.198 A 
ATOM     42  C   UNL     1       7.734   7.875   7.918  1.00  0.00     0.198 A 
ATOM     43  F   UNL     1       6.866   9.290   6.250  1.00  0.00    -0.203 F 
ATOM     44  F   UNL     1       9.711   4.848   7.657  1.00  0.00    -0.200 F 
ATOM     45  C   UNL     1       8.445   6.741   8.284  1.00  0.00     0.200 A 
ATOM     46  F   UNL     1       7.136   8.620   8.858  1.00  0.00    -0.200 F 
ATOM     47  F   UNL     1       8.511   6.376   9.572  1.00  0.00    -0.200 F 
ENDBRANCH  23  37
BRANCH  24  48
ATOM     48  C   UNL     1       6.202   8.697  -4.135  1.00  0.00     0.064 A 
ATOM     49  C   UNL     1       7.176   8.579  -5.138  1.00  0.00     0.173 A 
ATOM     50  C   UNL     1       4.953   9.219  -4.493  1.00  0.00     0.173 A 
ATOM     51  F   UNL     1       8.397   8.121  -4.830  1.00  0.00    -0.203 F 
ATOM     52  C   UNL     1       6.920   9.002  -6.442  1.00  0.00     0.198 A 
ATOM     53  C   UNL     1       4.704   9.655  -5.793  1.00  0.00     0.198 A 
ATOM     54  F   UNL     1       3.990   9.343  -3.570  1.00  0.00    -0.203 F 
ATOM     55  F   UNL     1       7.881   8.920  -7.372  1.00  0.00    -0.200 F 
ATOM     56  C   UNL     1       5.688   9.549  -6.766  1.00  0.00     0.200 A 
ATOM     57  F   UNL     1       3.513  10.185  -6.101  1.00  0.00    -0.200 F 
ATOM     58  F   UNL     1       5.450   9.979  -8.013  1.00  0.00    -0.200 F 
ENDBRANCH  24  48
BRANCH  36  59
ATOM     59  C   UNL     1       9.663  12.435   0.547  1.00  0.00     0.064 A 
ATOM     60  C   UNL     1       9.011  13.666   0.395  1.00  0.00     0.173 A 
ATOM     61  C   UNL     1      11.063  12.434   0.649  1.00  0.00     0.173 A 
ATOM     62  F   UNL     1       7.677  13.713   0.269  1.00  0.00    -0.203 F 
ATOM     63  C   UNL     1       9.737  14.851   0.331  1.00  0.00     0.198 A 
ATOM     64  C   UNL     1      11.781  13.624   0.623  1.00  0.00     0.198 A 
ATOM     65  F   UNL     1      11.730  11.280   0.793  1.00  0.00    -0.203 F 
ATOM     66  F   UNL     1       9.100  16.014   0.136  1.00  0.00    -0.200 F 
ATOM     67  C   UNL     1      11.118  14.831   0.458  1.00  0.00     0.200 A 
ATOM     68  F   UNL     1      13.113  13.602   0.762  1.00  0.00    -0.200 F 
ATOM     69  F   UNL     1      11.813  15.975   0.414  1.00  0.00    -0.200 F 
ENDBRANCH  36  59
ENDBRANCH  10  11
ENDBRANCH   3   5
ENDBRANCH   2   3
ENDBRANCH   1   2
BRANCH   1  70
ATOM     70  C   UNL     1       3.847  -0.830  -1.887  1.00  0.00     0.274 C 
BRANCH  70  71
ATOM     71  O   UNL     1       3.162   0.420  -1.653  1.00  0.00    -0.460 OA
BRANCH  71  72
ATOM     72  C   UNL     1       1.998   0.602  -2.346  1.00  0.00     0.331 C 
ATOM     73  O   UNL     1       1.455  -0.263  -3.026  1.00  0.00    -0.250 OA
BRANCH  72  74
ATOM     74  C   UNL     1       1.522   2.059  -2.350  1.00  0.00     0.229 C 
BRANCH  74  75
ATOM     75  C   UNL     1       1.572   2.774  -1.005  1.00  0.00     0.193 C 
BRANCH  75  76
ATOM     76  O   UNL     1       2.708   3.625  -0.945  1.00  0.00    -0.394 OA
ATOM     77  H   UNL     1       3.515   3.096  -1.049  1.00  0.00     0.210 HD
ENDBRANCH  75  76
ENDBRANCH  74  75
BRANCH  74  78
ATOM     78  N   UNL     1       2.090   2.861  -3.441  1.00  0.00    -0.257 N 
ATOM     79  C   UNL     1       1.589   4.096  -3.746  1.00  0.00     0.264 C 
ATOM     80  C   UNL     1       3.315   2.682  -4.016  1.00  0.00     0.264 C 
ATOM     81  O   UNL     1       0.607   4.638  -3.277  1.00  0.00    -0.268 OA
ATOM     82  C   UNL     1       2.471   4.679  -4.758  1.00  0.00     0.075 A 
ATOM     83  C   UNL     1       3.496   3.771  -4.977  1.00  0.00     0.075 A 
ATOM     84  O   UNL     1       4.157   1.846  -3.770  1.00  0.00    -0.268 OA
ATOM     85  C   UNL     1       2.370   5.853  -5.479  1.00  0.00     0.074 A 
ATOM     86  C   UNL     1       4.454   3.968  -5.957  1.00  0.00     0.074 A 
ATOM     87  Cl  UNL     1       1.189   7.042  -5.073  1.00  0.00    -0.082 Cl
ATOM     88  C   UNL     1       3.279   6.042  -6.536  1.00  0.00     0.080 A 
ATOM     89  C   UNL     1       4.332   5.116  -6.761  1.00  0.00     0.080 A 
ATOM     90  Cl  UNL     1       5.710   2.813  -6.208  1.00  0.00    -0.082 Cl
ATOM     91  Cl  UNL     1       3.046   7.368  -7.635  1.00  0.00    -0.081 Cl
ATOM     92  Cl  UNL     1       5.488   5.411  -8.028  1.00  0.00    -0.081 Cl
ENDBRANCH  74  78
ENDBRANCH  72  74
ENDBRANCH  71  72
ENDBRANCH  70  71
ENDBRANCH   1  70
TORSDOF 14
