REMARK SMILES O=C(OCCOC(=O)C1(c2ccccc2)CCN(S(=O)(=O)c2cccs2)CC1)c1ccc(-c2c3nc(c(-c4c(F)c(F)c(F)c(F)c4F)c4ccc([nH]4)c(-c4c(F)c(F)c(F)c(F)c4F)c4nc(c(-c5c(F)c(F)c(F)c(F)c5F)c5ccc2[nH]5)C=C4)C=C3)cc1
REMARK SMILES IDX 4 1 3 2 2 3 1 4 29 5 30 6 91 7 31 8 90 9 32 10 33 11 34 12
REMARK SMILES IDX 84 13 35 14 89 15 83 16 85 17 36 18 88 19 82 20 81 21 37 23
REMARK SMILES IDX 69 24 49 25 68 26 50 27 53 28 67 29 86 30 51 31 52 32 66 34
REMARK SMILES IDX 87 35 54 36 38 37 39 38 47 39 40 40 41 41 45 42 48 43 42 44
REMARK SMILES IDX 43 45 46 46 44 47 70 48 71 49 79 50 72 51 73 52 77 53 80 54
REMARK SMILES IDX 74 55 75 56 78 57 76 58 55 59 56 60 64 61 57 62 58 63 62 64
REMARK SMILES IDX 65 65 59 66 60 67 63 68 61 69 5 70 6 71 7 72 8 73 9 74 16 75
REMARK SMILES IDX 28 76 17 77 27 78 18 79 10 80 11 81 15 82 12 83 14 84 13 85
REMARK SMILES IDX 19 86 20 87 21 88 22 89 23 90 26 91 24 92 25 93
REMARK H PARENT 85 22 53 33
REMARK Flexibility Score: inf
ROOT
ATOM      1  C   UNL     1       4.215  -0.209  -1.841  1.00  0.00     0.275 C 
ENDROOT
BRANCH   1   2
ATOM      2  O   UNL     1       3.599  -1.155  -0.966  1.00  0.00    -0.458 OA
BRANCH   2   3
ATOM      3  C   UNL     1       3.739  -1.286   0.368  1.00  0.00     0.338 C 
ATOM      4  O   UNL     1       3.094  -2.160   0.947  1.00  0.00    -0.246 OA
BRANCH   3   5
ATOM      5  C   UNL     1       4.564  -0.354   1.203  1.00  0.00     0.060 A 
ATOM      6  C   UNL     1       5.670   0.416   0.816  1.00  0.00     0.016 A 
ATOM      7  C   UNL     1       4.141  -0.244   2.524  1.00  0.00     0.016 A 
ATOM      8  C   UNL     1       6.270   1.343   1.689  1.00  0.00     0.010 A 
ATOM      9  C   UNL     1       4.719   0.688   3.377  1.00  0.00     0.010 A 
ATOM     10  C   UNL     1       5.788   1.502   2.983  1.00  0.00    -0.014 A 
BRANCH  10  11
ATOM     11  C   UNL     1       6.431   2.380   4.002  1.00  0.00     0.031 A 
ATOM     12  C   UNL     1       6.834   1.748   5.312  1.00  0.00     0.074 A 
ATOM     13  C   UNL     1       6.525   3.717   3.852  1.00  0.00     0.049 A 
ATOM     14  N   UNL     1       7.171   2.308   6.444  1.00  0.00    -0.248 NA
ATOM     15  C   UNL     1       6.725   0.280   5.389  1.00  0.00     0.031 C 
ATOM     16  C   UNL     1       6.080   4.488   2.691  1.00  0.00     0.029 A 
ATOM     17  N   UNL     1       7.002   4.678   4.712  1.00  0.00    -0.354 N 
ATOM     18  C   UNL     1       7.217   1.264   7.359  1.00  0.00     0.074 A 
ATOM     19  C   UNL     1       6.696   0.094   6.696  1.00  0.00     0.031 C 
ATOM     20  C   UNL     1       6.295   5.798   2.913  1.00  0.00     0.029 A 
ATOM     21  C   UNL     1       6.918   5.960   4.222  1.00  0.00     0.049 A 
ATOM     22  H   UNL     1       7.370   4.466   5.600  1.00  0.00     0.167 HD
ATOM     23  C   UNL     1       7.761   1.240   8.598  1.00  0.00     0.037 A 
ATOM     24  C   UNL     1       7.338   7.120   4.764  1.00  0.00     0.037 A 
ATOM     25  C   UNL     1       8.447   2.367   9.161  1.00  0.00     0.049 A 
ATOM     26  C   UNL     1       8.066   7.069   6.085  1.00  0.00     0.074 A 
ATOM     27  C   UNL     1       9.209   2.435  10.310  1.00  0.00     0.029 A 
ATOM     28  N   UNL     1       8.486   3.622   8.570  1.00  0.00    -0.354 N 
ATOM     29  N   UNL     1       8.246   6.050   6.892  1.00  0.00    -0.248 NA
ATOM     30  C   UNL     1       8.704   8.312   6.540  1.00  0.00     0.031 C 
ATOM     31  C   UNL     1       9.700   3.741  10.422  1.00  0.00     0.029 A 
ATOM     32  C   UNL     1       9.275   4.471   9.322  1.00  0.00     0.049 A 
ATOM     33  H   UNL     1       8.020   3.871   7.739  1.00  0.00     0.167 HD
ATOM     34  C   UNL     1       9.075   6.508   7.908  1.00  0.00     0.074 A 
ATOM     35  C   UNL     1       9.355   7.899   7.618  1.00  0.00     0.031 C 
ATOM     36  C   UNL     1       9.572   5.837   8.977  1.00  0.00     0.037 A 
BRANCH  23  37
ATOM     37  C   UNL     1       7.714  -0.061   9.354  1.00  0.00     0.064 A 
ATOM     38  C   UNL     1       8.341  -1.224   8.870  1.00  0.00     0.173 A 
ATOM     39  C   UNL     1       7.005  -0.162  10.558  1.00  0.00     0.173 A 
ATOM     40  F   UNL     1       9.041  -1.190   7.725  1.00  0.00    -0.203 F 
ATOM     41  C   UNL     1       8.184  -2.449   9.511  1.00  0.00     0.198 A 
ATOM     42  C   UNL     1       6.897  -1.380  11.228  1.00  0.00     0.198 A 
ATOM     43  F   UNL     1       6.402   0.915  11.083  1.00  0.00    -0.203 F 
ATOM     44  F   UNL     1       8.698  -3.559   8.962  1.00  0.00    -0.200 F 
ATOM     45  C   UNL     1       7.466  -2.526  10.692  1.00  0.00     0.200 A 
ATOM     46  F   UNL     1       6.224  -1.449  12.384  1.00  0.00    -0.200 F 
ATOM     47  F   UNL     1       7.313  -3.706  11.308  1.00  0.00    -0.200 F 
ENDBRANCH  23  37
BRANCH  24  48
ATOM     48  C   UNL     1       7.229   8.399   4.008  1.00  0.00     0.064 A 
ATOM     49  C   UNL     1       8.370   8.979   3.430  1.00  0.00     0.173 A 
ATOM     50  C   UNL     1       6.014   9.081   3.867  1.00  0.00     0.173 A 
ATOM     51  F   UNL     1       9.559   8.370   3.546  1.00  0.00    -0.203 F 
ATOM     52  C   UNL     1       8.307  10.209   2.777  1.00  0.00     0.198 A 
ATOM     53  C   UNL     1       5.948  10.303   3.193  1.00  0.00     0.198 A 
ATOM     54  F   UNL     1       4.889   8.566   4.384  1.00  0.00    -0.203 F 
ATOM     55  F   UNL     1       9.424  10.759   2.283  1.00  0.00    -0.200 F 
ATOM     56  C   UNL     1       7.096  10.870   2.659  1.00  0.00     0.200 A 
ATOM     57  F   UNL     1       4.773  10.934   3.064  1.00  0.00    -0.200 F 
ATOM     58  F   UNL     1       7.036  12.054   2.034  1.00  0.00    -0.200 F 
ENDBRANCH  24  48
BRANCH  36  59
ATOM     59  C   UNL     1      10.543   6.565   9.858  1.00  0.00     0.064 A 
ATOM     60  C   UNL     1      10.138   7.599  10.713  1.00  0.00     0.173 A 
ATOM     61  C   UNL     1      11.891   6.175   9.885  1.00  0.00     0.173 A 
ATOM     62  F   UNL     1       8.863   8.014  10.713  1.00  0.00    -0.203 F 
ATOM     63  C   UNL     1      11.055   8.236  11.543  1.00  0.00     0.198 A 
ATOM     64  C   UNL     1      12.797   6.789  10.742  1.00  0.00     0.198 A 
ATOM     65  F   UNL     1      12.325   5.183   9.091  1.00  0.00    -0.203 F 
ATOM     66  F   UNL     1      10.658   9.257  12.315  1.00  0.00    -0.200 F 
ATOM     67  C   UNL     1      12.380   7.824  11.565  1.00  0.00     0.200 A 
ATOM     68  F   UNL     1      14.072   6.377  10.775  1.00  0.00    -0.200 F 
ATOM     69  F   UNL     1      13.258   8.431  12.375  1.00  0.00    -0.200 F 
ENDBRANCH  36  59
ENDBRANCH  10  11
ENDBRANCH   3   5
ENDBRANCH   2   3
ENDBRANCH   1   2
BRANCH   1  70
ATOM     70  C   UNL     1       3.620   1.202  -1.815  1.00  0.00     0.274 C 
BRANCH  70  71
ATOM     71  O   UNL     1       3.436   1.834  -0.527  1.00  0.00    -0.461 OA
BRANCH  71  72
ATOM     72  C   UNL     1       2.191   1.707   0.033  1.00  0.00     0.316 C 
ATOM     73  O   UNL     1       1.400   0.835  -0.310  1.00  0.00    -0.251 OA
BRANCH  72  74
ATOM     74  C   UNL     1       1.827   2.854   1.024  1.00  0.00     0.095 C 
ATOM     75  C   UNL     1       0.312   3.155   0.834  1.00  0.00     0.040 C 
ATOM     76  C   UNL     1       2.592   4.146   0.649  1.00  0.00     0.040 C 
ATOM     77  C   UNL     1      -0.020   3.710  -0.547  1.00  0.00     0.104 C 
ATOM     78  C   UNL     1       2.240   4.675  -0.729  1.00  0.00     0.104 C 
ATOM     79  N   UNL     1       0.785   4.932  -0.809  1.00  0.00    -0.197 NA
BRANCH  74  80
ATOM     80  C   UNL     1       2.003   2.483   2.518  1.00  0.00    -0.031 A 
ATOM     81  C   UNL     1       2.680   3.323   3.429  1.00  0.00     0.005 A 
ATOM     82  C   UNL     1       1.373   1.345   3.057  1.00  0.00     0.005 A 
ATOM     83  C   UNL     1       2.724   3.049   4.801  1.00  0.00     0.000 A 
ATOM     84  C   UNL     1       1.419   1.067   4.432  1.00  0.00     0.000 A 
ATOM     85  C   UNL     1       2.089   1.922   5.305  1.00  0.00     0.000 A 
ENDBRANCH  74  80
BRANCH  79  86
ATOM     86  S   UNL     1       0.308   5.734  -2.254  1.00  0.00     0.252 S 
ATOM     87  O   UNL     1       0.960   5.051  -3.350  1.00  0.00    -0.206 OA
ATOM     88  O   UNL     1      -1.128   5.917  -2.219  1.00  0.00    -0.206 OA
BRANCH  86  89
ATOM     89  C   UNL     1       1.059   7.355  -2.217  1.00  0.00     0.135 A 
ATOM     90  C   UNL     1       2.371   7.758  -2.398  1.00  0.00     0.033 A 
ATOM     91  S   UNL     1       0.041   8.688  -1.886  1.00  0.00    -0.131 S 
ATOM     92  C   UNL     1       2.541   9.161  -2.231  1.00  0.00     0.013 A 
ATOM     93  C   UNL     1       1.345   9.792  -1.974  1.00  0.00     0.066 A 
ENDBRANCH  86  89
ENDBRANCH  79  86
ENDBRANCH  72  74
ENDBRANCH  71  72
ENDBRANCH  70  71
ENDBRANCH   1  70
TORSDOF 14
