REMARK SMILES C[C@@H](C(=O)OCCOC(=O)c1ccc(-c2c3nc(c(-c4c(F)c(F)c(F)c(F)c4F)c4ccc([nH]4)c(-c4c(F)c(F)c(F)c(F)c4F)c4nc(c(-c5c(F)c(F)c(F)c(F)c5F)c5ccc2[nH]5)C=C4)C=C3)cc1)c1ccc(-c2ccn(C(F)F)c(=O)c2)cc1
REMARK SMILES IDX 6 1 5 2 3 3 4 4 2 5 1 6 74 7 75 8 89 9 76 10 88 11 77 12
REMARK SMILES IDX 78 13 79 14 87 15 80 16 85 17 81 18 86 19 82 20 83 21 84 22
REMARK SMILES IDX 7 23 8 24 9 25 10 26 11 27 12 28 73 29 13 30 72 31 14 32
REMARK SMILES IDX 15 33 16 34 66 35 17 36 71 37 65 38 67 39 18 40 70 41 64 42
REMARK SMILES IDX 63 43 19 45 51 46 31 47 50 48 32 49 35 50 49 51 68 52 33 53
REMARK SMILES IDX 34 54 48 56 69 57 36 58 20 59 21 60 29 61 22 62 23 63 27 64
REMARK SMILES IDX 30 65 24 66 25 67 28 68 26 69 52 70 53 71 61 72 54 73 55 74
REMARK SMILES IDX 59 75 62 76 56 77 57 78 60 79 58 80 37 81 38 82 46 83 39 84
REMARK SMILES IDX 40 85 44 86 47 87 41 88 42 89 45 90 43 91
REMARK H PARENT 67 44 35 55
REMARK Flexibility Score: inf
ROOT
ATOM      1  C   UNL     1       2.577  -3.883  -0.418  1.00  0.00     0.274 C 
ENDROOT
BRANCH   1   2
ATOM      2  O   UNL     1       2.118  -2.529  -0.618  1.00  0.00    -0.462 OA
BRANCH   2   3
ATOM      3  C   UNL     1       0.915  -2.369  -1.247  1.00  0.00     0.313 C 
ATOM      4  O   UNL     1       0.233  -3.319  -1.616  1.00  0.00    -0.252 OA
BRANCH   3   5
ATOM      5  C   UNL     1       0.588  -0.876  -1.521  1.00  0.00     0.126 C 
ATOM      6  C   UNL     1       1.265   0.018  -0.466  1.00  0.00     0.025 C 
BRANCH   5   7
ATOM      7  C   UNL     1      -0.923  -0.590  -1.681  1.00  0.00    -0.034 A 
ATOM      8  C   UNL     1      -1.575   0.470  -1.023  1.00  0.00     0.005 A 
ATOM      9  C   UNL     1      -1.719  -1.406  -2.503  1.00  0.00     0.005 A 
ATOM     10  C   UNL     1      -2.969   0.630  -1.087  1.00  0.00     0.009 A 
ATOM     11  C   UNL     1      -3.113  -1.265  -2.548  1.00  0.00     0.009 A 
ATOM     12  C   UNL     1      -3.758  -0.263  -1.815  1.00  0.00    -0.018 A 
BRANCH  12  13
ATOM     13  C   UNL     1      -5.234  -0.243  -1.701  1.00  0.00    -0.011 A 
ATOM     14  C   UNL     1      -5.915  -0.380  -0.423  1.00  0.00     0.027 A 
ATOM     15  C   UNL     1      -5.980  -0.178  -2.818  1.00  0.00     0.080 A 
ATOM     16  C   UNL     1      -7.240  -0.549  -0.365  1.00  0.00     0.095 A 
ATOM     17  C   UNL     1      -7.467  -0.296  -2.762  1.00  0.00     0.255 A 
ATOM     18  N   UNL     1      -8.008  -0.544  -1.512  1.00  0.00    -0.258 N 
ATOM     19  O   UNL     1      -8.095  -0.194  -3.811  1.00  0.00    -0.269 OA
BRANCH  18  20
ATOM     20  C   UNL     1      -9.438  -0.709  -1.420  1.00  0.00     0.451 C 
ATOM     21  F   UNL     1     -10.062   0.480  -1.615  1.00  0.00    -0.185 F 
ATOM     22  F   UNL     1      -9.902  -1.573  -2.355  1.00  0.00    -0.185 F 
ENDBRANCH  18  20
ENDBRANCH  12  13
ENDBRANCH   5   7
ENDBRANCH   3   5
ENDBRANCH   2   3
ENDBRANCH   1   2
BRANCH   1  23
ATOM     23  C   UNL     1       2.305  -4.386   1.003  1.00  0.00     0.275 C 
BRANCH  23  24
ATOM     24  O   UNL     1       0.899  -4.604   1.222  1.00  0.00    -0.458 OA
BRANCH  24  25
ATOM     25  C   UNL     1       0.257  -3.606   1.867  1.00  0.00     0.338 C 
ATOM     26  O   UNL     1       0.753  -2.600   2.355  1.00  0.00    -0.246 OA
BRANCH  25  27
ATOM     27  C   UNL     1      -1.196  -3.779   1.719  1.00  0.00     0.060 A 
ATOM     28  C   UNL     1      -1.870  -2.752   1.067  1.00  0.00     0.016 A 
ATOM     29  C   UNL     1      -1.903  -4.875   2.220  1.00  0.00     0.016 A 
ATOM     30  C   UNL     1      -3.242  -2.825   0.880  1.00  0.00     0.010 A 
ATOM     31  C   UNL     1      -3.299  -4.930   2.058  1.00  0.00     0.010 A 
ATOM     32  C   UNL     1      -3.976  -3.901   1.384  1.00  0.00    -0.014 A 
BRANCH  32  33
ATOM     33  C   UNL     1      -5.453  -3.852   1.256  1.00  0.00     0.031 A 
ATOM     34  C   UNL     1      -6.267  -3.218   2.346  1.00  0.00     0.074 A 
ATOM     35  C   UNL     1      -6.054  -4.204   0.104  1.00  0.00     0.049 A 
ATOM     36  N   UNL     1      -7.557  -2.997   2.399  1.00  0.00    -0.248 NA
ATOM     37  C   UNL     1      -5.521  -2.720   3.512  1.00  0.00     0.031 C 
ATOM     38  C   UNL     1      -5.363  -4.663  -1.099  1.00  0.00     0.029 A 
ATOM     39  N   UNL     1      -7.381  -4.191  -0.253  1.00  0.00    -0.354 N 
ATOM     40  C   UNL     1      -7.777  -2.339   3.600  1.00  0.00     0.074 A 
ATOM     41  C   UNL     1      -6.490  -2.192   4.246  1.00  0.00     0.031 C 
ATOM     42  C   UNL     1      -6.270  -4.871  -2.069  1.00  0.00     0.029 A 
ATOM     43  C   UNL     1      -7.608  -4.608  -1.542  1.00  0.00     0.049 A 
ATOM     44  H   UNL     1      -8.100  -3.908   0.357  1.00  0.00     0.167 HD
ATOM     45  C   UNL     1      -8.947  -1.891   4.114  1.00  0.00     0.037 A 
ATOM     46  C   UNL     1      -8.766  -4.780  -2.210  1.00  0.00     0.037 A 
ATOM     47  C   UNL     1     -10.231  -2.042   3.486  1.00  0.00     0.049 A 
ATOM     48  C   UNL     1     -10.070  -4.465  -1.521  1.00  0.00     0.074 A 
ATOM     49  C   UNL     1     -11.466  -1.609   3.936  1.00  0.00     0.029 A 
ATOM     50  N   UNL     1     -10.450  -2.697   2.284  1.00  0.00    -0.354 N 
ATOM     51  N   UNL     1     -10.278  -3.892  -0.359  1.00  0.00    -0.248 NA
ATOM     52  C   UNL     1     -11.301  -4.834  -2.236  1.00  0.00     0.031 C 
ATOM     53  C   UNL     1     -12.438  -2.029   3.021  1.00  0.00     0.029 A 
ATOM     54  C   UNL     1     -11.801  -2.679   1.976  1.00  0.00     0.049 A 
ATOM     55  H   UNL     1      -9.750  -3.113   1.732  1.00  0.00     0.167 HD
ATOM     56  C   UNL     1     -11.659  -3.797  -0.225  1.00  0.00     0.074 A 
ATOM     57  C   UNL     1     -12.238  -4.371  -1.420  1.00  0.00     0.031 C 
ATOM     58  C   UNL     1     -12.378  -3.263   0.792  1.00  0.00     0.037 A 
BRANCH  45  59
ATOM     59  C   UNL     1      -8.893  -1.217   5.450  1.00  0.00     0.064 A 
ATOM     60  C   UNL     1      -8.431   0.099   5.590  1.00  0.00     0.173 A 
ATOM     61  C   UNL     1      -9.340  -1.887   6.598  1.00  0.00     0.173 A 
ATOM     62  F   UNL     1      -7.981   0.772   4.520  1.00  0.00    -0.203 F 
ATOM     63  C   UNL     1      -8.401   0.715   6.838  1.00  0.00     0.198 A 
ATOM     64  C   UNL     1      -9.326  -1.262   7.841  1.00  0.00     0.198 A 
ATOM     65  F   UNL     1      -9.793  -3.147   6.511  1.00  0.00    -0.203 F 
ATOM     66  F   UNL     1      -7.923   1.961   6.957  1.00  0.00    -0.200 F 
ATOM     67  C   UNL     1      -8.852   0.036   7.961  1.00  0.00     0.200 A 
ATOM     68  F   UNL     1      -9.769  -1.917   8.923  1.00  0.00    -0.200 F 
ATOM     69  F   UNL     1      -8.824   0.631   9.162  1.00  0.00    -0.200 F 
ENDBRANCH  45  59
BRANCH  46  70
ATOM     70  C   UNL     1      -8.762  -5.309  -3.601  1.00  0.00     0.064 A 
ATOM     71  C   UNL     1      -9.222  -4.534  -4.676  1.00  0.00     0.173 A 
ATOM     72  C   UNL     1      -8.350  -6.621  -3.876  1.00  0.00     0.173 A 
ATOM     73  F   UNL     1      -9.673  -3.292  -4.461  1.00  0.00    -0.203 F 
ATOM     74  C   UNL     1      -9.278  -5.054  -5.968  1.00  0.00     0.198 A 
ATOM     75  C   UNL     1      -8.380  -7.130  -5.172  1.00  0.00     0.198 A 
ATOM     76  F   UNL     1      -7.922  -7.414  -2.882  1.00  0.00    -0.203 F 
ATOM     77  F   UNL     1      -9.773  -4.311  -6.968  1.00  0.00    -0.200 F 
ATOM     78  C   UNL     1      -8.851  -6.349  -6.216  1.00  0.00     0.200 A 
ATOM     79  F   UNL     1      -7.967  -8.383  -5.407  1.00  0.00    -0.200 F 
ATOM     80  F   UNL     1      -8.911  -6.852  -7.457  1.00  0.00    -0.200 F 
ENDBRANCH  46  70
BRANCH  58  81
ATOM     81  C   UNL     1     -13.873  -3.237   0.649  1.00  0.00     0.064 A 
ATOM     82  C   UNL     1     -14.645  -4.403   0.754  1.00  0.00     0.173 A 
ATOM     83  C   UNL     1     -14.546  -2.022   0.447  1.00  0.00     0.173 A 
ATOM     84  F   UNL     1     -14.049  -5.592   0.932  1.00  0.00    -0.203 F 
ATOM     85  C   UNL     1     -16.033  -4.356   0.646  1.00  0.00     0.198 A 
ATOM     86  C   UNL     1     -15.935  -1.974   0.369  1.00  0.00     0.198 A 
ATOM     87  F   UNL     1     -13.855  -0.876   0.348  1.00  0.00    -0.203 F 
ATOM     88  F   UNL     1     -16.747  -5.488   0.712  1.00  0.00    -0.200 F 
ATOM     89  C   UNL     1     -16.677  -3.141   0.462  1.00  0.00     0.200 A 
ATOM     90  F   UNL     1     -16.556  -0.797   0.210  1.00  0.00    -0.200 F 
ATOM     91  F   UNL     1     -18.014  -3.096   0.373  1.00  0.00    -0.200 F 
ENDBRANCH  58  81
ENDBRANCH  32  33
ENDBRANCH  25  27
ENDBRANCH  24  25
ENDBRANCH  23  24
ENDBRANCH   1  23
TORSDOF 14
