REMARK SMILES COC(=O)[C@@H]1C[C@@H](C(=O)OCCOC(=O)c2ccc(-c3c4nc(c(-c5c(F)c(F)c(F)c(F)c5F)c5ccc([nH]5)c(-c5c(F)c(F)c(F)c(F)c5F)c5nc(c(-c6c(F)c(F)c(F)c(F)c6F)c6ccc3[nH]6)C=C5)C=C4)cc2)[C@@H](c2cccc(F)c2F)[N@H+]1C
REMARK SMILES IDX 11 1 10 2 8 3 9 4 7 5 5 6 6 7 88 8 79 9 89 10 3 12 4 13 2 14
REMARK SMILES IDX 1 15 80 16 81 17 86 18 82 19 84 20 87 21 83 22 85 23 12 24
REMARK SMILES IDX 13 25 14 26 15 27 16 28 17 29 78 30 18 31 77 32 19 33 20 34
REMARK SMILES IDX 21 35 71 36 22 37 76 38 70 39 72 40 23 41 75 42 69 43 68 44
REMARK SMILES IDX 24 46 56 47 36 48 55 49 37 50 40 51 54 52 73 53 38 54 39 55
REMARK SMILES IDX 53 57 74 58 41 59 25 60 26 61 34 62 27 63 28 64 32 65 35 66
REMARK SMILES IDX 29 67 30 68 33 69 31 70 57 71 58 72 66 73 59 74 60 75 64 76
REMARK SMILES IDX 67 77 61 78 62 79 65 80 63 81 42 82 43 83 51 84 44 85 45 86
REMARK SMILES IDX 49 87 52 88 46 89 47 90 50 91 48 92
REMARK H PARENT 88 11 72 45 40 56
REMARK Flexibility Score: inf
ROOT
ATOM      1  C   UNL     1       4.016   4.523   1.675  1.00  0.00     0.274 C 
ENDROOT
BRANCH   1   2
ATOM      2  O   UNL     1       2.944   3.629   2.039  1.00  0.00    -0.462 OA
BRANCH   2   3
ATOM      3  C   UNL     1       2.483   3.682   3.307  1.00  0.00     0.315 C 
ATOM      4  O   UNL     1       2.978   4.379   4.186  1.00  0.00    -0.252 OA
BRANCH   3   5
ATOM      5  C   UNL     1       1.321   2.752   3.588  1.00  0.00     0.169 C 
ATOM      6  C   UNL     1       0.546   0.461   3.637  1.00  0.00     0.296 C 
ATOM      7  C   UNL     1       1.732   1.347   4.031  1.00  0.00     0.099 C 
ATOM      8  N   UNL     1      -0.506   1.434   3.276  1.00  0.00    -0.319 N 
ATOM      9  C   UNL     1       0.168   2.559   2.584  1.00  0.00     0.233 C 
ATOM     10  C   UNL     1      -1.674   0.865   2.631  1.00  0.00     0.334 C 
ATOM     11  H   UNL     1      -0.959   1.800   4.114  1.00  0.00     0.349 HD
BRANCH   6  12
ATOM     12  C   UNL     1       0.144  -0.479   4.772  1.00  0.00     0.364 C 
ATOM     13  O   UNL     1       0.462  -1.664   4.797  1.00  0.00    -0.245 OA
BRANCH  12  14
ATOM     14  O   UNL     1      -0.557   0.153   5.755  1.00  0.00    -0.465 OA
ATOM     15  C   UNL     1      -0.975  -0.708   6.815  1.00  0.00     0.282 C 
ENDBRANCH  12  14
ENDBRANCH   6  12
BRANCH   9  16
ATOM     16  C   UNL     1       0.433   2.315   1.105  1.00  0.00     0.049 A 
ATOM     17  C   UNL     1       1.571   1.671   0.594  1.00  0.00     0.013 A 
ATOM     18  C   UNL     1      -0.526   2.756   0.175  1.00  0.00     0.167 A 
ATOM     19  C   UNL     1       1.779   1.547  -0.787  1.00  0.00     0.004 A 
ATOM     20  C   UNL     1      -0.334   2.601  -1.195  1.00  0.00     0.159 A 
ATOM     21  F   UNL     1      -1.665   3.320   0.606  1.00  0.00    -0.203 F 
ATOM     22  C   UNL     1       0.825   2.015  -1.684  1.00  0.00     0.042 A 
ATOM     23  F   UNL     1      -1.274   3.014  -2.058  1.00  0.00    -0.204 F 
ENDBRANCH   9  16
ENDBRANCH   3   5
ENDBRANCH   2   3
ENDBRANCH   1   2
BRANCH   1  24
ATOM     24  C   UNL     1       3.487   5.729   0.891  1.00  0.00     0.275 C 
BRANCH  24  25
ATOM     25  O   UNL     1       2.802   6.651   1.759  1.00  0.00    -0.458 OA
BRANCH  25  26
ATOM     26  C   UNL     1       1.484   6.401   1.926  1.00  0.00     0.338 C 
ATOM     27  O   UNL     1       0.818   5.551   1.354  1.00  0.00    -0.246 OA
BRANCH  26  28
ATOM     28  C   UNL     1       0.966   7.178   3.062  1.00  0.00     0.060 A 
ATOM     29  C   UNL     1       0.246   6.482   4.038  1.00  0.00     0.016 A 
ATOM     30  C   UNL     1       1.146   8.559   3.164  1.00  0.00     0.016 A 
ATOM     31  C   UNL     1      -0.298   7.159   5.120  1.00  0.00     0.010 A 
ATOM     32  C   UNL     1       0.594   9.243   4.253  1.00  0.00     0.010 A 
ATOM     33  C   UNL     1      -0.137   8.546   5.230  1.00  0.00    -0.014 A 
BRANCH  33  34
ATOM     34  C   UNL     1      -0.796   9.245   6.356  1.00  0.00     0.031 A 
ATOM     35  C   UNL     1      -2.075   9.991   6.121  1.00  0.00     0.074 A 
ATOM     36  C   UNL     1      -0.285   9.132   7.595  1.00  0.00     0.049 A 
ATOM     37  N   UNL     1      -2.831  10.630   6.977  1.00  0.00    -0.248 NA
ATOM     38  C   UNL     1      -2.575  10.017   4.737  1.00  0.00     0.031 C 
ATOM     39  C   UNL     1       0.929   8.394   7.941  1.00  0.00     0.029 A 
ATOM     40  N   UNL     1      -0.736   9.620   8.795  1.00  0.00    -0.354 N 
ATOM     41  C   UNL     1      -3.893  11.135   6.238  1.00  0.00     0.074 A 
ATOM     42  C   UNL     1      -3.669  10.755   4.859  1.00  0.00     0.031 C 
ATOM     43  C   UNL     1       1.119   8.463   9.268  1.00  0.00     0.029 A 
ATOM     44  C   UNL     1       0.060   9.276   9.860  1.00  0.00     0.049 A 
ATOM     45  H   UNL     1      -1.551  10.164   8.885  1.00  0.00     0.167 HD
ATOM     46  C   UNL     1      -4.961  11.842   6.677  1.00  0.00     0.037 A 
ATOM     47  C   UNL     1      -0.052   9.592  11.163  1.00  0.00     0.037 A 
ATOM     48  C   UNL     1      -5.176  12.213   8.052  1.00  0.00     0.049 A 
ATOM     49  C   UNL     1      -1.224  10.424  11.612  1.00  0.00     0.074 A 
ATOM     50  C   UNL     1      -6.222  12.936   8.600  1.00  0.00     0.029 A 
ATOM     51  N   UNL     1      -4.325  11.887   9.099  1.00  0.00    -0.354 N 
ATOM     52  N   UNL     1      -2.225  10.896  10.909  1.00  0.00    -0.248 NA
ATOM     53  C   UNL     1      -1.281  10.766  13.040  1.00  0.00     0.031 C 
ATOM     54  C   UNL     1      -5.981  13.084   9.970  1.00  0.00     0.029 A 
ATOM     55  C   UNL     1      -4.813  12.411  10.287  1.00  0.00     0.049 A 
ATOM     56  H   UNL     1      -3.497  11.362   9.011  1.00  0.00     0.167 HD
ATOM     57  C   UNL     1      -3.040  11.569  11.807  1.00  0.00     0.074 A 
ATOM     58  C   UNL     1      -2.429  11.423  13.113  1.00  0.00     0.031 C 
ATOM     59  C   UNL     1      -4.188  12.253  11.575  1.00  0.00     0.037 A 
BRANCH  46  60
ATOM     60  C   UNL     1      -5.965  12.284   5.654  1.00  0.00     0.064 A 
ATOM     61  C   UNL     1      -6.841  11.376   5.040  1.00  0.00     0.173 A 
ATOM     62  C   UNL     1      -6.074  13.639   5.305  1.00  0.00     0.173 A 
ATOM     63  F   UNL     1      -6.768  10.068   5.327  1.00  0.00    -0.203 F 
ATOM     64  C   UNL     1      -7.774  11.806   4.099  1.00  0.00     0.198 A 
ATOM     65  C   UNL     1      -7.026  14.068   4.384  1.00  0.00     0.198 A 
ATOM     66  F   UNL     1      -5.261  14.548   5.864  1.00  0.00    -0.203 F 
ATOM     67  F   UNL     1      -8.573  10.915   3.494  1.00  0.00    -0.200 F 
ATOM     68  C   UNL     1      -7.870  13.151   3.777  1.00  0.00     0.200 A 
ATOM     69  F   UNL     1      -7.124  15.370   4.082  1.00  0.00    -0.200 F 
ATOM     70  F   UNL     1      -8.773  13.564   2.877  1.00  0.00    -0.200 F 
ENDBRANCH  46  60
BRANCH  47  71
ATOM     71  C   UNL     1       0.970   9.126  12.136  1.00  0.00     0.064 A 
ATOM     72  C   UNL     1       0.651   8.197  13.136  1.00  0.00     0.173 A 
ATOM     73  C   UNL     1       2.283   9.619  12.100  1.00  0.00     0.173 A 
ATOM     74  F   UNL     1      -0.597   7.715  13.229  1.00  0.00    -0.203 F 
ATOM     75  C   UNL     1       1.599   7.798  14.076  1.00  0.00     0.198 A 
ATOM     76  C   UNL     1       3.238   9.195  13.021  1.00  0.00     0.198 A 
ATOM     77  F   UNL     1       2.640  10.512  11.164  1.00  0.00    -0.203 F 
ATOM     78  F   UNL     1       1.253   6.950  15.055  1.00  0.00    -0.200 F 
ATOM     79  C   UNL     1       2.893   8.292  14.014  1.00  0.00     0.200 A 
ATOM     80  F   UNL     1       4.490   9.668  12.950  1.00  0.00    -0.200 F 
ATOM     81  F   UNL     1       3.804   7.908  14.919  1.00  0.00    -0.200 F 
ENDBRANCH  47  71
BRANCH  59  82
ATOM     82  C   UNL     1      -4.864  12.869  12.766  1.00  0.00     0.064 A 
ATOM     83  C   UNL     1      -4.319  13.978  13.429  1.00  0.00     0.173 A 
ATOM     84  C   UNL     1      -6.075  12.346  13.245  1.00  0.00     0.173 A 
ATOM     85  F   UNL     1      -3.155  14.505  13.019  1.00  0.00    -0.203 F 
ATOM     86  C   UNL     1      -4.941  14.518  14.552  1.00  0.00     0.198 A 
ATOM     87  C   UNL     1      -6.710  12.908  14.349  1.00  0.00     0.198 A 
ATOM     88  F   UNL     1      -6.642  11.291  12.643  1.00  0.00    -0.203 F 
ATOM     89  F   UNL     1      -4.370  15.538  15.206  1.00  0.00    -0.200 F 
ATOM     90  C   UNL     1      -6.138  13.986  15.008  1.00  0.00     0.200 A 
ATOM     91  F   UNL     1      -7.873  12.401  14.780  1.00  0.00    -0.200 F 
ATOM     92  F   UNL     1      -6.734  14.504  16.090  1.00  0.00    -0.200 F 
ENDBRANCH  59  82
ENDBRANCH  33  34
ENDBRANCH  26  28
ENDBRANCH  25  26
ENDBRANCH  24  25
ENDBRANCH   1  24
TORSDOF 14
