REMARK SMILES Cc1csc(CNC(=O)NC[C@H]2CC[C@@H](C(=O)OCCOC(=O)c3ccc(-c4c5nc(c(-c6c(F)c(F)c(F)c(F)c6F)c6ccc([nH]6)c(-c6c(F)c(F)c(F)c(F)c6F)c6nc(c(-c7c(F)c(F)c(F)c(F)c7F)c7ccc4[nH]7)C=C6)C=C5)cc3)CC2)n1
REMARK SMILES IDX 19 1 18 2 16 3 17 4 15 5 12 6 13 7 88 8 14 9 87 10 11 11
REMARK SMILES IDX 10 12 7 13 8 14 9 16 6 18 5 19 1 20 2 21 3 22 89 23 4 24
REMARK SMILES IDX 20 25 21 26 22 27 23 28 24 29 25 30 86 31 26 32 85 33 27 34
REMARK SMILES IDX 28 35 29 36 79 37 30 38 84 39 78 40 80 41 31 42 83 43 77 44
REMARK SMILES IDX 76 45 32 47 64 48 44 49 63 50 45 51 48 52 62 53 81 54 46 55
REMARK SMILES IDX 47 56 61 58 82 59 49 60 33 61 34 62 42 63 35 64 36 65 40 66
REMARK SMILES IDX 43 67 37 68 38 69 41 70 39 71 65 72 66 73 74 74 67 75 68 76
REMARK SMILES IDX 72 77 75 78 69 79 70 80 73 81 71 82 50 83 51 84 59 85 52 86
REMARK SMILES IDX 53 87 57 88 60 89 54 90 55 91 58 92 56 93
REMARK H PARENT 7 15 10 17 80 46 48 57
REMARK Flexibility Score: inf
ROOT
ATOM      1  C   UNL     1      -1.469   6.444   5.570  1.00  0.00     0.274 C 
ENDROOT
BRANCH   1   2
ATOM      2  O   UNL     1      -0.196   6.245   4.925  1.00  0.00    -0.462 OA
BRANCH   2   3
ATOM      3  C   UNL     1       0.689   7.272   4.945  1.00  0.00     0.309 C 
ATOM      4  O   UNL     1       0.476   8.365   5.455  1.00  0.00    -0.252 OA
BRANCH   3   5
ATOM      5  C   UNL     1       1.986   6.951   4.205  1.00  0.00     0.099 C 
ATOM      6  C   UNL     1       1.318   5.148   1.915  1.00  0.00     0.008 C 
ATOM      7  C   UNL     1       0.999   6.655   1.908  1.00  0.00     0.006 C 
ATOM      8  C   UNL     1       1.594   4.576   3.314  1.00  0.00     0.006 C 
ATOM      9  C   UNL     1       1.938   7.479   2.777  1.00  0.00     0.015 C 
ATOM     10  C   UNL     1       2.421   5.484   4.220  1.00  0.00     0.015 C 
BRANCH   6  11
ATOM     11  C   UNL     1       0.153   4.368   1.274  1.00  0.00     0.121 C 
BRANCH  11  12
ATOM     12  N   UNL     1      -0.029   4.719  -0.117  1.00  0.00    -0.338 N 
ATOM     13  N   UNL     1       1.232   3.173  -1.380  1.00  0.00    -0.332 N 
ATOM     14  C   UNL     1       0.425   4.230  -1.273  1.00  0.00     0.315 C 
ATOM     15  H   UNL     1       1.514   2.998  -2.307  1.00  0.00     0.165 HD
ATOM     16  O   UNL     1       0.089   4.806  -2.311  1.00  0.00    -0.249 OA
ATOM     17  H   UNL     1      -0.622   5.495  -0.239  1.00  0.00     0.165 HD
BRANCH  13  18
ATOM     18  C   UNL     1       1.786   2.227  -0.434  1.00  0.00     0.185 C 
BRANCH  18  19
ATOM     19  C   UNL     1       0.859   1.056  -0.251  1.00  0.00     0.112 A 
ATOM     20  C   UNL     1      -2.476  -0.286   0.016  1.00  0.00     0.067 C 
ATOM     21  C   UNL     1      -0.998  -0.148  -0.042  1.00  0.00     0.049 A 
ATOM     22  C   UNL     1      -0.069  -1.168   0.014  1.00  0.00     0.090 A 
ATOM     23  N   UNL     1      -0.456   1.119  -0.170  1.00  0.00    -0.245 NA
ATOM     24  S   UNL     1       1.515  -0.532  -0.109  1.00  0.00    -0.125 S 
ENDBRANCH  18  19
ENDBRANCH  13  18
ENDBRANCH  11  12
ENDBRANCH   6  11
ENDBRANCH   3   5
ENDBRANCH   2   3
ENDBRANCH   1   2
BRANCH   1  25
ATOM     25  C   UNL     1      -1.517   5.739   6.927  1.00  0.00     0.275 C 
BRANCH  25  26
ATOM     26  O   UNL     1      -0.637   6.378   7.868  1.00  0.00    -0.458 OA
BRANCH  26  27
ATOM     27  C   UNL     1       0.599   5.841   7.947  1.00  0.00     0.338 C 
ATOM     28  O   UNL     1       1.012   4.832   7.391  1.00  0.00    -0.246 OA
BRANCH  27  29
ATOM     29  C   UNL     1       1.478   6.743   8.701  1.00  0.00     0.060 A 
ATOM     30  C   UNL     1       2.581   7.284   8.034  1.00  0.00     0.016 A 
ATOM     31  C   UNL     1       1.273   6.991  10.059  1.00  0.00     0.016 A 
ATOM     32  C   UNL     1       3.496   8.070   8.723  1.00  0.00     0.010 A 
ATOM     33  C   UNL     1       2.200   7.773  10.755  1.00  0.00     0.010 A 
ATOM     34  C   UNL     1       3.325   8.298  10.093  1.00  0.00    -0.014 A 
BRANCH  34  35
ATOM     35  C   UNL     1       4.396   8.986  10.848  1.00  0.00     0.031 A 
ATOM     36  C   UNL     1       5.353   8.170  11.665  1.00  0.00     0.074 A 
ATOM     37  C   UNL     1       4.544  10.319  10.751  1.00  0.00     0.049 A 
ATOM     38  N   UNL     1       6.335   8.564  12.435  1.00  0.00    -0.248 NA
ATOM     39  C   UNL     1       5.184   6.710  11.602  1.00  0.00     0.031 C 
ATOM     40  C   UNL     1       3.719  11.202   9.930  1.00  0.00     0.029 A 
ATOM     41  N   UNL     1       5.453  11.158  11.344  1.00  0.00    -0.354 N 
ATOM     42  C   UNL     1       6.887   7.405  12.962  1.00  0.00     0.074 A 
ATOM     43  C   UNL     1       6.123   6.293  12.439  1.00  0.00     0.031 C 
ATOM     44  C   UNL     1       4.167  12.462  10.061  1.00  0.00     0.029 A 
ATOM     45  C   UNL     1       5.281  12.476  11.007  1.00  0.00     0.049 A 
ATOM     46  H   UNL     1       6.160  10.844  11.952  1.00  0.00     0.167 HD
ATOM     47  C   UNL     1       7.940   7.282  13.805  1.00  0.00     0.037 A 
ATOM     48  C   UNL     1       5.941  13.570  11.431  1.00  0.00     0.037 A 
ATOM     49  C   UNL     1       8.703   8.391  14.314  1.00  0.00     0.049 A 
ATOM     50  C   UNL     1       7.061  13.412  12.424  1.00  0.00     0.074 A 
ATOM     51  C   UNL     1       9.779   8.376  15.183  1.00  0.00     0.029 A 
ATOM     52  N   UNL     1       8.466   9.720  13.992  1.00  0.00    -0.354 N 
ATOM     53  N   UNL     1       7.561  12.317  12.941  1.00  0.00    -0.248 NA
ATOM     54  C   UNL     1       7.702  14.647  12.897  1.00  0.00     0.031 C 
ATOM     55  C   UNL     1      10.172   9.700  15.414  1.00  0.00     0.029 A 
ATOM     56  C   UNL     1       9.368  10.536  14.656  1.00  0.00     0.049 A 
ATOM     57  H   UNL     1       7.762  10.037  13.381  1.00  0.00     0.167 HD
ATOM     58  C   UNL     1       8.591  12.725  13.777  1.00  0.00     0.074 A 
ATOM     59  C   UNL     1       8.649  14.170  13.693  1.00  0.00     0.031 C 
ATOM     60  C   UNL     1       9.415  11.972  14.547  1.00  0.00     0.037 A 
BRANCH  47  61
ATOM     61  C   UNL     1       8.296   5.897  14.256  1.00  0.00     0.064 A 
ATOM     62  C   UNL     1       8.908   4.974  13.395  1.00  0.00     0.173 A 
ATOM     63  C   UNL     1       8.017   5.487  15.568  1.00  0.00     0.173 A 
ATOM     64  F   UNL     1       9.177   5.312  12.125  1.00  0.00    -0.203 F 
ATOM     65  C   UNL     1       9.200   3.681  13.822  1.00  0.00     0.198 A 
ATOM     66  C   UNL     1       8.334   4.202  16.000  1.00  0.00     0.198 A 
ATOM     67  F   UNL     1       7.433   6.331  16.431  1.00  0.00    -0.203 F 
ATOM     68  F   UNL     1       9.736   2.800  12.967  1.00  0.00    -0.200 F 
ATOM     69  C   UNL     1       8.917   3.298  15.125  1.00  0.00     0.200 A 
ATOM     70  F   UNL     1       8.066   3.835  17.261  1.00  0.00    -0.200 F 
ATOM     71  F   UNL     1       9.195   2.052  15.534  1.00  0.00    -0.200 F 
ENDBRANCH  47  61
BRANCH  48  72
ATOM     72  C   UNL     1       5.559  14.911  10.919  1.00  0.00     0.064 A 
ATOM     73  C   UNL     1       6.409  15.622  10.063  1.00  0.00     0.173 A 
ATOM     74  C   UNL     1       4.342  15.509  11.278  1.00  0.00     0.173 A 
ATOM     75  F   UNL     1       7.595  15.102   9.713  1.00  0.00    -0.203 F 
ATOM     76  C   UNL     1       6.061  16.887   9.591  1.00  0.00     0.198 A 
ATOM     77  C   UNL     1       3.984  16.762  10.787  1.00  0.00     0.198 A 
ATOM     78  F   UNL     1       3.497  14.871  12.101  1.00  0.00    -0.203 F 
ATOM     79  F   UNL     1       6.909  17.562   8.804  1.00  0.00    -0.200 F 
ATOM     80  C   UNL     1       4.846  17.453   9.948  1.00  0.00     0.200 A 
ATOM     81  F   UNL     1       2.807  17.302  11.128  1.00  0.00    -0.200 F 
ATOM     82  F   UNL     1       4.511  18.667   9.492  1.00  0.00    -0.200 F 
ENDBRANCH  48  72
BRANCH  60  83
ATOM     83  C   UNL     1      10.475  12.695  15.322  1.00  0.00     0.064 A 
ATOM     84  C   UNL     1      10.168  13.442  16.468  1.00  0.00     0.173 A 
ATOM     85  C   UNL     1      11.820  12.612  14.929  1.00  0.00     0.173 A 
ATOM     86  F   UNL     1       8.895  13.563  16.873  1.00  0.00    -0.203 F 
ATOM     87  C   UNL     1      11.167  14.101  17.180  1.00  0.00     0.198 A 
ATOM     88  C   UNL     1      12.819  13.252  15.657  1.00  0.00     0.198 A 
ATOM     89  F   UNL     1      12.164  11.905  13.842  1.00  0.00    -0.203 F 
ATOM     90  F   UNL     1      10.847  14.846  18.247  1.00  0.00    -0.200 F 
ATOM     91  C   UNL     1      12.491  14.001  16.777  1.00  0.00     0.200 A 
ATOM     92  F   UNL     1      14.098  13.146  15.273  1.00  0.00    -0.200 F 
ATOM     93  F   UNL     1      13.451  14.633  17.465  1.00  0.00    -0.200 F 
ENDBRANCH  60  83
ENDBRANCH  34  35
ENDBRANCH  27  29
ENDBRANCH  26  27
ENDBRANCH  25  26
ENDBRANCH   1  25
TORSDOF 15
