REMARK SMILES CC[C@@](C)([NH2+][C@H]1CC[C@H](C)[C@H](C)C1)C(=O)OCCOC(=O)c1ccc(-c2c3nc(c(-c4c(F)c(F)c(F)c(F)c4F)c4ccc([nH]4)c(-c4c(F)c(F)c(F)c(F)c4F)c4nc(c(-c5c(F)c(F)c(F)c(F)c5F)c5ccc2[nH]5)C=C4)C=C3)cc1
REMARK SMILES IDX 17 1 16 2 14 3 15 4 3 5 4 6 2 7 1 8 5 9 6 12 7 13 13 14 8 15
REMARK SMILES IDX 11 16 9 17 12 18 10 19 18 20 19 21 20 22 21 23 22 24 23 25
REMARK SMILES IDX 84 26 24 27 83 28 25 29 26 30 27 31 77 32 28 33 82 34 76 35
REMARK SMILES IDX 78 36 29 37 81 38 75 39 74 40 30 42 62 43 42 44 61 45 43 46
REMARK SMILES IDX 46 47 60 48 79 49 44 50 45 51 59 53 80 54 47 55 31 56 32 57
REMARK SMILES IDX 40 58 33 59 34 60 38 61 41 62 35 63 36 64 39 65 37 66 63 67
REMARK SMILES IDX 64 68 72 69 65 70 66 71 70 72 73 73 67 74 68 75 71 76 69 77
REMARK SMILES IDX 48 78 49 79 57 80 50 81 51 82 55 83 58 84 52 85 53 86 56 87
REMARK SMILES IDX 54 88
REMARK H PARENT 5 10 5 11 78 41 46 52
REMARK Flexibility Score: inf
ROOT
ATOM      1  C   UNL     1       1.101   7.534  -4.096  1.00  0.00     0.274 C 
ENDROOT
BRANCH   1   2
ATOM      2  O   UNL     1       1.355   6.184  -3.651  1.00  0.00    -0.457 OA
BRANCH   2   3
ATOM      3  C   UNL     1       0.732   5.190  -4.346  1.00  0.00     0.367 C 
ATOM      4  O   UNL     1       0.174   5.372  -5.425  1.00  0.00    -0.245 OA
BRANCH   3   5
ATOM      5  C   UNL     1       0.765   3.803  -3.629  1.00  0.00     0.191 C 
ATOM      6  C   UNL     1      -0.583   3.099  -3.863  1.00  0.00     0.092 C 
BRANCH   5   7
ATOM      7  C   UNL     1       1.891   2.902  -4.230  1.00  0.00     0.077 C 
ATOM      8  C   UNL     1       1.892   2.704  -5.743  1.00  0.00     0.011 C 
ENDBRANCH   5   7
BRANCH   5   9
ATOM      9  N   UNL     1       1.120   3.897  -2.188  1.00  0.00    -0.330 N 
ATOM     10  H   UNL     1       2.041   4.335  -2.165  1.00  0.00     0.347 HD
ATOM     11  H   UNL     1       0.973   2.929  -1.903  1.00  0.00     0.347 HD
BRANCH   9  12
ATOM     12  C   UNL     1       0.333   4.592  -1.163  1.00  0.00     0.183 C 
ATOM     13  C   UNL     1       1.288   5.586  -0.466  1.00  0.00     0.065 C 
ATOM     14  C   UNL     1      -1.008   5.232  -1.555  1.00  0.00     0.068 C 
ATOM     15  C   UNL     1       0.620   6.457   0.597  1.00  0.00     0.010 C 
ATOM     16  C   UNL     1      -1.655   6.083  -0.451  1.00  0.00    -0.006 C 
ATOM     17  C   UNL     1      -0.644   7.130   0.053  1.00  0.00    -0.011 C 
ATOM     18  C   UNL     1      -2.251   5.193   0.647  1.00  0.00     0.008 C 
ATOM     19  C   UNL     1      -1.249   8.087   1.078  1.00  0.00     0.008 C 
ENDBRANCH   9  12
ENDBRANCH   5   9
ENDBRANCH   3   5
ENDBRANCH   2   3
ENDBRANCH   1   2
BRANCH   1  20
ATOM     20  C   UNL     1       2.279   8.431  -3.726  1.00  0.00     0.275 C 
BRANCH  20  21
ATOM     21  O   UNL     1       3.390   8.033  -4.545  1.00  0.00    -0.458 OA
BRANCH  21  22
ATOM     22  C   UNL     1       4.415   7.448  -3.890  1.00  0.00     0.338 C 
ATOM     23  O   UNL     1       4.663   7.459  -2.700  1.00  0.00    -0.246 OA
BRANCH  22  24
ATOM     24  C   UNL     1       5.117   6.599  -4.858  1.00  0.00     0.060 A 
ATOM     25  C   UNL     1       4.574   5.339  -5.105  1.00  0.00     0.016 A 
ATOM     26  C   UNL     1       6.329   6.976  -5.423  1.00  0.00     0.016 A 
ATOM     27  C   UNL     1       5.279   4.407  -5.858  1.00  0.00     0.010 A 
ATOM     28  C   UNL     1       7.017   6.056  -6.222  1.00  0.00     0.010 A 
ATOM     29  C   UNL     1       6.521   4.749  -6.405  1.00  0.00    -0.014 A 
BRANCH  29  30
ATOM     30  C   UNL     1       7.372   3.696  -7.019  1.00  0.00     0.031 A 
ATOM     31  C   UNL     1       8.637   3.288  -6.315  1.00  0.00     0.074 A 
ATOM     32  C   UNL     1       7.005   3.065  -8.150  1.00  0.00     0.049 A 
ATOM     33  N   UNL     1       9.612   2.519  -6.729  1.00  0.00    -0.248 NA
ATOM     34  C   UNL     1       8.832   3.825  -4.958  1.00  0.00     0.031 C 
ATOM     35  C   UNL     1       5.762   3.290  -8.885  1.00  0.00     0.029 A 
ATOM     36  N   UNL     1       7.650   2.091  -8.873  1.00  0.00    -0.354 N 
ATOM     37  C   UNL     1      10.560   2.534  -5.714  1.00  0.00     0.074 A 
ATOM     38  C   UNL     1      10.043   3.381  -4.661  1.00  0.00     0.031 C 
ATOM     39  C   UNL     1       5.725   2.465  -9.945  1.00  0.00     0.029 A 
ATOM     40  C   UNL     1       6.970   1.702 -10.001  1.00  0.00     0.049 A 
ATOM     41  H   UNL     1       8.518   1.710  -8.609  1.00  0.00     0.167 HD
ATOM     42  C   UNL     1      11.756   1.901  -5.667  1.00  0.00     0.037 A 
ATOM     43  C   UNL     1       7.327   0.851 -10.982  1.00  0.00     0.037 A 
ATOM     44  C   UNL     1      12.241   1.010  -6.686  1.00  0.00     0.049 A 
ATOM     45  C   UNL     1       8.672   0.176 -10.920  1.00  0.00     0.074 A 
ATOM     46  C   UNL     1      13.445   0.330  -6.741  1.00  0.00     0.029 A 
ATOM     47  N   UNL     1      11.530   0.657  -7.824  1.00  0.00    -0.354 N 
ATOM     48  N   UNL     1       9.599   0.257  -9.997  1.00  0.00    -0.248 NA
ATOM     49  C   UNL     1       9.026  -0.697 -12.049  1.00  0.00     0.031 C 
ATOM     50  C   UNL     1      13.472  -0.417  -7.924  1.00  0.00     0.029 A 
ATOM     51  C   UNL     1      12.269  -0.232  -8.586  1.00  0.00     0.049 A 
ATOM     52  H   UNL     1      10.632   0.990  -8.054  1.00  0.00     0.167 HD
ATOM     53  C   UNL     1      10.632  -0.571 -10.418  1.00  0.00     0.074 A 
ATOM     54  C   UNL     1      10.212  -1.156 -11.675  1.00  0.00     0.031 C 
ATOM     55  C   UNL     1      11.823  -0.821  -9.822  1.00  0.00     0.037 A 
BRANCH  42  56
ATOM     56  C   UNL     1      12.641   2.191  -4.492  1.00  0.00     0.064 A 
ATOM     57  C   UNL     1      12.373   1.680  -3.214  1.00  0.00     0.173 A 
ATOM     58  C   UNL     1      13.782   2.991  -4.655  1.00  0.00     0.173 A 
ATOM     59  F   UNL     1      11.283   0.927  -3.002  1.00  0.00    -0.203 F 
ATOM     60  C   UNL     1      13.201   1.983  -2.136  1.00  0.00     0.198 A 
ATOM     61  C   UNL     1      14.622   3.269  -3.581  1.00  0.00     0.198 A 
ATOM     62  F   UNL     1      14.082   3.503  -5.858  1.00  0.00    -0.203 F 
ATOM     63  F   UNL     1      12.900   1.526  -0.912  1.00  0.00    -0.200 F 
ATOM     64  C   UNL     1      14.327   2.772  -2.321  1.00  0.00     0.200 A 
ATOM     65  F   UNL     1      15.714   4.024  -3.764  1.00  0.00    -0.200 F 
ATOM     66  F   UNL     1      15.123   3.061  -1.282  1.00  0.00    -0.200 F 
ENDBRANCH  42  56
BRANCH  43  67
ATOM     67  C   UNL     1       6.409   0.602 -12.124  1.00  0.00     0.064 A 
ATOM     68  C   UNL     1       5.802  -0.649 -12.302  1.00  0.00     0.173 A 
ATOM     69  C   UNL     1       6.140   1.598 -13.074  1.00  0.00     0.173 A 
ATOM     70  F   UNL     1       6.053  -1.644 -11.437  1.00  0.00    -0.203 F 
ATOM     71  C   UNL     1       4.973  -0.899 -13.394  1.00  0.00     0.198 A 
ATOM     72  C   UNL     1       5.289   1.356 -14.150  1.00  0.00     0.198 A 
ATOM     73  F   UNL     1       6.702   2.810 -12.954  1.00  0.00    -0.203 F 
ATOM     74  F   UNL     1       4.444  -2.118 -13.566  1.00  0.00    -0.200 F 
ATOM     75  C   UNL     1       4.712   0.106 -14.313  1.00  0.00     0.200 A 
ATOM     76  F   UNL     1       5.032   2.333 -15.031  1.00  0.00    -0.200 F 
ATOM     77  F   UNL     1       3.914  -0.134 -15.363  1.00  0.00    -0.200 F 
ENDBRANCH  43  67
BRANCH  55  78
ATOM     78  C   UNL     1      12.733  -1.807 -10.492  1.00  0.00     0.064 A 
ATOM     79  C   UNL     1      13.439  -1.482 -11.659  1.00  0.00     0.173 A 
ATOM     80  C   UNL     1      12.922  -3.083  -9.940  1.00  0.00     0.173 A 
ATOM     81  F   UNL     1      13.279  -0.280 -12.232  1.00  0.00    -0.203 F 
ATOM     82  C   UNL     1      14.283  -2.410 -12.264  1.00  0.00     0.198 A 
ATOM     83  C   UNL     1      13.785  -3.998 -10.534  1.00  0.00     0.198 A 
ATOM     84  F   UNL     1      12.273  -3.438  -8.821  1.00  0.00    -0.203 F 
ATOM     85  F   UNL     1      14.913  -2.095 -13.404  1.00  0.00    -0.200 F 
ATOM     86  C   UNL     1      14.459  -3.664 -11.699  1.00  0.00     0.200 A 
ATOM     87  F   UNL     1      13.962  -5.206  -9.981  1.00  0.00    -0.200 F 
ATOM     88  F   UNL     1      15.273  -4.555 -12.282  1.00  0.00    -0.200 F 
ENDBRANCH  55  78
ENDBRANCH  29  30
ENDBRANCH  22  24
ENDBRANCH  21  22
ENDBRANCH  20  21
ENDBRANCH   1  20
TORSDOF 14
