REMARK SMILES CC(=O)NS(=O)(=O)c1ccc(-c2ccn(C(F)F)c(=O)c2)cc1C(=O)OCCOC(=O)c1ccc(-c2c3nc(c(-c4c(F)c(F)c(F)c(F)c4F)c4ccc([nH]4)c(-c4c(F)c(F)c(F)c(F)c4F)c4nc(c(-c5c(F)c(F)c(F)c(F)c5F)c5ccc2[nH]5)C=C4)C=C3)cc1
REMARK SMILES IDX 27 1 26 2 24 3 25 4 23 5 8 6 9 7 10 8 22 9 11 10 5 11 6 12
REMARK SMILES IDX 7 13 4 14 1 15 2 16 3 17 12 19 13 20 21 21 14 22 19 23 15 24
REMARK SMILES IDX 20 25 16 26 17 27 18 28 28 29 29 30 30 31 31 32 32 33 33 34
REMARK SMILES IDX 94 35 34 36 93 37 35 38 36 39 37 40 87 41 38 42 92 43 86 44
REMARK SMILES IDX 88 45 39 46 91 47 85 48 84 49 40 51 72 52 52 53 71 54 53 55
REMARK SMILES IDX 56 56 70 57 89 58 54 59 55 60 69 62 90 63 57 64 41 65 42 66
REMARK SMILES IDX 50 67 43 68 44 69 48 70 51 71 45 72 46 73 49 74 47 75 73 76
REMARK SMILES IDX 74 77 82 78 75 79 76 80 80 81 83 82 77 83 78 84 81 85 79 86
REMARK SMILES IDX 58 87 59 88 67 89 60 90 61 91 65 92 68 93 62 94 63 95 66 96
REMARK SMILES IDX 64 97
REMARK H PARENT 4 18 88 50 56 61
REMARK Flexibility Score: inf
ROOT
ATOM      1  C   UNL     1       2.538   2.691  -5.341  1.00  0.00     0.275 C 
ENDROOT
BRANCH   1   2
ATOM      2  O   UNL     1       2.455   2.169  -3.998  1.00  0.00    -0.458 OA
BRANCH   2   3
ATOM      3  C   UNL     1       3.254   2.731  -3.076  1.00  0.00     0.339 C 
ATOM      4  O   UNL     1       4.035   3.650  -3.274  1.00  0.00    -0.246 OA
BRANCH   3   5
ATOM      5  C   UNL     1       3.041   2.196  -1.702  1.00  0.00     0.081 A 
ATOM      6  C   UNL     1       2.694   0.888  -1.345  1.00  0.00     0.102 A 
ATOM      7  C   UNL     1       2.774   0.492   0.004  1.00  0.00     0.024 A 
ATOM      8  C   UNL     1       2.991   1.431   1.013  1.00  0.00     0.010 A 
ATOM      9  C   UNL     1       3.283   3.123  -0.667  1.00  0.00     0.025 A 
ATOM     10  C   UNL     1       3.176   2.770   0.682  1.00  0.00    -0.017 A 
BRANCH   6  11
ATOM     11  S   UNL     1       1.992  -0.233  -2.525  1.00  0.00     0.264 S 
ATOM     12  O   UNL     1       3.071  -0.694  -3.371  1.00  0.00    -0.201 OA
ATOM     13  O   UNL     1       0.778   0.353  -3.043  1.00  0.00    -0.201 OA
BRANCH  11  14
ATOM     14  N   UNL     1       1.519  -1.561  -1.630  1.00  0.00    -0.249 N 
ATOM     15  C   UNL     1      -0.354  -0.584  -0.271  1.00  0.00     0.115 C 
ATOM     16  C   UNL     1       0.254  -1.733  -1.034  1.00  0.00     0.230 C 
ATOM     17  O   UNL     1      -0.223  -2.860  -0.986  1.00  0.00    -0.274 OA
ATOM     18  H   UNL     1       2.177  -2.283  -1.509  1.00  0.00     0.183 HD
ENDBRANCH  11  14
ENDBRANCH   6  11
BRANCH  10  19
ATOM     19  C   UNL     1       3.158   3.829   1.706  1.00  0.00    -0.011 A 
ATOM     20  C   UNL     1       2.038   4.747   1.820  1.00  0.00     0.027 A 
ATOM     21  C   UNL     1       4.198   3.957   2.546  1.00  0.00     0.080 A 
ATOM     22  C   UNL     1       2.058   5.739   2.717  1.00  0.00     0.095 A 
ATOM     23  C   UNL     1       4.222   5.044   3.567  1.00  0.00     0.255 A 
ATOM     24  N   UNL     1       3.133   5.902   3.568  1.00  0.00    -0.258 N 
ATOM     25  O   UNL     1       5.190   5.112   4.317  1.00  0.00    -0.269 OA
BRANCH  24  26
ATOM     26  C   UNL     1       3.150   6.984   4.522  1.00  0.00     0.451 C 
ATOM     27  F   UNL     1       3.170   6.507   5.790  1.00  0.00    -0.185 F 
ATOM     28  F   UNL     1       4.245   7.763   4.348  1.00  0.00    -0.185 F 
ENDBRANCH  24  26
ENDBRANCH  10  19
ENDBRANCH   3   5
ENDBRANCH   2   3
ENDBRANCH   1   2
BRANCH   1  29
ATOM     29  C   UNL     1       1.352   3.610  -5.620  1.00  0.00     0.275 C 
BRANCH  29  30
ATOM     30  O   UNL     1       1.439   4.753  -4.751  1.00  0.00    -0.458 OA
BRANCH  30  31
ATOM     31  C   UNL     1       0.275   5.189  -4.223  1.00  0.00     0.338 C 
ATOM     32  O   UNL     1      -0.851   4.787  -4.460  1.00  0.00    -0.246 OA
BRANCH  31  33
ATOM     33  C   UNL     1       0.559   6.275  -3.266  1.00  0.00     0.060 A 
ATOM     34  C   UNL     1       1.536   6.105  -2.284  1.00  0.00     0.016 A 
ATOM     35  C   UNL     1      -0.213   7.435  -3.288  1.00  0.00     0.016 A 
ATOM     36  C   UNL     1       1.702   7.062  -1.284  1.00  0.00     0.010 A 
ATOM     37  C   UNL     1       0.007   8.430  -2.329  1.00  0.00     0.010 A 
ATOM     38  C   UNL     1       0.941   8.239  -1.294  1.00  0.00    -0.014 A 
BRANCH  38  39
ATOM     39  C   UNL     1       1.067   9.239  -0.195  1.00  0.00     0.031 A 
ATOM     40  C   UNL     1      -0.134   9.584   0.647  1.00  0.00     0.074 A 
ATOM     41  C   UNL     1       2.246   9.833   0.073  1.00  0.00     0.049 A 
ATOM     42  N   UNL     1      -0.286  10.545   1.524  1.00  0.00    -0.248 NA
ATOM     43  C   UNL     1      -1.325   8.737   0.478  1.00  0.00     0.031 C 
ATOM     44  C   UNL     1       3.506   9.569  -0.621  1.00  0.00     0.029 A 
ATOM     45  N   UNL     1       2.577  10.781   1.011  1.00  0.00    -0.354 N 
ATOM     46  C   UNL     1      -1.607  10.470   1.945  1.00  0.00     0.074 A 
ATOM     47  C   UNL     1      -2.208   9.351   1.252  1.00  0.00     0.031 C 
ATOM     48  C   UNL     1       4.480  10.302  -0.059  1.00  0.00     0.029 A 
ATOM     49  C   UNL     1       3.900  11.150   0.977  1.00  0.00     0.049 A 
ATOM     50  H   UNL     1       1.928  11.159   1.647  1.00  0.00     0.167 HD
ATOM     51  C   UNL     1      -2.261  11.269   2.821  1.00  0.00     0.037 A 
ATOM     52  C   UNL     1       4.566  12.093   1.671  1.00  0.00     0.037 A 
ATOM     53  C   UNL     1      -1.652  12.343   3.560  1.00  0.00     0.049 A 
ATOM     54  C   UNL     1       3.821  12.960   2.647  1.00  0.00     0.074 A 
ATOM     55  C   UNL     1      -2.234  13.194   4.485  1.00  0.00     0.029 A 
ATOM     56  N   UNL     1      -0.316  12.700   3.474  1.00  0.00    -0.354 N 
ATOM     57  N   UNL     1       2.554  12.930   2.978  1.00  0.00    -0.248 NA
ATOM     58  C   UNL     1       4.595  14.013   3.322  1.00  0.00     0.031 C 
ATOM     59  C   UNL     1      -1.251  14.077   4.947  1.00  0.00     0.029 A 
ATOM     60  C   UNL     1      -0.053  13.756   4.331  1.00  0.00     0.049 A 
ATOM     61  H   UNL     1       0.348  12.268   2.890  1.00  0.00     0.167 HD
ATOM     62  C   UNL     1       2.376  13.960   3.892  1.00  0.00     0.074 A 
ATOM     63  C   UNL     1       3.671  14.579   4.086  1.00  0.00     0.031 C 
ATOM     64  C   UNL     1       1.238  14.365   4.505  1.00  0.00     0.037 A 
BRANCH  51  65
ATOM     65  C   UNL     1      -3.730  11.034   3.008  1.00  0.00     0.064 A 
ATOM     66  C   UNL     1      -4.217   9.957   3.761  1.00  0.00     0.173 A 
ATOM     67  C   UNL     1      -4.661  11.925   2.452  1.00  0.00     0.173 A 
ATOM     68  F   UNL     1      -3.365   9.068   4.294  1.00  0.00    -0.203 F 
ATOM     69  C   UNL     1      -5.586   9.772   3.938  1.00  0.00     0.198 A 
ATOM     70  C   UNL     1      -6.027  11.749   2.649  1.00  0.00     0.198 A 
ATOM     71  F   UNL     1      -4.243  12.972   1.724  1.00  0.00    -0.203 F 
ATOM     72  F   UNL     1      -6.032   8.715   4.631  1.00  0.00    -0.200 F 
ATOM     73  C   UNL     1      -6.489  10.671   3.388  1.00  0.00     0.200 A 
ATOM     74  F   UNL     1      -6.897  12.622   2.123  1.00  0.00    -0.200 F 
ATOM     75  F   UNL     1      -7.805  10.492   3.564  1.00  0.00    -0.200 F 
ENDBRANCH  51  65
BRANCH  52  76
ATOM     76  C   UNL     1       6.019  12.294   1.435  1.00  0.00     0.064 A 
ATOM     77  C   UNL     1       6.962  11.928   2.405  1.00  0.00     0.173 A 
ATOM     78  C   UNL     1       6.493  12.845   0.236  1.00  0.00     0.173 A 
ATOM     79  F   UNL     1       6.552  11.431   3.581  1.00  0.00    -0.203 F 
ATOM     80  C   UNL     1       8.326  12.106   2.184  1.00  0.00     0.198 A 
ATOM     81  C   UNL     1       7.858  13.000   0.006  1.00  0.00     0.198 A 
ATOM     82  F   UNL     1       5.628  13.219  -0.719  1.00  0.00    -0.203 F 
ATOM     83  F   UNL     1       9.206  11.780   3.140  1.00  0.00    -0.200 F 
ATOM     84  C   UNL     1       8.773  12.633   0.981  1.00  0.00     0.200 A 
ATOM     85  F   UNL     1       8.285  13.502  -1.161  1.00  0.00    -0.200 F 
ATOM     86  F   UNL     1      10.085  12.796   0.764  1.00  0.00    -0.200 F 
ENDBRANCH  52  76
BRANCH  64  87
ATOM     87  C   UNL     1       1.346  15.527   5.445  1.00  0.00     0.064 A 
ATOM     88  C   UNL     1       1.449  16.841   4.967  1.00  0.00     0.173 A 
ATOM     89  C   UNL     1       1.317  15.327   6.832  1.00  0.00     0.173 A 
ATOM     90  F   UNL     1       1.495  17.076   3.647  1.00  0.00    -0.203 F 
ATOM     91  C   UNL     1       1.537  17.915   5.848  1.00  0.00     0.198 A 
ATOM     92  C   UNL     1       1.387  16.405   7.710  1.00  0.00     0.198 A 
ATOM     93  F   UNL     1       1.216  14.088   7.335  1.00  0.00    -0.203 F 
ATOM     94  F   UNL     1       1.669  19.161   5.371  1.00  0.00    -0.200 F 
ATOM     95  C   UNL     1       1.502  17.697   7.217  1.00  0.00     0.200 A 
ATOM     96  F   UNL     1       1.347  16.195   9.033  1.00  0.00    -0.200 F 
ATOM     97  F   UNL     1       1.586  18.733   8.063  1.00  0.00    -0.200 F 
ENDBRANCH  64  87
ENDBRANCH  38  39
ENDBRANCH  31  33
ENDBRANCH  30  31
ENDBRANCH  29  30
ENDBRANCH   1  29
TORSDOF 15
