REMARK SMILES CCn1c(N2CCC[C@H](C(=O)OCCOC(=O)c3ccc(-c4c5nc(c(-c6c(F)c(F)c(F)c(F)c6F)c6ccc([nH]6)c(-c6c(F)c(F)c(F)c(F)c6F)c6nc(c(-c7c(F)c(F)c(F)c(F)c7F)c7ccc4[nH]7)C=C6)C=C5)cc3)C2)nc2cc(C)ccc21
REMARK SMILES IDX 13 1 12 2 10 3 11 4 9 5 5 6 6 7 81 8 7 9 8 10 4 11 3 12
REMARK SMILES IDX 89 13 82 14 83 15 88 16 84 17 87 18 85 19 86 20 2 21 1 22
REMARK SMILES IDX 14 23 15 24 16 25 17 26 18 27 19 28 80 29 20 30 79 31 21 32
REMARK SMILES IDX 22 33 23 34 73 35 24 36 78 37 72 38 74 39 25 40 77 41 71 42
REMARK SMILES IDX 70 43 26 45 58 46 38 47 57 48 39 49 42 50 56 51 75 52 40 53
REMARK SMILES IDX 41 54 55 56 76 57 43 58 27 59 28 60 36 61 29 62 30 63 34 64
REMARK SMILES IDX 37 65 31 66 32 67 35 68 33 69 59 70 60 71 68 72 61 73 62 74
REMARK SMILES IDX 66 75 69 76 63 77 64 78 67 79 65 80 44 81 45 82 53 83 46 84
REMARK SMILES IDX 47 85 51 86 54 87 48 88 49 89 52 90 50 91
REMARK H PARENT 74 44 42 55
REMARK Flexibility Score: inf
ROOT
ATOM      1  C   UNL     1       2.883   7.229  -0.364  1.00  0.00     0.274 C 
ENDROOT
BRANCH   1   2
ATOM      2  O   UNL     1       1.732   6.873   0.428  1.00  0.00    -0.462 OA
BRANCH   2   3
ATOM      3  C   UNL     1       1.807   5.708   1.116  1.00  0.00     0.310 C 
ATOM      4  O   UNL     1       2.815   5.013   1.171  1.00  0.00    -0.252 OA
BRANCH   3   5
ATOM      5  C   UNL     1       0.526   5.372   1.873  1.00  0.00     0.119 C 
ATOM      6  N   UNL     1      -0.648   4.063   0.161  1.00  0.00    -0.341 N 
ATOM      7  C   UNL     1      -1.703   5.052  -0.002  1.00  0.00     0.119 C 
ATOM      8  C   UNL     1      -0.013   4.017   1.466  1.00  0.00     0.135 C 
ATOM      9  C   UNL     1      -1.292   6.441   0.491  1.00  0.00     0.022 C 
ATOM     10  C   UNL     1      -0.578   6.420   1.841  1.00  0.00     0.019 C 
BRANCH   6  11
ATOM     11  C   UNL     1       0.084   3.618  -0.893  1.00  0.00     0.206 A 
ATOM     12  N   UNL     1       0.435   2.274  -0.999  1.00  0.00    -0.310 N 
ATOM     13  C   UNL     1       1.345   2.161  -2.027  1.00  0.00     0.070 A 
ATOM     14  N   UNL     1       0.581   4.316  -1.883  1.00  0.00    -0.213 NA
ATOM     15  C   UNL     1       1.364   3.437  -2.592  1.00  0.00     0.091 A 
ATOM     16  C   UNL     1       2.114   1.113  -2.552  1.00  0.00     0.029 A 
ATOM     17  C   UNL     1       2.114   3.664  -3.760  1.00  0.00     0.034 A 
ATOM     18  C   UNL     1       2.833   1.352  -3.727  1.00  0.00     0.006 A 
ATOM     19  C   UNL     1       2.812   2.599  -4.355  1.00  0.00    -0.049 A 
ATOM     20  C   UNL     1       3.511   2.801  -5.667  1.00  0.00     0.044 C 
BRANCH  12  21
ATOM     21  C   UNL     1      -0.256   1.231  -0.261  1.00  0.00     0.122 C 
ATOM     22  C   UNL     1       0.148  -0.220  -0.458  1.00  0.00     0.028 C 
ENDBRANCH  12  21
ENDBRANCH   6  11
ENDBRANCH   3   5
ENDBRANCH   2   3
ENDBRANCH   1   2
BRANCH   1  23
ATOM     23  C   UNL     1       3.444   8.568   0.121  1.00  0.00     0.275 C 
BRANCH  23  24
ATOM     24  O   UNL     1       4.065   8.379   1.404  1.00  0.00    -0.458 OA
BRANCH  24  25
ATOM     25  C   UNL     1       3.315   8.709   2.481  1.00  0.00     0.338 C 
ATOM     26  O   UNL     1       2.434   9.557   2.535  1.00  0.00    -0.246 OA
BRANCH  25  27
ATOM     27  C   UNL     1       3.476   7.617   3.468  1.00  0.00     0.060 A 
ATOM     28  C   UNL     1       4.619   6.804   3.481  1.00  0.00     0.016 A 
ATOM     29  C   UNL     1       2.328   7.232   4.162  1.00  0.00     0.016 A 
ATOM     30  C   UNL     1       4.541   5.515   4.005  1.00  0.00     0.010 A 
ATOM     31  C   UNL     1       2.260   5.948   4.684  1.00  0.00     0.010 A 
ATOM     32  C   UNL     1       3.326   5.053   4.513  1.00  0.00    -0.014 A 
BRANCH  32  33
ATOM     33  C   UNL     1       3.189   3.691   5.029  1.00  0.00     0.031 A 
ATOM     34  C   UNL     1       3.542   3.574   6.451  1.00  0.00     0.074 A 
ATOM     35  C   UNL     1       2.751   2.591   4.378  1.00  0.00     0.049 A 
ATOM     36  N   UNL     1       4.566   2.921   6.889  1.00  0.00    -0.248 NA
ATOM     37  C   UNL     1       2.815   4.341   7.465  1.00  0.00     0.031 C 
ATOM     38  C   UNL     1       2.445   2.429   2.971  1.00  0.00     0.029 A 
ATOM     39  N   UNL     1       2.457   1.344   4.878  1.00  0.00    -0.354 N 
ATOM     40  C   UNL     1       4.534   3.064   8.259  1.00  0.00     0.074 A 
ATOM     41  C   UNL     1       3.538   4.066   8.552  1.00  0.00     0.031 C 
ATOM     42  C   UNL     1       1.799   1.259   2.762  1.00  0.00     0.029 A 
ATOM     43  C   UNL     1       1.730   0.535   4.011  1.00  0.00     0.049 A 
ATOM     44  H   UNL     1       2.739   1.049   5.774  1.00  0.00     0.167 HD
ATOM     45  C   UNL     1       5.165   2.176   9.066  1.00  0.00     0.037 A 
ATOM     46  C   UNL     1       1.313  -0.752   4.139  1.00  0.00     0.037 A 
ATOM     47  C   UNL     1       6.132   1.378   8.362  1.00  0.00     0.049 A 
ATOM     48  C   UNL     1       2.253  -1.396   5.074  1.00  0.00     0.074 A 
ATOM     49  C   UNL     1       7.297   1.655   7.672  1.00  0.00     0.029 A 
ATOM     50  N   UNL     1       5.773   0.109   7.983  1.00  0.00    -0.354 N 
ATOM     51  N   UNL     1       3.479  -1.686   4.746  1.00  0.00    -0.248 NA
ATOM     52  C   UNL     1       1.983  -1.283   6.497  1.00  0.00     0.031 C 
ATOM     53  C   UNL     1       7.328   0.730   6.587  1.00  0.00     0.029 A 
ATOM     54  C   UNL     1       6.205  -0.088   6.695  1.00  0.00     0.049 A 
ATOM     55  H   UNL     1       5.290  -0.546   8.538  1.00  0.00     0.167 HD
ATOM     56  C   UNL     1       4.216  -1.318   5.858  1.00  0.00     0.074 A 
ATOM     57  C   UNL     1       3.239  -1.166   6.934  1.00  0.00     0.031 C 
ATOM     58  C   UNL     1       5.508  -0.902   5.730  1.00  0.00     0.037 A 
BRANCH  45  59
ATOM     59  C   UNL     1       4.635   1.836  10.417  1.00  0.00     0.064 A 
ATOM     60  C   UNL     1       5.477   1.273  11.384  1.00  0.00     0.173 A 
ATOM     61  C   UNL     1       3.253   1.839  10.711  1.00  0.00     0.173 A 
ATOM     62  F   UNL     1       6.795   1.167  11.159  1.00  0.00    -0.203 F 
ATOM     63  C   UNL     1       4.966   0.748  12.572  1.00  0.00     0.198 A 
ATOM     64  C   UNL     1       2.754   1.373  11.920  1.00  0.00     0.198 A 
ATOM     65  F   UNL     1       2.340   2.200   9.798  1.00  0.00    -0.203 F 
ATOM     66  F   UNL     1       5.788   0.135  13.434  1.00  0.00    -0.200 F 
ATOM     67  C   UNL     1       3.608   0.809  12.844  1.00  0.00     0.200 A 
ATOM     68  F   UNL     1       1.434   1.416  12.150  1.00  0.00    -0.200 F 
ATOM     69  F   UNL     1       3.116   0.280  13.971  1.00  0.00    -0.200 F 
ENDBRANCH  45  59
BRANCH  46  70
ATOM     70  C   UNL     1      -0.072  -1.264   3.931  1.00  0.00     0.064 A 
ATOM     71  C   UNL     1      -0.350  -2.642   4.020  1.00  0.00     0.173 A 
ATOM     72  C   UNL     1      -1.190  -0.408   3.893  1.00  0.00     0.173 A 
ATOM     73  F   UNL     1       0.655  -3.528   4.079  1.00  0.00    -0.203 F 
ATOM     74  C   UNL     1      -1.659  -3.130   4.112  1.00  0.00     0.198 A 
ATOM     75  C   UNL     1      -2.498  -0.897   3.989  1.00  0.00     0.198 A 
ATOM     76  F   UNL     1      -1.032   0.922   3.834  1.00  0.00    -0.203 F 
ATOM     77  F   UNL     1      -1.877  -4.446   4.249  1.00  0.00    -0.200 F 
ATOM     78  C   UNL     1      -2.732  -2.255   4.113  1.00  0.00     0.200 A 
ATOM     79  F   UNL     1      -3.528  -0.040   4.013  1.00  0.00    -0.200 F 
ATOM     80  F   UNL     1      -3.982  -2.715   4.262  1.00  0.00    -0.200 F 
ENDBRANCH  46  70
BRANCH  58  81
ATOM     81  C   UNL     1       6.171  -1.108   4.395  1.00  0.00     0.064 A 
ATOM     82  C   UNL     1       5.793  -0.438   3.218  1.00  0.00     0.173 A 
ATOM     83  C   UNL     1       7.315  -1.913   4.335  1.00  0.00     0.173 A 
ATOM     84  F   UNL     1       4.756   0.407   3.212  1.00  0.00    -0.203 F 
ATOM     85  C   UNL     1       6.513  -0.590   2.032  1.00  0.00     0.198 A 
ATOM     86  C   UNL     1       8.051  -2.039   3.160  1.00  0.00     0.198 A 
ATOM     87  F   UNL     1       7.746  -2.546   5.438  1.00  0.00    -0.203 F 
ATOM     88  F   UNL     1       6.127   0.054   0.921  1.00  0.00    -0.200 F 
ATOM     89  C   UNL     1       7.647  -1.383   2.008  1.00  0.00     0.200 A 
ATOM     90  F   UNL     1       9.170  -2.776   3.151  1.00  0.00    -0.200 F 
ATOM     91  F   UNL     1       8.366  -1.497   0.882  1.00  0.00    -0.200 F 
ENDBRANCH  58  81
ENDBRANCH  32  33
ENDBRANCH  25  27
ENDBRANCH  24  25
ENDBRANCH  23  24
ENDBRANCH   1  23
TORSDOF 13
