REMARK SMILES O=C(OCCOC(=O)c1ccc2nc(-n3cccc3)sc2c1)c1ccc(-c2c3nc(c(-c4c(F)c(F)c(F)c(F)c4F)c4ccc([nH]4)c(-c4c(F)c(F)c(F)c(F)c4F)c4nc(c(-c5c(F)c(F)c(F)c(F)c5F)c5ccc2[nH]5)C=C4)C=C3)cc1
REMARK SMILES IDX 4 1 3 2 2 3 1 4 23 5 24 6 85 7 25 8 84 9 26 10 27 11 28 12
REMARK SMILES IDX 78 13 29 14 83 15 77 16 79 17 30 18 82 19 76 20 75 21 31 23
REMARK SMILES IDX 63 24 43 25 62 26 44 27 47 28 61 29 80 30 45 31 46 32 60 34
REMARK SMILES IDX 81 35 48 36 32 37 33 38 41 39 34 40 35 41 39 42 42 43 36 44
REMARK SMILES IDX 37 45 40 46 38 47 64 48 65 49 73 50 66 51 67 52 71 53 74 54
REMARK SMILES IDX 68 55 69 56 72 57 70 58 49 59 50 60 58 61 51 62 52 63 56 64
REMARK SMILES IDX 59 65 53 66 54 67 57 68 55 69 5 70 6 71 7 72 8 73 9 74 10 75
REMARK SMILES IDX 22 76 11 77 21 78 12 79 20 80 13 81 14 82 15 83 16 84 19 85
REMARK SMILES IDX 17 86 18 87
REMARK H PARENT 79 22 47 33
REMARK Flexibility Score: inf
ROOT
ATOM      1  C   UNL     1       4.404  -1.354  -0.157  1.00  0.00     0.275 C 
ENDROOT
BRANCH   1   2
ATOM      2  O   UNL     1       3.120  -1.564   0.464  1.00  0.00    -0.458 OA
BRANCH   2   3
ATOM      3  C   UNL     1       2.329  -0.524   0.815  1.00  0.00     0.338 C 
ATOM      4  O   UNL     1       1.215  -0.345   0.340  1.00  0.00    -0.246 OA
BRANCH   3   5
ATOM      5  C   UNL     1       2.737   0.198   2.044  1.00  0.00     0.060 A 
ATOM      6  C   UNL     1       4.012   0.740   2.221  1.00  0.00     0.016 A 
ATOM      7  C   UNL     1       1.753   0.406   3.025  1.00  0.00     0.016 A 
ATOM      8  C   UNL     1       4.329   1.415   3.391  1.00  0.00     0.010 A 
ATOM      9  C   UNL     1       2.053   1.118   4.185  1.00  0.00     0.010 A 
ATOM     10  C   UNL     1       3.346   1.623   4.364  1.00  0.00    -0.014 A 
BRANCH  10  11
ATOM     11  C   UNL     1       3.674   2.561   5.461  1.00  0.00     0.031 A 
ATOM     12  C   UNL     1       3.639   4.023   5.004  1.00  0.00     0.074 A 
ATOM     13  C   UNL     1       4.014   2.016   6.663  1.00  0.00     0.049 A 
ATOM     14  N   UNL     1       4.279   5.059   5.460  1.00  0.00    -0.248 NA
ATOM     15  C   UNL     1       2.825   4.371   3.808  1.00  0.00     0.031 C 
ATOM     16  C   UNL     1       3.994   0.570   6.941  1.00  0.00     0.029 A 
ATOM     17  N   UNL     1       4.452   2.530   7.870  1.00  0.00    -0.354 N 
ATOM     18  C   UNL     1       3.791   6.184   4.764  1.00  0.00     0.074 A 
ATOM     19  C   UNL     1       3.014   5.684   3.671  1.00  0.00     0.031 C 
ATOM     20  C   UNL     1       4.457   0.317   8.181  1.00  0.00     0.029 A 
ATOM     21  C   UNL     1       4.801   1.560   8.844  1.00  0.00     0.049 A 
ATOM     22  H   UNL     1       4.516   3.498   8.040  1.00  0.00     0.167 HD
ATOM     23  C   UNL     1       3.911   7.462   5.226  1.00  0.00     0.037 A 
ATOM     24  C   UNL     1       5.363   1.731  10.082  1.00  0.00     0.037 A 
ATOM     25  C   UNL     1       4.690   7.498   6.417  1.00  0.00     0.049 A 
ATOM     26  C   UNL     1       5.423   3.187  10.302  1.00  0.00     0.074 A 
ATOM     27  C   UNL     1       6.028   7.389   6.687  1.00  0.00     0.029 A 
ATOM     28  N   UNL     1       4.001   7.446   7.601  1.00  0.00    -0.354 N 
ATOM     29  N   UNL     1       4.397   3.935  10.582  1.00  0.00    -0.248 NA
ATOM     30  C   UNL     1       6.706   3.881  10.131  1.00  0.00     0.031 C 
ATOM     31  C   UNL     1       6.086   6.907   8.015  1.00  0.00     0.029 A 
ATOM     32  C   UNL     1       4.786   6.791   8.516  1.00  0.00     0.049 A 
ATOM     33  H   UNL     1       3.102   7.814   7.766  1.00  0.00     0.167 HD
ATOM     34  C   UNL     1       4.866   5.199  10.303  1.00  0.00     0.074 A 
ATOM     35  C   UNL     1       6.306   5.129  10.353  1.00  0.00     0.031 C 
ATOM     36  C   UNL     1       4.112   6.040   9.552  1.00  0.00     0.037 A 
BRANCH  23  37
ATOM     37  C   UNL     1       3.144   8.713   4.872  1.00  0.00     0.064 A 
ATOM     38  C   UNL     1       3.662   9.957   5.315  1.00  0.00     0.173 A 
ATOM     39  C   UNL     1       1.794   8.710   4.491  1.00  0.00     0.173 A 
ATOM     40  F   UNL     1       4.954  10.079   5.660  1.00  0.00    -0.203 F 
ATOM     41  C   UNL     1       2.846  11.069   5.514  1.00  0.00     0.198 A 
ATOM     42  C   UNL     1       0.992   9.846   4.642  1.00  0.00     0.198 A 
ATOM     43  F   UNL     1       1.187   7.592   4.076  1.00  0.00    -0.203 F 
ATOM     44  F   UNL     1       3.348  12.171   6.090  1.00  0.00    -0.200 F 
ATOM     45  C   UNL     1       1.505  11.006   5.196  1.00  0.00     0.200 A 
ATOM     46  F   UNL     1      -0.311   9.780   4.335  1.00  0.00    -0.200 F 
ATOM     47  F   UNL     1       0.698  12.042   5.463  1.00  0.00    -0.200 F 
ENDBRANCH  23  37
BRANCH  24  48
ATOM     48  C   UNL     1       5.958   0.847  11.163  1.00  0.00     0.064 A 
ATOM     49  C   UNL     1       5.837  -0.546  11.250  1.00  0.00     0.173 A 
ATOM     50  C   UNL     1       6.762   1.414  12.195  1.00  0.00     0.173 A 
ATOM     51  F   UNL     1       4.993  -1.223  10.467  1.00  0.00    -0.203 F 
ATOM     52  C   UNL     1       6.558  -1.310  12.187  1.00  0.00     0.198 A 
ATOM     53  C   UNL     1       7.499   0.658  13.109  1.00  0.00     0.198 A 
ATOM     54  F   UNL     1       6.865   2.738  12.364  1.00  0.00    -0.203 F 
ATOM     55  F   UNL     1       6.420  -2.643  12.201  1.00  0.00    -0.200 F 
ATOM     56  C   UNL     1       7.415  -0.712  13.091  1.00  0.00     0.200 A 
ATOM     57  F   UNL     1       8.298   1.276  13.990  1.00  0.00    -0.200 F 
ATOM     58  F   UNL     1       8.136  -1.445  13.949  1.00  0.00    -0.200 F 
ENDBRANCH  24  48
BRANCH  36  59
ATOM     59  C   UNL     1       2.634   5.710   9.589  1.00  0.00     0.064 A 
ATOM     60  C   UNL     1       1.903   5.872  10.773  1.00  0.00     0.173 A 
ATOM     61  C   UNL     1       1.955   5.106   8.518  1.00  0.00     0.173 A 
ATOM     62  F   UNL     1       2.477   6.448  11.840  1.00  0.00    -0.203 F 
ATOM     63  C   UNL     1       0.577   5.441  10.877  1.00  0.00     0.198 A 
ATOM     64  C   UNL     1       0.630   4.684   8.612  1.00  0.00     0.198 A 
ATOM     65  F   UNL     1       2.569   4.915   7.354  1.00  0.00    -0.203 F 
ATOM     66  F   UNL     1      -0.091   5.607  12.027  1.00  0.00    -0.200 F 
ATOM     67  C   UNL     1      -0.058   4.845   9.797  1.00  0.00     0.200 A 
ATOM     68  F   UNL     1       0.027   4.126   7.551  1.00  0.00    -0.200 F 
ATOM     69  F   UNL     1      -1.332   4.440   9.896  1.00  0.00    -0.200 F 
ENDBRANCH  36  59
ENDBRANCH  10  11
ENDBRANCH   3   5
ENDBRANCH   2   3
ENDBRANCH   1   2
BRANCH   1  70
ATOM     70  C   UNL     1       4.375  -0.491  -1.419  1.00  0.00     0.275 C 
BRANCH  70  71
ATOM     71  O   UNL     1       3.875   0.833  -1.156  1.00  0.00    -0.458 OA
BRANCH  71  72
ATOM     72  C   UNL     1       2.827   1.211  -1.927  1.00  0.00     0.338 C 
ATOM     73  O   UNL     1       2.268   0.561  -2.804  1.00  0.00    -0.246 OA
BRANCH  72  74
ATOM     74  C   UNL     1       2.480   2.606  -1.636  1.00  0.00     0.061 A 
ATOM     75  C   UNL     1       3.083   3.604  -2.400  1.00  0.00     0.018 A 
ATOM     76  C   UNL     1       1.493   2.901  -0.685  1.00  0.00     0.037 A 
ATOM     77  C   UNL     1       2.671   4.932  -2.263  1.00  0.00     0.031 A 
ATOM     78  C   UNL     1       1.120   4.247  -0.534  1.00  0.00     0.057 A 
ATOM     79  C   UNL     1       1.654   5.258  -1.343  1.00  0.00     0.084 A 
ATOM     80  S   UNL     1       0.011   4.961   0.583  1.00  0.00    -0.096 S 
ATOM     81  N   UNL     1       1.094   6.511  -1.172  1.00  0.00    -0.219 NA
ATOM     82  C   UNL     1       0.233   6.463  -0.182  1.00  0.00     0.194 A 
BRANCH  82  83
ATOM     83  N   UNL     1      -0.519   7.574   0.218  1.00  0.00    -0.300 N 
ATOM     84  C   UNL     1      -1.107   7.824   1.447  1.00  0.00     0.093 A 
ATOM     85  C   UNL     1      -0.792   8.670  -0.586  1.00  0.00     0.093 A 
ATOM     86  C   UNL     1      -1.726   9.055   1.413  1.00  0.00     0.020 A 
ATOM     87  C   UNL     1      -1.559   9.574   0.113  1.00  0.00     0.020 A 
ENDBRANCH  82  83
ENDBRANCH  72  74
ENDBRANCH  71  72
ENDBRANCH  70  71
ENDBRANCH   1  70
TORSDOF 12
