REMARK SMILES C[C@H](NC(=O)CCN1C(=O)/C(=C/c2ccc([N+](=O)[O-])cc2)SC1=S)C(=O)OCCOC(=O)c1ccc(-c2c3nc(c(-c4c(F)c(F)c(F)c(F)c4F)c4ccc([nH]4)c(-c4c(F)c(F)c(F)c(F)c4F)c4nc(c(-c5c(F)c(F)c(F)c(F)c5F)c5ccc2[nH]5)C=C4)C=C3)cc1
REMARK SMILES IDX 25 1 26 2 2 3 1 4 3 5 4 6 5 8 6 9 7 10 8 11 9 12 23 13 10 14
REMARK SMILES IDX 11 15 22 16 24 17 12 18 13 19 14 20 21 21 15 22 20 23 16 24
REMARK SMILES IDX 17 25 18 26 19 27 27 28 28 29 29 30 30 31 31 32 32 33 33 34
REMARK SMILES IDX 34 35 95 36 35 37 94 38 36 39 37 40 38 41 88 42 39 43 93 44
REMARK SMILES IDX 87 45 89 46 40 47 92 48 86 49 85 50 41 52 73 53 53 54 72 55
REMARK SMILES IDX 54 56 57 57 71 58 90 59 55 60 56 61 70 63 91 64 58 65 42 66
REMARK SMILES IDX 43 67 51 68 44 69 45 70 49 71 52 72 46 73 47 74 50 75 48 76
REMARK SMILES IDX 74 77 75 78 83 79 76 80 77 81 81 82 84 83 78 84 79 85 82 86
REMARK SMILES IDX 80 87 59 88 60 89 68 90 61 91 62 92 66 93 69 94 63 95 64 96
REMARK SMILES IDX 67 97 65 98
REMARK H PARENT 3 7 89 51 57 62
REMARK Flexibility Score: inf
ROOT
ATOM      1  C   UNL     1      -0.521   0.132  -0.960  1.00  0.00     0.328 C 
ATOM      2  O   UNL     1      -0.959   0.769  -1.906  1.00  0.00    -0.250 OA
ENDROOT
BRANCH   1   3
ATOM      3  C   UNL     1       0.921   0.275  -0.457  1.00  0.00     0.189 C 
ATOM      4  C   UNL     1       1.832   1.090  -1.376  1.00  0.00     0.043 C 
BRANCH   3   5
ATOM      5  N   UNL     1       1.455  -0.964   0.096  1.00  0.00    -0.343 N 
ATOM      6  C   UNL     1       2.012  -2.072  -0.447  1.00  0.00     0.222 C 
ATOM      7  H   UNL     1       1.398  -1.003   1.078  1.00  0.00     0.164 HD
ATOM      8  O   UNL     1       2.100  -3.064   0.281  1.00  0.00    -0.275 OA
BRANCH   6   9
ATOM      9  C   UNL     1       2.559  -2.132  -1.854  1.00  0.00     0.122 C 
BRANCH   9  10
ATOM     10  C   UNL     1       1.622  -2.770  -2.880  1.00  0.00     0.137 C 
BRANCH  10  11
ATOM     11  N   UNL     1       0.598  -1.901  -3.491  1.00  0.00    -0.292 N 
ATOM     12  C   UNL     1       0.987  -0.799  -4.239  1.00  0.00     0.266 C 
ATOM     13  C   UNL     1      -0.750  -2.209  -3.552  1.00  0.00     0.148 C 
ATOM     14  O   UNL     1       2.139  -0.459  -4.472  1.00  0.00    -0.268 OA
ATOM     15  C   UNL     1      -0.207  -0.043  -4.717  1.00  0.00     0.081 C 
ATOM     16  S   UNL     1      -1.612  -1.002  -4.510  1.00  0.00    -0.054 SA
ATOM     17  S   UNL     1      -1.549  -3.501  -2.862  1.00  0.00    -0.052 S 
ATOM     18  C   UNL     1      -0.121   1.238  -5.109  1.00  0.00     0.029 C 
BRANCH  18  19
ATOM     19  C   UNL     1      -1.237   2.165  -5.353  1.00  0.00    -0.024 A 
ATOM     20  C   UNL     1      -1.548   2.598  -6.645  1.00  0.00     0.015 A 
ATOM     21  C   UNL     1      -1.949   2.702  -4.269  1.00  0.00     0.015 A 
ATOM     22  C   UNL     1      -2.553   3.555  -6.849  1.00  0.00     0.086 A 
ATOM     23  C   UNL     1      -2.954   3.653  -4.456  1.00  0.00     0.086 A 
ATOM     24  C   UNL     1      -3.248   4.083  -5.751  1.00  0.00     0.269 A 
BRANCH  24  25
ATOM     25  N   UNL     1      -4.274   5.114  -5.952  1.00  0.00     0.062 N 
ATOM     26  O   UNL     1      -4.437   5.544  -7.102  1.00  0.00    -0.258 OA
ATOM     27  O   UNL     1      -4.904   5.503  -4.958  1.00  0.00    -0.258 OA
ENDBRANCH  24  25
ENDBRANCH  18  19
ENDBRANCH  10  11
ENDBRANCH   9  10
ENDBRANCH   6   9
ENDBRANCH   3   5
ENDBRANCH   1   3
BRANCH   1  28
ATOM     28  O   UNL     1      -1.302  -0.616  -0.133  1.00  0.00    -0.461 OA
BRANCH  28  29
ATOM     29  C   UNL     1      -2.716  -0.611  -0.432  1.00  0.00     0.274 C 
BRANCH  29  30
ATOM     30  C   UNL     1      -3.486   0.470   0.341  1.00  0.00     0.275 C 
BRANCH  30  31
ATOM     31  O   UNL     1      -3.143   1.808  -0.077  1.00  0.00    -0.458 OA
BRANCH  31  32
ATOM     32  C   UNL     1      -2.188   2.410   0.661  1.00  0.00     0.338 C 
ATOM     33  O   UNL     1      -1.572   1.934   1.609  1.00  0.00    -0.246 OA
BRANCH  32  34
ATOM     34  C   UNL     1      -1.816   3.703   0.073  1.00  0.00     0.060 A 
ATOM     35  C   UNL     1      -0.631   3.748  -0.660  1.00  0.00     0.016 A 
ATOM     36  C   UNL     1      -2.500   4.878   0.364  1.00  0.00     0.016 A 
ATOM     37  C   UNL     1      -0.093   4.950  -1.091  1.00  0.00     0.010 A 
ATOM     38  C   UNL     1      -1.967   6.099  -0.073  1.00  0.00     0.010 A 
ATOM     39  C   UNL     1      -0.748   6.140  -0.777  1.00  0.00    -0.014 A 
BRANCH  39  40
ATOM     40  C   UNL     1      -0.083   7.425  -1.083  1.00  0.00     0.031 A 
ATOM     41  C   UNL     1       0.545   8.204   0.035  1.00  0.00     0.074 A 
ATOM     42  C   UNL     1       0.010   7.857  -2.352  1.00  0.00     0.049 A 
ATOM     43  N   UNL     1       1.042   9.413   0.027  1.00  0.00    -0.248 NA
ATOM     44  C   UNL     1       0.627   7.526   1.338  1.00  0.00     0.031 C 
ATOM     45  C   UNL     1      -0.462   7.130  -3.530  1.00  0.00     0.029 A 
ATOM     46  N   UNL     1       0.530   9.020  -2.860  1.00  0.00    -0.354 N 
ATOM     47  C   UNL     1       1.459   9.656   1.329  1.00  0.00     0.074 A 
ATOM     48  C   UNL     1       1.162   8.468   2.100  1.00  0.00     0.031 C 
ATOM     49  C   UNL     1      -0.227   7.873  -4.624  1.00  0.00     0.029 A 
ATOM     50  C   UNL     1       0.356   9.148  -4.215  1.00  0.00     0.049 A 
ATOM     51  H   UNL     1       0.985   9.696  -2.306  1.00  0.00     0.167 HD
ATOM     52  C   UNL     1       2.029  10.777   1.831  1.00  0.00     0.037 A 
ATOM     53  C   UNL     1       0.595  10.199  -5.022  1.00  0.00     0.037 A 
ATOM     54  C   UNL     1       2.337  11.943   1.047  1.00  0.00     0.049 A 
ATOM     55  C   UNL     1       1.152  11.464  -4.426  1.00  0.00     0.074 A 
ATOM     56  C   UNL     1       2.900  13.138   1.456  1.00  0.00     0.029 A 
ATOM     57  N   UNL     1       2.108  12.053  -0.318  1.00  0.00    -0.354 N 
ATOM     58  N   UNL     1       1.492  11.715  -3.185  1.00  0.00    -0.248 NA
ATOM     59  C   UNL     1       1.347  12.596  -5.342  1.00  0.00     0.031 C 
ATOM     60  C   UNL     1       2.978  13.986   0.344  1.00  0.00     0.029 A 
ATOM     61  C   UNL     1       2.504  13.302  -0.765  1.00  0.00     0.049 A 
ATOM     62  H   UNL     1       1.721  11.347  -0.885  1.00  0.00     0.167 HD
ATOM     63  C   UNL     1       1.958  13.023  -3.172  1.00  0.00     0.074 A 
ATOM     64  C   UNL     1       1.869  13.509  -4.534  1.00  0.00     0.031 C 
ATOM     65  C   UNL     1       2.415  13.757  -2.129  1.00  0.00     0.037 A 
BRANCH  52  66
ATOM     66  C   UNL     1       2.305  10.810   3.305  1.00  0.00     0.064 A 
ATOM     67  C   UNL     1       3.348  10.072   3.882  1.00  0.00     0.173 A 
ATOM     68  C   UNL     1       1.515  11.604   4.150  1.00  0.00     0.173 A 
ATOM     69  F   UNL     1       4.118   9.282   3.120  1.00  0.00    -0.203 F 
ATOM     70  C   UNL     1       3.575  10.110   5.256  1.00  0.00     0.198 A 
ATOM     71  C   UNL     1       1.760  11.659   5.519  1.00  0.00     0.198 A 
ATOM     72  F   UNL     1       0.503  12.328   3.647  1.00  0.00    -0.203 F 
ATOM     73  F   UNL     1       4.547   9.360   5.794  1.00  0.00    -0.200 F 
ATOM     74  C   UNL     1       2.785  10.906   6.072  1.00  0.00     0.200 A 
ATOM     75  F   UNL     1       1.000  12.434   6.305  1.00  0.00    -0.200 F 
ATOM     76  F   UNL     1       3.005  10.941   7.394  1.00  0.00    -0.200 F 
ENDBRANCH  52  66
BRANCH  53  77
ATOM     77  C   UNL     1       0.262  10.113  -6.466  1.00  0.00     0.064 A 
ATOM     78  C   UNL     1       1.268  10.098  -7.441  1.00  0.00     0.173 A 
ATOM     79  C   UNL     1      -1.071  10.046  -6.902  1.00  0.00     0.173 A 
ATOM     80  F   UNL     1       2.555  10.185  -7.074  1.00  0.00    -0.203 F 
ATOM     81  C   UNL     1       0.954  10.030  -8.797  1.00  0.00     0.198 A 
ATOM     82  C   UNL     1      -1.382   9.951  -8.256  1.00  0.00     0.198 A 
ATOM     83  F   UNL     1      -2.070  10.061  -6.008  1.00  0.00    -0.203 F 
ATOM     84  F   UNL     1       1.934  10.055  -9.710  1.00  0.00    -0.200 F 
ATOM     85  C   UNL     1      -0.370   9.949  -9.203  1.00  0.00     0.200 A 
ATOM     86  F   UNL     1      -2.662   9.864  -8.643  1.00  0.00    -0.200 F 
ATOM     87  F   UNL     1      -0.669   9.876 -10.507  1.00  0.00    -0.200 F 
ENDBRANCH  53  77
BRANCH  65  88
ATOM     88  C   UNL     1       2.889  15.148  -2.427  1.00  0.00     0.064 A 
ATOM     89  C   UNL     1       1.988  16.189  -2.696  1.00  0.00     0.173 A 
ATOM     90  C   UNL     1       4.258  15.450  -2.400  1.00  0.00     0.173 A 
ATOM     91  F   UNL     1       0.670  15.944  -2.748  1.00  0.00    -0.203 F 
ATOM     92  C   UNL     1       2.445  17.480  -2.947  1.00  0.00     0.198 A 
ATOM     93  C   UNL     1       4.709  16.747  -2.627  1.00  0.00     0.198 A 
ATOM     94  F   UNL     1       5.158  14.489  -2.142  1.00  0.00    -0.203 F 
ATOM     95  F   UNL     1       1.571  18.452  -3.242  1.00  0.00    -0.200 F 
ATOM     96  C   UNL     1       3.803  17.759  -2.906  1.00  0.00     0.200 A 
ATOM     97  F   UNL     1       6.021  17.017  -2.575  1.00  0.00    -0.200 F 
ATOM     98  F   UNL     1       4.240  19.004  -3.141  1.00  0.00    -0.200 F 
ENDBRANCH  65  88
ENDBRANCH  39  40
ENDBRANCH  32  34
ENDBRANCH  31  32
ENDBRANCH  30  31
ENDBRANCH  29  30
ENDBRANCH  28  29
ENDBRANCH   1  28
TORSDOF 17
