REMARK SMILES CC(C)C[NH+]1CC[NH+]([C@@H]2CC[C@]([NH3+])(C(=O)OCCOC(=O)c3ccc(-c4c5nc(c(-c6c(F)c(F)c(F)c(F)c6F)c6ccc([nH]6)c(-c6c(F)c(F)c(F)c(F)c6F)c6nc(c(-c7c(F)c(F)c(F)c(F)c7F)c7ccc4[nH]7)C=C6)C=C5)cc3)C2)CC1
REMARK SMILES IDX 17 1 16 2 14 3 15 4 12 5 9 6 10 7 85 8 11 9 8 10 5 11 6 12
REMARK SMILES IDX 87 13 7 15 86 16 4 18 2 19 1 20 3 21 13 22 18 26 19 27 20 28
REMARK SMILES IDX 21 29 22 30 23 31 84 32 24 33 83 34 25 35 26 36 27 37 77 38
REMARK SMILES IDX 28 39 82 40 76 41 78 42 29 43 81 44 75 45 74 46 30 48 62 49
REMARK SMILES IDX 42 50 61 51 43 52 46 53 60 54 79 55 44 56 45 57 59 59 80 60
REMARK SMILES IDX 47 61 31 62 32 63 40 64 33 65 34 66 38 67 41 68 35 69 36 70
REMARK SMILES IDX 39 71 37 72 63 73 64 74 72 75 65 76 66 77 70 78 73 79 67 80
REMARK SMILES IDX 68 81 71 82 69 83 48 84 49 85 57 86 50 87 51 88 55 89 58 90
REMARK SMILES IDX 52 91 53 92 56 93 54 94
REMARK H PARENT 5 14 8 17 13 23 13 24 13 25 78 47 46 58
REMARK Flexibility Score: inf
ROOT
ATOM      1  C   UNL     1      -1.720   7.191  -3.417  1.00  0.00     0.274 C 
ENDROOT
BRANCH   1   2
ATOM      2  O   UNL     1      -2.644   6.101  -3.230  1.00  0.00    -0.457 OA
BRANCH   2   3
ATOM      3  C   UNL     1      -2.373   5.272  -2.174  1.00  0.00     0.368 C 
ATOM      4  O   UNL     1      -1.337   5.288  -1.521  1.00  0.00    -0.245 OA
BRANCH   3   5
ATOM      5  C   UNL     1      -3.537   4.278  -1.952  1.00  0.00     0.198 C 
ATOM      6  C   UNL     1      -3.849   2.115  -0.771  1.00  0.00     0.191 C 
ATOM      7  C   UNL     1      -4.026   1.932  -2.286  1.00  0.00     0.072 C 
ATOM      8  C   UNL     1      -3.487   3.603  -0.568  1.00  0.00     0.145 C 
ATOM      9  C   UNL     1      -3.363   3.128  -2.941  1.00  0.00     0.087 C 
BRANCH   6  10
ATOM     10  N   UNL     1      -3.008   1.177  -0.018  1.00  0.00    -0.323 N 
ATOM     11  N   UNL     1      -1.248  -0.956  -1.274  1.00  0.00    -0.325 N 
ATOM     12  C   UNL     1      -2.719  -1.125  -1.164  1.00  0.00     0.324 C 
ATOM     13  C   UNL     1      -0.964   0.484  -1.331  1.00  0.00     0.324 C 
ATOM     14  H   UNL     1      -0.874  -1.366  -2.130  1.00  0.00     0.348 HD
ATOM     15  C   UNL     1      -3.433  -0.236  -0.104  1.00  0.00     0.324 C 
ATOM     16  C   UNL     1      -1.549   1.284  -0.156  1.00  0.00     0.324 C 
ATOM     17  H   UNL     1      -3.195   1.523   0.923  1.00  0.00     0.348 HD
BRANCH  11  18
ATOM     18  C   UNL     1      -0.569  -1.687  -0.188  1.00  0.00     0.265 C 
BRANCH  18  19
ATOM     19  C   UNL     1       0.983  -1.739  -0.223  1.00  0.00     0.038 C 
ATOM     20  C   UNL     1       1.670  -0.496   0.355  1.00  0.00     0.013 C 
ATOM     21  C   UNL     1       1.454  -2.959   0.583  1.00  0.00     0.013 C 
ENDBRANCH  18  19
ENDBRANCH  11  18
ENDBRANCH   6  10
BRANCH   5  22
ATOM     22  N   UNL     1      -4.846   4.955  -2.097  1.00  0.00    -0.343 N 
ATOM     23  H   UNL     1      -5.596   4.280  -1.946  1.00  0.00     0.345 HD
ATOM     24  H   UNL     1      -4.925   5.346  -3.035  1.00  0.00     0.345 HD
ATOM     25  H   UNL     1      -4.920   5.704  -1.409  1.00  0.00     0.345 HD
ENDBRANCH   5  22
ENDBRANCH   3   5
ENDBRANCH   2   3
ENDBRANCH   1   2
BRANCH   1  26
ATOM     26  C   UNL     1      -2.301   8.456  -2.790  1.00  0.00     0.275 C 
BRANCH  26  27
ATOM     27  O   UNL     1      -2.539   8.214  -1.393  1.00  0.00    -0.458 OA
BRANCH  27  28
ATOM     28  C   UNL     1      -3.648   8.794  -0.878  1.00  0.00     0.338 C 
ATOM     29  O   UNL     1      -4.388   9.588  -1.433  1.00  0.00    -0.246 OA
BRANCH  28  30
ATOM     30  C   UNL     1      -3.842   8.339   0.516  1.00  0.00     0.060 A 
ATOM     31  C   UNL     1      -3.719   6.990   0.850  1.00  0.00     0.016 A 
ATOM     32  C   UNL     1      -4.240   9.257   1.487  1.00  0.00     0.016 A 
ATOM     33  C   UNL     1      -4.051   6.542   2.129  1.00  0.00     0.010 A 
ATOM     34  C   UNL     1      -4.503   8.819   2.790  1.00  0.00     0.010 A 
ATOM     35  C   UNL     1      -4.448   7.451   3.118  1.00  0.00    -0.014 A 
BRANCH  35  36
ATOM     36  C   UNL     1      -4.881   6.976   4.462  1.00  0.00     0.031 A 
ATOM     37  C   UNL     1      -6.292   7.233   4.927  1.00  0.00     0.074 A 
ATOM     38  C   UNL     1      -4.032   6.312   5.271  1.00  0.00     0.049 A 
ATOM     39  N   UNL     1      -6.824   7.054   6.111  1.00  0.00    -0.248 NA
ATOM     40  C   UNL     1      -7.225   7.781   3.930  1.00  0.00     0.031 C 
ATOM     41  C   UNL     1      -2.651   5.955   4.946  1.00  0.00     0.029 A 
ATOM     42  N   UNL     1      -4.212   5.817   6.541  1.00  0.00    -0.354 N 
ATOM     43  C   UNL     1      -8.127   7.527   6.017  1.00  0.00     0.074 A 
ATOM     44  C   UNL     1      -8.309   7.997   4.660  1.00  0.00     0.031 C 
ATOM     45  C   UNL     1      -2.118   5.278   5.976  1.00  0.00     0.029 A 
ATOM     46  C   UNL     1      -3.095   5.209   7.059  1.00  0.00     0.049 A 
ATOM     47  H   UNL     1      -5.062   5.892   7.033  1.00  0.00     0.167 HD
ATOM     48  C   UNL     1      -9.084   7.566   6.974  1.00  0.00     0.037 A 
ATOM     49  C   UNL     1      -2.871   4.682   8.278  1.00  0.00     0.037 A 
ATOM     50  C   UNL     1      -8.938   7.027   8.300  1.00  0.00     0.049 A 
ATOM     51  C   UNL     1      -3.958   4.725   9.318  1.00  0.00     0.074 A 
ATOM     52  C   UNL     1      -9.871   6.984   9.323  1.00  0.00     0.029 A 
ATOM     53  N   UNL     1      -7.790   6.418   8.782  1.00  0.00    -0.354 N 
ATOM     54  N   UNL     1      -5.175   5.203   9.227  1.00  0.00    -0.248 NA
ATOM     55  C   UNL     1      -3.633   4.164  10.638  1.00  0.00     0.031 C 
ATOM     56  C   UNL     1      -9.279   6.370  10.432  1.00  0.00     0.029 A 
ATOM     57  C   UNL     1      -7.989   6.002  10.089  1.00  0.00     0.049 A 
ATOM     58  H   UNL     1      -6.957   6.298   8.271  1.00  0.00     0.167 HD
ATOM     59  C   UNL     1      -5.763   4.986  10.466  1.00  0.00     0.074 A 
ATOM     60  C   UNL     1      -4.779   4.313  11.287  1.00  0.00     0.031 C 
ATOM     61  C   UNL     1      -7.005   5.323  10.889  1.00  0.00     0.037 A 
BRANCH  48  62
ATOM     62  C   UNL     1     -10.380   8.240   6.634  1.00  0.00     0.064 A 
ATOM     63  C   UNL     1     -11.339   7.634   5.812  1.00  0.00     0.173 A 
ATOM     64  C   UNL     1     -10.684   9.493   7.189  1.00  0.00     0.173 A 
ATOM     65  F   UNL     1     -11.089   6.442   5.248  1.00  0.00    -0.203 F 
ATOM     66  C   UNL     1     -12.550   8.266   5.542  1.00  0.00     0.198 A 
ATOM     67  C   UNL     1     -11.905  10.111   6.936  1.00  0.00     0.198 A 
ATOM     68  F   UNL     1      -9.800  10.111   7.987  1.00  0.00    -0.203 F 
ATOM     69  F   UNL     1     -13.440   7.685   4.726  1.00  0.00    -0.200 F 
ATOM     70  C   UNL     1     -12.835   9.500   6.110  1.00  0.00     0.200 A 
ATOM     71  F   UNL     1     -12.183  11.297   7.495  1.00  0.00    -0.200 F 
ATOM     72  F   UNL     1     -14.006  10.101   5.858  1.00  0.00    -0.200 F 
ENDBRANCH  48  62
BRANCH  49  73
ATOM     73  C   UNL     1      -1.550   4.083   8.602  1.00  0.00     0.064 A 
ATOM     74  C   UNL     1      -1.417   2.702   8.807  1.00  0.00     0.173 A 
ATOM     75  C   UNL     1      -0.405   4.879   8.747  1.00  0.00     0.173 A 
ATOM     76  F   UNL     1      -2.491   1.905   8.711  1.00  0.00    -0.203 F 
ATOM     77  C   UNL     1      -0.192   2.144   9.165  1.00  0.00     0.198 A 
ATOM     78  C   UNL     1       0.826   4.315   9.076  1.00  0.00     0.198 A 
ATOM     79  F   UNL     1      -0.481   6.205   8.567  1.00  0.00    -0.203 F 
ATOM     80  F   UNL     1      -0.103   0.829   9.408  1.00  0.00    -0.200 F 
ATOM     81  C   UNL     1       0.929   2.950   9.294  1.00  0.00     0.200 A 
ATOM     82  F   UNL     1       1.908   5.096   9.193  1.00  0.00    -0.200 F 
ATOM     83  F   UNL     1       2.107   2.412   9.642  1.00  0.00    -0.200 F 
ENDBRANCH  49  73
BRANCH  61  84
ATOM     84  C   UNL     1      -7.378   4.936  12.289  1.00  0.00     0.064 A 
ATOM     85  C   UNL     1      -6.855   5.614  13.400  1.00  0.00     0.173 A 
ATOM     86  C   UNL     1      -8.278   3.885  12.521  1.00  0.00     0.173 A 
ATOM     87  F   UNL     1      -5.979   6.614  13.230  1.00  0.00    -0.203 F 
ATOM     88  C   UNL     1      -7.198   5.233  14.695  1.00  0.00     0.198 A 
ATOM     89  C   UNL     1      -8.637   3.524  13.816  1.00  0.00     0.198 A 
ATOM     90  F   UNL     1      -8.809   3.210  11.490  1.00  0.00    -0.203 F 
ATOM     91  F   UNL     1      -6.649   5.861  15.744  1.00  0.00    -0.200 F 
ATOM     92  C   UNL     1      -8.091   4.192  14.902  1.00  0.00     0.200 A 
ATOM     93  F   UNL     1      -9.506   2.523  14.014  1.00  0.00    -0.200 F 
ATOM     94  F   UNL     1      -8.417   3.825  16.149  1.00  0.00    -0.200 F 
ENDBRANCH  61  84
ENDBRANCH  35  36
ENDBRANCH  28  30
ENDBRANCH  27  28
ENDBRANCH  26  27
ENDBRANCH   1  26
TORSDOF 15
