REMARK SMILES Cc1nc2nc(CNC(=O)OC(C)(C)C)nn2c(C)c1CCC(=O)OCCOC(=O)c1ccc(-c2c3nc(c(-c4c(F)c(F)c(F)c(F)c4F)c4ccc([nH]4)c(-c4c(F)c(F)c(F)c(F)c4F)c4nc(c(-c5c(F)c(F)c(F)c(F)c5F)c5ccc2[nH]5)C=C4)C=C3)cc1
REMARK SMILES IDX 23 1 24 2 22 3 21 4 20 5 1 6 2 7 3 8 4 9 18 10 5 11 17 12
REMARK SMILES IDX 19 13 6 14 16 15 7 16 8 17 9 18 10 20 11 21 12 22 13 23
REMARK SMILES IDX 14 24 15 25 25 26 26 27 27 28 28 29 29 30 30 31 31 32 32 33
REMARK SMILES IDX 93 34 33 35 92 36 34 37 35 38 36 39 86 40 37 41 91 42 85 43
REMARK SMILES IDX 87 44 38 45 90 46 84 47 83 48 39 50 71 51 51 52 70 53 52 54
REMARK SMILES IDX 55 55 69 56 88 57 53 58 54 59 68 61 89 62 56 63 40 64 41 65
REMARK SMILES IDX 49 66 42 67 43 68 47 69 50 70 44 71 45 72 48 73 46 74 72 75
REMARK SMILES IDX 73 76 81 77 74 78 75 79 79 80 82 81 76 82 77 83 80 84 78 85
REMARK SMILES IDX 57 86 58 87 66 88 59 89 60 90 64 91 67 92 61 93 62 94 65 95
REMARK SMILES IDX 63 96
REMARK H PARENT 8 19 87 49 55 60
REMARK Flexibility Score: inf
ROOT
ATOM      1  C   UNL     1       3.141  -3.915   1.792  1.00  0.00     0.306 C 
ATOM      2  O   UNL     1       4.187  -4.553   1.734  1.00  0.00    -0.252 OA
ENDROOT
BRANCH   1   3
ATOM      3  C   UNL     1       2.799  -2.813   0.798  1.00  0.00     0.127 C 
BRANCH   3   4
ATOM      4  C   UNL     1       1.328  -2.531   0.428  1.00  0.00     0.051 C 
BRANCH   4   5
ATOM      5  C   UNL     1       0.507  -1.924   1.535  1.00  0.00    -0.005 A 
ATOM      6  C   UNL     1       0.976   0.477   0.677  1.00  0.00     0.067 C 
ATOM      7  C   UNL     1       0.592  -0.436   1.824  1.00  0.00     0.046 A 
ATOM      8  N   UNL     1       0.257   0.130   2.949  1.00  0.00    -0.216 NA
ATOM      9  C   UNL     1      -0.303  -0.690   3.884  1.00  0.00     0.252 A 
ATOM     10  C   UNL     1      -0.359  -2.583   2.337  1.00  0.00     0.048 A 
ATOM     11  N   UNL     1      -0.565  -0.484   5.160  1.00  0.00    -0.192 NA
ATOM     12  N   UNL     1      -0.727  -1.974   3.540  1.00  0.00    -0.201 N 
ATOM     13  C   UNL     1      -0.840  -3.991   2.163  1.00  0.00     0.067 C 
ATOM     14  C   UNL     1      -1.185  -1.643   5.552  1.00  0.00     0.172 A 
ATOM     15  N   UNL     1      -1.372  -2.539   4.583  1.00  0.00    -0.148 NA
BRANCH  14  16
ATOM     16  C   UNL     1      -1.673  -1.927   6.929  1.00  0.00     0.199 C 
BRANCH  16  17
ATOM     17  N   UNL     1      -0.803  -1.381   7.942  1.00  0.00    -0.314 N 
ATOM     18  C   UNL     1      -1.242  -0.865   9.122  1.00  0.00     0.408 C 
ATOM     19  H   UNL     1       0.167  -1.382   7.770  1.00  0.00     0.167 HD
ATOM     20  O   UNL     1      -0.477  -0.449   9.973  1.00  0.00    -0.225 OA
BRANCH  18  21
ATOM     21  O   UNL     1      -2.594  -0.862   9.190  1.00  0.00    -0.444 OA
BRANCH  21  22
ATOM     22  C   UNL     1      -3.297  -0.136  10.223  1.00  0.00     0.106 C 
ATOM     23  C   UNL     1      -3.062  -0.760  11.599  1.00  0.00     0.056 C 
ATOM     24  C   UNL     1      -2.932   1.352  10.181  1.00  0.00     0.056 C 
ATOM     25  C   UNL     1      -4.781  -0.286   9.855  1.00  0.00     0.056 C 
ENDBRANCH  21  22
ENDBRANCH  18  21
ENDBRANCH  16  17
ENDBRANCH  14  16
ENDBRANCH   4   5
ENDBRANCH   3   4
ENDBRANCH   1   3
BRANCH   1  26
ATOM     26  O   UNL     1       2.206  -4.073   2.765  1.00  0.00    -0.462 OA
BRANCH  26  27
ATOM     27  C   UNL     1       2.405  -5.170   3.677  1.00  0.00     0.274 C 
BRANCH  27  28
ATOM     28  C   UNL     1       1.610  -6.405   3.261  1.00  0.00     0.275 C 
BRANCH  28  29
ATOM     29  O   UNL     1       2.170  -7.108   2.143  1.00  0.00    -0.458 OA
BRANCH  29  30
ATOM     30  C   UNL     1       1.702  -6.707   0.943  1.00  0.00     0.338 C 
ATOM     31  O   UNL     1       1.734  -5.584   0.473  1.00  0.00    -0.246 OA
BRANCH  30  32
ATOM     32  C   UNL     1       0.929  -7.754   0.281  1.00  0.00     0.060 A 
ATOM     33  C   UNL     1       0.456  -7.465  -1.004  1.00  0.00     0.016 A 
ATOM     34  C   UNL     1       0.548  -8.914   0.965  1.00  0.00     0.016 A 
ATOM     35  C   UNL     1      -0.444  -8.324  -1.590  1.00  0.00     0.010 A 
ATOM     36  C   UNL     1      -0.346  -9.781   0.374  1.00  0.00     0.010 A 
ATOM     37  C   UNL     1      -0.845  -9.471  -0.889  1.00  0.00    -0.014 A 
BRANCH  37  38
ATOM     38  C   UNL     1      -1.565 -10.477  -1.647  1.00  0.00     0.031 A 
ATOM     39  C   UNL     1      -0.738 -10.992  -2.769  1.00  0.00     0.074 A 
ATOM     40  C   UNL     1      -2.776 -10.955  -1.310  1.00  0.00     0.049 A 
ATOM     41  N   UNL     1      -0.940 -10.805  -4.029  1.00  0.00    -0.248 NA
ATOM     42  C   UNL     1       0.573 -11.594  -2.460  1.00  0.00     0.031 C 
ATOM     43  C   UNL     1      -3.528 -10.705  -0.079  1.00  0.00     0.029 A 
ATOM     44  N   UNL     1      -3.563 -11.847  -1.975  1.00  0.00    -0.354 N 
ATOM     45  C   UNL     1       0.100 -11.465  -4.679  1.00  0.00     0.074 A 
ATOM     46  C   UNL     1       1.091 -11.750  -3.680  1.00  0.00     0.031 C 
ATOM     47  C   UNL     1      -4.540 -11.599   0.018  1.00  0.00     0.029 A 
ATOM     48  C   UNL     1      -4.601 -12.371  -1.212  1.00  0.00     0.049 A 
ATOM     49  H   UNL     1      -3.411 -12.098  -2.915  1.00  0.00     0.167 HD
ATOM     50  C   UNL     1      -0.108 -11.992  -5.915  1.00  0.00     0.037 A 
ATOM     51  C   UNL     1      -5.419 -13.390  -1.574  1.00  0.00     0.037 A 
ATOM     52  C   UNL     1      -1.287 -11.422  -6.514  1.00  0.00     0.049 A 
ATOM     53  C   UNL     1      -5.383 -13.477  -3.051  1.00  0.00     0.074 A 
ATOM     54  C   UNL     1      -1.616 -10.257  -7.170  1.00  0.00     0.029 A 
ATOM     55  N   UNL     1      -2.452 -11.985  -6.069  1.00  0.00    -0.354 N 
ATOM     56  N   UNL     1      -5.884 -12.562  -3.832  1.00  0.00    -0.248 NA
ATOM     57  C   UNL     1      -4.482 -14.431  -3.692  1.00  0.00     0.031 C 
ATOM     58  C   UNL     1      -3.022 -10.080  -6.992  1.00  0.00     0.029 A 
ATOM     59  C   UNL     1      -3.523 -11.161  -6.274  1.00  0.00     0.049 A 
ATOM     60  H   UNL     1      -2.511 -12.875  -5.651  1.00  0.00     0.167 HD
ATOM     61  C   UNL     1      -5.050 -12.566  -4.929  1.00  0.00     0.074 A 
ATOM     62  C   UNL     1      -4.336 -13.834  -4.878  1.00  0.00     0.031 C 
ATOM     63  C   UNL     1      -4.763 -11.405  -5.580  1.00  0.00     0.037 A 
BRANCH  50  64
ATOM     64  C   UNL     1       0.401 -13.351  -6.352  1.00  0.00     0.064 A 
ATOM     65  C   UNL     1       0.159 -13.776  -7.675  1.00  0.00     0.173 A 
ATOM     66  C   UNL     1       0.816 -14.366  -5.460  1.00  0.00     0.173 A 
ATOM     67  F   UNL     1      -0.267 -12.907  -8.604  1.00  0.00    -0.203 F 
ATOM     68  C   UNL     1       0.264 -15.119  -8.053  1.00  0.00     0.198 A 
ATOM     69  C   UNL     1       0.968 -15.694  -5.854  1.00  0.00     0.198 A 
ATOM     70  F   UNL     1       0.980 -14.148  -4.151  1.00  0.00    -0.203 F 
ATOM     71  F   UNL     1      -0.087 -15.492  -9.291  1.00  0.00    -0.200 F 
ATOM     72  C   UNL     1       0.665 -16.077  -7.141  1.00  0.00     0.200 A 
ATOM     73  F   UNL     1       1.330 -16.611  -4.945  1.00  0.00    -0.200 F 
ATOM     74  F   UNL     1       0.714 -17.370  -7.485  1.00  0.00    -0.200 F 
ENDBRANCH  50  64
BRANCH  51  75
ATOM     75  C   UNL     1      -6.042 -14.464  -0.768  1.00  0.00     0.064 A 
ATOM     76  C   UNL     1      -7.082 -15.244  -1.306  1.00  0.00     0.173 A 
ATOM     77  C   UNL     1      -5.403 -14.971   0.377  1.00  0.00     0.173 A 
ATOM     78  F   UNL     1      -7.728 -14.838  -2.409  1.00  0.00    -0.203 F 
ATOM     79  C   UNL     1      -7.409 -16.496  -0.779  1.00  0.00     0.198 A 
ATOM     80  C   UNL     1      -5.734 -16.221   0.906  1.00  0.00     0.198 A 
ATOM     81  F   UNL     1      -4.374 -14.316   0.934  1.00  0.00    -0.203 F 
ATOM     82  F   UNL     1      -8.340 -17.251  -1.378  1.00  0.00    -0.200 F 
ATOM     83  C   UNL     1      -6.718 -16.994   0.313  1.00  0.00     0.200 A 
ATOM     84  F   UNL     1      -5.039 -16.709   1.944  1.00  0.00    -0.200 F 
ATOM     85  F   UNL     1      -6.966 -18.232   0.763  1.00  0.00    -0.200 F 
ENDBRANCH  51  75
BRANCH  63  86
ATOM     86  C   UNL     1      -5.733 -10.279  -5.433  1.00  0.00     0.064 A 
ATOM     87  C   UNL     1      -5.941  -9.553  -4.250  1.00  0.00     0.173 A 
ATOM     88  C   UNL     1      -6.431  -9.875  -6.578  1.00  0.00     0.173 A 
ATOM     89  F   UNL     1      -5.260  -9.844  -3.133  1.00  0.00    -0.203 F 
ATOM     90  C   UNL     1      -6.831  -8.480  -4.216  1.00  0.00     0.198 A 
ATOM     91  C   UNL     1      -7.292  -8.786  -6.550  1.00  0.00     0.198 A 
ATOM     92  F   UNL     1      -6.242 -10.521  -7.740  1.00  0.00    -0.203 F 
ATOM     93  F   UNL     1      -7.026  -7.802  -3.075  1.00  0.00    -0.200 F 
ATOM     94  C   UNL     1      -7.498  -8.093  -5.368  1.00  0.00     0.200 A 
ATOM     95  F   UNL     1      -7.903  -8.394  -7.676  1.00  0.00    -0.200 F 
ATOM     96  F   UNL     1      -8.324  -7.038  -5.346  1.00  0.00    -0.200 F 
ENDBRANCH  63  86
ENDBRANCH  37  38
ENDBRANCH  30  32
ENDBRANCH  29  30
ENDBRANCH  28  29
ENDBRANCH  27  28
ENDBRANCH  26  27
ENDBRANCH   1  26
TORSDOF 17
