REMARK SMILES C[C@H]1CN([C@@H](C(=O)OCCOC(=O)c2ccc(-c3c4nc(c(-c5c(F)c(F)c(F)c(F)c5F)c5ccc([nH]5)c(-c5c(F)c(F)c(F)c(F)c5F)c5nc(c(-c6c(F)c(F)c(F)c(F)c6F)c6ccc3[nH]6)C=C5)C=C4)cc2)C(C)(C)C)S(=O)(=O)C1
REMARK SMILES IDX 10 1 9 2 8 3 6 4 7 5 5 6 4 7 1 8 2 9 3 10 84 11 81 12 82 13
REMARK SMILES IDX 83 14 77 15 78 16 79 17 80 18 11 19 12 20 13 21 14 22 15 23
REMARK SMILES IDX 76 24 16 25 75 26 17 27 18 28 19 29 69 30 20 31 74 32 68 33
REMARK SMILES IDX 70 34 21 35 73 36 67 37 66 38 22 40 54 41 34 42 53 43 35 44
REMARK SMILES IDX 38 45 52 46 71 47 36 48 37 49 51 51 72 52 39 53 23 54 24 55
REMARK SMILES IDX 32 56 25 57 26 58 30 59 33 60 27 61 28 62 31 63 29 64 55 65
REMARK SMILES IDX 56 66 64 67 57 68 58 69 62 70 65 71 59 72 60 73 63 74 61 75
REMARK SMILES IDX 40 76 41 77 49 78 42 79 43 80 47 81 50 82 44 83 45 84 48 85
REMARK SMILES IDX 46 86
REMARK H PARENT 70 39 38 50
REMARK Flexibility Score: inf
ROOT
ATOM      1  C   UNL     1      -3.348  -0.557   3.728  1.00  0.00     0.275 C 
ENDROOT
BRANCH   1   2
ATOM      2  C   UNL     1      -2.189   0.370   4.077  1.00  0.00     0.274 C 
BRANCH   2   3
ATOM      3  O   UNL     1      -0.922  -0.245   3.741  1.00  0.00    -0.461 OA
BRANCH   3   4
ATOM      4  C   UNL     1      -0.189  -0.745   4.776  1.00  0.00     0.325 C 
ATOM      5  O   UNL     1      -0.581  -0.694   5.937  1.00  0.00    -0.250 OA
BRANCH   4   6
ATOM      6  C   UNL     1       1.243  -1.157   4.366  1.00  0.00     0.188 C 
BRANCH   6   7
ATOM      7  N   UNL     1       1.512  -1.282   2.894  1.00  0.00    -0.187 NA
ATOM      8  C   UNL     1      -0.675  -0.160   0.731  1.00  0.00     0.010 C 
ATOM      9  C   UNL     1       0.838  -0.373   0.726  1.00  0.00     0.017 C 
ATOM     10  C   UNL     1       1.520  -0.053   2.071  1.00  0.00     0.107 C 
ATOM     11  C   UNL     1       1.172  -1.822   0.400  1.00  0.00     0.159 C 
ATOM     12  S   UNL     1       1.246  -2.660   1.969  1.00  0.00     0.215 S 
ATOM     13  O   UNL     1       2.444  -3.461   1.980  1.00  0.00    -0.212 OA
ATOM     14  O   UNL     1      -0.059  -3.191   2.298  1.00  0.00    -0.212 OA
ENDBRANCH   6   7
BRANCH   6  15
ATOM     15  C   UNL     1       1.927  -2.277   5.264  1.00  0.00    -0.011 C 
ATOM     16  C   UNL     1       3.461  -2.203   5.084  1.00  0.00     0.013 C 
ATOM     17  C   UNL     1       1.672  -2.045   6.778  1.00  0.00     0.013 C 
ATOM     18  C   UNL     1       1.478  -3.719   4.976  1.00  0.00     0.013 C 
ENDBRANCH   6  15
ENDBRANCH   4   6
ENDBRANCH   3   4
ENDBRANCH   2   3
ENDBRANCH   1   2
BRANCH   1  19
ATOM     19  O   UNL     1      -3.207  -1.760   4.495  1.00  0.00    -0.458 OA
BRANCH  19  20
ATOM     20  C   UNL     1      -3.347  -2.926   3.820  1.00  0.00     0.338 C 
ATOM     21  O   UNL     1      -3.763  -3.063   2.682  1.00  0.00    -0.246 OA
BRANCH  20  22
ATOM     22  C   UNL     1      -2.911  -4.049   4.688  1.00  0.00     0.060 A 
ATOM     23  C   UNL     1      -1.980  -3.852   5.706  1.00  0.00     0.016 A 
ATOM     24  C   UNL     1      -3.372  -5.340   4.433  1.00  0.00     0.016 A 
ATOM     25  C   UNL     1      -1.433  -4.941   6.385  1.00  0.00     0.010 A 
ATOM     26  C   UNL     1      -2.905  -6.419   5.199  1.00  0.00     0.010 A 
ATOM     27  C   UNL     1      -1.895  -6.245   6.163  1.00  0.00    -0.014 A 
BRANCH  27  28
ATOM     28  C   UNL     1      -1.299  -7.409   6.893  1.00  0.00     0.031 A 
ATOM     29  C   UNL     1      -0.834  -8.631   6.137  1.00  0.00     0.074 A 
ATOM     30  C   UNL     1      -1.142  -7.395   8.235  1.00  0.00     0.049 A 
ATOM     31  N   UNL     1      -0.562  -9.833   6.587  1.00  0.00    -0.248 NA
ATOM     32  C   UNL     1      -0.675  -8.492   4.681  1.00  0.00     0.031 C 
ATOM     33  C   UNL     1      -1.482  -6.284   9.124  1.00  0.00     0.029 A 
ATOM     34  N   UNL     1      -0.639  -8.351   9.088  1.00  0.00    -0.354 N 
ATOM     35  C   UNL     1      -0.294 -10.609   5.465  1.00  0.00     0.074 A 
ATOM     36  C   UNL     1      -0.415  -9.739   4.314  1.00  0.00     0.031 C 
ATOM     37  C   UNL     1      -1.116  -6.589  10.376  1.00  0.00     0.029 A 
ATOM     38  C   UNL     1      -0.635  -7.965  10.407  1.00  0.00     0.049 A 
ATOM     39  H   UNL     1      -0.313  -9.228   8.783  1.00  0.00     0.167 HD
ATOM     40  C   UNL     1       0.014 -11.928   5.404  1.00  0.00     0.037 A 
ATOM     41  C   UNL     1      -0.338  -8.647  11.530  1.00  0.00     0.037 A 
ATOM     42  C   UNL     1       0.233 -12.772   6.553  1.00  0.00     0.049 A 
ATOM     43  C   UNL     1       0.030 -10.099  11.439  1.00  0.00     0.074 A 
ATOM     44  C   UNL     1       0.533 -14.124   6.590  1.00  0.00     0.029 A 
ATOM     45  N   UNL     1       0.219 -12.334   7.868  1.00  0.00    -0.354 N 
ATOM     46  N   UNL     1       0.131 -10.862  10.379  1.00  0.00    -0.248 NA
ATOM     47  C   UNL     1       0.295 -10.794  12.707  1.00  0.00     0.031 C 
ATOM     48  C   UNL     1       0.688 -14.507   7.927  1.00  0.00     0.029 A 
ATOM     49  C   UNL     1       0.520 -13.386   8.721  1.00  0.00     0.049 A 
ATOM     50  H   UNL     1       0.024 -11.413   8.154  1.00  0.00     0.167 HD
ATOM     51  C   UNL     1       0.463 -12.124  10.849  1.00  0.00     0.074 A 
ATOM     52  C   UNL     1       0.583 -12.018  12.288  1.00  0.00     0.031 C 
ATOM     53  C   UNL     1       0.634 -13.272  10.151  1.00  0.00     0.037 A 
BRANCH  40  54
ATOM     54  C   UNL     1       0.102 -12.565   4.047  1.00  0.00     0.064 A 
ATOM     55  C   UNL     1       1.186 -12.344   3.187  1.00  0.00     0.173 A 
ATOM     56  C   UNL     1      -0.891 -13.467   3.632  1.00  0.00     0.173 A 
ATOM     57  F   UNL     1       2.156 -11.484   3.531  1.00  0.00    -0.203 F 
ATOM     58  C   UNL     1       1.264 -12.989   1.954  1.00  0.00     0.198 A 
ATOM     59  C   UNL     1      -0.796 -14.131   2.413  1.00  0.00     0.198 A 
ATOM     60  F   UNL     1      -1.945 -13.723   4.422  1.00  0.00    -0.203 F 
ATOM     61  F   UNL     1       2.292 -12.737   1.132  1.00  0.00    -0.200 F 
ATOM     62  C   UNL     1       0.279 -13.888   1.572  1.00  0.00     0.200 A 
ATOM     63  F   UNL     1      -1.740 -15.013   2.054  1.00  0.00    -0.200 F 
ATOM     64  F   UNL     1       0.365 -14.520   0.393  1.00  0.00    -0.200 F 
ENDBRANCH  40  54
BRANCH  41  65
ATOM     65  C   UNL     1      -0.444  -7.971  12.850  1.00  0.00     0.064 A 
ATOM     66  C   UNL     1       0.698  -7.698  13.615  1.00  0.00     0.173 A 
ATOM     67  C   UNL     1      -1.687  -7.572  13.365  1.00  0.00     0.173 A 
ATOM     68  F   UNL     1       1.905  -8.091  13.181  1.00  0.00    -0.203 F 
ATOM     69  C   UNL     1       0.600  -7.052  14.846  1.00  0.00     0.198 A 
ATOM     70  C   UNL     1      -1.780  -6.894  14.578  1.00  0.00     0.198 A 
ATOM     71  F   UNL     1      -2.810  -7.814  12.674  1.00  0.00    -0.203 F 
ATOM     72  F   UNL     1       1.702  -6.838  15.577  1.00  0.00    -0.200 F 
ATOM     73  C   UNL     1      -0.637  -6.640  15.320  1.00  0.00     0.200 A 
ATOM     74  F   UNL     1      -2.974  -6.483  15.023  1.00  0.00    -0.200 F 
ATOM     75  F   UNL     1      -0.728  -6.003  16.495  1.00  0.00    -0.200 F 
ENDBRANCH  41  65
BRANCH  53  76
ATOM     76  C   UNL     1       0.993 -14.497  10.938  1.00  0.00     0.064 A 
ATOM     77  C   UNL     1       0.048 -15.155  11.739  1.00  0.00     0.173 A 
ATOM     78  C   UNL     1       2.296 -15.014  10.896  1.00  0.00     0.173 A 
ATOM     79  F   UNL     1      -1.206 -14.688  11.825  1.00  0.00    -0.203 F 
ATOM     80  C   UNL     1       0.405 -16.267  12.498  1.00  0.00     0.198 A 
ATOM     81  C   UNL     1       2.643 -16.140  11.637  1.00  0.00     0.198 A 
ATOM     82  F   UNL     1       3.234 -14.422  10.141  1.00  0.00    -0.203 F 
ATOM     83  F   UNL     1      -0.498 -16.847  13.300  1.00  0.00    -0.200 F 
ATOM     84  C   UNL     1       1.701 -16.759  12.445  1.00  0.00     0.200 A 
ATOM     85  F   UNL     1       3.894 -16.618  11.581  1.00  0.00    -0.200 F 
ATOM     86  F   UNL     1       2.046 -17.823  13.184  1.00  0.00    -0.200 F 
ENDBRANCH  53  76
ENDBRANCH  27  28
ENDBRANCH  20  22
ENDBRANCH  19  20
ENDBRANCH   1  19
TORSDOF 13
