REMARK SMILES Cc1nsc(N(C)S(=O)(=O)c2cn[nH]c2C)c1C(=O)OCCOC(=O)c1ccc(-c2c3nc(c(-c4c(F)c(F)c(F)c(F)c4F)c4ccc([nH]4)c(-c4c(F)c(F)c(F)c(F)c4F)c4nc(c(-c5c(F)c(F)c(F)c(F)c5F)c5ccc2[nH]5)C=C4)C=C3)cc1
REMARK SMILES IDX 21 1 20 2 18 3 19 4 17 5 1 6 2 7 3 8 4 9 5 10 6 11 7 12 8 13
REMARK SMILES IDX 9 14 10 15 11 16 12 17 15 18 13 19 14 20 16 21 22 23 23 24
REMARK SMILES IDX 24 25 25 26 26 27 27 28 88 29 28 30 87 31 29 32 30 33 31 34
REMARK SMILES IDX 81 35 32 36 86 37 80 38 82 39 33 40 85 41 79 42 78 43 34 45
REMARK SMILES IDX 66 46 46 47 65 48 47 49 50 50 64 51 83 52 48 53 49 54 63 56
REMARK SMILES IDX 84 57 51 58 35 59 36 60 44 61 37 62 38 63 42 64 45 65 39 66
REMARK SMILES IDX 40 67 43 68 41 69 67 70 68 71 76 72 69 73 70 74 74 75 77 76
REMARK SMILES IDX 71 77 72 78 75 79 73 80 52 81 53 82 61 83 54 84 55 85 59 86
REMARK SMILES IDX 62 87 56 88 57 89 60 90 58 91
REMARK H PARENT 14 22 82 44 50 55
REMARK Flexibility Score: inf
ROOT
ATOM      1  C   UNL     1      -0.456   2.809   2.278  1.00  0.00     0.275 C 
ENDROOT
BRANCH   1   2
ATOM      2  O   UNL     1      -0.062   1.487   1.895  1.00  0.00    -0.458 OA
BRANCH   2   3
ATOM      3  C   UNL     1       0.555   0.693   2.808  1.00  0.00     0.343 C 
ATOM      4  O   UNL     1       1.180   1.107   3.779  1.00  0.00    -0.246 OA
BRANCH   3   5
ATOM      5  C   UNL     1       0.429  -0.709   2.450  1.00  0.00     0.118 A 
ATOM      6  C   UNL     1       1.256  -0.350  -0.050  1.00  0.00     0.069 C 
ATOM      7  C   UNL     1       0.770  -1.170   1.103  1.00  0.00     0.068 A 
ATOM      8  N   UNL     1       0.674  -2.476   0.884  1.00  0.00    -0.195 NA
ATOM      9  S   UNL     1       0.057  -3.192   2.212  1.00  0.00    -0.017 S 
ATOM     10  C   UNL     1      -0.031  -1.781   3.229  1.00  0.00     0.140 A 
BRANCH  10  11
ATOM     11  N   UNL     1      -0.597  -1.915   4.587  1.00  0.00    -0.258 N 
ATOM     12  C   UNL     1      -0.549  -3.243   5.240  1.00  0.00     0.165 C 
BRANCH  11  13
ATOM     13  S   UNL     1      -0.670  -0.577   5.629  1.00  0.00     0.268 S 
ATOM     14  O   UNL     1       0.569  -0.511   6.373  1.00  0.00    -0.201 OA
ATOM     15  O   UNL     1      -1.206   0.544   4.889  1.00  0.00    -0.201 OA
BRANCH  13  16
ATOM     16  C   UNL     1      -1.844  -0.729   6.902  1.00  0.00     0.128 A 
ATOM     17  C   UNL     1      -2.232  -1.892   7.591  1.00  0.00     0.157 A 
ATOM     18  C   UNL     1      -2.519   0.293   7.562  1.00  0.00     0.053 A 
ATOM     19  N   UNL     1      -3.116  -1.651   8.564  1.00  0.00    -0.183 NA
ATOM     20  N   UNL     1      -3.243  -0.318   8.549  1.00  0.00    -0.281 N 
ATOM     21  C   UNL     1      -2.535   1.769   7.423  1.00  0.00     0.067 C 
ATOM     22  H   UNL     1      -3.804   0.177   9.190  1.00  0.00     0.190 HD
ENDBRANCH  13  16
ENDBRANCH  11  13
ENDBRANCH  10  11
ENDBRANCH   3   5
ENDBRANCH   2   3
ENDBRANCH   1   2
BRANCH   1  23
ATOM     23  C   UNL     1      -1.933   2.952   1.935  1.00  0.00     0.275 C 
BRANCH  23  24
ATOM     24  O   UNL     1      -2.713   2.129   2.799  1.00  0.00    -0.458 OA
BRANCH  24  25
ATOM     25  C   UNL     1      -2.907   0.838   2.443  1.00  0.00     0.338 C 
ATOM     26  O   UNL     1      -2.451   0.246   1.482  1.00  0.00    -0.246 OA
BRANCH  25  27
ATOM     27  C   UNL     1      -3.958   0.301   3.322  1.00  0.00     0.060 A 
ATOM     28  C   UNL     1      -4.553  -0.914   2.972  1.00  0.00     0.016 A 
ATOM     29  C   UNL     1      -4.488   1.115   4.335  1.00  0.00     0.016 A 
ATOM     30  C   UNL     1      -5.791  -1.211   3.503  1.00  0.00     0.010 A 
ATOM     31  C   UNL     1      -5.728   0.834   4.845  1.00  0.00     0.010 A 
ATOM     32  C   UNL     1      -6.394  -0.284   4.362  1.00  0.00    -0.014 A 
BRANCH  32  33
ATOM     33  C   UNL     1      -7.743  -0.531   4.815  1.00  0.00     0.031 A 
ATOM     34  C   UNL     1      -7.810  -1.546   5.887  1.00  0.00     0.074 A 
ATOM     35  C   UNL     1      -8.781   0.202   4.369  1.00  0.00     0.049 A 
ATOM     36  N   UNL     1      -8.315  -2.730   5.816  1.00  0.00    -0.248 NA
ATOM     37  C   UNL     1      -7.077  -1.280   7.136  1.00  0.00     0.031 C 
ATOM     38  C   UNL     1      -8.737   1.423   3.556  1.00  0.00     0.029 A 
ATOM     39  N   UNL     1     -10.108   0.054   4.627  1.00  0.00    -0.354 N 
ATOM     40  C   UNL     1      -8.151  -3.282   7.083  1.00  0.00     0.074 A 
ATOM     41  C   UNL     1      -7.225  -2.436   7.783  1.00  0.00     0.031 C 
ATOM     42  C   UNL     1      -9.952   2.018   3.574  1.00  0.00     0.029 A 
ATOM     43  C   UNL     1     -10.883   1.149   4.269  1.00  0.00     0.049 A 
ATOM     44  H   UNL     1     -10.486  -0.759   5.033  1.00  0.00     0.167 HD
ATOM     45  C   UNL     1      -9.030  -4.215   7.536  1.00  0.00     0.037 A 
ATOM     46  C   UNL     1     -12.186   1.339   4.591  1.00  0.00     0.037 A 
ATOM     47  C   UNL     1      -9.770  -4.785   6.438  1.00  0.00     0.049 A 
ATOM     48  C   UNL     1     -12.752   0.009   4.924  1.00  0.00     0.074 A 
ATOM     49  C   UNL     1      -9.481  -5.598   5.364  1.00  0.00     0.029 A 
ATOM     50  N   UNL     1     -10.957  -4.158   6.160  1.00  0.00    -0.354 N 
ATOM     51  N   UNL     1     -12.883  -0.960   4.058  1.00  0.00    -0.248 NA
ATOM     52  C   UNL     1     -12.801  -0.397   6.321  1.00  0.00     0.031 C 
ATOM     53  C   UNL     1     -10.370  -5.190   4.324  1.00  0.00     0.029 A 
ATOM     54  C   UNL     1     -11.202  -4.182   4.816  1.00  0.00     0.049 A 
ATOM     55  H   UNL     1     -11.548  -3.750   6.833  1.00  0.00     0.167 HD
ATOM     56  C   UNL     1     -12.607  -2.113   4.774  1.00  0.00     0.074 A 
ATOM     57  C   UNL     1     -12.717  -1.722   6.175  1.00  0.00     0.031 C 
ATOM     58  C   UNL     1     -12.025  -3.186   4.161  1.00  0.00     0.037 A 
BRANCH  45  59
ATOM     59  C   UNL     1      -9.588  -4.235   8.947  1.00  0.00     0.064 A 
ATOM     60  C   UNL     1     -10.490  -5.262   9.297  1.00  0.00     0.173 A 
ATOM     61  C   UNL     1      -9.553  -3.135   9.832  1.00  0.00     0.173 A 
ATOM     62  F   UNL     1     -10.623  -6.349   8.521  1.00  0.00    -0.203 F 
ATOM     63  C   UNL     1     -11.353  -5.149  10.391  1.00  0.00     0.198 A 
ATOM     64  C   UNL     1     -10.381  -3.049  10.951  1.00  0.00     0.198 A 
ATOM     65  F   UNL     1      -8.813  -2.046   9.601  1.00  0.00    -0.203 F 
ATOM     66  F   UNL     1     -12.286  -6.087  10.602  1.00  0.00    -0.200 F 
ATOM     67  C   UNL     1     -11.304  -4.038  11.211  1.00  0.00     0.200 A 
ATOM     68  F   UNL     1     -10.334  -1.951  11.720  1.00  0.00    -0.200 F 
ATOM     69  F   UNL     1     -12.175  -3.893  12.218  1.00  0.00    -0.200 F 
ENDBRANCH  45  59
BRANCH  46  70
ATOM     70  C   UNL     1     -12.836   2.613   4.981  1.00  0.00     0.064 A 
ATOM     71  C   UNL     1     -14.231   2.771   4.949  1.00  0.00     0.173 A 
ATOM     72  C   UNL     1     -12.109   3.615   5.654  1.00  0.00     0.173 A 
ATOM     73  F   UNL     1     -15.001   1.832   4.380  1.00  0.00    -0.203 F 
ATOM     74  C   UNL     1     -14.860   3.862   5.562  1.00  0.00     0.198 A 
ATOM     75  C   UNL     1     -12.736   4.704   6.262  1.00  0.00     0.198 A 
ATOM     76  F   UNL     1     -10.783   3.506   5.820  1.00  0.00    -0.203 F 
ATOM     77  F   UNL     1     -16.197   3.953   5.559  1.00  0.00    -0.200 F 
ATOM     78  C   UNL     1     -14.112   4.823   6.224  1.00  0.00     0.200 A 
ATOM     79  F   UNL     1     -12.003   5.601   6.937  1.00  0.00    -0.200 F 
ATOM     80  F   UNL     1     -14.716   5.837   6.859  1.00  0.00    -0.200 F 
ENDBRANCH  46  70
BRANCH  58  81
ATOM     81  C   UNL     1     -12.089  -3.247   2.662  1.00  0.00     0.064 A 
ATOM     82  C   UNL     1     -11.415  -2.368   1.799  1.00  0.00     0.173 A 
ATOM     83  C   UNL     1     -12.758  -4.335   2.086  1.00  0.00     0.173 A 
ATOM     84  F   UNL     1     -10.686  -1.352   2.279  1.00  0.00    -0.203 F 
ATOM     85  C   UNL     1     -11.435  -2.561   0.418  1.00  0.00     0.198 A 
ATOM     86  C   UNL     1     -12.745  -4.546   0.712  1.00  0.00     0.198 A 
ATOM     87  F   UNL     1     -13.380  -5.231   2.869  1.00  0.00    -0.203 F 
ATOM     88  F   UNL     1     -10.789  -1.707  -0.390  1.00  0.00    -0.200 F 
ATOM     89  C   UNL     1     -12.090  -3.655  -0.123  1.00  0.00     0.200 A 
ATOM     90  F   UNL     1     -13.340  -5.632   0.200  1.00  0.00    -0.200 F 
ATOM     91  F   UNL     1     -12.070  -3.868  -1.446  1.00  0.00    -0.200 F 
ENDBRANCH  58  81
ENDBRANCH  32  33
ENDBRANCH  25  27
ENDBRANCH  24  25
ENDBRANCH  23  24
ENDBRANCH   1  23
TORSDOF 14
