REMARK SMILES CNC(=O)NCCOCC(=O)OCCOC(=O)c1ccc(-c2c3nc(c(-c4c(F)c(F)c(F)c(F)c4F)c4ccc([nH]4)c(-c4c(F)c(F)c(F)c(F)c4F)c4nc(c(-c5c(F)c(F)c(F)c(F)c5F)c5ccc2[nH]5)C=C4)C=C3)cc1
REMARK SMILES IDX 13 1 12 2 10 3 11 4 9 5 8 6 7 7 6 8 5 9 1 10 2 11 3 12 4 14
REMARK SMILES IDX 14 16 15 17 16 18 17 19 18 20 19 21 80 22 20 23 79 24 21 25
REMARK SMILES IDX 22 26 23 27 73 28 24 29 78 30 72 31 74 32 25 33 77 34 71 35
REMARK SMILES IDX 70 36 26 38 58 39 38 40 57 41 39 42 42 43 56 44 75 45 40 46
REMARK SMILES IDX 41 47 55 49 76 50 43 51 27 52 28 53 36 54 29 55 30 56 34 57
REMARK SMILES IDX 37 58 31 59 32 60 35 61 33 62 59 63 60 64 68 65 61 66 62 67
REMARK SMILES IDX 66 68 69 69 63 70 64 71 67 72 65 73 44 74 45 75 53 76 46 77
REMARK SMILES IDX 47 78 51 79 54 80 48 81 49 82 52 83 50 84
REMARK H PARENT 2 13 5 15 74 37 42 48
REMARK Flexibility Score: inf
ROOT
ATOM      1  C   UNL     1      -5.486   0.856  -0.176  1.00  0.00     0.274 C 
ENDROOT
BRANCH   1   2
ATOM      2  O   UNL     1      -4.529   1.824  -0.664  1.00  0.00    -0.460 OA
BRANCH   2   3
ATOM      3  C   UNL     1      -4.023   2.676   0.263  1.00  0.00     0.332 C 
ATOM      4  O   UNL     1      -4.356   2.696   1.446  1.00  0.00    -0.250 OA
BRANCH   3   5
ATOM      5  C   UNL     1      -2.957   3.638  -0.284  1.00  0.00     0.282 C 
BRANCH   5   6
ATOM      6  O   UNL     1      -2.549   3.669  -1.635  1.00  0.00    -0.368 OA
BRANCH   6   7
ATOM      7  C   UNL     1      -1.523   2.744  -2.015  1.00  0.00     0.182 C 
BRANCH   7   8
ATOM      8  C   UNL     1      -0.122   3.065  -1.443  1.00  0.00     0.146 C 
BRANCH   8   9
ATOM      9  N   UNL     1       0.199   2.248  -0.279  1.00  0.00    -0.336 N 
ATOM     10  C   UNL     1       1.694  -0.304  -2.099  1.00  0.00     0.144 C 
ATOM     11  N   UNL     1       1.748   0.889  -1.302  1.00  0.00    -0.341 N 
ATOM     12  C   UNL     1       0.852   1.063  -0.306  1.00  0.00     0.314 C 
ATOM     13  H   UNL     1       2.432   1.574  -1.480  1.00  0.00     0.164 HD
ATOM     14  O   UNL     1       0.689   0.209   0.553  1.00  0.00    -0.249 OA
ATOM     15  H   UNL     1      -0.084   2.588   0.601  1.00  0.00     0.165 HD
ENDBRANCH   8   9
ENDBRANCH   7   8
ENDBRANCH   6   7
ENDBRANCH   5   6
ENDBRANCH   3   5
ENDBRANCH   2   3
ENDBRANCH   1   2
BRANCH   1  16
ATOM     16  C   UNL     1      -4.855  -0.520   0.080  1.00  0.00     0.275 C 
BRANCH  16  17
ATOM     17  O   UNL     1      -4.018  -0.543   1.257  1.00  0.00    -0.458 OA
BRANCH  17  18
ATOM     18  C   UNL     1      -2.746  -0.164   1.003  1.00  0.00     0.338 C 
ATOM     19  O   UNL     1      -2.310   0.198  -0.076  1.00  0.00    -0.246 OA
BRANCH  18  20
ATOM     20  C   UNL     1      -1.885  -0.145   2.193  1.00  0.00     0.060 A 
ATOM     21  C   UNL     1      -1.458   1.108   2.638  1.00  0.00     0.016 A 
ATOM     22  C   UNL     1      -1.199  -1.306   2.562  1.00  0.00     0.016 A 
ATOM     23  C   UNL     1      -0.252   1.212   3.326  1.00  0.00     0.010 A 
ATOM     24  C   UNL     1      -0.022  -1.200   3.318  1.00  0.00     0.010 A 
ATOM     25  C   UNL     1       0.493   0.062   3.656  1.00  0.00    -0.014 A 
BRANCH  25  26
ATOM     26  C   UNL     1       1.761   0.206   4.423  1.00  0.00     0.031 A 
ATOM     27  C   UNL     1       3.117  -0.141   3.857  1.00  0.00     0.074 A 
ATOM     28  C   UNL     1       1.667   0.696   5.672  1.00  0.00     0.049 A 
ATOM     29  N   UNL     1       4.294  -0.077   4.438  1.00  0.00    -0.248 NA
ATOM     30  C   UNL     1       3.177  -0.599   2.464  1.00  0.00     0.031 C 
ATOM     31  C   UNL     1       0.417   1.106   6.316  1.00  0.00     0.029 A 
ATOM     32  N   UNL     1       2.626   0.925   6.623  1.00  0.00    -0.354 N 
ATOM     33  C   UNL     1       5.226  -0.463   3.479  1.00  0.00     0.074 A 
ATOM     34  C   UNL     1       4.481  -0.771   2.277  1.00  0.00     0.031 C 
ATOM     35  C   UNL     1       0.684   1.539   7.553  1.00  0.00     0.029 A 
ATOM     36  C   UNL     1       2.103   1.344   7.819  1.00  0.00     0.049 A 
ATOM     37  H   UNL     1       3.590   0.802   6.465  1.00  0.00     0.167 HD
ATOM     38  C   UNL     1       6.574  -0.565   3.600  1.00  0.00     0.037 A 
ATOM     39  C   UNL     1       2.678   1.489   9.025  1.00  0.00     0.037 A 
ATOM     40  C   UNL     1       7.301  -0.324   4.824  1.00  0.00     0.049 A 
ATOM     41  C   UNL     1       4.143   1.223   9.171  1.00  0.00     0.074 A 
ATOM     42  C   UNL     1       8.665  -0.414   5.053  1.00  0.00     0.029 A 
ATOM     43  N   UNL     1       6.720   0.022   6.036  1.00  0.00    -0.354 N 
ATOM     44  N   UNL     1       5.012   0.872   8.256  1.00  0.00    -0.248 NA
ATOM     45  C   UNL     1       4.705   1.368  10.517  1.00  0.00     0.031 C 
ATOM     46  C   UNL     1       8.899  -0.200   6.416  1.00  0.00     0.029 A 
ATOM     47  C   UNL     1       7.691   0.098   7.024  1.00  0.00     0.049 A 
ATOM     48  H   UNL     1       5.760   0.190   6.174  1.00  0.00     0.167 HD
ATOM     49  C   UNL     1       6.229   0.769   8.910  1.00  0.00     0.074 A 
ATOM     50  C   UNL     1       5.987   1.114  10.297  1.00  0.00     0.031 C 
ATOM     51  C   UNL     1       7.438   0.423   8.405  1.00  0.00     0.037 A 
BRANCH  38  52
ATOM     52  C   UNL     1       7.375  -1.001   2.402  1.00  0.00     0.064 A 
ATOM     53  C   UNL     1       7.631  -0.134   1.330  1.00  0.00     0.173 A 
ATOM     54  C   UNL     1       8.000  -2.259   2.388  1.00  0.00     0.173 A 
ATOM     55  F   UNL     1       7.062   1.079   1.289  1.00  0.00    -0.203 F 
ATOM     56  C   UNL     1       8.483  -0.510   0.290  1.00  0.00     0.198 A 
ATOM     57  C   UNL     1       8.867  -2.623   1.359  1.00  0.00     0.198 A 
ATOM     58  F   UNL     1       7.801  -3.124   3.394  1.00  0.00    -0.203 F 
ATOM     59  F   UNL     1       8.706   0.330  -0.730  1.00  0.00    -0.200 F 
ATOM     60  C   UNL     1       9.108  -1.749   0.311  1.00  0.00     0.200 A 
ATOM     61  F   UNL     1       9.483  -3.813   1.392  1.00  0.00    -0.200 F 
ATOM     62  F   UNL     1       9.945  -2.097  -0.676  1.00  0.00    -0.200 F 
ENDBRANCH  38  52
BRANCH  39  63
ATOM     63  C   UNL     1       1.823   1.842  10.184  1.00  0.00     0.064 A 
ATOM     64  C   UNL     1       1.922   3.092  10.804  1.00  0.00     0.173 A 
ATOM     65  C   UNL     1       0.840   0.952  10.648  1.00  0.00     0.173 A 
ATOM     66  F   UNL     1       2.858   3.965  10.406  1.00  0.00    -0.203 F 
ATOM     67  C   UNL     1       1.067   3.441  11.846  1.00  0.00     0.198 A 
ATOM     68  C   UNL     1      -0.038   1.317  11.663  1.00  0.00     0.198 A 
ATOM     69  F   UNL     1       0.703  -0.255  10.079  1.00  0.00    -0.203 F 
ATOM     70  F   UNL     1       1.197   4.633  12.444  1.00  0.00    -0.200 F 
ATOM     71  C   UNL     1       0.079   2.560  12.265  1.00  0.00     0.200 A 
ATOM     72  F   UNL     1      -1.006   0.473  12.044  1.00  0.00    -0.200 F 
ATOM     73  F   UNL     1      -0.760   2.909  13.248  1.00  0.00    -0.200 F 
ENDBRANCH  39  63
BRANCH  51  74
ATOM     74  C   UNL     1       8.595   0.427   9.361  1.00  0.00     0.064 A 
ATOM     75  C   UNL     1       8.718  -0.539  10.371  1.00  0.00     0.173 A 
ATOM     76  C   UNL     1       9.585   1.417   9.274  1.00  0.00     0.173 A 
ATOM     77  F   UNL     1       7.786  -1.494  10.508  1.00  0.00    -0.203 F 
ATOM     78  C   UNL     1       9.768  -0.489  11.283  1.00  0.00     0.198 A 
ATOM     79  C   UNL     1      10.651   1.444  10.167  1.00  0.00     0.198 A 
ATOM     80  F   UNL     1       9.516   2.361   8.323  1.00  0.00    -0.203 F 
ATOM     81  F   UNL     1       9.829  -1.382  12.281  1.00  0.00    -0.200 F 
ATOM     82  C   UNL     1      10.735   0.499  11.178  1.00  0.00     0.200 A 
ATOM     83  F   UNL     1      11.591   2.394  10.058  1.00  0.00    -0.200 F 
ATOM     84  F   UNL     1      11.742   0.549  12.061  1.00  0.00    -0.200 F 
ENDBRANCH  51  74
ENDBRANCH  25  26
ENDBRANCH  18  20
ENDBRANCH  17  18
ENDBRANCH  16  17
ENDBRANCH   1  16
TORSDOF 15
