REMARK SMILES CC(C)[C@@H]1C[N@H+](Cc2ccc(O)c(C(=O)OCCOC(=O)c3ccc(-c4c5nc(c(-c6c(F)c(F)c(F)c(F)c6F)c6ccc([nH]6)c(-c6c(F)c(F)c(F)c(F)c6F)c6nc(c(-c7c(F)c(F)c(F)c(F)c7F)c7ccc4[nH]7)C=C6)C=C5)cc3)c2)CCC[N@H+]1CC1CC1
REMARK SMILES IDX 14 1 15 2 13 3 8 4 9 5 85 6 10 7 11 8 7 9 6 10 5 12 4 13
REMARK SMILES IDX 2 14 1 15 3 16 89 17 88 19 90 21 91 22 92 23 93 24 86 25
REMARK SMILES IDX 87 26 12 28 16 30 17 31 18 32 19 33 20 34 21 35 22 36 23 37
REMARK SMILES IDX 84 38 24 39 83 40 25 41 26 42 27 43 77 44 28 45 82 46 76 47
REMARK SMILES IDX 78 48 29 49 81 50 75 51 74 52 30 54 62 55 42 56 61 57 43 58
REMARK SMILES IDX 46 59 60 60 79 61 44 62 45 63 59 65 80 66 47 67 31 68 32 69
REMARK SMILES IDX 40 70 33 71 34 72 38 73 41 74 35 75 36 76 39 77 37 78 63 79
REMARK SMILES IDX 64 80 72 81 65 82 66 83 70 84 73 85 67 86 68 87 71 88 69 89
REMARK SMILES IDX 48 90 49 91 57 92 50 93 51 94 55 95 58 96 52 97 53 98 56 99
REMARK SMILES IDX 54 100
REMARK H PARENT 6 11 89 18 12 29 78 53 46 64
REMARK Flexibility Score: 90.00
ROOT
ATOM      1  C   UNL     1      -3.734  -4.285  -4.105  1.00  0.00     0.342 C 
ATOM      2  O   UNL     1      -4.615  -3.456  -4.191  1.00  0.00    -0.246 OA
ENDROOT
BRANCH   1   3
ATOM      3  C   UNL     1      -2.761  -4.320  -2.984  1.00  0.00     0.102 A 
ATOM      4  C   UNL     1      -2.374  -4.087  -0.576  1.00  0.00     0.007 A 
ATOM      5  C   UNL     1      -1.029  -4.422  -0.798  1.00  0.00     0.013 A 
ATOM      6  C   UNL     1      -3.226  -4.031  -1.687  1.00  0.00     0.029 A 
ATOM      7  C   UNL     1      -0.540  -4.632  -2.093  1.00  0.00     0.047 A 
ATOM      8  C   UNL     1      -1.404  -4.575  -3.184  1.00  0.00     0.130 A 
BRANCH   4   9
ATOM      9  C   UNL     1      -2.868  -3.734   0.823  1.00  0.00     0.299 C 
BRANCH   9  10
ATOM     10  N   UNL     1      -2.795  -2.309   1.226  1.00  0.00    -0.326 N 
ATOM     11  H   UNL     1      -2.912  -2.229   2.236  1.00  0.00     0.348 HD
BRANCH  10  12
ATOM     12  C   UNL     1      -1.441  -1.763   1.028  1.00  0.00     0.328 C 
BRANCH  12  13
ATOM     13  C   UNL     1      -1.143  -0.254   1.258  1.00  0.00     0.242 C 
BRANCH  13  14
ATOM     14  C   UNL     1       0.417  -0.063   1.347  1.00  0.00     0.047 C 
ATOM     15  C   UNL     1       1.231  -0.220   0.057  1.00  0.00     0.014 C 
ATOM     16  C   UNL     1       0.802   1.226   2.075  1.00  0.00     0.014 C 
ENDBRANCH  13  14
BRANCH  13  17
ATOM     17  N   UNL     1      -1.964   0.562   0.361  1.00  0.00    -0.327 N 
ATOM     18  H   UNL     1      -1.934  -0.245  -0.262  1.00  0.00     0.348 HD
BRANCH  17  19
ATOM     19  C   UNL     1      -3.234   0.992   0.906  1.00  0.00     0.268 CG0
ATOM     20  G   UNL     1      -4.140  -0.140   1.397  1.00  0.00     0.000 G0
ENDBRANCH  17  19
BRANCH  17  21
ATOM     21  C   UNL     1      -1.517   1.252  -0.829  1.00  0.00     0.266 C 
BRANCH  21  22
ATOM     22  C   UNL     1      -1.902   0.664  -2.166  1.00  0.00     0.044 C 
ATOM     23  C   UNL     1      -2.192  -0.793  -2.394  1.00  0.00     0.010 C 
ATOM     24  C   UNL     1      -3.304   0.209  -2.517  1.00  0.00     0.010 C 
ENDBRANCH  21  22
ENDBRANCH  17  21
ENDBRANCH  13  17
ENDBRANCH  12  13
ENDBRANCH  10  12
BRANCH  10  25
ATOM     25  C   UNL     1      -3.946  -1.529   0.768  1.00  0.00     0.268 C 
BRANCH  25  26
ATOM     26  C   UNL     1      -4.140  -0.140   1.397  1.00  0.00     0.123 CG0
ATOM     27  G   UNL     1      -3.234   0.992   0.906  1.00  0.00     0.000 G0
ENDBRANCH  25  26
ENDBRANCH  10  25
ENDBRANCH   9  10
ENDBRANCH   4   9
BRANCH   8  28
ATOM     28  O   UNL     1      -0.904  -4.707  -4.449  1.00  0.00    -0.507 OA
ATOM     29  H   UNL     1       0.008  -4.878  -4.577  1.00  0.00     0.293 HD
ENDBRANCH   8  28
ENDBRANCH   1   3
BRANCH   1  30
ATOM     30  O   UNL     1      -3.574  -5.388  -4.885  1.00  0.00    -0.458 OA
BRANCH  30  31
ATOM     31  C   UNL     1      -4.516  -5.572  -5.958  1.00  0.00     0.275 C 
BRANCH  31  32
ATOM     32  C   UNL     1      -5.394  -6.791  -5.681  1.00  0.00     0.275 C 
BRANCH  32  33
ATOM     33  O   UNL     1      -6.248  -6.515  -4.556  1.00  0.00    -0.458 OA
BRANCH  33  34
ATOM     34  C   UNL     1      -5.949  -7.182  -3.421  1.00  0.00     0.338 C 
ATOM     35  O   UNL     1      -5.125  -8.067  -3.261  1.00  0.00    -0.246 OA
BRANCH  34  36
ATOM     36  C   UNL     1      -6.743  -6.638  -2.311  1.00  0.00     0.060 A 
ATOM     37  C   UNL     1      -6.482  -5.343  -1.881  1.00  0.00     0.016 A 
ATOM     38  C   UNL     1      -7.606  -7.455  -1.587  1.00  0.00     0.016 A 
ATOM     39  C   UNL     1      -6.956  -4.909  -0.647  1.00  0.00     0.010 A 
ATOM     40  C   UNL     1      -8.198  -6.961  -0.418  1.00  0.00     0.010 A 
ATOM     41  C   UNL     1      -7.836  -5.702   0.101  1.00  0.00    -0.014 A 
BRANCH  41  42
ATOM     42  C   UNL     1      -8.336  -5.239   1.431  1.00  0.00     0.031 A 
ATOM     43  C   UNL     1      -8.161  -6.105   2.655  1.00  0.00     0.074 A 
ATOM     44  C   UNL     1      -8.927  -4.034   1.563  1.00  0.00     0.049 A 
ATOM     45  N   UNL     1      -8.681  -5.973   3.851  1.00  0.00    -0.248 NA
ATOM     46  C   UNL     1      -7.302  -7.290   2.508  1.00  0.00     0.031 C 
ATOM     47  C   UNL     1      -9.119  -3.058   0.489  1.00  0.00     0.029 A 
ATOM     48  N   UNL     1      -9.463  -3.414   2.666  1.00  0.00    -0.354 N 
ATOM     49  C   UNL     1      -8.269  -7.089   4.572  1.00  0.00     0.074 A 
ATOM     50  C   UNL     1      -7.465  -7.893   3.676  1.00  0.00     0.031 C 
ATOM     51  C   UNL     1      -9.664  -1.943   0.995  1.00  0.00     0.029 A 
ATOM     52  C   UNL     1      -9.968  -2.163   2.404  1.00  0.00     0.049 A 
ATOM     53  H   UNL     1      -9.484  -3.826   3.560  1.00  0.00     0.167 HD
ATOM     54  C   UNL     1      -8.536  -7.412   5.862  1.00  0.00     0.037 A 
ATOM     55  C   UNL     1     -10.643  -1.303   3.190  1.00  0.00     0.037 A 
ATOM     56  C   UNL     1      -9.284  -6.578   6.769  1.00  0.00     0.049 A 
ATOM     57  C   UNL     1     -10.972  -1.705   4.599  1.00  0.00     0.074 A 
ATOM     58  C   UNL     1      -9.594  -6.807   8.099  1.00  0.00     0.029 A 
ATOM     59  N   UNL     1      -9.826  -5.343   6.442  1.00  0.00    -0.354 N 
ATOM     60  N   UNL     1     -10.638  -2.791   5.251  1.00  0.00    -0.248 NA
ATOM     61  C   UNL     1     -11.800  -0.769   5.372  1.00  0.00     0.031 C 
ATOM     62  C   UNL     1     -10.361  -5.732   8.563  1.00  0.00     0.029 A 
ATOM     63  C   UNL     1     -10.484  -4.807   7.539  1.00  0.00     0.049 A 
ATOM     64  H   UNL     1      -9.755  -4.911   5.561  1.00  0.00     0.167 HD
ATOM     65  C   UNL     1     -11.195  -2.663   6.515  1.00  0.00     0.074 A 
ATOM     66  C   UNL     1     -11.874  -1.383   6.544  1.00  0.00     0.031 C 
ATOM     67  C   UNL     1     -11.153  -3.530   7.556  1.00  0.00     0.037 A 
BRANCH  54  68
ATOM     68  C   UNL     1      -8.053  -8.749   6.357  1.00  0.00     0.064 A 
ATOM     69  C   UNL     1      -6.692  -9.030   6.550  1.00  0.00     0.173 A 
ATOM     70  C   UNL     1      -8.976  -9.766   6.650  1.00  0.00     0.173 A 
ATOM     71  F   UNL     1      -5.765  -8.099   6.276  1.00  0.00    -0.203 F 
ATOM     72  C   UNL     1      -6.271 -10.289   6.973  1.00  0.00     0.198 A 
ATOM     73  C   UNL     1      -8.554 -11.012   7.107  1.00  0.00     0.198 A 
ATOM     74  F   UNL     1     -10.291  -9.552   6.495  1.00  0.00    -0.203 F 
ATOM     75  F   UNL     1      -4.962 -10.554   7.087  1.00  0.00    -0.200 F 
ATOM     76  C   UNL     1      -7.202 -11.277   7.256  1.00  0.00     0.200 A 
ATOM     77  F   UNL     1      -9.458 -11.960   7.395  1.00  0.00    -0.200 F 
ATOM     78  F   UNL     1      -6.796 -12.488   7.662  1.00  0.00    -0.200 F 
ENDBRANCH  54  68
BRANCH  55  79
ATOM     79  C   UNL     1     -11.077   0.012   2.649  1.00  0.00     0.064 A 
ATOM     80  C   UNL     1     -10.518   1.204   3.130  1.00  0.00     0.173 A 
ATOM     81  C   UNL     1     -12.045   0.108   1.638  1.00  0.00     0.173 A 
ATOM     82  F   UNL     1      -9.609   1.167   4.116  1.00  0.00    -0.203 F 
ATOM     83  C   UNL     1     -10.913   2.440   2.624  1.00  0.00     0.198 A 
ATOM     84  C   UNL     1     -12.415   1.342   1.109  1.00  0.00     0.198 A 
ATOM     85  F   UNL     1     -12.615  -1.002   1.145  1.00  0.00    -0.203 F 
ATOM     86  F   UNL     1     -10.390   3.566   3.128  1.00  0.00    -0.200 F 
ATOM     87  C   UNL     1     -11.853   2.508   1.607  1.00  0.00     0.200 A 
ATOM     88  F   UNL     1     -13.311   1.401   0.115  1.00  0.00    -0.200 F 
ATOM     89  F   UNL     1     -12.222   3.696   1.110  1.00  0.00    -0.200 F 
ENDBRANCH  55  79
BRANCH  67  90
ATOM     90  C   UNL     1     -11.824  -3.099   8.828  1.00  0.00     0.064 A 
ATOM     91  C   UNL     1     -13.221  -3.031   8.940  1.00  0.00     0.173 A 
ATOM     92  C   UNL     1     -11.058  -2.757   9.953  1.00  0.00     0.173 A 
ATOM     93  F   UNL     1     -13.997  -3.329   7.887  1.00  0.00    -0.203 F 
ATOM     94  C   UNL     1     -13.824  -2.603  10.119  1.00  0.00     0.198 A 
ATOM     95  C   UNL     1     -11.665  -2.359  11.140  1.00  0.00     0.198 A 
ATOM     96  F   UNL     1      -9.718  -2.809   9.900  1.00  0.00    -0.203 F 
ATOM     97  F   UNL     1     -15.158  -2.488  10.184  1.00  0.00    -0.200 F 
ATOM     98  C   UNL     1     -13.047  -2.273  11.220  1.00  0.00     0.200 A 
ATOM     99  F   UNL     1     -10.913  -2.052  12.206  1.00  0.00    -0.200 F 
ATOM    100  F   UNL     1     -13.629  -1.860  12.354  1.00  0.00    -0.200 F 
ENDBRANCH  67  90
ENDBRANCH  41  42
ENDBRANCH  34  36
ENDBRANCH  33  34
ENDBRANCH  32  33
ENDBRANCH  31  32
ENDBRANCH  30  31
ENDBRANCH   1  30
TORSDOF 17
