REMARK SMILES O=C(C[NH+]1CCN(c2ncc(C(F)(F)F)cc2Cl)CC1)OCCOC(=O)c1ccc(-c2c3nc(c(-c4c(F)c(F)c(F)c(F)c4F)c4ccc([nH]4)c(-c4c(F)c(F)c(F)c(F)c4F)c4nc(c(-c5c(F)c(F)c(F)c(F)c5F)c5ccc2[nH]5)C=C4)C=C3)cc1
REMARK SMILES IDX 22 1 21 2 2 3 1 4 3 5 4 6 5 7 20 8 6 10 19 11 7 12 8 13 9 14
REMARK SMILES IDX 17 15 10 16 16 17 18 18 11 19 12 20 13 21 14 22 15 23 23 24
REMARK SMILES IDX 24 25 25 26 26 27 27 28 28 29 89 30 29 31 88 32 30 33 31 34
REMARK SMILES IDX 32 35 82 36 33 37 87 38 81 39 83 40 34 41 86 42 80 43 79 44
REMARK SMILES IDX 35 46 67 47 47 48 66 49 48 50 51 51 65 52 84 53 49 54 50 55
REMARK SMILES IDX 64 57 85 58 52 59 36 60 37 61 45 62 38 63 39 64 43 65 46 66
REMARK SMILES IDX 40 67 41 68 44 69 42 70 68 71 69 72 77 73 70 74 71 75 75 76
REMARK SMILES IDX 78 77 72 78 73 79 76 80 74 81 53 82 54 83 62 84 55 85 56 86
REMARK SMILES IDX 60 87 63 88 57 89 58 90 61 91 59 92
REMARK H PARENT 4 9 83 45 51 56
REMARK Flexibility Score: inf
ROOT
ATOM      1  C   UNL     1       3.893   1.486  -0.370  1.00  0.00     0.274 C 
ENDROOT
BRANCH   1   2
ATOM      2  O   UNL     1       2.641   0.798  -0.518  1.00  0.00    -0.458 OA
BRANCH   2   3
ATOM      3  C   UNL     1       2.691  -0.499  -0.937  1.00  0.00     0.361 C 
ATOM      4  O   UNL     1       2.139  -0.852  -1.975  1.00  0.00    -0.245 OA
BRANCH   3   5
ATOM      5  C   UNL     1       3.249  -1.481   0.095  1.00  0.00     0.386 C 
BRANCH   5   6
ATOM      6  N   UNL     1       4.350  -2.318  -0.426  1.00  0.00    -0.323 N 
ATOM      7  C   UNL     1       5.693  -1.759  -0.121  1.00  0.00     0.284 C 
ATOM      8  C   UNL     1       4.291  -3.682   0.169  1.00  0.00     0.284 C 
ATOM      9  H   UNL     1       4.224  -2.347  -1.437  1.00  0.00     0.348 HD
ATOM     10  C   UNL     1       6.092  -1.743   1.378  1.00  0.00     0.179 C 
ATOM     11  C   UNL     1       4.673  -3.771   1.670  1.00  0.00     0.179 C 
ATOM     12  N   UNL     1       5.938  -3.088   1.914  1.00  0.00    -0.344 N 
BRANCH  12  13
ATOM     13  C   UNL     1       6.989  -3.620   2.617  1.00  0.00     0.147 A 
ATOM     14  N   UNL     1       7.480  -2.850   3.624  1.00  0.00    -0.237 NA
ATOM     15  C   UNL     1       7.620  -4.826   2.273  1.00  0.00     0.084 A 
ATOM     16  C   UNL     1       8.582  -3.270   4.291  1.00  0.00     0.126 A 
ATOM     17  C   UNL     1       8.765  -5.226   2.965  1.00  0.00     0.039 A 
ATOM     18  Cl  UNL     1       7.142  -5.804   0.930  1.00  0.00    -0.080 Cl
ATOM     19  C   UNL     1       9.270  -4.433   3.994  1.00  0.00     0.075 A 
BRANCH  19  20
ATOM     20  C   UNL     1      10.513  -4.785   4.747  1.00  0.00     0.417 C 
ATOM     21  F   UNL     1      11.439  -3.788   4.715  1.00  0.00    -0.166 F 
ATOM     22  F   UNL     1      10.273  -5.033   6.062  1.00  0.00    -0.166 F 
ATOM     23  F   UNL     1      11.141  -5.892   4.263  1.00  0.00    -0.166 F 
ENDBRANCH  19  20
ENDBRANCH  12  13
ENDBRANCH   5   6
ENDBRANCH   3   5
ENDBRANCH   2   3
ENDBRANCH   1   2
BRANCH   1  24
ATOM     24  C   UNL     1       4.096   2.061   1.036  1.00  0.00     0.275 C 
BRANCH  24  25
ATOM     25  O   UNL     1       3.799   1.089   2.053  1.00  0.00    -0.458 OA
BRANCH  25  26
ATOM     26  C   UNL     1       2.511   1.109   2.482  1.00  0.00     0.338 C 
ATOM     27  O   UNL     1       1.669   1.949   2.209  1.00  0.00    -0.246 OA
BRANCH  26  28
ATOM     28  C   UNL     1       2.187  -0.140   3.210  1.00  0.00     0.060 A 
ATOM     29  C   UNL     1       0.907  -0.677   3.024  1.00  0.00     0.016 A 
ATOM     30  C   UNL     1       3.092  -0.778   4.064  1.00  0.00     0.016 A 
ATOM     31  C   UNL     1       0.501  -1.798   3.748  1.00  0.00     0.010 A 
ATOM     32  C   UNL     1       2.687  -1.910   4.786  1.00  0.00     0.010 A 
ATOM     33  C   UNL     1       1.371  -2.392   4.673  1.00  0.00    -0.014 A 
BRANCH  33  34
ATOM     34  C   UNL     1       0.816  -3.363   5.654  1.00  0.00     0.031 A 
ATOM     35  C   UNL     1       0.438  -2.864   7.024  1.00  0.00     0.074 A 
ATOM     36  C   UNL     1       0.571  -4.644   5.325  1.00  0.00     0.049 A 
ATOM     37  N   UNL     1      -0.185  -3.484   7.995  1.00  0.00    -0.248 NA
ATOM     38  C   UNL     1       0.812  -1.477   7.342  1.00  0.00     0.031 C 
ATOM     39  C   UNL     1       0.876  -5.264   4.038  1.00  0.00     0.029 A 
ATOM     40  N   UNL     1      -0.010  -5.653   6.057  1.00  0.00    -0.354 N 
ATOM     41  C   UNL     1      -0.289  -2.560   9.027  1.00  0.00     0.074 A 
ATOM     42  C   UNL     1       0.384  -1.357   8.589  1.00  0.00     0.031 C 
ATOM     43  C   UNL     1       0.471  -6.548   4.067  1.00  0.00     0.029 A 
ATOM     44  C   UNL     1      -0.120  -6.839   5.374  1.00  0.00     0.049 A 
ATOM     45  H   UNL     1      -0.318  -5.535   6.984  1.00  0.00     0.167 HD
ATOM     46  C   UNL     1      -0.909  -2.686  10.224  1.00  0.00     0.037 A 
ATOM     47  C   UNL     1      -0.650  -8.018   5.756  1.00  0.00     0.037 A 
ATOM     48  C   UNL     1      -1.581  -3.874  10.675  1.00  0.00     0.049 A 
ATOM     49  C   UNL     1      -1.293  -8.149   7.115  1.00  0.00     0.074 A 
ATOM     50  C   UNL     1      -2.261  -4.083  11.863  1.00  0.00     0.029 A 
ATOM     51  N   UNL     1      -1.648  -5.060   9.962  1.00  0.00    -0.354 N 
ATOM     52  N   UNL     1      -1.459  -7.244   8.049  1.00  0.00    -0.248 NA
ATOM     53  C   UNL     1      -1.844  -9.469   7.462  1.00  0.00     0.031 C 
ATOM     54  C   UNL     1      -2.700  -5.411  11.888  1.00  0.00     0.029 A 
ATOM     55  C   UNL     1      -2.338  -6.013  10.694  1.00  0.00     0.049 A 
ATOM     56  H   UNL     1      -1.262  -5.204   9.068  1.00  0.00     0.167 HD
ATOM     57  C   UNL     1      -2.172  -7.869   9.066  1.00  0.00     0.074 A 
ATOM     58  C   UNL     1      -2.410  -9.229   8.636  1.00  0.00     0.031 C 
ATOM     59  C   UNL     1      -2.597  -7.357  10.248  1.00  0.00     0.037 A 
BRANCH  46  60
ATOM     60  C   UNL     1      -0.880  -1.497  11.138  1.00  0.00     0.064 A 
ATOM     61  C   UNL     1      -1.635  -0.346  10.867  1.00  0.00     0.173 A 
ATOM     62  C   UNL     1      -0.103  -1.516  12.305  1.00  0.00     0.173 A 
ATOM     63  F   UNL     1      -2.381  -0.274   9.754  1.00  0.00    -0.203 F 
ATOM     64  C   UNL     1      -1.590   0.755  11.717  1.00  0.00     0.198 A 
ATOM     65  C   UNL     1      -0.082  -0.423  13.167  1.00  0.00     0.198 A 
ATOM     66  F   UNL     1       0.634  -2.594  12.610  1.00  0.00    -0.203 F 
ATOM     67  F   UNL     1      -2.278   1.864  11.412  1.00  0.00    -0.200 F 
ATOM     68  C   UNL     1      -0.818   0.714  12.868  1.00  0.00     0.200 A 
ATOM     69  F   UNL     1       0.656  -0.468  14.285  1.00  0.00    -0.200 F 
ATOM     70  F   UNL     1      -0.776   1.774  13.687  1.00  0.00    -0.200 F 
ENDBRANCH  46  60
BRANCH  47  71
ATOM     71  C   UNL     1      -0.635  -9.180   4.829  1.00  0.00     0.064 A 
ATOM     72  C   UNL     1      -1.823  -9.671   4.268  1.00  0.00     0.173 A 
ATOM     73  C   UNL     1       0.556  -9.856   4.531  1.00  0.00     0.173 A 
ATOM     74  F   UNL     1      -2.992  -9.075   4.548  1.00  0.00    -0.203 F 
ATOM     75  C   UNL     1      -1.823 -10.811   3.467  1.00  0.00     0.198 A 
ATOM     76  C   UNL     1       0.558 -10.981   3.709  1.00  0.00     0.198 A 
ATOM     77  F   UNL     1       1.718  -9.428   5.046  1.00  0.00    -0.203 F 
ATOM     78  F   UNL     1      -2.980 -11.294   2.993  1.00  0.00    -0.200 F 
ATOM     79  C   UNL     1      -0.633 -11.464   3.186  1.00  0.00     0.200 A 
ATOM     80  F   UNL     1       1.711 -11.606   3.436  1.00  0.00    -0.200 F 
ATOM     81  F   UNL     1      -0.634 -12.566   2.425  1.00  0.00    -0.200 F 
ENDBRANCH  47  71
BRANCH  59  82
ATOM     82  C   UNL     1      -3.419  -8.244  11.139  1.00  0.00     0.064 A 
ATOM     83  C   UNL     1      -2.860  -9.333  11.825  1.00  0.00     0.173 A 
ATOM     84  C   UNL     1      -4.782  -7.973  11.343  1.00  0.00     0.173 A 
ATOM     85  F   UNL     1      -1.565  -9.642  11.658  1.00  0.00    -0.203 F 
ATOM     86  C   UNL     1      -3.640 -10.133  12.657  1.00  0.00     0.198 A 
ATOM     87  C   UNL     1      -5.551  -8.756  12.199  1.00  0.00     0.198 A 
ATOM     88  F   UNL     1      -5.366  -6.938  10.719  1.00  0.00    -0.203 F 
ATOM     89  F   UNL     1      -3.095 -11.197  13.263  1.00  0.00    -0.200 F 
ATOM     90  C   UNL     1      -4.982  -9.841  12.848  1.00  0.00     0.200 A 
ATOM     91  F   UNL     1      -6.844  -8.463  12.394  1.00  0.00    -0.200 F 
ATOM     92  F   UNL     1      -5.729 -10.608  13.654  1.00  0.00    -0.200 F 
ENDBRANCH  59  82
ENDBRANCH  33  34
ENDBRANCH  26  28
ENDBRANCH  25  26
ENDBRANCH  24  25
ENDBRANCH   1  24
TORSDOF 14
