REMARK SMILES O=C(COc1ccc(/C=N/NC(=O)C(=O)Nc2ccc(F)cc2)cc1)OCCOC(=O)c1ccc(-c2c3nc(c(-c4c(F)c(F)c(F)c(F)c4F)c4ccc([nH]4)c(-c4c(F)c(F)c(F)c(F)c4F)c4nc(c(-c5c(F)c(F)c(F)c(F)c5F)c5ccc2[nH]5)C=C4)C=C3)cc1
REMARK SMILES IDX 1 1 2 2 3 3 4 4 5 5 6 6 25 7 7 8 24 9 8 10 9 11 10 12 11 13
REMARK SMILES IDX 12 14 13 16 14 17 15 18 16 19 17 21 18 22 23 23 19 24 22 25
REMARK SMILES IDX 20 26 21 27 26 28 27 29 28 30 29 31 30 32 31 33 32 34 33 35
REMARK SMILES IDX 94 36 34 37 93 38 35 39 36 40 37 41 87 42 38 43 92 44 86 45
REMARK SMILES IDX 88 46 39 47 91 48 85 49 84 50 40 52 72 53 52 54 71 55 53 56
REMARK SMILES IDX 56 57 70 58 89 59 54 60 55 61 69 63 90 64 57 65 41 66 42 67
REMARK SMILES IDX 50 68 43 69 44 70 48 71 51 72 45 73 46 74 49 75 47 76 73 77
REMARK SMILES IDX 74 78 82 79 75 80 76 81 80 82 83 83 77 84 78 85 81 86 79 87
REMARK SMILES IDX 58 88 59 89 67 90 60 91 61 92 65 93 68 94 62 95 63 96 66 97
REMARK SMILES IDX 64 98
REMARK H PARENT 11 15 16 20 88 51 56 62
REMARK Flexibility Score: inf
ROOT
ATOM      1  O   UNL     1       1.238   0.088  -0.555  1.00  0.00    -0.248 OA
ATOM      2  C   UNL     1       2.459   0.014  -0.431  1.00  0.00     0.344 C 
ENDROOT
BRANCH   2   3
ATOM      3  C   UNL     1       3.271  -1.003  -1.227  1.00  0.00     0.351 C 
BRANCH   3   4
ATOM      4  O   UNL     1       4.234  -0.451  -2.117  1.00  0.00    -0.482 OA
BRANCH   4   5
ATOM      5  C   UNL     1       3.655  -0.200  -3.328  1.00  0.00     0.120 A 
ATOM      6  C   UNL     1       3.894  -1.087  -4.379  1.00  0.00     0.047 A 
ATOM      7  C   UNL     1       2.869   0.938  -3.502  1.00  0.00     0.047 A 
ATOM      8  C   UNL     1       3.303  -0.856  -5.619  1.00  0.00     0.013 A 
ATOM      9  C   UNL     1       2.292   1.179  -4.740  1.00  0.00     0.013 A 
ATOM     10  C   UNL     1       2.514   0.282  -5.788  1.00  0.00    -0.005 A 
BRANCH  10  11
ATOM     11  C   UNL     1       1.911   0.612  -7.079  1.00  0.00     0.141 C 
ATOM     12  N   UNL     1       1.403  -0.280  -7.867  1.00  0.00    -0.180 NA
BRANCH  12  13
ATOM     13  N   UNL     1       0.788   0.211  -8.981  1.00  0.00    -0.239 N 
ATOM     14  C   UNL     1      -0.045   1.313  -9.132  1.00  0.00     0.329 C 
ATOM     15  H   UNL     1       0.962  -0.294  -9.808  1.00  0.00     0.194 HD
ATOM     16  O   UNL     1      -0.187   1.782 -10.259  1.00  0.00    -0.262 OA
BRANCH  14  17
ATOM     17  C   UNL     1      -0.780   1.938  -7.894  1.00  0.00     0.315 C 
ATOM     18  O   UNL     1      -0.481   1.662  -6.736  1.00  0.00    -0.263 OA
ATOM     19  N   UNL     1      -1.693   2.958  -8.088  1.00  0.00    -0.318 N 
ATOM     20  H   UNL     1      -1.805   3.560  -7.317  1.00  0.00     0.170 HD
BRANCH  19  21
ATOM     21  C   UNL     1      -2.483   3.275  -9.197  1.00  0.00     0.041 A 
ATOM     22  C   UNL     1      -2.893   4.605  -9.341  1.00  0.00     0.029 A 
ATOM     23  C   UNL     1      -2.924   2.313 -10.110  1.00  0.00     0.029 A 
ATOM     24  C   UNL     1      -3.665   4.984 -10.440  1.00  0.00     0.041 A 
ATOM     25  C   UNL     1      -3.708   2.691 -11.201  1.00  0.00     0.041 A 
ATOM     26  C   UNL     1      -4.058   4.024 -11.364  1.00  0.00     0.123 A 
ATOM     27  F   UNL     1      -4.793   4.389 -12.422  1.00  0.00    -0.207 F 
ENDBRANCH  19  21
ENDBRANCH  14  17
ENDBRANCH  12  13
ENDBRANCH  10  11
ENDBRANCH   4   5
ENDBRANCH   3   4
ENDBRANCH   2   3
BRANCH   2  28
ATOM     28  O   UNL     1       3.114   0.858   0.402  1.00  0.00    -0.460 OA
BRANCH  28  29
ATOM     29  C   UNL     1       4.466   0.649   0.864  1.00  0.00     0.274 C 
BRANCH  29  30
ATOM     30  C   UNL     1       4.476  -0.158   2.164  1.00  0.00     0.275 C 
BRANCH  30  31
ATOM     31  O   UNL     1       4.072  -1.514   1.896  1.00  0.00    -0.458 OA
BRANCH  31  32
ATOM     32  C   UNL     1       2.781  -1.821   2.188  1.00  0.00     0.338 C 
ATOM     33  O   UNL     1       1.980  -1.128   2.779  1.00  0.00    -0.246 OA
BRANCH  32  34
ATOM     34  C   UNL     1       2.430  -3.077   1.482  1.00  0.00     0.060 A 
ATOM     35  C   UNL     1       1.174  -3.164   0.866  1.00  0.00     0.016 A 
ATOM     36  C   UNL     1       3.332  -4.142   1.393  1.00  0.00     0.016 A 
ATOM     37  C   UNL     1       0.801  -4.334   0.198  1.00  0.00     0.010 A 
ATOM     38  C   UNL     1       2.956  -5.312   0.732  1.00  0.00     0.010 A 
ATOM     39  C   UNL     1       1.676  -5.427   0.161  1.00  0.00    -0.014 A 
BRANCH  39  40
ATOM     40  C   UNL     1       1.199  -6.760  -0.279  1.00  0.00     0.031 A 
ATOM     41  C   UNL     1       0.697  -7.712   0.771  1.00  0.00     0.074 A 
ATOM     42  C   UNL     1       1.236  -7.137  -1.568  1.00  0.00     0.049 A 
ATOM     43  N   UNL     1       0.310  -8.956   0.652  1.00  0.00    -0.248 NA
ATOM     44  C   UNL     1       0.632  -7.188   2.145  1.00  0.00     0.031 C 
ATOM     45  C   UNL     1       1.672  -6.303  -2.684  1.00  0.00     0.029 A 
ATOM     46  N   UNL     1       0.912  -8.339  -2.149  1.00  0.00    -0.354 N 
ATOM     47  C   UNL     1      -0.041  -9.362   1.932  1.00  0.00     0.074 A 
ATOM     48  C   UNL     1       0.208  -8.246   2.818  1.00  0.00     0.031 C 
ATOM     49  C   UNL     1       1.607  -7.026  -3.817  1.00  0.00     0.029 A 
ATOM     50  C   UNL     1       1.150  -8.379  -3.500  1.00  0.00     0.049 A 
ATOM     51  H   UNL     1       0.545  -9.100  -1.643  1.00  0.00     0.167 HD
ATOM     52  C   UNL     1      -0.534 -10.556   2.335  1.00  0.00     0.037 A 
ATOM     53  C   UNL     1       1.029  -9.399  -4.372  1.00  0.00     0.037 A 
ATOM     54  C   UNL     1      -0.775 -11.673   1.463  1.00  0.00     0.049 A 
ATOM     55  C   UNL     1       0.544 -10.743  -3.888  1.00  0.00     0.074 A 
ATOM     56  C   UNL     1      -1.285 -12.919   1.778  1.00  0.00     0.029 A 
ATOM     57  N   UNL     1      -0.511 -11.677   0.102  1.00  0.00    -0.354 N 
ATOM     58  N   UNL     1       0.182 -11.110  -2.683  1.00  0.00    -0.248 NA
ATOM     59  C   UNL     1       0.450 -11.816  -4.891  1.00  0.00     0.031 C 
ATOM     60  C   UNL     1      -1.291 -13.694   0.613  1.00  0.00     0.029 A 
ATOM     61  C   UNL     1      -0.827 -12.914  -0.434  1.00  0.00     0.049 A 
ATOM     62  H   UNL     1      -0.153 -10.915  -0.407  1.00  0.00     0.167 HD
ATOM     63  C   UNL     1      -0.213 -12.438  -2.788  1.00  0.00     0.074 A 
ATOM     64  C   UNL     1      -0.049 -12.815  -4.176  1.00  0.00     0.031 C 
ATOM     65  C   UNL     1      -0.675 -13.269  -1.822  1.00  0.00     0.037 A 
BRANCH  52  66
ATOM     66  C   UNL     1      -0.822 -10.716   3.797  1.00  0.00     0.064 A 
ATOM     67  C   UNL     1      -1.915 -10.080   4.403  1.00  0.00     0.173 A 
ATOM     68  C   UNL     1       0.004 -11.517   4.599  1.00  0.00     0.173 A 
ATOM     69  F   UNL     1      -2.721  -9.288   3.680  1.00  0.00    -0.203 F 
ATOM     70  C   UNL     1      -2.156 -10.218   5.767  1.00  0.00     0.198 A 
ATOM     71  C   UNL     1      -0.255 -11.673   5.958  1.00  0.00     0.198 A 
ATOM     72  F   UNL     1       1.062 -12.144   4.066  1.00  0.00    -0.203 F 
ATOM     73  F   UNL     1      -3.177  -9.562   6.335  1.00  0.00    -0.200 F 
ATOM     74  C   UNL     1      -1.329 -11.018   6.542  1.00  0.00     0.200 A 
ATOM     75  F   UNL     1       0.540 -12.451   6.705  1.00  0.00    -0.200 F 
ATOM     76  F   UNL     1      -1.562 -11.149   7.855  1.00  0.00    -0.200 F 
ENDBRANCH  52  66
BRANCH  53  77
ATOM     77  C   UNL     1       1.379  -9.199  -5.802  1.00  0.00     0.064 A 
ATOM     78  C   UNL     1       0.388  -9.188  -6.792  1.00  0.00     0.173 A 
ATOM     79  C   UNL     1       2.712  -9.047  -6.210  1.00  0.00     0.173 A 
ATOM     80  F   UNL     1      -0.898  -9.362  -6.453  1.00  0.00    -0.203 F 
ATOM     81  C   UNL     1       0.718  -9.050  -8.139  1.00  0.00     0.198 A 
ATOM     82  C   UNL     1       3.039  -8.885  -7.554  1.00  0.00     0.198 A 
ATOM     83  F   UNL     1       3.698  -9.058  -5.301  1.00  0.00    -0.203 F 
ATOM     84  F   UNL     1      -0.245  -9.090  -9.070  1.00  0.00    -0.200 F 
ATOM     85  C   UNL     1       2.042  -8.894  -8.518  1.00  0.00     0.200 A 
ATOM     86  F   UNL     1       4.320  -8.730  -7.916  1.00  0.00    -0.200 F 
ATOM     87  F   UNL     1       2.360  -8.764  -9.814  1.00  0.00    -0.200 F 
ENDBRANCH  53  77
BRANCH  65  88
ATOM     88  C   UNL     1      -1.082 -14.655  -2.230  1.00  0.00     0.064 A 
ATOM     89  C   UNL     1      -0.134 -15.640  -2.538  1.00  0.00     0.173 A 
ATOM     90  C   UNL     1      -2.438 -15.017  -2.248  1.00  0.00     0.173 A 
ATOM     91  F   UNL     1       1.173 -15.340  -2.547  1.00  0.00    -0.203 F 
ATOM     92  C   UNL     1      -0.530 -16.935  -2.865  1.00  0.00     0.198 A 
ATOM     93  C   UNL     1      -2.829 -16.318  -2.551  1.00  0.00     0.198 A 
ATOM     94  F   UNL     1      -3.383 -14.112  -1.953  1.00  0.00    -0.203 F 
ATOM     95  F   UNL     1       0.391 -17.853  -3.189  1.00  0.00    -0.200 F 
ATOM     96  C   UNL     1      -1.875 -17.275  -2.863  1.00  0.00     0.200 A 
ATOM     97  F   UNL     1      -4.128 -16.648  -2.535  1.00  0.00    -0.200 F 
ATOM     98  F   UNL     1      -2.252 -18.524  -3.166  1.00  0.00    -0.200 F 
ENDBRANCH  65  88
ENDBRANCH  39  40
ENDBRANCH  32  34
ENDBRANCH  31  32
ENDBRANCH  30  31
ENDBRANCH  29  30
ENDBRANCH  28  29
ENDBRANCH   2  28
TORSDOF 17
