REMARK SMILES CC(=O)Nc1ccc(N2CCCCCC2)c(C(=O)OCCOC(=O)c2ccc(-c3c4nc(c(-c5c(F)c(F)c(F)c(F)c5F)c5ccc([nH]5)c(-c5c(F)c(F)c(F)c(F)c5F)c5nc(c(-c6c(F)c(F)c(F)c(F)c6F)c6ccc3[nH]6)C=C5)C=C4)cc2)c1
REMARK SMILES IDX 19 1 17 2 18 3 16 4 5 5 6 6 88 7 7 8 8 9 4 10 1 11 2 12 3 13
REMARK SMILES IDX 9 15 10 16 11 17 15 19 14 20 13 21 12 22 20 24 21 25 22 26
REMARK SMILES IDX 23 27 24 28 25 29 26 30 87 31 27 32 86 33 28 34 29 35 30 36
REMARK SMILES IDX 80 37 31 38 85 39 79 40 81 41 32 42 84 43 78 44 77 45 33 47
REMARK SMILES IDX 65 48 45 49 64 50 46 51 49 52 63 53 82 54 47 55 48 56 62 58
REMARK SMILES IDX 83 59 50 60 34 61 35 62 43 63 36 64 37 65 41 66 44 67 38 68
REMARK SMILES IDX 39 69 42 70 40 71 66 72 67 73 75 74 68 75 69 76 73 77 76 78
REMARK SMILES IDX 70 79 71 80 74 81 72 82 51 83 52 84 60 85 53 86 54 87 58 88
REMARK SMILES IDX 61 89 55 90 56 91 59 92 57 93
REMARK H PARENT 4 14 81 46 49 57
REMARK Flexibility Score: 80.00
ROOT
ATOM      1  O   UNL     1       5.220  -0.204   1.124  1.00  0.00    -0.458 OA
ENDROOT
BRANCH   1   2
ATOM      2  C   UNL     1       4.467  -0.594   2.199  1.00  0.00     0.340 C 
ATOM      3  O   UNL     1       4.386  -1.737   2.622  1.00  0.00    -0.246 OA
BRANCH   2   4
ATOM      4  C   UNL     1       3.639   0.538   2.701  1.00  0.00     0.085 A 
ATOM      5  C   UNL     1       1.562   1.673   2.029  1.00  0.00     0.042 A 
ATOM      6  C   UNL     1       1.414   2.124   3.333  1.00  0.00     0.028 A 
ATOM      7  C   UNL     1       2.700   0.939   1.710  1.00  0.00     0.044 A 
ATOM      8  C   UNL     1       2.385   1.833   4.296  1.00  0.00     0.029 A 
ATOM      9  C   UNL     1       3.502   0.994   4.044  1.00  0.00     0.051 A 
BRANCH   5  10
ATOM     10  N   UNL     1       0.547   2.011   1.121  1.00  0.00    -0.326 N 
ATOM     11  C   UNL     1       0.658   0.136  -0.520  1.00  0.00     0.114 C 
ATOM     12  C   UNL     1       0.186   1.497  -0.091  1.00  0.00     0.221 C 
ATOM     13  O   UNL     1      -0.596   2.139  -0.796  1.00  0.00    -0.275 OA
ATOM     14  H   UNL     1      -0.014   2.764   1.415  1.00  0.00     0.169 HD
ENDBRANCH   5  10
BRANCH   9  15
ATOM     15  N   UNL     1       4.006   0.425   5.254  1.00  0.00    -0.371 N 
BRANCH  15  16
ATOM     16  C   UNL     1       2.813  -0.721   5.625  1.00  0.00     0.116 C 
BRANCH  16  17
ATOM     17  C   UNL     1       2.562  -1.320   7.048  1.00  0.00     0.021 CG0
ATOM     18  G   UNL     1       3.540  -2.375   7.765  1.00  0.00     0.000 G0
ENDBRANCH  16  17
ENDBRANCH  15  16
BRANCH  15  19
ATOM     19  C   UNL     1       5.813   0.425   5.821  1.00  0.00     0.116 C 
BRANCH  19  20
ATOM     20  C   UNL     1       6.518  -1.388   6.867  1.00  0.00     0.021 C 
BRANCH  20  21
ATOM     21  C   UNL     1       5.214  -2.417   7.870  1.00  0.00     0.002 C 
BRANCH  21  22
ATOM     22  C   UNL     1       3.540  -2.375   7.765  1.00  0.00     0.002 CG0
ATOM     23  G   UNL     1       2.562  -1.320   7.048  1.00  0.00     0.000 G0
ENDBRANCH  21  22
ENDBRANCH  20  21
ENDBRANCH  19  20
ENDBRANCH  15  19
ENDBRANCH   9  15
ENDBRANCH   2   4
ENDBRANCH   1   2
BRANCH   1  24
ATOM     24  C   UNL     1       6.108  -1.192   0.530  1.00  0.00     0.275 C 
BRANCH  24  25
ATOM     25  C   UNL     1       7.507  -1.184   1.162  1.00  0.00     0.275 C 
BRANCH  25  26
ATOM     26  O   UNL     1       7.425  -1.730   2.498  1.00  0.00    -0.458 OA
BRANCH  26  27
ATOM     27  C   UNL     1       7.022  -0.767   3.345  1.00  0.00     0.338 C 
ATOM     28  O   UNL     1       6.989   0.426   3.051  1.00  0.00    -0.246 OA
BRANCH  27  29
ATOM     29  C   UNL     1       6.801  -1.146   4.758  1.00  0.00     0.060 A 
ATOM     30  C   UNL     1       5.192  -1.364   5.570  1.00  0.00     0.016 A 
ATOM     31  C   UNL     1       8.009  -0.234   5.599  1.00  0.00     0.016 A 
ATOM     32  C   UNL     1       4.945  -0.412   7.246  1.00  0.00     0.010 A 
ATOM     33  C   UNL     1       7.795   0.503   7.105  1.00  0.00     0.010 A 
ATOM     34  C   UNL     1       6.368   0.359   8.027  1.00  0.00    -0.014 A 
BRANCH  34  35
ATOM     35  C   UNL     1       6.697   0.093   9.530  1.00  0.00     0.031 A 
ATOM     36  C   UNL     1       6.869   1.287  10.394  1.00  0.00     0.074 A 
ATOM     37  C   UNL     1       7.094  -1.084  10.132  1.00  0.00     0.049 A 
ATOM     38  N   UNL     1       6.756   1.377  11.687  1.00  0.00    -0.248 NA
ATOM     39  C   UNL     1       7.305   2.517   9.719  1.00  0.00     0.031 C 
ATOM     40  C   UNL     1       7.535  -2.356   9.540  1.00  0.00     0.029 A 
ATOM     41  N   UNL     1       6.822  -1.502  11.435  1.00  0.00    -0.354 N 
ATOM     42  C   UNL     1       7.096   2.679  11.988  1.00  0.00     0.074 A 
ATOM     43  C   UNL     1       7.451   3.336  10.748  1.00  0.00     0.031 C 
ATOM     44  C   UNL     1       7.062  -3.385  10.259  1.00  0.00     0.029 A 
ATOM     45  C   UNL     1       6.539  -2.871  11.501  1.00  0.00     0.049 A 
ATOM     46  H   UNL     1       6.829  -0.903  12.217  1.00  0.00     0.167 HD
ATOM     47  C   UNL     1       7.120   3.255  13.208  1.00  0.00     0.037 A 
ATOM     48  C   UNL     1       5.905  -3.610  12.441  1.00  0.00     0.037 A 
ATOM     49  C   UNL     1       6.879   2.537  14.427  1.00  0.00     0.049 A 
ATOM     50  C   UNL     1       5.766  -2.932  13.774  1.00  0.00     0.074 A 
ATOM     51  C   UNL     1       6.946   2.994  15.727  1.00  0.00     0.029 A 
ATOM     52  N   UNL     1       6.562   1.185  14.491  1.00  0.00    -0.354 N 
ATOM     53  N   UNL     1       5.936  -1.669  14.073  1.00  0.00    -0.248 NA
ATOM     54  C   UNL     1       5.480  -3.795  14.927  1.00  0.00     0.031 C 
ATOM     55  C   UNL     1       6.734   1.906  16.580  1.00  0.00     0.029 A 
ATOM     56  C   UNL     1       6.447   0.788  15.812  1.00  0.00     0.049 A 
ATOM     57  H   UNL     1       6.438   0.596  13.712  1.00  0.00     0.167 HD
ATOM     58  C   UNL     1       5.837  -1.593  15.449  1.00  0.00     0.074 A 
ATOM     59  C   UNL     1       5.484  -2.918  15.918  1.00  0.00     0.031 C 
ATOM     60  C   UNL     1       6.084  -0.534  16.255  1.00  0.00     0.037 A 
BRANCH  47  61
ATOM     61  C   UNL     1       7.497   4.697  13.240  1.00  0.00     0.064 A 
ATOM     62  C   UNL     1       6.657   5.683  12.696  1.00  0.00     0.173 A 
ATOM     63  C   UNL     1       8.745   5.090  13.738  1.00  0.00     0.173 A 
ATOM     64  F   UNL     1       5.472   5.343  12.165  1.00  0.00    -0.203 F 
ATOM     65  C   UNL     1       7.074   7.006  12.616  1.00  0.00     0.198 A 
ATOM     66  C   UNL     1       9.143   6.420  13.688  1.00  0.00     0.198 A 
ATOM     67  F   UNL     1       9.591   4.178  14.241  1.00  0.00    -0.203 F 
ATOM     68  F   UNL     1       6.294   7.917  12.017  1.00  0.00    -0.200 F 
ATOM     69  C   UNL     1       8.314   7.375  13.117  1.00  0.00     0.200 A 
ATOM     70  F   UNL     1      10.344   6.774  14.165  1.00  0.00    -0.200 F 
ATOM     71  F   UNL     1       8.721   8.648  13.026  1.00  0.00    -0.200 F 
ENDBRANCH  47  61
BRANCH  48  72
ATOM     72  C   UNL     1       5.415  -5.027  12.259  1.00  0.00     0.064 A 
ATOM     73  C   UNL     1       4.096  -5.374  12.628  1.00  0.00     0.173 A 
ATOM     74  C   UNL     1       6.221  -6.087  11.816  1.00  0.00     0.173 A 
ATOM     75  F   UNL     1       3.260  -4.432  13.094  1.00  0.00    -0.203 F 
ATOM     76  C   UNL     1       3.635  -6.695  12.599  1.00  0.00     0.198 A 
ATOM     77  C   UNL     1       5.736  -7.397  11.714  1.00  0.00     0.198 A 
ATOM     78  F   UNL     1       7.511  -5.883  11.515  1.00  0.00    -0.203 F 
ATOM     79  F   UNL     1       2.413  -6.991  13.066  1.00  0.00    -0.200 F 
ATOM     80  C   UNL     1       4.453  -7.705  12.128  1.00  0.00     0.200 A 
ATOM     81  F   UNL     1       6.533  -8.366  11.242  1.00  0.00    -0.200 F 
ATOM     82  F   UNL     1       4.019  -8.973  12.102  1.00  0.00    -0.200 F 
ENDBRANCH  48  72
BRANCH  60  83
ATOM     83  C   UNL     1       5.957  -0.763  17.727  1.00  0.00     0.064 A 
ATOM     84  C   UNL     1       6.864  -1.567  18.433  1.00  0.00     0.173 A 
ATOM     85  C   UNL     1       4.936  -0.126  18.446  1.00  0.00     0.173 A 
ATOM     86  F   UNL     1       7.847  -2.212  17.785  1.00  0.00    -0.203 F 
ATOM     87  C   UNL     1       6.737  -1.744  19.807  1.00  0.00     0.198 A 
ATOM     88  C   UNL     1       4.838  -0.272  19.823  1.00  0.00     0.198 A 
ATOM     89  F   UNL     1       4.048   0.654  17.811  1.00  0.00    -0.203 F 
ATOM     90  F   UNL     1       7.579  -2.559  20.456  1.00  0.00    -0.200 F 
ATOM     91  C   UNL     1       5.732  -1.087  20.502  1.00  0.00     0.200 A 
ATOM     92  F   UNL     1       3.879   0.379  20.495  1.00  0.00    -0.200 F 
ATOM     93  F   UNL     1       5.621  -1.245  21.827  1.00  0.00    -0.200 F 
ENDBRANCH  60  83
ENDBRANCH  34  35
ENDBRANCH  27  29
ENDBRANCH  26  27
ENDBRANCH  25  26
ENDBRANCH  24  25
ENDBRANCH   1  24
TORSDOF 13
