REMARK SMILES O=C(CCC(=O)OCCOC(=O)c1ccc(-c2c3nc(c(-c4c(F)c(F)c(F)c(F)c4F)c4ccc([nH]4)c(-c4c(F)c(F)c(F)c(F)c4F)c4nc(c(-c5c(F)c(F)c(F)c(F)c5F)c5ccc2[nH]5)C=C4)C=C3)cc1)Nc1ncccn1
REMARK SMILES IDX 8 1 7 2 5 3 6 4 4 5 3 6 2 7 1 8 76 9 77 11 78 12 82 13 79 14
REMARK SMILES IDX 81 15 80 16 9 17 10 18 11 19 12 20 13 21 14 22 75 23 15 24
REMARK SMILES IDX 74 25 16 26 17 27 18 28 68 29 19 30 73 31 67 32 69 33 20 34
REMARK SMILES IDX 72 35 66 36 65 37 21 39 53 40 33 41 52 42 34 43 37 44 51 45
REMARK SMILES IDX 70 46 35 47 36 48 50 50 71 51 38 52 22 53 23 54 31 55 24 56
REMARK SMILES IDX 25 57 29 58 32 59 26 60 27 61 30 62 28 63 54 64 55 65 63 66
REMARK SMILES IDX 56 67 57 68 61 69 64 70 58 71 59 72 62 73 60 74 39 75 40 76
REMARK SMILES IDX 48 77 41 78 42 79 46 80 49 81 43 82 44 83 47 84 45 85
REMARK H PARENT 76 10 69 38 37 49
REMARK Flexibility Score: inf
ROOT
ATOM      1  C   UNL     1       5.681  -0.244   2.339  1.00  0.00     0.274 C 
ENDROOT
BRANCH   1   2
ATOM      2  O   UNL     1       4.556   0.268   1.591  1.00  0.00    -0.462 OA
BRANCH   2   3
ATOM      3  C   UNL     1       4.590   1.554   1.163  1.00  0.00     0.306 C 
ATOM      4  O   UNL     1       5.518   2.327   1.360  1.00  0.00    -0.252 OA
BRANCH   3   5
ATOM      5  C   UNL     1       3.305   1.956   0.461  1.00  0.00     0.132 C 
BRANCH   5   6
ATOM      6  C   UNL     1       2.799   1.002  -0.623  1.00  0.00     0.112 C 
BRANCH   6   7
ATOM      7  C   UNL     1       1.826  -0.034  -0.080  1.00  0.00     0.227 C 
ATOM      8  O   UNL     1       0.624   0.062  -0.301  1.00  0.00    -0.275 OA
ATOM      9  N   UNL     1       2.446  -0.957   0.713  1.00  0.00    -0.295 N 
ATOM     10  H   UNL     1       3.430  -0.968   0.688  1.00  0.00     0.173 HD
BRANCH   9  11
ATOM     11  C   UNL     1       1.842  -1.876   1.544  1.00  0.00     0.229 A 
ATOM     12  N   UNL     1       2.595  -2.198   2.612  1.00  0.00    -0.221 NA
ATOM     13  N   UNL     1       0.613  -2.341   1.315  1.00  0.00    -0.221 NA
ATOM     14  C   UNL     1       2.012  -2.969   3.546  1.00  0.00     0.117 A 
ATOM     15  C   UNL     1       0.102  -3.169   2.244  1.00  0.00     0.117 A 
ATOM     16  C   UNL     1       0.753  -3.497   3.408  1.00  0.00     0.040 A 
ENDBRANCH   9  11
ENDBRANCH   6   7
ENDBRANCH   5   6
ENDBRANCH   3   5
ENDBRANCH   2   3
ENDBRANCH   1   2
BRANCH   1  17
ATOM     17  C   UNL     1       6.535  -1.170   1.470  1.00  0.00     0.275 C 
BRANCH  17  18
ATOM     18  O   UNL     1       7.289  -0.406   0.513  1.00  0.00    -0.458 OA
BRANCH  18  19
ATOM     19  C   UNL     1       6.671  -0.203  -0.673  1.00  0.00     0.338 C 
ATOM     20  O   UNL     1       5.605  -0.663  -1.038  1.00  0.00    -0.246 OA
BRANCH  19  21
ATOM     21  C   UNL     1       7.436   0.787  -1.440  1.00  0.00     0.060 A 
ATOM     22  C   UNL     1       6.881   2.051  -1.667  1.00  0.00     0.016 A 
ATOM     23  C   UNL     1       8.683   0.448  -1.962  1.00  0.00     0.016 A 
ATOM     24  C   UNL     1       7.582   2.993  -2.419  1.00  0.00     0.010 A 
ATOM     25  C   UNL     1       9.383   1.392  -2.712  1.00  0.00     0.010 A 
ATOM     26  C   UNL     1       8.836   2.666  -2.950  1.00  0.00    -0.014 A 
BRANCH  26  27
ATOM     27  C   UNL     1       9.580   3.624  -3.800  1.00  0.00     0.031 A 
ATOM     28  C   UNL     1       9.695   3.357  -5.272  1.00  0.00     0.074 A 
ATOM     29  C   UNL     1      10.199   4.681  -3.244  1.00  0.00     0.049 A 
ATOM     30  N   UNL     1      10.457   3.937  -6.163  1.00  0.00    -0.248 NA
ATOM     31  C   UNL     1       8.845   2.283  -5.812  1.00  0.00     0.031 C 
ATOM     32  C   UNL     1      10.127   5.058  -1.833  1.00  0.00     0.029 A 
ATOM     33  N   UNL     1      11.041   5.614  -3.797  1.00  0.00    -0.354 N 
ATOM     34  C   UNL     1      10.207   3.276  -7.358  1.00  0.00     0.074 A 
ATOM     35  C   UNL     1       9.226   2.249  -7.081  1.00  0.00     0.031 C 
ATOM     36  C   UNL     1      10.912   6.128  -1.625  1.00  0.00     0.029 A 
ATOM     37  C   UNL     1      11.583   6.476  -2.874  1.00  0.00     0.049 A 
ATOM     38  H   UNL     1      11.237   5.661  -4.761  1.00  0.00     0.167 HD
ATOM     39  C   UNL     1      10.754   3.511  -8.573  1.00  0.00     0.037 A 
ATOM     40  C   UNL     1      12.547   7.406  -3.017  1.00  0.00     0.037 A 
ATOM     41  C   UNL     1      11.708   4.555  -8.840  1.00  0.00     0.049 A 
ATOM     42  C   UNL     1      13.173   7.610  -4.373  1.00  0.00     0.074 A 
ATOM     43  C   UNL     1      12.289   4.902 -10.047  1.00  0.00     0.029 A 
ATOM     44  N   UNL     1      12.220   5.419  -7.884  1.00  0.00    -0.354 N 
ATOM     45  N   UNL     1      12.916   7.000  -5.505  1.00  0.00    -0.248 NA
ATOM     46  C   UNL     1      14.229   8.629  -4.472  1.00  0.00     0.031 C 
ATOM     47  C   UNL     1      13.194   5.941  -9.812  1.00  0.00     0.029 A 
ATOM     48  C   UNL     1      13.131   6.282  -8.470  1.00  0.00     0.049 A 
ATOM     49  H   UNL     1      11.973   5.419  -6.931  1.00  0.00     0.167 HD
ATOM     50  C   UNL     1      13.741   7.590  -6.454  1.00  0.00     0.074 A 
ATOM     51  C   UNL     1      14.507   8.607  -5.768  1.00  0.00     0.031 C 
ATOM     52  C   UNL     1      13.855   7.314  -7.776  1.00  0.00     0.037 A 
BRANCH  39  53
ATOM     53  C   UNL     1      10.365   2.614  -9.710  1.00  0.00     0.064 A 
ATOM     54  C   UNL     1       9.104   2.693 -10.318  1.00  0.00     0.173 A 
ATOM     55  C   UNL     1      11.302   1.720 -10.252  1.00  0.00     0.173 A 
ATOM     56  F   UNL     1       8.170   3.523  -9.830  1.00  0.00    -0.203 F 
ATOM     57  C   UNL     1       8.793   1.904 -11.422  1.00  0.00     0.198 A 
ATOM     58  C   UNL     1      10.996   0.952 -11.372  1.00  0.00     0.198 A 
ATOM     59  F   UNL     1      12.524   1.609  -9.709  1.00  0.00    -0.203 F 
ATOM     60  F   UNL     1       7.573   1.976 -11.973  1.00  0.00    -0.200 F 
ATOM     61  C   UNL     1       9.742   1.043 -11.955  1.00  0.00     0.200 A 
ATOM     62  F   UNL     1      11.920   0.133 -11.893  1.00  0.00    -0.200 F 
ATOM     63  F   UNL     1       9.447   0.301 -13.031  1.00  0.00    -0.200 F 
ENDBRANCH  39  53
BRANCH  40  64
ATOM     64  C   UNL     1      13.013   8.195  -1.845  1.00  0.00     0.064 A 
ATOM     65  C   UNL     1      12.810   9.581  -1.781  1.00  0.00     0.173 A 
ATOM     66  C   UNL     1      13.716   7.592  -0.791  1.00  0.00     0.173 A 
ATOM     67  F   UNL     1      12.166  10.210  -2.776  1.00  0.00    -0.203 F 
ATOM     68  C   UNL     1      13.323  10.337  -0.729  1.00  0.00     0.198 A 
ATOM     69  C   UNL     1      14.198   8.343   0.278  1.00  0.00     0.198 A 
ATOM     70  F   UNL     1      13.939   6.269  -0.801  1.00  0.00    -0.203 F 
ATOM     71  F   UNL     1      13.175  11.669  -0.729  1.00  0.00    -0.200 F 
ATOM     72  C   UNL     1      14.014   9.717   0.302  1.00  0.00     0.200 A 
ATOM     73  F   UNL     1      14.854   7.739   1.278  1.00  0.00    -0.200 F 
ATOM     74  F   UNL     1      14.515  10.446   1.309  1.00  0.00    -0.200 F 
ENDBRANCH  40  64
BRANCH  52  75
ATOM     75  C   UNL     1      14.783   8.169  -8.588  1.00  0.00     0.064 A 
ATOM     76  C   UNL     1      16.176   8.053  -8.487  1.00  0.00     0.173 A 
ATOM     77  C   UNL     1      14.263   9.069  -9.532  1.00  0.00     0.173 A 
ATOM     78  F   UNL     1      16.721   7.218  -7.590  1.00  0.00    -0.203 F 
ATOM     79  C   UNL     1      17.016   8.820  -9.290  1.00  0.00     0.198 A 
ATOM     80  C   UNL     1      15.105   9.810 -10.354  1.00  0.00     0.198 A 
ATOM     81  F   UNL     1      12.936   9.210  -9.673  1.00  0.00    -0.203 F 
ATOM     82  F   UNL     1      18.345   8.723  -9.151  1.00  0.00    -0.200 F 
ATOM     83  C   UNL     1      16.480   9.690 -10.229  1.00  0.00     0.200 A 
ATOM     84  F   UNL     1      14.585  10.636 -11.273  1.00  0.00    -0.200 F 
ATOM     85  F   UNL     1      17.291  10.414 -11.013  1.00  0.00    -0.200 F 
ENDBRANCH  52  75
ENDBRANCH  26  27
ENDBRANCH  19  21
ENDBRANCH  18  19
ENDBRANCH  17  18
ENDBRANCH   1  17
TORSDOF 14
