REMARK SMILES NS(=O)(=O)c1ccc(-n2nc(C(F)(F)F)cc2-c2ccc(C(=O)OCCOC(=O)c3ccc(-c4c5nc(c(-c6c(F)c(F)c(F)c(F)c6F)c6ccc([nH]6)c(-c6c(F)c(F)c(F)c(F)c6F)c6nc(c(-c7c(F)c(F)c(F)c(F)c7F)c7ccc4[nH]7)C=C6)C=C5)cc3)cc2)cc1
REMARK SMILES IDX 25 1 24 2 22 3 23 4 21 5 18 6 19 7 94 8 20 9 93 10 17 11
REMARK SMILES IDX 9 12 10 13 11 14 16 15 8 16 5 17 6 18 96 19 7 20 95 21 2 22
REMARK SMILES IDX 3 23 4 24 1 25 12 28 13 29 14 30 15 31 26 32 27 33 28 34
REMARK SMILES IDX 29 35 30 36 31 37 92 38 32 39 91 40 33 41 34 42 35 43 85 44
REMARK SMILES IDX 36 45 90 46 84 47 86 48 37 49 89 50 83 51 82 52 38 54 70 55
REMARK SMILES IDX 50 56 69 57 51 58 54 59 68 60 87 61 52 62 53 63 67 65 88 66
REMARK SMILES IDX 55 67 39 68 40 69 48 70 41 71 42 72 46 73 49 74 43 75 44 76
REMARK SMILES IDX 47 77 45 78 71 79 72 80 80 81 73 82 74 83 78 84 81 85 75 86
REMARK SMILES IDX 76 87 79 88 77 89 56 90 57 91 65 92 58 93 59 94 63 95 66 96
REMARK SMILES IDX 60 97 61 98 64 99 62 100
REMARK H PARENT 1 26 1 27 86 53 54 64
REMARK Flexibility Score: inf
ROOT
ATOM      1  C   UNL     1       8.495  -3.845   3.424  1.00  0.00     0.275 C 
ENDROOT
BRANCH   1   2
ATOM      2  O   UNL     1       7.545  -3.175   4.269  1.00  0.00    -0.458 OA
BRANCH   2   3
ATOM      3  C   UNL     1       7.575  -1.819   4.217  1.00  0.00     0.338 C 
ATOM      4  O   UNL     1       8.406  -1.135   3.639  1.00  0.00    -0.246 OA
BRANCH   3   5
ATOM      5  C   UNL     1       6.379  -1.244   4.880  1.00  0.00     0.060 A 
ATOM      6  C   UNL     1       4.225  -0.012   6.183  1.00  0.00     0.000 A 
ATOM      7  C   UNL     1       4.934   0.673   5.186  1.00  0.00     0.011 A 
ATOM      8  C   UNL     1       4.572  -1.333   6.488  1.00  0.00     0.011 A 
ATOM      9  C   UNL     1       6.005   0.061   4.537  1.00  0.00     0.016 A 
ATOM     10  C   UNL     1       5.639  -1.952   5.832  1.00  0.00     0.016 A 
BRANCH   6  11
ATOM     11  C   UNL     1       3.208   0.686   6.966  1.00  0.00     0.075 A 
ATOM     12  N   UNL     1       2.152   1.430   6.457  1.00  0.00    -0.233 N 
ATOM     13  N   UNL     1       1.613   2.250   7.397  1.00  0.00    -0.163 NA
ATOM     14  C   UNL     1       2.188   1.876   8.557  1.00  0.00     0.167 A 
ATOM     15  C   UNL     1       3.201   0.915   8.327  1.00  0.00     0.064 A 
BRANCH  12  16
ATOM     16  C   UNL     1       1.646   1.423   5.132  1.00  0.00     0.065 A 
ATOM     17  C   UNL     1       0.820   1.439   2.475  1.00  0.00     0.082 A 
ATOM     18  C   UNL     1       1.129   0.224   3.091  1.00  0.00     0.024 A 
ATOM     19  C   UNL     1       0.892   2.642   3.188  1.00  0.00     0.024 A 
ATOM     20  C   UNL     1       1.559   0.218   4.418  1.00  0.00     0.030 A 
ATOM     21  C   UNL     1       1.273   2.631   4.532  1.00  0.00     0.030 A 
BRANCH  17  22
ATOM     22  S   UNL     1       0.406   1.500   0.756  1.00  0.00     0.238 S 
ATOM     23  O   UNL     1       1.132   2.587   0.150  1.00  0.00    -0.207 OA
ATOM     24  O   UNL     1      -1.024   1.333   0.620  1.00  0.00    -0.207 OA
BRANCH  22  25
ATOM     25  N   UNL     1       1.097   0.107   0.114  1.00  0.00    -0.225 NA
ATOM     26  H   UNL     1       0.904   0.063  -0.887  1.00  0.00     0.137 HD
ATOM     27  H   UNL     1       0.700  -0.712   0.574  1.00  0.00     0.137 HD
ENDBRANCH  22  25
ENDBRANCH  17  22
ENDBRANCH  12  16
BRANCH  14  28
ATOM     28  C   UNL     1       1.811   2.453   9.896  1.00  0.00     0.435 C 
ATOM     29  F   UNL     1       1.724   3.808   9.889  1.00  0.00    -0.164 F 
ATOM     30  F   UNL     1       0.619   1.974  10.340  1.00  0.00    -0.164 F 
ATOM     31  F   UNL     1       2.729   2.132  10.852  1.00  0.00    -0.164 F 
ENDBRANCH  14  28
ENDBRANCH   6  11
ENDBRANCH   3   5
ENDBRANCH   2   3
ENDBRANCH   1   2
BRANCH   1  32
ATOM     32  C   UNL     1       7.922  -4.084   2.035  1.00  0.00     0.275 C 
BRANCH  32  33
ATOM     33  O   UNL     1       7.779  -2.863   1.312  1.00  0.00    -0.458 OA
BRANCH  33  34
ATOM     34  C   UNL     1       6.556  -2.295   1.374  1.00  0.00     0.338 C 
ATOM     35  O   UNL     1       5.658  -2.529   2.167  1.00  0.00    -0.246 OA
BRANCH  34  36
ATOM     36  C   UNL     1       6.348  -1.505   0.160  1.00  0.00     0.060 A 
ATOM     37  C   UNL     1       5.237  -0.659   0.113  1.00  0.00     0.016 A 
ATOM     38  C   UNL     1       7.069  -1.853  -0.991  1.00  0.00     0.016 A 
ATOM     39  C   UNL     1       4.748  -0.302  -1.125  1.00  0.00     0.010 A 
ATOM     40  C   UNL     1       6.565  -1.516  -2.221  1.00  0.00     0.010 A 
ATOM     41  C   UNL     1       5.363  -0.820  -2.272  1.00  0.00    -0.014 A 
BRANCH  41  42
ATOM     42  C   UNL     1       4.798  -0.499  -3.565  1.00  0.00     0.031 A 
ATOM     43  C   UNL     1       4.910   0.943  -3.887  1.00  0.00     0.074 A 
ATOM     44  C   UNL     1       4.365  -1.452  -4.414  1.00  0.00     0.049 A 
ATOM     45  N   UNL     1       3.950   1.773  -4.116  1.00  0.00    -0.248 NA
ATOM     46  C   UNL     1       6.236   1.574  -3.757  1.00  0.00     0.031 C 
ATOM     47  C   UNL     1       4.448  -2.908  -4.272  1.00  0.00     0.029 A 
ATOM     48  N   UNL     1       3.851  -1.302  -5.664  1.00  0.00    -0.354 N 
ATOM     49  C   UNL     1       4.566   2.996  -4.356  1.00  0.00     0.074 A 
ATOM     50  C   UNL     1       5.938   2.859  -3.944  1.00  0.00     0.031 C 
ATOM     51  C   UNL     1       4.236  -3.488  -5.477  1.00  0.00     0.029 A 
ATOM     52  C   UNL     1       3.882  -2.458  -6.436  1.00  0.00     0.049 A 
ATOM     53  H   UNL     1       3.489  -0.448  -5.994  1.00  0.00     0.167 HD
ATOM     54  C   UNL     1       3.964   3.940  -5.124  1.00  0.00     0.037 A 
ATOM     55  C   UNL     1       3.737  -2.501  -7.787  1.00  0.00     0.037 A 
ATOM     56  C   UNL     1       2.541   3.733  -5.188  1.00  0.00     0.049 A 
ATOM     57  C   UNL     1       3.059  -1.235  -8.191  1.00  0.00     0.074 A 
ATOM     58  C   UNL     1       1.545   3.671  -4.231  1.00  0.00     0.029 A 
ATOM     59  N   UNL     1       2.018   3.132  -6.307  1.00  0.00    -0.354 N 
ATOM     60  N   UNL     1       1.826  -0.950  -7.864  1.00  0.00    -0.248 NA
ATOM     61  C   UNL     1       3.910  -0.089  -8.488  1.00  0.00     0.031 C 
ATOM     62  C   UNL     1       0.702   2.599  -4.649  1.00  0.00     0.029 A 
ATOM     63  C   UNL     1       1.180   2.134  -5.873  1.00  0.00     0.049 A 
ATOM     64  H   UNL     1       2.208   3.372  -7.243  1.00  0.00     0.167 HD
ATOM     65  C   UNL     1       1.860   0.388  -7.497  1.00  0.00     0.074 A 
ATOM     66  C   UNL     1       3.164   0.877  -7.942  1.00  0.00     0.031 C 
ATOM     67  C   UNL     1       0.971   0.905  -6.599  1.00  0.00     0.037 A 
BRANCH  54  68
ATOM     68  C   UNL     1       4.719   4.795  -6.106  1.00  0.00     0.064 A 
ATOM     69  C   UNL     1       4.064   5.869  -6.734  1.00  0.00     0.173 A 
ATOM     70  C   UNL     1       5.964   4.425  -6.665  1.00  0.00     0.173 A 
ATOM     71  F   UNL     1       2.859   6.275  -6.309  1.00  0.00    -0.203 F 
ATOM     72  C   UNL     1       4.593   6.486  -7.872  1.00  0.00     0.198 A 
ATOM     73  C   UNL     1       6.514   5.080  -7.762  1.00  0.00     0.198 A 
ATOM     74  F   UNL     1       6.641   3.347  -6.253  1.00  0.00    -0.203 F 
ATOM     75  F   UNL     1       3.879   7.423  -8.510  1.00  0.00    -0.200 F 
ATOM     76  C   UNL     1       5.816   6.091  -8.384  1.00  0.00     0.200 A 
ATOM     77  F   UNL     1       7.688   4.662  -8.258  1.00  0.00    -0.200 F 
ATOM     78  F   UNL     1       6.296   6.643  -9.506  1.00  0.00    -0.200 F 
ENDBRANCH  54  68
BRANCH  55  79
ATOM     79  C   UNL     1       4.492  -3.351  -8.746  1.00  0.00     0.064 A 
ATOM     80  C   UNL     1       4.087  -3.482 -10.086  1.00  0.00     0.173 A 
ATOM     81  C   UNL     1       5.776  -3.846  -8.437  1.00  0.00     0.173 A 
ATOM     82  F   UNL     1       2.905  -2.989 -10.483  1.00  0.00    -0.203 F 
ATOM     83  C   UNL     1       4.919  -4.061 -11.054  1.00  0.00     0.198 A 
ATOM     84  C   UNL     1       6.600  -4.430  -9.401  1.00  0.00     0.198 A 
ATOM     85  F   UNL     1       6.299  -3.692  -7.213  1.00  0.00    -0.203 F 
ATOM     86  F   UNL     1       4.519  -4.120 -12.332  1.00  0.00    -0.200 F 
ATOM     87  C   UNL     1       6.177  -4.528 -10.711  1.00  0.00     0.200 A 
ATOM     88  F   UNL     1       7.830  -4.841  -9.060  1.00  0.00    -0.200 F 
ATOM     89  F   UNL     1       6.994  -5.034 -11.646  1.00  0.00    -0.200 F 
ENDBRANCH  55  79
BRANCH  67  90
ATOM     90  C   UNL     1      -0.184   0.049  -6.159  1.00  0.00     0.064 A 
ATOM     91  C   UNL     1      -0.045  -1.172  -5.475  1.00  0.00     0.173 A 
ATOM     92  C   UNL     1      -1.479   0.572  -6.280  1.00  0.00     0.173 A 
ATOM     93  F   UNL     1       1.164  -1.685  -5.215  1.00  0.00    -0.203 F 
ATOM     94  C   UNL     1      -1.155  -1.854  -4.976  1.00  0.00     0.198 A 
ATOM     95  C   UNL     1      -2.581  -0.091  -5.748  1.00  0.00     0.198 A 
ATOM     96  F   UNL     1      -1.668   1.763  -6.869  1.00  0.00    -0.203 F 
ATOM     97  F   UNL     1      -0.994  -3.018  -4.328  1.00  0.00    -0.200 F 
ATOM     98  C   UNL     1      -2.421  -1.308  -5.106  1.00  0.00     0.200 A 
ATOM     99  F   UNL     1      -3.796   0.468  -5.829  1.00  0.00    -0.200 F 
ATOM    100  F   UNL     1      -3.483  -1.940  -4.587  1.00  0.00    -0.200 F 
ENDBRANCH  67  90
ENDBRANCH  41  42
ENDBRANCH  34  36
ENDBRANCH  33  34
ENDBRANCH  32  33
ENDBRANCH   1  32
TORSDOF 16
