REMARK SMILES O=C(CC1(C(=O)OCCOC(=O)c2ccc(-c3c4nc(c(-c5c(F)c(F)c(F)c(F)c5F)c5ccc([nH]5)c(-c5c(F)c(F)c(F)c(F)c5F)c5nc(c(-c6c(F)c(F)c(F)c(F)c6F)c6ccc3[nH]6)C=C5)C=C4)cc2)CCCCC1)Nc1ccc(N2CCOC2=O)cc1
REMARK SMILES IDX 8 1 7 2 5 3 6 4 4 5 76 6 80 7 77 8 79 9 78 10 3 11 2 12 1 13
REMARK SMILES IDX 81 14 82 16 83 17 93 18 84 19 92 20 85 21 86 22 87 23 90 24
REMARK SMILES IDX 88 25 89 26 91 27 9 28 10 29 11 30 12 31 13 32 14 33 75 34
REMARK SMILES IDX 15 35 74 36 16 37 17 38 18 39 68 40 19 41 73 42 67 43 69 44
REMARK SMILES IDX 20 45 72 46 66 47 65 48 21 50 53 51 33 52 52 53 34 54 37 55
REMARK SMILES IDX 51 56 70 57 35 58 36 59 50 61 71 62 38 63 22 64 23 65 31 66
REMARK SMILES IDX 24 67 25 68 29 69 32 70 26 71 27 72 30 73 28 74 54 75 55 76
REMARK SMILES IDX 63 77 56 78 57 79 61 80 64 81 58 82 59 83 62 84 60 85 39 86
REMARK SMILES IDX 40 87 48 88 41 89 42 90 46 91 49 92 43 93 44 94 47 95 45 96
REMARK H PARENT 81 15 69 49 37 60
REMARK Flexibility Score: inf
ROOT
ATOM      1  C   UNL     1       6.242   2.273  -3.858  1.00  0.00     0.274 C 
ENDROOT
BRANCH   1   2
ATOM      2  O   UNL     1       5.683   2.156  -2.534  1.00  0.00    -0.462 OA
BRANCH   2   3
ATOM      3  C   UNL     1       4.344   1.979  -2.430  1.00  0.00     0.312 C 
ATOM      4  O   UNL     1       3.595   1.876  -3.397  1.00  0.00    -0.252 OA
BRANCH   3   5
ATOM      5  C   UNL     1       3.839   1.945  -0.967  1.00  0.00     0.077 C 
ATOM      6  C   UNL     1       2.993   3.221  -0.776  1.00  0.00     0.019 C 
ATOM      7  C   UNL     1       4.974   1.903   0.085  1.00  0.00     0.019 C 
ATOM      8  C   UNL     1       3.862   4.482  -0.747  1.00  0.00     0.001 C 
ATOM      9  C   UNL     1       5.802   3.179   0.217  1.00  0.00     0.001 C 
ATOM     10  C   UNL     1       4.918   4.412   0.350  1.00  0.00     0.000 C 
BRANCH   5  11
ATOM     11  C   UNL     1       2.976   0.653  -0.872  1.00  0.00     0.119 C 
BRANCH  11  12
ATOM     12  C   UNL     1       2.062   0.437   0.317  1.00  0.00     0.225 C 
ATOM     13  O   UNL     1       0.851   0.617   0.226  1.00  0.00    -0.275 OA
ATOM     14  N   UNL     1       2.722   0.025   1.456  1.00  0.00    -0.326 N 
ATOM     15  H   UNL     1       3.698  -0.099   1.410  1.00  0.00     0.169 HD
BRANCH  14  16
ATOM     16  C   UNL     1       2.079  -0.226   2.672  1.00  0.00     0.041 A 
ATOM     17  C   UNL     1       2.578   0.403   3.812  1.00  0.00     0.028 A 
ATOM     18  C   UNL     1       0.993  -1.093   2.763  1.00  0.00     0.028 A 
ATOM     19  C   UNL     1       1.918   0.248   5.029  1.00  0.00     0.028 A 
ATOM     20  C   UNL     1       0.412  -1.343   4.008  1.00  0.00     0.028 A 
ATOM     21  C   UNL     1       0.842  -0.638   5.137  1.00  0.00     0.047 A 
BRANCH  21  22
ATOM     22  N   UNL     1       0.158  -0.772   6.352  1.00  0.00    -0.274 N 
ATOM     23  C   UNL     1      -0.183   0.336   7.182  1.00  0.00     0.171 C 
ATOM     24  C   UNL     1      -0.288  -1.952   6.911  1.00  0.00     0.414 C 
ATOM     25  C   UNL     1      -1.239  -0.263   8.078  1.00  0.00     0.257 C 
ATOM     26  O   UNL     1      -0.985  -1.671   8.060  1.00  0.00    -0.447 OA
ATOM     27  O   UNL     1      -0.083  -3.090   6.524  1.00  0.00    -0.224 OA
ENDBRANCH  21  22
ENDBRANCH  14  16
ENDBRANCH  11  12
ENDBRANCH   5  11
ENDBRANCH   3   5
ENDBRANCH   2   3
ENDBRANCH   1   2
BRANCH   1  28
ATOM     28  C   UNL     1       7.130   1.070  -4.169  1.00  0.00     0.275 C 
BRANCH  28  29
ATOM     29  O   UNL     1       6.329  -0.117  -4.313  1.00  0.00    -0.458 OA
BRANCH  29  30
ATOM     30  C   UNL     1       6.233  -0.872  -3.198  1.00  0.00     0.338 C 
ATOM     31  O   UNL     1       6.778  -0.695  -2.121  1.00  0.00    -0.246 OA
BRANCH  30  32
ATOM     32  C   UNL     1       5.234  -1.926  -3.394  1.00  0.00     0.060 A 
ATOM     33  C   UNL     1       3.905  -1.598  -3.164  1.00  0.00     0.016 A 
ATOM     34  C   UNL     1       5.611  -3.252  -3.575  1.00  0.00     0.016 A 
ATOM     35  C   UNL     1       2.968  -2.597  -2.942  1.00  0.00     0.010 A 
ATOM     36  C   UNL     1       4.631  -4.250  -3.510  1.00  0.00     0.010 A 
ATOM     37  C   UNL     1       3.307  -3.939  -3.143  1.00  0.00    -0.014 A 
BRANCH  37  38
ATOM     38  C   UNL     1       2.284  -5.008  -2.961  1.00  0.00     0.031 A 
ATOM     39  C   UNL     1       2.543  -6.157  -2.023  1.00  0.00     0.074 A 
ATOM     40  C   UNL     1       1.115  -4.948  -3.631  1.00  0.00     0.049 A 
ATOM     41  N   UNL     1       1.886  -7.282  -1.884  1.00  0.00    -0.248 NA
ATOM     42  C   UNL     1       3.709  -6.033  -1.135  1.00  0.00     0.031 C 
ATOM     43  C   UNL     1       0.701  -3.862  -4.522  1.00  0.00     0.029 A 
ATOM     44  N   UNL     1       0.054  -5.819  -3.665  1.00  0.00    -0.354 N 
ATOM     45  C   UNL     1       2.591  -8.020  -0.940  1.00  0.00     0.074 A 
ATOM     46  C   UNL     1       3.734  -7.222  -0.552  1.00  0.00     0.031 C 
ATOM     47  C   UNL     1      -0.537  -4.105  -4.973  1.00  0.00     0.029 A 
ATOM     48  C   UNL     1      -0.958  -5.416  -4.501  1.00  0.00     0.049 A 
ATOM     49  H   UNL     1       0.023  -6.652  -3.140  1.00  0.00     0.167 HD
ATOM     50  C   UNL     1       2.305  -9.250  -0.446  1.00  0.00     0.037 A 
ATOM     51  C   UNL     1      -2.077  -6.052  -4.895  1.00  0.00     0.037 A 
ATOM     52  C   UNL     1       1.137 -10.013  -0.810  1.00  0.00     0.049 A 
ATOM     53  C   UNL     1      -2.334  -7.442  -4.393  1.00  0.00     0.074 A 
ATOM     54  C   UNL     1       0.747 -11.264  -0.365  1.00  0.00     0.029 A 
ATOM     55  N   UNL     1       0.162  -9.587  -1.702  1.00  0.00    -0.354 N 
ATOM     56  N   UNL     1      -1.632  -8.161  -3.551  1.00  0.00    -0.248 NA
ATOM     57  C   UNL     1      -3.528  -8.119  -4.914  1.00  0.00     0.031 C 
ATOM     58  C   UNL     1      -0.434 -11.617  -1.027  1.00  0.00     0.029 A 
ATOM     59  C   UNL     1      -0.815 -10.561  -1.839  1.00  0.00     0.049 A 
ATOM     60  H   UNL     1       0.164  -8.720  -2.169  1.00  0.00     0.167 HD
ATOM     61  C   UNL     1      -2.309  -9.365  -3.422  1.00  0.00     0.074 A 
ATOM     62  C   UNL     1      -3.487  -9.272  -4.262  1.00  0.00     0.031 C 
ATOM     63  C   UNL     1      -1.983 -10.450  -2.678  1.00  0.00     0.037 A 
BRANCH  50  64
ATOM     64  C   UNL     1       3.298  -9.866   0.502  1.00  0.00     0.064 A 
ATOM     65  C   UNL     1       3.514  -9.362   1.794  1.00  0.00     0.173 A 
ATOM     66  C   UNL     1       4.046 -10.988   0.108  1.00  0.00     0.173 A 
ATOM     67  F   UNL     1       2.838  -8.285   2.220  1.00  0.00    -0.203 F 
ATOM     68  C   UNL     1       4.470  -9.929   2.635  1.00  0.00     0.198 A 
ATOM     69  C   UNL     1       4.974 -11.574   0.965  1.00  0.00     0.198 A 
ATOM     70  F   UNL     1       3.878 -11.519  -1.113  1.00  0.00    -0.203 F 
ATOM     71  F   UNL     1       4.708  -9.386   3.838  1.00  0.00    -0.200 F 
ATOM     72  C   UNL     1       5.195 -11.036   2.223  1.00  0.00     0.200 A 
ATOM     73  F   UNL     1       5.663 -12.653   0.568  1.00  0.00    -0.200 F 
ATOM     74  F   UNL     1       6.116 -11.578   3.032  1.00  0.00    -0.200 F 
ENDBRANCH  50  64
BRANCH  51  75
ATOM     75  C   UNL     1      -3.009  -5.387  -5.844  1.00  0.00     0.064 A 
ATOM     76  C   UNL     1      -4.293  -5.001  -5.436  1.00  0.00     0.173 A 
ATOM     77  C   UNL     1      -2.633  -5.105  -7.166  1.00  0.00     0.173 A 
ATOM     78  F   UNL     1      -4.709  -5.271  -4.190  1.00  0.00    -0.203 F 
ATOM     79  C   UNL     1      -5.166  -4.364  -6.316  1.00  0.00     0.198 A 
ATOM     80  C   UNL     1      -3.493  -4.437  -8.034  1.00  0.00     0.198 A 
ATOM     81  F   UNL     1      -1.415  -5.453  -7.608  1.00  0.00    -0.203 F 
ATOM     82  F   UNL     1      -6.402  -4.041  -5.912  1.00  0.00    -0.200 F 
ATOM     83  C   UNL     1      -4.762  -4.073  -7.610  1.00  0.00     0.200 A 
ATOM     84  F   UNL     1      -3.091  -4.143  -9.278  1.00  0.00    -0.200 F 
ATOM     85  F   UNL     1      -5.597  -3.449  -8.451  1.00  0.00    -0.200 F 
ENDBRANCH  51  75
BRANCH  63  86
ATOM     86  C   UNL     1      -2.940 -11.606  -2.706  1.00  0.00     0.064 A 
ATOM     87  C   UNL     1      -3.081 -12.421  -3.839  1.00  0.00     0.173 A 
ATOM     88  C   UNL     1      -3.709 -11.916  -1.574  1.00  0.00     0.173 A 
ATOM     89  F   UNL     1      -2.383 -12.155  -4.953  1.00  0.00    -0.203 F 
ATOM     90  C   UNL     1      -3.979 -13.485  -3.847  1.00  0.00     0.198 A 
ATOM     91  C   UNL     1      -4.581 -13.001  -1.574  1.00  0.00     0.198 A 
ATOM     92  F   UNL     1      -3.609 -11.170  -0.463  1.00  0.00    -0.203 F 
ATOM     93  F   UNL     1      -4.139 -14.215  -4.959  1.00  0.00    -0.200 F 
ATOM     94  C   UNL     1      -4.722 -13.778  -2.713  1.00  0.00     0.200 A 
ATOM     95  F   UNL     1      -5.287 -13.291  -0.473  1.00  0.00    -0.200 F 
ATOM     96  F   UNL     1      -5.581 -14.806  -2.721  1.00  0.00    -0.200 F 
ENDBRANCH  63  86
ENDBRANCH  37  38
ENDBRANCH  30  32
ENDBRANCH  29  30
ENDBRANCH  28  29
ENDBRANCH   1  28
TORSDOF 15
