REMARK SMILES Cc1cccc(N2CCN(c3ncc(NC(=O)c4ccccc4F)cc3C(=O)OCCOC(=O)c3ccc(-c4c5nc(c(-c6c(F)c(F)c(F)c(F)c6F)c6ccc([nH]6)c(-c6c(F)c(F)c(F)c(F)c6F)c6nc(c(-c7c(F)c(F)c(F)c(F)c7F)c7ccc4[nH]7)C=C6)C=C5)cc3)C[C@@H]2C)c1
REMARK SMILES IDX 30 1 29 2 27 3 28 4 26 5 11 6 12 7 13 8 25 9 14 10 10 11
REMARK SMILES IDX 7 12 8 13 99 14 9 15 98 16 100 17 6 18 1 19 2 20 3 21 101 22
REMARK SMILES IDX 4 23 5 24 15 25 16 26 17 28 18 29 19 30 23 31 20 32 22 33
REMARK SMILES IDX 24 34 21 35 31 36 32 37 33 38 34 39 35 40 36 41 97 42 37 43
REMARK SMILES IDX 96 44 38 45 39 46 40 47 90 48 41 49 95 50 89 51 91 52 42 53
REMARK SMILES IDX 94 54 88 55 87 56 43 58 75 59 55 60 74 61 56 62 59 63 73 64
REMARK SMILES IDX 92 65 57 66 58 67 72 69 93 70 60 71 44 72 45 73 53 74 46 75
REMARK SMILES IDX 47 76 51 77 54 78 48 79 49 80 52 81 50 82 76 83 77 84 85 85
REMARK SMILES IDX 78 86 79 87 83 88 86 89 80 90 81 91 84 92 82 93 61 94 62 95
REMARK SMILES IDX 70 96 63 97 64 98 68 99 71 100 65 101 66 102 69 103 67 104
REMARK H PARENT 15 27 91 57 59 68
REMARK Flexibility Score: inf
ROOT
ATOM      1  C   UNL     1      -5.199   7.010  -3.674  1.00  0.00     0.275 C 
ENDROOT
BRANCH   1   2
ATOM      2  O   UNL     1      -4.435   7.255  -2.455  1.00  0.00    -0.458 OA
BRANCH   2   3
ATOM      3  C   UNL     1      -5.061   6.779  -1.335  1.00  0.00     0.342 C 
ATOM      4  O   UNL     1      -6.194   6.289  -1.373  1.00  0.00    -0.246 OA
BRANCH   3   5
ATOM      5  C   UNL     1      -4.553   7.162   0.010  1.00  0.00     0.104 A 
ATOM      6  C   UNL     1      -3.675   6.560   0.971  1.00  0.00     0.143 A 
ATOM      7  N   UNL     1      -3.862   6.938   2.280  1.00  0.00    -0.236 NA
ATOM      8  C   UNL     1      -4.900   7.731   2.670  1.00  0.00     0.139 A 
ATOM      9  C   UNL     1      -5.565   8.052   0.464  1.00  0.00     0.047 A 
ATOM     10  C   UNL     1      -5.791   8.300   1.793  1.00  0.00     0.061 A 
BRANCH   6  11
ATOM     11  N   UNL     1      -2.730   5.495   0.831  1.00  0.00    -0.352 N 
ATOM     12  N   UNL     1      -0.686   3.274   1.020  1.00  0.00    -0.365 N 
ATOM     13  C   UNL     1      -1.566   3.562   2.168  1.00  0.00     0.138 C 
ATOM     14  C   UNL     1      -0.468   4.381   0.019  1.00  0.00     0.098 C 
ATOM     15  C   UNL     1      -2.538   4.766   2.123  1.00  0.00     0.139 C 
ATOM     16  C   UNL     1      -1.385   5.710   0.214  1.00  0.00     0.142 C 
ATOM     17  C   UNL     1      -0.518   3.882  -1.437  1.00  0.00     0.033 C 
BRANCH  12  18
ATOM     18  C   UNL     1      -0.046   2.014   0.974  1.00  0.00     0.037 A 
ATOM     19  C   UNL     1       3.046   0.232  -0.502  1.00  0.00     0.044 C 
ATOM     20  C   UNL     1       1.704   0.464   0.131  1.00  0.00    -0.049 A 
ATOM     21  C   UNL     1       1.006  -0.647   0.605  1.00  0.00     0.003 A 
ATOM     22  C   UNL     1       1.157   1.767   0.286  1.00  0.00     0.029 A 
ATOM     23  C   UNL     1      -0.136  -0.446   1.353  1.00  0.00     0.002 A 
ATOM     24  C   UNL     1      -0.602   0.860   1.582  1.00  0.00     0.026 A 
ENDBRANCH  12  18
ENDBRANCH   6  11
BRANCH  10  25
ATOM     25  N   UNL     1      -6.909   9.082   2.115  1.00  0.00    -0.320 N 
ATOM     26  C   UNL     1      -7.006  10.123   3.005  1.00  0.00     0.258 C 
ATOM     27  H   UNL     1      -7.739   8.853   1.638  1.00  0.00     0.170 HD
ATOM     28  O   UNL     1      -8.100  10.611   3.278  1.00  0.00    -0.269 OA
BRANCH  26  29
ATOM     29  C   UNL     1      -5.784  10.703   3.589  1.00  0.00     0.075 A 
ATOM     30  C   UNL     1      -5.792  11.039   4.943  1.00  0.00     0.017 A 
ATOM     31  C   UNL     1      -4.631  10.911   2.828  1.00  0.00     0.135 A 
ATOM     32  C   UNL     1      -4.612  11.474   5.546  1.00  0.00     0.001 A 
ATOM     33  C   UNL     1      -3.444  11.292   3.436  1.00  0.00     0.040 A 
ATOM     34  F   UNL     1      -4.629  10.739   1.498  1.00  0.00    -0.206 F 
ATOM     35  C   UNL     1      -3.432  11.564   4.801  1.00  0.00     0.003 A 
ENDBRANCH  26  29
ENDBRANCH  10  25
ENDBRANCH   3   5
ENDBRANCH   2   3
ENDBRANCH   1   2
BRANCH   1  36
ATOM     36  C   UNL     1      -4.398   6.623  -4.941  1.00  0.00     0.275 C 
BRANCH  36  37
ATOM     37  O   UNL     1      -3.274   5.730  -4.859  1.00  0.00    -0.458 OA
BRANCH  37  38
ATOM     38  C   UNL     1      -2.941   5.275  -3.634  1.00  0.00     0.338 C 
ATOM     39  O   UNL     1      -2.030   5.737  -2.990  1.00  0.00    -0.246 OA
BRANCH  38  40
ATOM     40  C   UNL     1      -3.926   4.269  -3.160  1.00  0.00     0.060 A 
ATOM     41  C   UNL     1      -4.164   4.220  -1.790  1.00  0.00     0.016 A 
ATOM     42  C   UNL     1      -4.751   3.574  -4.028  1.00  0.00     0.016 A 
ATOM     43  C   UNL     1      -5.267   3.592  -1.243  1.00  0.00     0.010 A 
ATOM     44  C   UNL     1      -5.850   2.926  -3.506  1.00  0.00     0.010 A 
ATOM     45  C   UNL     1      -6.091   2.933  -2.118  1.00  0.00    -0.014 A 
BRANCH  45  46
ATOM     46  C   UNL     1      -7.156   2.088  -1.641  1.00  0.00     0.031 A 
ATOM     47  C   UNL     1      -8.419   2.667  -1.146  1.00  0.00     0.074 A 
ATOM     48  C   UNL     1      -6.884   0.784  -1.854  1.00  0.00     0.049 A 
ATOM     49  N   UNL     1      -9.232   2.037  -0.369  1.00  0.00    -0.248 NA
ATOM     50  C   UNL     1      -8.845   4.051  -1.385  1.00  0.00     0.031 C 
ATOM     51  C   UNL     1      -7.776  -0.303  -2.185  1.00  0.00     0.029 A 
ATOM     52  N   UNL     1      -5.618   0.186  -1.851  1.00  0.00    -0.354 N 
ATOM     53  C   UNL     1     -10.428   2.728  -0.421  1.00  0.00     0.074 A 
ATOM     54  C   UNL     1     -10.079   4.055  -0.859  1.00  0.00     0.031 C 
ATOM     55  C   UNL     1      -7.087  -1.462  -2.157  1.00  0.00     0.029 A 
ATOM     56  C   UNL     1      -5.768  -1.188  -1.609  1.00  0.00     0.049 A 
ATOM     57  H   UNL     1      -4.763   0.653  -1.994  1.00  0.00     0.167 HD
ATOM     58  C   UNL     1     -11.586   2.005  -0.376  1.00  0.00     0.037 A 
ATOM     59  C   UNL     1      -5.244  -1.772  -0.478  1.00  0.00     0.037 A 
ATOM     60  C   UNL     1     -11.262   0.593  -0.232  1.00  0.00     0.049 A 
ATOM     61  C   UNL     1      -6.308  -2.249   0.471  1.00  0.00     0.074 A 
ATOM     62  C   UNL     1     -11.055  -0.377  -1.198  1.00  0.00     0.029 A 
ATOM     63  N   UNL     1     -10.715   0.117   0.945  1.00  0.00    -0.354 N 
ATOM     64  N   UNL     1      -7.524  -1.797   0.441  1.00  0.00    -0.248 NA
ATOM     65  C   UNL     1      -6.039  -3.098   1.627  1.00  0.00     0.031 C 
ATOM     66  C   UNL     1     -10.356  -1.443  -0.597  1.00  0.00     0.029 A 
ATOM     67  C   UNL     1     -10.124  -1.112   0.726  1.00  0.00     0.049 A 
ATOM     68  H   UNL     1     -10.741   0.585   1.811  1.00  0.00     0.167 HD
ATOM     69  C   UNL     1      -8.184  -2.221   1.552  1.00  0.00     0.074 A 
ATOM     70  C   UNL     1      -7.226  -3.054   2.255  1.00  0.00     0.031 C 
ATOM     71  C   UNL     1      -9.455  -1.808   1.806  1.00  0.00     0.037 A 
BRANCH  58  72
ATOM     72  C   UNL     1     -12.951   2.451  -0.849  1.00  0.00     0.064 A 
ATOM     73  C   UNL     1     -13.862   1.495  -1.369  1.00  0.00     0.173 A 
ATOM     74  C   UNL     1     -13.429   3.771  -0.837  1.00  0.00     0.173 A 
ATOM     75  F   UNL     1     -13.586   0.185  -1.382  1.00  0.00    -0.203 F 
ATOM     76  C   UNL     1     -15.103   1.837  -1.901  1.00  0.00     0.198 A 
ATOM     77  C   UNL     1     -14.675   4.116  -1.383  1.00  0.00     0.198 A 
ATOM     78  F   UNL     1     -12.728   4.759  -0.267  1.00  0.00    -0.203 F 
ATOM     79  F   UNL     1     -15.898   0.877  -2.396  1.00  0.00    -0.200 F 
ATOM     80  C   UNL     1     -15.507   3.151  -1.921  1.00  0.00     0.200 A 
ATOM     81  F   UNL     1     -15.072   5.397  -1.380  1.00  0.00    -0.200 F 
ATOM     82  F   UNL     1     -16.698   3.481  -2.437  1.00  0.00    -0.200 F 
ENDBRANCH  58  72
BRANCH  59  83
ATOM     83  C   UNL     1      -4.071  -1.024   0.082  1.00  0.00     0.064 A 
ATOM     84  C   UNL     1      -3.033  -0.740  -0.824  1.00  0.00     0.173 A 
ATOM     85  C   UNL     1      -4.372  -0.097   1.092  1.00  0.00     0.173 A 
ATOM     86  F   UNL     1      -2.665  -1.647  -1.742  1.00  0.00    -0.203 F 
ATOM     87  C   UNL     1      -2.598   0.563  -0.953  1.00  0.00     0.198 A 
ATOM     88  C   UNL     1      -3.949   1.198   0.955  1.00  0.00     0.198 A 
ATOM     89  F   UNL     1      -5.202  -0.390   2.101  1.00  0.00    -0.203 F 
ATOM     90  F   UNL     1      -1.798   0.916  -1.969  1.00  0.00    -0.200 F 
ATOM     91  C   UNL     1      -3.117   1.520  -0.099  1.00  0.00     0.200 A 
ATOM     92  F   UNL     1      -4.391   2.147   1.792  1.00  0.00    -0.200 F 
ATOM     93  F   UNL     1      -2.797   2.792  -0.265  1.00  0.00    -0.200 F 
ENDBRANCH  59  83
BRANCH  71  94
ATOM     94  C   UNL     1     -10.222  -2.136   3.040  1.00  0.00     0.064 A 
ATOM     95  C   UNL     1      -9.641  -2.270   4.306  1.00  0.00     0.173 A 
ATOM     96  C   UNL     1     -11.628  -2.261   2.973  1.00  0.00     0.173 A 
ATOM     97  F   UNL     1      -8.343  -2.003   4.508  1.00  0.00    -0.203 F 
ATOM     98  C   UNL     1     -10.399  -2.651   5.409  1.00  0.00     0.198 A 
ATOM     99  C   UNL     1     -12.390  -2.565   4.090  1.00  0.00     0.198 A 
ATOM    100  F   UNL     1     -12.296  -2.084   1.823  1.00  0.00    -0.203 F 
ATOM    101  F   UNL     1      -9.794  -2.868   6.584  1.00  0.00    -0.200 F 
ATOM    102  C   UNL     1     -11.771  -2.801   5.300  1.00  0.00     0.200 A 
ATOM    103  F   UNL     1     -13.724  -2.630   3.985  1.00  0.00    -0.200 F 
ATOM    104  F   UNL     1     -12.498  -3.161   6.365  1.00  0.00    -0.200 F 
ENDBRANCH  71  94
ENDBRANCH  45  46
ENDBRANCH  38  40
ENDBRANCH  37  38
ENDBRANCH  36  37
ENDBRANCH   1  36
TORSDOF 15
