REMARK SMILES C[C@@H]([C@H]1CC=CS1)n1nccc1NC(=O)CC1(CC(=O)OCCOC(=O)c2ccc(-c3c4nc(c(-c5c(F)c(F)c(F)c(F)c5F)c5ccc([nH]5)c(-c5c(F)c(F)c(F)c(F)c5F)c5nc(c(-c6c(F)c(F)c(F)c(F)c6F)c6ccc3[nH]6)C=C5)C=C4)cc2)CCCCC1
REMARK SMILES IDX 19 1 20 2 18 3 17 4 90 5 94 6 91 7 93 8 92 9 16 10 14 11
REMARK SMILES IDX 13 12 15 14 12 15 8 16 9 17 10 18 11 19 2 20 1 21 3 22 4 23
REMARK SMILES IDX 7 24 5 25 6 26 21 27 22 28 23 29 24 30 25 31 26 32 27 33
REMARK SMILES IDX 28 34 89 35 29 36 88 37 30 38 31 39 32 40 82 41 33 42 87 43
REMARK SMILES IDX 81 44 83 45 34 46 86 47 80 48 79 49 35 51 67 52 47 53 66 54
REMARK SMILES IDX 48 55 51 56 65 57 84 58 49 59 50 60 64 62 85 63 52 64 36 65
REMARK SMILES IDX 37 66 45 67 38 68 39 69 43 70 46 71 40 72 41 73 44 74 42 75
REMARK SMILES IDX 68 76 69 77 77 78 70 79 71 80 75 81 78 82 72 83 73 84 76 85
REMARK SMILES IDX 74 86 53 87 54 88 62 89 55 90 56 91 60 92 63 93 57 94 58 95
REMARK SMILES IDX 61 96 59 97
REMARK H PARENT 13 13 83 50 51 61
REMARK Flexibility Score: inf
ROOT
ATOM      1  C   UNL     1       4.395   5.750   4.447  1.00  0.00     0.306 C 
ATOM      2  O   UNL     1       5.158   5.499   5.375  1.00  0.00    -0.252 OA
ENDROOT
BRANCH   1   3
ATOM      3  C   UNL     1       4.024   4.691   3.415  1.00  0.00     0.130 C 
BRANCH   3   4
ATOM      4  C   UNL     1       3.056   4.920   2.208  1.00  0.00    -0.010 C 
ATOM      5  C   UNL     1       3.387   3.815   1.166  1.00  0.00     0.008 C 
ATOM      6  C   UNL     1       3.262   6.285   1.483  1.00  0.00     0.008 C 
ATOM      7  C   UNL     1       4.723   3.966   0.438  1.00  0.00     0.001 C 
ATOM      8  C   UNL     1       4.634   6.444   0.845  1.00  0.00     0.001 C 
ATOM      9  C   UNL     1       4.868   5.346  -0.183  1.00  0.00     0.000 C 
BRANCH   4  10
ATOM     10  C   UNL     1       1.527   4.879   2.560  1.00  0.00     0.108 C 
BRANCH  10  11
ATOM     11  C   UNL     1       0.805   3.749   3.279  1.00  0.00     0.226 C 
ATOM     12  N   UNL     1       1.058   2.357   3.070  1.00  0.00    -0.311 N 
ATOM     13  H   UNL     1       1.231   1.792   3.857  1.00  0.00     0.171 HD
ATOM     14  O   UNL     1      -0.153   3.960   4.012  1.00  0.00    -0.275 OA
BRANCH  12  15
ATOM     15  C   UNL     1       1.071   1.761   1.821  1.00  0.00     0.131 A 
ATOM     16  N   UNL     1       1.538   0.518   1.449  1.00  0.00    -0.246 N 
ATOM     17  N   UNL     1       1.659   0.418   0.100  1.00  0.00    -0.179 NA
ATOM     18  C   UNL     1       0.988   1.467  -0.366  1.00  0.00     0.137 A 
ATOM     19  C   UNL     1       0.554   2.311   0.666  1.00  0.00     0.068 A 
BRANCH  16  20
ATOM     20  C   UNL     1       1.933  -0.671   2.212  1.00  0.00     0.120 C 
ATOM     21  C   UNL     1       2.170  -0.468   3.712  1.00  0.00     0.034 C 
BRANCH  20  22
ATOM     22  C   UNL     1       0.967  -1.827   1.858  1.00  0.00     0.079 C 
ATOM     23  C   UNL     1       1.618  -3.218   1.912  1.00  0.00     0.045 C 
ATOM     24  S   UNL     1      -0.548  -1.974   2.896  1.00  0.00    -0.128 SA
ATOM     25  C   UNL     1       0.519  -4.205   2.163  1.00  0.00    -0.019 C 
ATOM     26  C   UNL     1      -0.611  -3.690   2.660  1.00  0.00     0.037 C 
ENDBRANCH  20  22
ENDBRANCH  16  20
ENDBRANCH  12  15
ENDBRANCH  10  11
ENDBRANCH   4  10
ENDBRANCH   3   4
ENDBRANCH   1   3
BRANCH   1  27
ATOM     27  O   UNL     1       3.769   6.934   4.269  1.00  0.00    -0.462 OA
BRANCH  27  28
ATOM     28  C   UNL     1       3.837   7.874   5.359  1.00  0.00     0.274 C 
BRANCH  28  29
ATOM     29  C   UNL     1       2.469   7.961   6.025  1.00  0.00     0.275 C 
BRANCH  29  30
ATOM     30  O   UNL     1       2.246   6.950   7.020  1.00  0.00    -0.458 OA
BRANCH  30  31
ATOM     31  C   UNL     1       1.844   5.759   6.535  1.00  0.00     0.338 C 
ATOM     32  O   UNL     1       2.187   5.207   5.507  1.00  0.00    -0.246 OA
BRANCH  31  33
ATOM     33  C   UNL     1       0.654   5.275   7.222  1.00  0.00     0.060 A 
ATOM     34  C   UNL     1       0.209   4.010   6.826  1.00  0.00     0.016 A 
ATOM     35  C   UNL     1      -0.144   6.141   7.969  1.00  0.00     0.016 A 
ATOM     36  C   UNL     1      -1.104   3.670   7.030  1.00  0.00     0.010 A 
ATOM     37  C   UNL     1      -1.438   5.762   8.254  1.00  0.00     0.010 A 
ATOM     38  C   UNL     1      -1.920   4.548   7.748  1.00  0.00    -0.014 A 
BRANCH  38  39
ATOM     39  C   UNL     1      -3.166   3.988   8.251  1.00  0.00     0.031 A 
ATOM     40  C   UNL     1      -2.924   2.781   9.101  1.00  0.00     0.074 A 
ATOM     41  C   UNL     1      -4.342   4.627   8.121  1.00  0.00     0.049 A 
ATOM     42  N   UNL     1      -3.517   1.633   9.069  1.00  0.00    -0.248 NA
ATOM     43  C   UNL     1      -1.746   2.810  10.002  1.00  0.00     0.031 C 
ATOM     44  C   UNL     1      -4.556   5.942   7.510  1.00  0.00     0.029 A 
ATOM     45  N   UNL     1      -5.561   4.327   8.651  1.00  0.00    -0.354 N 
ATOM     46  C   UNL     1      -2.913   0.874  10.072  1.00  0.00     0.074 A 
ATOM     47  C   UNL     1      -1.723   1.566  10.470  1.00  0.00     0.031 C 
ATOM     48  C   UNL     1      -5.738   6.435   7.936  1.00  0.00     0.029 A 
ATOM     49  C   UNL     1      -6.395   5.434   8.758  1.00  0.00     0.049 A 
ATOM     50  H   UNL     1      -5.824   3.420   8.929  1.00  0.00     0.167 HD
ATOM     51  C   UNL     1      -3.606  -0.096  10.721  1.00  0.00     0.037 A 
ATOM     52  C   UNL     1      -7.486   5.553   9.552  1.00  0.00     0.037 A 
ATOM     53  C   UNL     1      -4.702  -0.563   9.919  1.00  0.00     0.049 A 
ATOM     54  C   UNL     1      -7.901   4.191   9.963  1.00  0.00     0.074 A 
ATOM     55  C   UNL     1      -4.840  -1.299   8.764  1.00  0.00     0.029 A 
ATOM     56  N   UNL     1      -5.892   0.074  10.142  1.00  0.00    -0.354 N 
ATOM     57  N   UNL     1      -8.420   3.309   9.158  1.00  0.00    -0.248 NA
ATOM     58  C   UNL     1      -7.449   3.670  11.249  1.00  0.00     0.031 C 
ATOM     59  C   UNL     1      -6.070  -0.877   8.177  1.00  0.00     0.029 A 
ATOM     60  C   UNL     1      -6.652   0.082   9.005  1.00  0.00     0.049 A 
ATOM     61  H   UNL     1      -6.163   0.471  11.000  1.00  0.00     0.167 HD
ATOM     62  C   UNL     1      -7.967   2.096   9.639  1.00  0.00     0.074 A 
ATOM     63  C   UNL     1      -7.556   2.361  11.010  1.00  0.00     0.031 C 
ATOM     64  C   UNL     1      -7.671   1.081   8.777  1.00  0.00     0.037 A 
BRANCH  51  65
ATOM     65  C   UNL     1      -3.618  -0.218  12.237  1.00  0.00     0.064 A 
ATOM     66  C   UNL     1      -4.376  -1.253  12.822  1.00  0.00     0.173 A 
ATOM     67  C   UNL     1      -3.214   0.806  13.126  1.00  0.00     0.173 A 
ATOM     68  F   UNL     1      -4.827  -2.272  12.075  1.00  0.00    -0.203 F 
ATOM     69  C   UNL     1      -4.774  -1.213  14.162  1.00  0.00     0.198 A 
ATOM     70  C   UNL     1      -3.571   0.816  14.472  1.00  0.00     0.198 A 
ATOM     71  F   UNL     1      -2.557   1.898  12.721  1.00  0.00    -0.203 F 
ATOM     72  F   UNL     1      -5.606  -2.150  14.636  1.00  0.00    -0.200 F 
ATOM     73  C   UNL     1      -4.380  -0.173  14.983  1.00  0.00     0.200 A 
ATOM     74  F   UNL     1      -3.194   1.846  15.243  1.00  0.00    -0.200 F 
ATOM     75  F   UNL     1      -4.816  -0.096  16.246  1.00  0.00    -0.200 F 
ENDBRANCH  51  65
BRANCH  52  76
ATOM     76  C   UNL     1      -8.068   6.768  10.172  1.00  0.00     0.064 A 
ATOM     77  C   UNL     1      -9.372   6.749  10.695  1.00  0.00     0.173 A 
ATOM     78  C   UNL     1      -7.284   7.891  10.495  1.00  0.00     0.173 A 
ATOM     79  F   UNL     1     -10.175   5.699  10.470  1.00  0.00    -0.203 F 
ATOM     80  C   UNL     1      -9.850   7.774  11.517  1.00  0.00     0.198 A 
ATOM     81  C   UNL     1      -7.768   8.923  11.301  1.00  0.00     0.198 A 
ATOM     82  F   UNL     1      -6.000   7.972  10.117  1.00  0.00    -0.203 F 
ATOM     83  F   UNL     1     -11.074   7.682  12.055  1.00  0.00    -0.200 F 
ATOM     84  C   UNL     1      -9.044   8.856  11.826  1.00  0.00     0.200 A 
ATOM     85  F   UNL     1      -6.966   9.951  11.615  1.00  0.00    -0.200 F 
ATOM     86  F   UNL     1      -9.479   9.810  12.660  1.00  0.00    -0.200 F 
ENDBRANCH  52  76
BRANCH  64  87
ATOM     87  C   UNL     1      -8.325   1.123   7.430  1.00  0.00     0.064 A 
ATOM     88  C   UNL     1      -8.124   2.133   6.475  1.00  0.00     0.173 A 
ATOM     89  C   UNL     1      -9.153   0.050   7.074  1.00  0.00     0.173 A 
ATOM     90  F   UNL     1      -7.268   3.139   6.699  1.00  0.00    -0.203 F 
ATOM     91  C   UNL     1      -8.779   2.099   5.245  1.00  0.00     0.198 A 
ATOM     92  C   UNL     1      -9.768  -0.005   5.828  1.00  0.00     0.198 A 
ATOM     93  F   UNL     1      -9.339  -0.969   7.928  1.00  0.00    -0.203 F 
ATOM     94  F   UNL     1      -8.601   3.092   4.362  1.00  0.00    -0.200 F 
ATOM     95  C   UNL     1      -9.596   1.028   4.922  1.00  0.00     0.200 A 
ATOM     96  F   UNL     1     -10.514  -1.069   5.501  1.00  0.00    -0.200 F 
ATOM     97  F   UNL     1     -10.199   0.979   3.726  1.00  0.00    -0.200 F 
ENDBRANCH  64  87
ENDBRANCH  38  39
ENDBRANCH  31  33
ENDBRANCH  30  31
ENDBRANCH  29  30
ENDBRANCH  28  29
ENDBRANCH  27  28
ENDBRANCH   1  27
TORSDOF 17
