REMARK SMILES C[C@H](CO)CSc1cc(Cl)ccc1C(=O)OCCOC(=O)c1ccc(-c2c3nc(c(-c4c(F)c(F)c(F)c(F)c4F)c4ccc([nH]4)c(-c4c(F)c(F)c(F)c(F)c4F)c4nc(c(-c5c(F)c(F)c(F)c(F)c5F)c5ccc2[nH]5)C=C4)C=C3)cc1
REMARK SMILES IDX 16 1 14 2 15 3 13 4 7 5 8 6 9 7 12 8 10 9 11 10 6 11 5 12
REMARK SMILES IDX 2 13 1 14 3 15 4 16 17 18 18 19 19 20 20 21 21 22 22 23
REMARK SMILES IDX 23 24 84 25 24 26 83 27 25 28 26 29 27 30 77 31 28 32 82 33
REMARK SMILES IDX 76 34 78 35 29 36 81 37 75 38 74 39 30 41 62 42 42 43 61 44
REMARK SMILES IDX 43 45 46 46 60 47 79 48 44 49 45 50 59 52 80 53 47 54 31 55
REMARK SMILES IDX 32 56 40 57 33 58 34 59 38 60 41 61 35 62 36 63 39 64 37 65
REMARK SMILES IDX 63 66 64 67 72 68 65 69 66 70 70 71 73 72 67 73 68 74 71 75
REMARK SMILES IDX 69 76 48 77 49 78 57 79 50 80 51 81 55 82 58 83 52 84 53 85
REMARK SMILES IDX 56 86 54 87
REMARK H PARENT 4 17 78 40 46 51
REMARK Flexibility Score: inf
ROOT
ATOM      1  O   UNL     1      -0.956   1.177  -0.956  1.00  0.00    -0.458 OA
ENDROOT
BRANCH   1   2
ATOM      2  C   UNL     1      -1.639   0.304  -1.716  1.00  0.00     0.339 C 
ATOM      3  O   UNL     1      -2.152   0.546  -2.799  1.00  0.00    -0.246 OA
BRANCH   2   4
ATOM      4  C   UNL     1      -1.492  -1.081  -1.190  1.00  0.00     0.073 A 
ATOM      5  C   UNL     1      -1.656  -1.508   0.142  1.00  0.00     0.023 A 
ATOM      6  C   UNL     1      -1.507  -2.890   0.416  1.00  0.00     0.036 A 
ATOM      7  C   UNL     1      -1.177  -3.809  -0.581  1.00  0.00     0.042 A 
ATOM      8  C   UNL     1      -1.194  -2.038  -2.190  1.00  0.00     0.018 A 
ATOM      9  Cl  UNL     1      -1.014  -5.477  -0.195  1.00  0.00    -0.084 Cl
ATOM     10  C   UNL     1      -1.016  -3.387  -1.889  1.00  0.00     0.021 A 
BRANCH   5  11
ATOM     11  S   UNL     1      -2.292  -0.606   1.555  1.00  0.00    -0.125 SA
BRANCH  11  12
ATOM     12  C   UNL     1      -1.112   0.734   1.938  1.00  0.00     0.080 C 
BRANCH  12  13
ATOM     13  C   UNL     1       0.350   0.468   2.346  1.00  0.00     0.022 C 
ATOM     14  C   UNL     1       1.055   1.835   2.456  1.00  0.00     0.011 C 
BRANCH  13  15
ATOM     15  C   UNL     1       1.182  -0.484   1.482  1.00  0.00     0.160 C 
BRANCH  15  16
ATOM     16  O   UNL     1       1.261  -0.065   0.134  1.00  0.00    -0.396 OA
ATOM     17  H   UNL     1       0.371  -0.046  -0.251  1.00  0.00     0.210 HD
ENDBRANCH  15  16
ENDBRANCH  13  15
ENDBRANCH  12  13
ENDBRANCH  11  12
ENDBRANCH   5  11
ENDBRANCH   2   4
ENDBRANCH   1   2
BRANCH   1  18
ATOM     18  C   UNL     1      -0.762   2.526  -1.431  1.00  0.00     0.275 C 
BRANCH  18  19
ATOM     19  C   UNL     1       0.737   2.803  -1.538  1.00  0.00     0.275 C 
BRANCH  19  20
ATOM     20  O   UNL     1       1.249   2.034  -2.635  1.00  0.00    -0.458 OA
BRANCH  20  21
ATOM     21  C   UNL     1       2.428   1.400  -2.449  1.00  0.00     0.338 C 
ATOM     22  O   UNL     1       3.209   1.498  -1.522  1.00  0.00    -0.246 OA
BRANCH  21  23
ATOM     23  C   UNL     1       2.611   0.506  -3.604  1.00  0.00     0.060 A 
ATOM     24  C   UNL     1       1.579  -0.370  -3.949  1.00  0.00     0.016 A 
ATOM     25  C   UNL     1       3.783   0.552  -4.354  1.00  0.00     0.016 A 
ATOM     26  C   UNL     1       1.695  -1.191  -5.063  1.00  0.00     0.010 A 
ATOM     27  C   UNL     1       3.871  -0.220  -5.513  1.00  0.00     0.010 A 
ATOM     28  C   UNL     1       2.820  -1.078  -5.888  1.00  0.00    -0.014 A 
BRANCH  28  29
ATOM     29  C   UNL     1       2.886  -1.787  -7.190  1.00  0.00     0.031 A 
ATOM     30  C   UNL     1       3.983  -2.775  -7.444  1.00  0.00     0.074 A 
ATOM     31  C   UNL     1       2.014  -1.461  -8.164  1.00  0.00     0.049 A 
ATOM     32  N   UNL     1       4.400  -3.280  -8.575  1.00  0.00    -0.248 NA
ATOM     33  C   UNL     1       4.727  -3.239  -6.263  1.00  0.00     0.031 C 
ATOM     34  C   UNL     1       0.885  -0.539  -8.015  1.00  0.00     0.029 A 
ATOM     35  N   UNL     1       1.955  -1.843  -9.481  1.00  0.00    -0.354 N 
ATOM     36  C   UNL     1       5.486  -4.082  -8.251  1.00  0.00     0.074 A 
ATOM     37  C   UNL     1       5.666  -3.993  -6.818  1.00  0.00     0.031 C 
ATOM     38  C   UNL     1       0.248  -0.426  -9.190  1.00  0.00     0.029 A 
ATOM     39  C   UNL     1       0.973  -1.196 -10.192  1.00  0.00     0.049 A 
ATOM     40  H   UNL     1       2.557  -2.514  -9.877  1.00  0.00     0.167 HD
ATOM     41  C   UNL     1       6.260  -4.816  -9.086  1.00  0.00     0.037 A 
ATOM     42  C   UNL     1       0.723  -1.176 -11.515  1.00  0.00     0.037 A 
ATOM     43  C   UNL     1       6.043  -4.898 -10.508  1.00  0.00     0.049 A 
ATOM     44  C   UNL     1       1.629  -1.954 -12.427  1.00  0.00     0.074 A 
ATOM     45  C   UNL     1       6.749  -5.623 -11.452  1.00  0.00     0.029 A 
ATOM     46  N   UNL     1       5.035  -4.228 -11.190  1.00  0.00    -0.354 N 
ATOM     47  N   UNL     1       2.670  -2.692 -12.123  1.00  0.00    -0.248 NA
ATOM     48  C   UNL     1       1.340  -1.883 -13.865  1.00  0.00     0.031 C 
ATOM     49  C   UNL     1       6.195  -5.357 -12.709  1.00  0.00     0.029 A 
ATOM     50  C   UNL     1       5.112  -4.506 -12.545  1.00  0.00     0.049 A 
ATOM     51  H   UNL     1       4.364  -3.642 -10.772  1.00  0.00     0.167 HD
ATOM     52  C   UNL     1       3.152  -3.186 -13.325  1.00  0.00     0.074 A 
ATOM     53  C   UNL     1       2.278  -2.676 -14.364  1.00  0.00     0.031 C 
ATOM     54  C   UNL     1       4.223  -3.985 -13.553  1.00  0.00     0.037 A 
BRANCH  41  55
ATOM     55  C   UNL     1       7.429  -5.547  -8.490  1.00  0.00     0.064 A 
ATOM     56  C   UNL     1       7.261  -6.653  -7.643  1.00  0.00     0.173 A 
ATOM     57  C   UNL     1       8.742  -5.141  -8.780  1.00  0.00     0.173 A 
ATOM     58  F   UNL     1       6.029  -7.075  -7.322  1.00  0.00    -0.203 F 
ATOM     59  C   UNL     1       8.359  -7.303  -7.083  1.00  0.00     0.198 A 
ATOM     60  C   UNL     1       9.838  -5.812  -8.243  1.00  0.00     0.198 A 
ATOM     61  F   UNL     1       8.963  -4.093  -9.587  1.00  0.00    -0.203 F 
ATOM     62  F   UNL     1       8.171  -8.321  -6.232  1.00  0.00    -0.200 F 
ATOM     63  C   UNL     1       9.646  -6.885  -7.387  1.00  0.00     0.200 A 
ATOM     64  F   UNL     1      11.081  -5.414  -8.547  1.00  0.00    -0.200 F 
ATOM     65  F   UNL     1      10.701  -7.511  -6.846  1.00  0.00    -0.200 F 
ENDBRANCH  41  55
BRANCH  42  66
ATOM     66  C   UNL     1      -0.405  -0.365 -12.045  1.00  0.00     0.064 A 
ATOM     67  C   UNL     1      -1.536  -0.982 -12.595  1.00  0.00     0.173 A 
ATOM     68  C   UNL     1      -0.392   1.038 -11.990  1.00  0.00     0.173 A 
ATOM     69  F   UNL     1      -1.587  -2.319 -12.693  1.00  0.00    -0.203 F 
ATOM     70  C   UNL     1      -2.608  -0.230 -13.073  1.00  0.00     0.198 A 
ATOM     71  C   UNL     1      -1.477   1.788 -12.439  1.00  0.00     0.198 A 
ATOM     72  F   UNL     1       0.665   1.681 -11.473  1.00  0.00    -0.203 F 
ATOM     73  F   UNL     1      -3.662  -0.846 -13.625  1.00  0.00    -0.200 F 
ATOM     74  C   UNL     1      -2.582   1.154 -12.985  1.00  0.00     0.200 A 
ATOM     75  F   UNL     1      -1.454   3.124 -12.338  1.00  0.00    -0.200 F 
ATOM     76  F   UNL     1      -3.619   1.875 -13.432  1.00  0.00    -0.200 F 
ENDBRANCH  42  66
BRANCH  54  77
ATOM     77  C   UNL     1       4.485  -4.379 -14.975  1.00  0.00     0.064 A 
ATOM     78  C   UNL     1       5.020  -3.472 -15.901  1.00  0.00     0.173 A 
ATOM     79  C   UNL     1       4.240  -5.692 -15.402  1.00  0.00     0.173 A 
ATOM     80  F   UNL     1       5.252  -2.200 -15.543  1.00  0.00    -0.203 F 
ATOM     81  C   UNL     1       5.285  -3.862 -17.210  1.00  0.00     0.198 A 
ATOM     82  C   UNL     1       4.533  -6.087 -16.704  1.00  0.00     0.198 A 
ATOM     83  F   UNL     1       3.732  -6.596 -14.551  1.00  0.00    -0.203 F 
ATOM     84  F   UNL     1       5.758  -2.970 -18.091  1.00  0.00    -0.200 F 
ATOM     85  C   UNL     1       5.050  -5.171 -17.608  1.00  0.00     0.200 A 
ATOM     86  F   UNL     1       4.316  -7.354 -17.083  1.00  0.00    -0.200 F 
ATOM     87  F   UNL     1       5.317  -5.548 -18.866  1.00  0.00    -0.200 F 
ENDBRANCH  54  77
ENDBRANCH  28  29
ENDBRANCH  21  23
ENDBRANCH  20  21
ENDBRANCH  19  20
ENDBRANCH  18  19
ENDBRANCH   1  18
TORSDOF 16
