REMARK SMILES Cc1ccc(C(=O)OCCOC(=O)c2ccc(-c3c4nc(c(-c5c(F)c(F)c(F)c(F)c5F)c5ccc([nH]5)c(-c5c(F)c(F)c(F)c(F)c5F)c5nc(c(-c6c(F)c(F)c(F)c(F)c6F)c6ccc3[nH]6)C=C5)C=C4)cc2)cc1N1C(=O)/C(=C\c2nc3ccccc3n2C)SC1=S
REMARK SMILES IDX 9 1 8 2 6 3 7 4 5 5 1 6 2 7 3 8 78 9 4 10 77 11 79 12 80 13
REMARK SMILES IDX 95 14 81 15 82 16 94 17 96 18 83 19 84 20 85 21 92 22 86 23
REMARK SMILES IDX 91 24 93 25 87 26 90 27 88 28 89 29 10 30 11 31 12 32 13 33
REMARK SMILES IDX 14 34 15 35 76 36 16 37 75 38 17 39 18 40 19 41 69 42 20 43
REMARK SMILES IDX 74 44 68 45 70 46 21 47 73 48 67 49 66 50 22 52 54 53 34 54
REMARK SMILES IDX 53 55 35 56 38 57 52 58 71 59 36 60 37 61 51 63 72 64 39 65
REMARK SMILES IDX 23 66 24 67 32 68 25 69 26 70 30 71 33 72 27 73 28 74 31 75
REMARK SMILES IDX 29 76 55 77 56 78 64 79 57 80 58 81 62 82 65 83 59 84 60 85
REMARK SMILES IDX 63 86 61 87 40 88 41 89 49 90 42 91 43 92 47 93 50 94 44 95
REMARK SMILES IDX 45 96 48 97 46 98
REMARK H PARENT 70 51 38 62
REMARK Flexibility Score: inf
ROOT
ATOM      1  C   UNL     1      -4.589   1.610  -2.357  1.00  0.00     0.275 C 
ENDROOT
BRANCH   1   2
ATOM      2  O   UNL     1      -3.295   0.990  -2.350  1.00  0.00    -0.458 OA
BRANCH   2   3
ATOM      3  C   UNL     1      -2.576   1.404  -1.280  1.00  0.00     0.338 C 
ATOM      4  O   UNL     1      -2.973   2.178  -0.418  1.00  0.00    -0.246 OA
BRANCH   3   5
ATOM      5  C   UNL     1      -1.170   0.975  -1.286  1.00  0.00     0.062 A 
ATOM      6  C   UNL     1       2.881   0.080  -0.094  1.00  0.00     0.046 C 
ATOM      7  C   UNL     1       1.515   0.444  -0.605  1.00  0.00    -0.027 A 
ATOM      8  C   UNL     1       0.627  -0.599  -0.947  1.00  0.00     0.006 A 
ATOM      9  C   UNL     1       1.044   1.764  -0.678  1.00  0.00     0.054 A 
ATOM     10  C   UNL     1      -0.709  -0.337  -1.295  1.00  0.00     0.016 A 
ATOM     11  C   UNL     1      -0.283   2.010  -1.032  1.00  0.00     0.042 A 
BRANCH   9  12
ATOM     12  N   UNL     1       1.793   2.900  -0.280  1.00  0.00    -0.261 N 
ATOM     13  C   UNL     1       1.298   3.660   0.778  1.00  0.00     0.270 C 
ATOM     14  C   UNL     1       2.699   3.528  -1.115  1.00  0.00     0.152 C 
ATOM     15  O   UNL     1       0.236   3.467   1.359  1.00  0.00    -0.268 OA
ATOM     16  C   UNL     1       2.119   4.893   0.946  1.00  0.00     0.084 C 
ATOM     17  S   UNL     1       3.098   5.120  -0.457  1.00  0.00    -0.054 SA
ATOM     18  S   UNL     1       3.311   3.007  -2.581  1.00  0.00    -0.051 S 
ATOM     19  C   UNL     1       2.124   5.721   2.001  1.00  0.00     0.068 C 
BRANCH  19  20
ATOM     20  C   UNL     1       1.490   5.357   3.217  1.00  0.00     0.134 A 
ATOM     21  N   UNL     1       1.368   4.146   3.722  1.00  0.00    -0.229 NA
ATOM     22  N   UNL     1       0.941   6.288   4.077  1.00  0.00    -0.328 N 
ATOM     23  C   UNL     1       0.568   4.269   4.820  1.00  0.00     0.089 A 
ATOM     24  C   UNL     1       0.286   5.605   5.082  1.00  0.00     0.068 A 
ATOM     25  C   UNL     1       1.038   7.724   3.964  1.00  0.00     0.152 C 
ATOM     26  C   UNL     1       0.043   3.264   5.644  1.00  0.00     0.030 A 
ATOM     27  C   UNL     1      -0.501   5.998   6.172  1.00  0.00     0.028 A 
ATOM     28  C   UNL     1      -0.745   3.636   6.735  1.00  0.00     0.002 A 
ATOM     29  C   UNL     1      -1.003   4.982   6.997  1.00  0.00     0.002 A 
ENDBRANCH  19  20
ENDBRANCH   9  12
ENDBRANCH   3   5
ENDBRANCH   2   3
ENDBRANCH   1   2
BRANCH   1  30
ATOM     30  C   UNL     1      -5.646   0.836  -3.144  1.00  0.00     0.275 C 
BRANCH  30  31
ATOM     31  O   UNL     1      -5.500  -0.604  -3.299  1.00  0.00    -0.458 OA
BRANCH  31  32
ATOM     32  C   UNL     1      -4.970  -1.501  -2.435  1.00  0.00     0.338 C 
ATOM     33  O   UNL     1      -4.493  -2.569  -2.806  1.00  0.00    -0.246 OA
BRANCH  32  34
ATOM     34  C   UNL     1      -4.953  -1.149  -1.011  1.00  0.00     0.060 A 
ATOM     35  C   UNL     1      -3.828  -1.488  -0.239  1.00  0.00     0.016 A 
ATOM     36  C   UNL     1      -5.998  -0.404  -0.479  1.00  0.00     0.016 A 
ATOM     37  C   UNL     1      -3.684  -0.977   1.042  1.00  0.00     0.010 A 
ATOM     38  C   UNL     1      -5.811   0.202   0.735  1.00  0.00     0.010 A 
ATOM     39  C   UNL     1      -4.684  -0.129   1.508  1.00  0.00    -0.014 A 
BRANCH  39  40
ATOM     40  C   UNL     1      -4.893   0.144   2.914  1.00  0.00     0.031 A 
ATOM     41  C   UNL     1      -4.330   1.315   3.589  1.00  0.00     0.074 A 
ATOM     42  C   UNL     1      -5.867  -0.656   3.402  1.00  0.00     0.049 A 
ATOM     43  N   UNL     1      -4.442   1.506   4.854  1.00  0.00    -0.248 NA
ATOM     44  C   UNL     1      -3.567   2.363   2.925  1.00  0.00     0.031 C 
ATOM     45  C   UNL     1      -6.719  -0.538   4.569  1.00  0.00     0.029 A 
ATOM     46  N   UNL     1      -6.205  -1.913   2.862  1.00  0.00    -0.354 N 
ATOM     47  C   UNL     1      -4.059   2.802   5.124  1.00  0.00     0.074 A 
ATOM     48  C   UNL     1      -3.406   3.246   3.921  1.00  0.00     0.031 C 
ATOM     49  C   UNL     1      -7.229  -1.757   4.842  1.00  0.00     0.029 A 
ATOM     50  C   UNL     1      -6.573  -2.708   3.947  1.00  0.00     0.049 A 
ATOM     51  H   UNL     1      -6.185  -2.176   1.914  1.00  0.00     0.167 HD
ATOM     52  C   UNL     1      -4.497   3.345   6.297  1.00  0.00     0.037 A 
ATOM     53  C   UNL     1      -5.696  -3.683   4.333  1.00  0.00     0.037 A 
ATOM     54  C   UNL     1      -5.075   2.280   7.128  1.00  0.00     0.049 A 
ATOM     55  C   UNL     1      -5.155  -3.370   5.705  1.00  0.00     0.074 A 
ATOM     56  C   UNL     1      -6.383   1.876   7.337  1.00  0.00     0.029 A 
ATOM     57  N   UNL     1      -4.262   1.219   7.535  1.00  0.00    -0.354 N 
ATOM     58  N   UNL     1      -4.882  -2.167   6.137  1.00  0.00    -0.248 NA
ATOM     59  C   UNL     1      -4.996  -4.401   6.719  1.00  0.00     0.031 C 
ATOM     60  C   UNL     1      -6.351   0.517   7.755  1.00  0.00     0.029 A 
ATOM     61  C   UNL     1      -5.028   0.107   7.835  1.00  0.00     0.049 A 
ATOM     62  H   UNL     1      -3.280   1.258   7.600  1.00  0.00     0.167 HD
ATOM     63  C   UNL     1      -4.612  -2.235   7.478  1.00  0.00     0.074 A 
ATOM     64  C   UNL     1      -4.668  -3.656   7.787  1.00  0.00     0.031 C 
ATOM     65  C   UNL     1      -4.418  -1.141   8.275  1.00  0.00     0.037 A 
BRANCH  52  66
ATOM     66  C   UNL     1      -4.640   4.823   6.631  1.00  0.00     0.064 A 
ATOM     67  C   UNL     1      -5.370   5.217   7.779  1.00  0.00     0.173 A 
ATOM     68  C   UNL     1      -4.165   5.903   5.857  1.00  0.00     0.173 A 
ATOM     69  F   UNL     1      -5.892   4.314   8.620  1.00  0.00    -0.203 F 
ATOM     70  C   UNL     1      -5.611   6.558   8.108  1.00  0.00     0.198 A 
ATOM     71  C   UNL     1      -4.381   7.244   6.203  1.00  0.00     0.198 A 
ATOM     72  F   UNL     1      -3.471   5.728   4.733  1.00  0.00    -0.203 F 
ATOM     73  F   UNL     1      -6.338   6.857   9.194  1.00  0.00    -0.200 F 
ATOM     74  C   UNL     1      -5.109   7.572   7.324  1.00  0.00     0.200 A 
ATOM     75  F   UNL     1      -3.872   8.217   5.431  1.00  0.00    -0.200 F 
ATOM     76  F   UNL     1      -5.323   8.855   7.644  1.00  0.00    -0.200 F 
ENDBRANCH  52  66
BRANCH  53  77
ATOM     77  C   UNL     1      -4.910  -4.291   3.203  1.00  0.00     0.064 A 
ATOM     78  C   UNL     1      -5.608  -4.781   2.073  1.00  0.00     0.173 A 
ATOM     79  C   UNL     1      -3.522  -4.162   3.072  1.00  0.00     0.173 A 
ATOM     80  F   UNL     1      -6.941  -4.941   2.126  1.00  0.00    -0.203 F 
ATOM     81  C   UNL     1      -4.972  -5.018   0.853  1.00  0.00     0.198 A 
ATOM     82  C   UNL     1      -2.882  -4.423   1.852  1.00  0.00     0.198 A 
ATOM     83  F   UNL     1      -2.779  -3.715   4.093  1.00  0.00    -0.203 F 
ATOM     84  F   UNL     1      -5.694  -5.373  -0.220  1.00  0.00    -0.200 F 
ATOM     85  C   UNL     1      -3.609  -4.825   0.740  1.00  0.00     0.200 A 
ATOM     86  F   UNL     1      -1.563  -4.212   1.729  1.00  0.00    -0.200 F 
ATOM     87  F   UNL     1      -2.999  -4.982  -0.444  1.00  0.00    -0.200 F 
ENDBRANCH  53  77
BRANCH  65  88
ATOM     88  C   UNL     1      -3.774  -1.196   9.638  1.00  0.00     0.064 A 
ATOM     89  C   UNL     1      -2.885  -2.210  10.032  1.00  0.00     0.173 A 
ATOM     90  C   UNL     1      -3.923  -0.129  10.556  1.00  0.00     0.173 A 
ATOM     91  F   UNL     1      -2.525  -3.192   9.194  1.00  0.00    -0.203 F 
ATOM     92  C   UNL     1      -2.287  -2.221  11.291  1.00  0.00     0.198 A 
ATOM     93  C   UNL     1      -3.263  -0.105  11.782  1.00  0.00     0.198 A 
ATOM     94  F   UNL     1      -4.684   0.940  10.284  1.00  0.00    -0.203 F 
ATOM     95  F   UNL     1      -1.509  -3.253  11.644  1.00  0.00    -0.200 F 
ATOM     96  C   UNL     1      -2.469  -1.166  12.163  1.00  0.00     0.200 A 
ATOM     97  F   UNL     1      -3.389   0.962  12.583  1.00  0.00    -0.200 F 
ATOM     98  F   UNL     1      -1.860  -1.159  13.355  1.00  0.00    -0.200 F 
ENDBRANCH  65  88
ENDBRANCH  39  40
ENDBRANCH  32  34
ENDBRANCH  31  32
ENDBRANCH  30  31
ENDBRANCH   1  30
TORSDOF 13
