REMARK SMILES O=C(CCN1C(=O)[C@@H]2[C@@H](C1=O)[C@H]1c3ccccc3[C@]2(Br)c2ccccc21)OCCOC(=O)c1ccc(-c2c3nc(c(-c4c(F)c(F)c(F)c(F)c4F)c4ccc([nH]4)c(-c4c(F)c(F)c(F)c(F)c4F)c4nc(c(-c5c(F)c(F)c(F)c(F)c5F)c5ccc2[nH]5)C=C4)C=C3)cc1
REMARK SMILES IDX 28 1 27 2 2 3 1 4 3 5 4 6 5 7 6 8 10 9 7 10 8 11 9 12 11 13
REMARK SMILES IDX 19 14 12 15 21 16 20 17 18 18 26 19 13 20 22 21 17 22 25 23
REMARK SMILES IDX 14 24 23 25 16 26 24 27 15 28 29 29 30 30 31 31 32 32 33 33
REMARK SMILES IDX 34 34 95 35 35 36 94 37 36 38 37 39 38 40 88 41 39 42 93 43
REMARK SMILES IDX 87 44 89 45 40 46 92 47 86 48 85 49 41 51 73 52 53 53 72 54
REMARK SMILES IDX 54 55 57 56 71 57 90 58 55 59 56 60 70 62 91 63 58 64 42 65
REMARK SMILES IDX 43 66 51 67 44 68 45 69 49 70 52 71 46 72 47 73 50 74 48 75
REMARK SMILES IDX 74 76 75 77 83 78 76 79 77 80 81 81 84 82 78 83 79 84 82 85
REMARK SMILES IDX 80 86 59 87 60 88 68 89 61 90 62 91 66 92 69 93 63 94 64 95
REMARK SMILES IDX 67 96 65 97
REMARK H PARENT 89 50 57 61
REMARK Flexibility Score: inf
ROOT
ATOM      1  C   UNL     1       3.548   1.361  -0.321  1.00  0.00     0.274 C 
ENDROOT
BRANCH   1   2
ATOM      2  O   UNL     1       2.317   0.610  -0.345  1.00  0.00    -0.462 OA
BRANCH   2   3
ATOM      3  C   UNL     1       2.234  -0.738  -0.224  1.00  0.00     0.307 C 
ATOM      4  O   UNL     1       1.214  -1.334  -0.566  1.00  0.00    -0.252 OA
BRANCH   3   5
ATOM      5  C   UNL     1       3.366  -1.497   0.433  1.00  0.00     0.144 C 
BRANCH   5   6
ATOM      6  C   UNL     1       4.143  -2.381  -0.539  1.00  0.00     0.140 C 
BRANCH   6   7
ATOM      7  N   UNL     1       5.108  -1.627  -1.320  1.00  0.00    -0.281 N 
ATOM      8  C   UNL     1       6.410  -1.324  -0.897  1.00  0.00     0.235 C 
ATOM      9  C   UNL     1       4.786  -1.006  -2.519  1.00  0.00     0.234 C 
ATOM     10  O   UNL     1       6.999  -1.772   0.068  1.00  0.00    -0.274 OA
ATOM     11  C   UNL     1       6.776  -0.131  -1.732  1.00  0.00     0.118 C 
ATOM     12  C   UNL     1       6.096  -0.548  -3.045  1.00  0.00     0.105 C 
ATOM     13  O   UNL     1       3.703  -0.902  -3.056  1.00  0.00    -0.274 OA
ATOM     14  C   UNL     1       8.047   0.674  -2.058  1.00  0.00     0.088 C 
ATOM     15  C   UNL     1       6.327   0.530  -4.101  1.00  0.00     0.063 C 
ATOM     16  C   UNL     1       7.379   2.051  -2.420  1.00  0.00    -0.022 A 
ATOM     17  Br  UNL     1       9.217   0.771  -0.536  1.00  0.00    -0.074 Br
ATOM     18  C   UNL     1       8.694   0.190  -3.367  1.00  0.00    -0.022 A 
ATOM     19  C   UNL     1       6.390   1.917  -3.457  1.00  0.00    -0.035 A 
ATOM     20  C   UNL     1       7.782   0.185  -4.480  1.00  0.00    -0.035 A 
ATOM     21  C   UNL     1       7.568   3.291  -1.816  1.00  0.00     0.006 A 
ATOM     22  C   UNL     1      10.015  -0.183  -3.583  1.00  0.00     0.006 A 
ATOM     23  C   UNL     1       5.594   2.991  -3.833  1.00  0.00     0.005 A 
ATOM     24  C   UNL     1       8.185  -0.191  -5.754  1.00  0.00     0.005 A 
ATOM     25  C   UNL     1       6.771   4.370  -2.214  1.00  0.00     0.000 A 
ATOM     26  C   UNL     1      10.415  -0.564  -4.869  1.00  0.00     0.000 A 
ATOM     27  C   UNL     1       5.788   4.219  -3.202  1.00  0.00     0.000 A 
ATOM     28  C   UNL     1       9.511  -0.566  -5.941  1.00  0.00     0.000 A 
ENDBRANCH   6   7
ENDBRANCH   5   6
ENDBRANCH   3   5
ENDBRANCH   2   3
ENDBRANCH   1   2
BRANCH   1  29
ATOM     29  C   UNL     1       3.697   2.240   0.916  1.00  0.00     0.275 C 
BRANCH  29  30
ATOM     30  O   UNL     1       3.598   1.416   2.086  1.00  0.00    -0.458 OA
BRANCH  30  31
ATOM     31  C   UNL     1       2.344   1.326   2.591  1.00  0.00     0.338 C 
ATOM     32  O   UNL     1       1.391   2.034   2.313  1.00  0.00    -0.246 OA
BRANCH  31  33
ATOM     33  C   UNL     1       2.236   0.097   3.403  1.00  0.00     0.060 A 
ATOM     34  C   UNL     1       3.308  -0.393   4.155  1.00  0.00     0.016 A 
ATOM     35  C   UNL     1       1.012  -0.583   3.388  1.00  0.00     0.016 A 
ATOM     36  C   UNL     1       3.133  -1.537   4.934  1.00  0.00     0.010 A 
ATOM     37  C   UNL     1       0.833  -1.716   4.179  1.00  0.00     0.010 A 
ATOM     38  C   UNL     1       1.884  -2.181   4.980  1.00  0.00    -0.014 A 
BRANCH  38  39
ATOM     39  C   UNL     1       1.632  -3.217   6.007  1.00  0.00     0.031 A 
ATOM     40  C   UNL     1       1.554  -4.670   5.666  1.00  0.00     0.074 A 
ATOM     41  C   UNL     1       1.456  -2.805   7.276  1.00  0.00     0.049 A 
ATOM     42  N   UNL     1       1.455  -5.695   6.474  1.00  0.00    -0.248 NA
ATOM     43  C   UNL     1       1.583  -5.024   4.241  1.00  0.00     0.031 C 
ATOM     44  C   UNL     1       1.454  -1.405   7.707  1.00  0.00     0.029 A 
ATOM     45  N   UNL     1       1.256  -3.511   8.434  1.00  0.00    -0.354 N 
ATOM     46  C   UNL     1       1.435  -6.818   5.661  1.00  0.00     0.074 A 
ATOM     47  C   UNL     1       1.480  -6.347   4.292  1.00  0.00     0.031 C 
ATOM     48  C   UNL     1       1.304  -1.357   9.038  1.00  0.00     0.029 A 
ATOM     49  C   UNL     1       1.176  -2.717   9.550  1.00  0.00     0.049 A 
ATOM     50  H   UNL     1       1.178  -4.492   8.461  1.00  0.00     0.167 HD
ATOM     51  C   UNL     1       1.403  -8.120   6.034  1.00  0.00     0.037 A 
ATOM     52  C   UNL     1       1.030  -3.048  10.846  1.00  0.00     0.037 A 
ATOM     53  C   UNL     1       1.335  -8.573   7.401  1.00  0.00     0.049 A 
ATOM     54  C   UNL     1       0.957  -4.498  11.227  1.00  0.00     0.074 A 
ATOM     55  C   UNL     1       1.359  -9.871   7.881  1.00  0.00     0.029 A 
ATOM     56  N   UNL     1       1.209  -7.742   8.505  1.00  0.00    -0.354 N 
ATOM     57  N   UNL     1       1.048  -5.557  10.460  1.00  0.00    -0.248 NA
ATOM     58  C   UNL     1       0.764  -4.801  12.651  1.00  0.00     0.031 C 
ATOM     59  C   UNL     1       1.194  -9.828   9.269  1.00  0.00     0.029 A 
ATOM     60  C   UNL     1       1.115  -8.502   9.661  1.00  0.00     0.049 A 
ATOM     61  H   UNL     1       1.190  -6.758   8.473  1.00  0.00     0.167 HD
ATOM     62  C   UNL     1       0.938  -6.651  11.305  1.00  0.00     0.074 A 
ATOM     63  C   UNL     1       0.790  -6.128  12.648  1.00  0.00     0.031 C 
ATOM     64  C   UNL     1       0.957  -7.969  10.991  1.00  0.00     0.037 A 
BRANCH  51  65
ATOM     65  C   UNL     1       1.456  -9.158   4.952  1.00  0.00     0.064 A 
ATOM     66  C   UNL     1       2.638  -9.402   4.237  1.00  0.00     0.173 A 
ATOM     67  C   UNL     1       0.346  -9.973   4.684  1.00  0.00     0.173 A 
ATOM     68  F   UNL     1       3.726  -8.648   4.454  1.00  0.00    -0.203 F 
ATOM     69  C   UNL     1       2.702 -10.412   3.281  1.00  0.00     0.198 A 
ATOM     70  C   UNL     1       0.421 -10.999   3.745  1.00  0.00     0.198 A 
ATOM     71  F   UNL     1      -0.805  -9.789   5.348  1.00  0.00    -0.203 F 
ATOM     72  F   UNL     1       3.834 -10.609   2.591  1.00  0.00    -0.200 F 
ATOM     73  C   UNL     1       1.597 -11.215   3.042  1.00  0.00     0.200 A 
ATOM     74  F   UNL     1      -0.643 -11.784   3.525  1.00  0.00    -0.200 F 
ATOM     75  F   UNL     1       1.666 -12.198   2.134  1.00  0.00    -0.200 F 
ENDBRANCH  51  65
BRANCH  52  76
ATOM     76  C   UNL     1       1.003  -1.976  11.870  1.00  0.00     0.064 A 
ATOM     77  C   UNL     1       2.095  -1.775  12.724  1.00  0.00     0.173 A 
ATOM     78  C   UNL     1      -0.085  -1.096  11.978  1.00  0.00     0.173 A 
ATOM     79  F   UNL     1       3.151  -2.600  12.664  1.00  0.00    -0.203 F 
ATOM     80  C   UNL     1       2.101  -0.735  13.650  1.00  0.00     0.198 A 
ATOM     81  C   UNL     1      -0.068  -0.043  12.889  1.00  0.00     0.198 A 
ATOM     82  F   UNL     1      -1.149  -1.243  11.176  1.00  0.00    -0.203 F 
ATOM     83  F   UNL     1       3.150  -0.577  14.469  1.00  0.00    -0.200 F 
ATOM     84  C   UNL     1       1.024   0.135  13.726  1.00  0.00     0.200 A 
ATOM     85  F   UNL     1      -1.102   0.807  12.947  1.00  0.00    -0.200 F 
ATOM     86  F   UNL     1       1.038   1.146  14.605  1.00  0.00    -0.200 F 
ENDBRANCH  52  76
BRANCH  64  87
ATOM     87  C   UNL     1       0.807  -8.948  12.117  1.00  0.00     0.064 A 
ATOM     88  C   UNL     1      -0.432  -9.160  12.738  1.00  0.00     0.173 A 
ATOM     89  C   UNL     1       1.893  -9.738  12.527  1.00  0.00     0.173 A 
ATOM     90  F   UNL     1      -1.495  -8.418  12.392  1.00  0.00    -0.203 F 
ATOM     91  C   UNL     1      -0.578 -10.122  13.733  1.00  0.00     0.198 A 
ATOM     92  C   UNL     1       1.737 -10.716  13.504  1.00  0.00     0.198 A 
ATOM     93  F   UNL     1       3.098  -9.576  11.961  1.00  0.00    -0.203 F 
ATOM     94  F   UNL     1      -1.766 -10.289  14.332  1.00  0.00    -0.200 F 
ATOM     95  C   UNL     1       0.503 -10.907  14.107  1.00  0.00     0.200 A 
ATOM     96  F   UNL     1       2.779 -11.482  13.856  1.00  0.00    -0.200 F 
ATOM     97  F   UNL     1       0.355 -11.846  15.052  1.00  0.00    -0.200 F 
ENDBRANCH  64  87
ENDBRANCH  38  39
ENDBRANCH  31  33
ENDBRANCH  30  31
ENDBRANCH  29  30
ENDBRANCH   1  29
TORSDOF 13
