REMARK SMILES CC[C@@](C)(NS(=O)(=O)c1ccc(F)c(F)c1)C(=O)OCCOC(=O)c1ccc(-c2c3nc(c(-c4c(F)c(F)c(F)c(F)c4F)c4ccc([nH]4)c(-c4c(F)c(F)c(F)c(F)c4F)c4nc(c(-c5c(F)c(F)c(F)c(F)c5F)c5ccc2[nH]5)C=C4)C=C3)cc1
REMARK SMILES IDX 20 1 19 2 17 3 18 4 3 5 4 6 2 7 1 8 5 9 6 11 7 12 8 13 9 14
REMARK SMILES IDX 10 15 16 16 11 17 14 18 12 19 15 20 13 21 21 22 22 23 23 24
REMARK SMILES IDX 24 25 25 26 26 27 87 28 27 29 86 30 28 31 29 32 30 33 80 34
REMARK SMILES IDX 31 35 85 36 79 37 81 38 32 39 84 40 78 41 77 42 33 44 65 45
REMARK SMILES IDX 45 46 64 47 46 48 49 49 63 50 82 51 47 52 48 53 62 55 83 56
REMARK SMILES IDX 50 57 34 58 35 59 43 60 36 61 37 62 41 63 44 64 38 65 39 66
REMARK SMILES IDX 42 67 40 68 66 69 67 70 75 71 68 72 69 73 73 74 76 75 70 76
REMARK SMILES IDX 71 77 74 78 72 79 51 80 52 81 60 82 53 83 54 84 58 85 61 86
REMARK SMILES IDX 55 87 56 88 59 89 57 90
REMARK H PARENT 5 10 81 43 49 54
REMARK Flexibility Score: inf
ROOT
ATOM      1  C   UNL     1       4.687  -1.330  -2.244  1.00  0.00     0.274 C 
ENDROOT
BRANCH   1   2
ATOM      2  O   UNL     1       3.306  -1.286  -2.672  1.00  0.00    -0.461 OA
BRANCH   2   3
ATOM      3  C   UNL     1       2.352  -1.388  -1.706  1.00  0.00     0.327 C 
ATOM      4  O   UNL     1       2.617  -1.437  -0.509  1.00  0.00    -0.250 OA
BRANCH   3   5
ATOM      5  C   UNL     1       0.918  -1.528  -2.273  1.00  0.00     0.127 C 
ATOM      6  C   UNL     1       0.524  -2.996  -2.080  1.00  0.00     0.042 C 
BRANCH   5   7
ATOM      7  C   UNL     1      -0.126  -0.642  -1.503  1.00  0.00     0.032 C 
ATOM      8  C   UNL     1      -0.128  -0.668   0.021  1.00  0.00     0.006 C 
ENDBRANCH   5   7
BRANCH   5   9
ATOM      9  N   UNL     1       0.784  -1.065  -3.684  1.00  0.00    -0.194 NA
ATOM     10  H   UNL     1       1.490  -0.334  -3.775  1.00  0.00     0.142 HD
BRANCH   9  11
ATOM     11  S   UNL     1       0.905  -1.927  -5.099  1.00  0.00     0.241 S 
ATOM     12  O   UNL     1       0.435  -3.278  -4.896  1.00  0.00    -0.207 OA
ATOM     13  O   UNL     1       0.315  -1.082  -6.114  1.00  0.00    -0.207 OA
BRANCH  11  14
ATOM     14  C   UNL     1       2.639  -1.988  -5.452  1.00  0.00     0.085 A 
ATOM     15  C   UNL     1       3.348  -3.190  -5.322  1.00  0.00     0.025 A 
ATOM     16  C   UNL     1       3.269  -0.834  -5.932  1.00  0.00     0.064 A 
ATOM     17  C   UNL     1       4.709  -3.221  -5.633  1.00  0.00     0.044 A 
ATOM     18  C   UNL     1       4.622  -0.882  -6.241  1.00  0.00     0.160 A 
ATOM     19  C   UNL     1       5.340  -2.063  -6.083  1.00  0.00     0.158 A 
ATOM     20  F   UNL     1       5.243   0.229  -6.660  1.00  0.00    -0.204 F 
ATOM     21  F   UNL     1       6.654  -2.091  -6.342  1.00  0.00    -0.204 F 
ENDBRANCH  11  14
ENDBRANCH   9  11
ENDBRANCH   5   9
ENDBRANCH   3   5
ENDBRANCH   2   3
ENDBRANCH   1   2
BRANCH   1  22
ATOM     22  C   UNL     1       5.448  -0.069  -2.659  1.00  0.00     0.275 C 
BRANCH  22  23
ATOM     23  O   UNL     1       4.942   1.083  -1.968  1.00  0.00    -0.458 OA
BRANCH  23  24
ATOM     24  C   UNL     1       3.989   1.770  -2.636  1.00  0.00     0.338 C 
ATOM     25  O   UNL     1       3.556   1.565  -3.757  1.00  0.00    -0.246 OA
BRANCH  24  26
ATOM     26  C   UNL     1       3.335   2.683  -1.698  1.00  0.00     0.060 A 
ATOM     27  C   UNL     1       2.110   2.260  -1.195  1.00  0.00     0.016 A 
ATOM     28  C   UNL     1       3.845   3.934  -1.369  1.00  0.00     0.016 A 
ATOM     29  C   UNL     1       1.351   3.093  -0.391  1.00  0.00     0.010 A 
ATOM     30  C   UNL     1       3.106   4.760  -0.513  1.00  0.00     0.010 A 
ATOM     31  C   UNL     1       1.848   4.350  -0.029  1.00  0.00    -0.014 A 
BRANCH  31  32
ATOM     32  C   UNL     1       1.021   5.221   0.843  1.00  0.00     0.031 A 
ATOM     33  C   UNL     1       0.435   6.490   0.300  1.00  0.00     0.074 A 
ATOM     34  C   UNL     1       0.744   4.826   2.100  1.00  0.00     0.049 A 
ATOM     35  N   UNL     1      -0.274   7.402   0.915  1.00  0.00    -0.248 NA
ATOM     36  C   UNL     1       0.676   6.775  -1.123  1.00  0.00     0.031 C 
ATOM     37  C   UNL     1       1.209   3.579   2.710  1.00  0.00     0.029 A 
ATOM     38  N   UNL     1      -0.014   5.413   3.082  1.00  0.00    -0.354 N 
ATOM     39  C   UNL     1      -0.534   8.382  -0.033  1.00  0.00     0.074 A 
ATOM     40  C   UNL     1       0.104   7.963  -1.263  1.00  0.00     0.031 C 
ATOM     41  C   UNL     1       0.689   3.471   3.942  1.00  0.00     0.029 A 
ATOM     42  C   UNL     1      -0.083   4.674   4.239  1.00  0.00     0.049 A 
ATOM     43  H   UNL     1      -0.465   6.281   2.969  1.00  0.00     0.167 HD
ATOM     44  C   UNL     1      -1.243   9.525   0.116  1.00  0.00     0.037 A 
ATOM     45  C   UNL     1      -0.680   4.945   5.415  1.00  0.00     0.037 A 
ATOM     46  C   UNL     1      -1.899   9.912   1.337  1.00  0.00     0.049 A 
ATOM     47  C   UNL     1      -1.415   6.247   5.573  1.00  0.00     0.074 A 
ATOM     48  C   UNL     1      -2.645  11.049   1.592  1.00  0.00     0.029 A 
ATOM     49  N   UNL     1      -1.892   9.166   2.508  1.00  0.00    -0.354 N 
ATOM     50  N   UNL     1      -1.623   7.185   4.682  1.00  0.00    -0.248 NA
ATOM     51  C   UNL     1      -1.978   6.539   6.898  1.00  0.00     0.031 C 
ATOM     52  C   UNL     1      -3.047  11.015   2.929  1.00  0.00     0.029 A 
ATOM     53  C   UNL     1      -2.601   9.830   3.495  1.00  0.00     0.049 A 
ATOM     54  H   UNL     1      -1.449   8.294   2.620  1.00  0.00     0.167 HD
ATOM     55  C   UNL     1      -2.353   8.171   5.329  1.00  0.00     0.074 A 
ATOM     56  C   UNL     1      -2.561   7.713   6.688  1.00  0.00     0.031 C 
ATOM     57  C   UNL     1      -2.806   9.351   4.839  1.00  0.00     0.037 A 
BRANCH  44  58
ATOM     58  C   UNL     1      -1.320  10.459  -1.057  1.00  0.00     0.064 A 
ATOM     59  C   UNL     1      -0.656  11.695  -1.019  1.00  0.00     0.173 A 
ATOM     60  C   UNL     1      -2.079  10.159  -2.197  1.00  0.00     0.173 A 
ATOM     61  F   UNL     1       0.079  12.035   0.051  1.00  0.00    -0.203 F 
ATOM     62  C   UNL     1      -0.755  12.598  -2.074  1.00  0.00     0.198 A 
ATOM     63  C   UNL     1      -2.151  11.052  -3.265  1.00  0.00     0.198 A 
ATOM     64  F   UNL     1      -2.723   8.986  -2.291  1.00  0.00    -0.203 F 
ATOM     65  F   UNL     1      -0.132  13.782  -2.002  1.00  0.00    -0.200 F 
ATOM     66  C   UNL     1      -1.496  12.273  -3.199  1.00  0.00     0.200 A 
ATOM     67  F   UNL     1      -2.847  10.725  -4.363  1.00  0.00    -0.200 F 
ATOM     68  F   UNL     1      -1.575  13.134  -4.223  1.00  0.00    -0.200 F 
ENDBRANCH  44  58
BRANCH  45  69
ATOM     69  C   UNL     1      -0.596   3.955   6.520  1.00  0.00     0.064 A 
ATOM     70  C   UNL     1       0.627   3.661   7.145  1.00  0.00     0.173 A 
ATOM     71  C   UNL     1      -1.724   3.232   6.928  1.00  0.00     0.173 A 
ATOM     72  F   UNL     1       1.738   4.323   6.790  1.00  0.00    -0.203 F 
ATOM     73  C   UNL     1       0.724   2.655   8.103  1.00  0.00     0.198 A 
ATOM     74  C   UNL     1      -1.632   2.245   7.908  1.00  0.00     0.198 A 
ATOM     75  F   UNL     1      -2.920   3.490   6.377  1.00  0.00    -0.203 F 
ATOM     76  F   UNL     1       1.914   2.359   8.643  1.00  0.00    -0.200 F 
ATOM     77  C   UNL     1      -0.406   1.948   8.485  1.00  0.00     0.200 A 
ATOM     78  F   UNL     1      -2.729   1.577   8.290  1.00  0.00    -0.200 F 
ATOM     79  F   UNL     1      -0.312   0.979   9.406  1.00  0.00    -0.200 F 
ENDBRANCH  45  69
BRANCH  57  80
ATOM     80  C   UNL     1      -3.595  10.234   5.758  1.00  0.00     0.064 A 
ATOM     81  C   UNL     1      -4.972  10.412   5.557  1.00  0.00     0.173 A 
ATOM     82  C   UNL     1      -2.969  10.997   6.753  1.00  0.00     0.173 A 
ATOM     83  F   UNL     1      -5.613   9.710   4.610  1.00  0.00    -0.203 F 
ATOM     84  C   UNL     1      -5.688  11.346   6.299  1.00  0.00     0.198 A 
ATOM     85  C   UNL     1      -3.693  11.912   7.511  1.00  0.00     0.198 A 
ATOM     86  F   UNL     1      -1.656  10.851   6.990  1.00  0.00    -0.203 F 
ATOM     87  F   UNL     1      -6.993  11.535   6.057  1.00  0.00    -0.200 F 
ATOM     88  C   UNL     1      -5.048  12.097   7.274  1.00  0.00     0.200 A 
ATOM     89  F   UNL     1      -3.079  12.624   8.466  1.00  0.00    -0.200 F 
ATOM     90  F   UNL     1      -5.737  13.001   7.983  1.00  0.00    -0.200 F 
ENDBRANCH  57  80
ENDBRANCH  31  32
ENDBRANCH  24  26
ENDBRANCH  23  24
ENDBRANCH  22  23
ENDBRANCH   1  22
TORSDOF 15
