REMARK SMILES COc1ccc(-c2ccc3n(c2=O)C[C@H]2C[C@@H]3CN(C(=O)CCCC(=O)OCCOC(=O)c3ccc(-c4c5nc(c(-c6c(F)c(F)c(F)c(F)c6F)c6ccc([nH]6)c(-c6c(F)c(F)c(F)c(F)c6F)c6nc(c(-c7c(F)c(F)c(F)c(F)c7F)c7ccc4[nH]7)C=C6)C=C5)cc3)C2)cc1
REMARK SMILES IDX 25 1 26 2 24 3 23 4 22 5 20 6 21 7 19 8 7 9 8 10 12 11 9 12
REMARK SMILES IDX 11 13 13 14 10 15 14 16 17 17 15 18 16 19 18 20 96 21 6 22
REMARK SMILES IDX 3 23 4 24 98 25 5 26 97 27 2 28 1 29 27 30 28 31 29 32 30 33
REMARK SMILES IDX 31 34 32 35 33 36 34 37 95 38 35 39 94 40 36 41 37 42 38 43
REMARK SMILES IDX 88 44 39 45 93 46 87 47 89 48 40 49 92 50 86 51 85 52 41 54
REMARK SMILES IDX 73 55 53 56 72 57 54 58 57 59 71 60 90 61 55 62 56 63 70 65
REMARK SMILES IDX 91 66 58 67 42 68 43 69 51 70 44 71 45 72 49 73 52 74 46 75
REMARK SMILES IDX 47 76 50 77 48 78 74 79 75 80 83 81 76 82 77 83 81 84 84 85
REMARK SMILES IDX 78 86 79 87 82 88 80 89 59 90 60 91 68 92 61 93 62 94 66 95
REMARK SMILES IDX 69 96 63 97 64 98 67 99 65 100
REMARK H PARENT 89 53 57 64
REMARK Flexibility Score: inf
ROOT
ATOM      1  C   UNL     1      -1.901  -0.083  11.305  1.00  0.00     0.305 C 
ATOM      2  O   UNL     1      -1.620  -1.213  10.920  1.00  0.00    -0.252 OA
ENDROOT
BRANCH   1   3
ATOM      3  C   UNL     1      -1.771   1.134  10.411  1.00  0.00     0.123 C 
BRANCH   3   4
ATOM      4  C   UNL     1      -1.702   2.488  11.102  1.00  0.00     0.022 C 
BRANCH   4   5
ATOM      5  C   UNL     1      -0.568   2.650  12.111  1.00  0.00     0.101 C 
BRANCH   5   6
ATOM      6  C   UNL     1       0.808   2.783  11.480  1.00  0.00     0.222 C 
ATOM      7  O   UNL     1       1.132   3.868  10.990  1.00  0.00    -0.275 OA
BRANCH   6   8
ATOM      8  N   UNL     1       1.679   1.701  11.514  1.00  0.00    -0.342 N 
ATOM      9  C   UNL     1       2.084   0.801   6.385  1.00  0.00     0.047 A 
ATOM     10  C   UNL     1       3.115   1.594   6.721  1.00  0.00     0.016 A 
ATOM     11  C   UNL     1       1.462  -0.061   7.454  1.00  0.00     0.258 A 
ATOM     12  C   UNL     1       3.662   1.595   8.047  1.00  0.00     0.023 A 
ATOM     13  N   UNL     1       2.059  -0.010   8.729  1.00  0.00    -0.311 N 
ATOM     14  O   UNL     1       0.495  -0.778   7.196  1.00  0.00    -0.269 OA
ATOM     15  C   UNL     1       3.153   0.808   9.007  1.00  0.00     0.026 A 
ATOM     16  C   UNL     1       1.522  -0.927   9.738  1.00  0.00     0.131 C 
ATOM     17  C   UNL     1       3.744   0.826  10.403  1.00  0.00     0.056 C 
ATOM     18  C   UNL     1       2.048  -0.768  11.175  1.00  0.00     0.029 C 
ATOM     19  C   UNL     1       3.546  -0.515  11.109  1.00  0.00     0.019 C 
ATOM     20  C   UNL     1       3.092   1.952  11.224  1.00  0.00     0.129 C 
ATOM     21  C   UNL     1       1.374   0.354  11.989  1.00  0.00     0.125 C 
BRANCH   9  22
ATOM     22  C   UNL     1       1.616   0.789   4.987  1.00  0.00    -0.013 A 
ATOM     23  C   UNL     1       0.778   0.800   2.297  1.00  0.00     0.118 A 
ATOM     24  C   UNL     1      -0.115   1.128   3.319  1.00  0.00     0.047 A 
ATOM     25  C   UNL     1       2.097   0.485   2.614  1.00  0.00     0.047 A 
ATOM     26  C   UNL     1       0.296   1.112   4.657  1.00  0.00     0.013 A 
ATOM     27  C   UNL     1       2.511   0.476   3.950  1.00  0.00     0.013 A 
BRANCH  23  28
ATOM     28  O   UNL     1       0.270   0.857   1.028  1.00  0.00    -0.497 OA
ATOM     29  C   UNL     1       0.879  -0.024   0.089  1.00  0.00     0.278 C 
ENDBRANCH  23  28
ENDBRANCH   9  22
ENDBRANCH   6   8
ENDBRANCH   5   6
ENDBRANCH   4   5
ENDBRANCH   3   4
ENDBRANCH   1   3
BRANCH   1  30
ATOM     30  O   UNL     1      -2.333   0.203  12.558  1.00  0.00    -0.462 OA
BRANCH  30  31
ATOM     31  C   UNL     1      -2.438  -0.920  13.454  1.00  0.00     0.274 C 
BRANCH  31  32
ATOM     32  C   UNL     1      -3.874  -1.438  13.537  1.00  0.00     0.275 C 
BRANCH  32  33
ATOM     33  O   UNL     1      -4.308  -1.996  12.285  1.00  0.00    -0.458 OA
BRANCH  33  34
ATOM     34  C   UNL     1      -4.845  -1.108  11.421  1.00  0.00     0.338 C 
ATOM     35  O   UNL     1      -5.058   0.084  11.603  1.00  0.00    -0.246 OA
BRANCH  34  36
ATOM     36  C   UNL     1      -5.055  -1.759  10.128  1.00  0.00     0.060 A 
ATOM     37  C   UNL     1      -4.190  -1.462   9.070  1.00  0.00     0.016 A 
ATOM     38  C   UNL     1      -6.162  -2.582   9.939  1.00  0.00     0.016 A 
ATOM     39  C   UNL     1      -4.432  -1.966   7.804  1.00  0.00     0.010 A 
ATOM     40  C   UNL     1      -6.403  -3.096   8.668  1.00  0.00     0.010 A 
ATOM     41  C   UNL     1      -5.549  -2.773   7.598  1.00  0.00    -0.014 A 
BRANCH  41  42
ATOM     42  C   UNL     1      -5.894  -3.208   6.235  1.00  0.00     0.031 A 
ATOM     43  C   UNL     1      -7.056  -2.558   5.556  1.00  0.00     0.074 A 
ATOM     44  C   UNL     1      -5.182  -4.179   5.643  1.00  0.00     0.049 A 
ATOM     45  N   UNL     1      -7.721  -2.945   4.503  1.00  0.00    -0.248 NA
ATOM     46  C   UNL     1      -7.543  -1.306   6.158  1.00  0.00     0.031 C 
ATOM     47  C   UNL     1      -3.969  -4.790   6.186  1.00  0.00     0.029 A 
ATOM     48  N   UNL     1      -5.396  -4.839   4.463  1.00  0.00    -0.354 N 
ATOM     49  C   UNL     1      -8.736  -2.012   4.343  1.00  0.00     0.074 A 
ATOM     50  C   UNL     1      -8.595  -1.035   5.400  1.00  0.00     0.031 C 
ATOM     51  C   UNL     1      -3.561  -5.760   5.352  1.00  0.00     0.029 A 
ATOM     52  C   UNL     1      -4.525  -5.880   4.264  1.00  0.00     0.049 A 
ATOM     53  H   UNL     1      -6.103  -4.592   3.822  1.00  0.00     0.167 HD
ATOM     54  C   UNL     1      -9.703  -1.999   3.399  1.00  0.00     0.037 A 
ATOM     55  C   UNL     1      -4.551  -6.856   3.338  1.00  0.00     0.037 A 
ATOM     56  C   UNL     1      -9.796  -2.980   2.351  1.00  0.00     0.049 A 
ATOM     57  C   UNL     1      -5.676  -6.862   2.340  1.00  0.00     0.074 A 
ATOM     58  C   UNL     1     -10.734  -3.086   1.342  1.00  0.00     0.029 A 
ATOM     59  N   UNL     1      -8.898  -4.027   2.180  1.00  0.00    -0.354 N 
ATOM     60  N   UNL     1      -6.679  -6.024   2.220  1.00  0.00    -0.248 NA
ATOM     61  C   UNL     1      -5.686  -7.955   1.361  1.00  0.00     0.031 C 
ATOM     62  C   UNL     1     -10.424  -4.218   0.581  1.00  0.00     0.029 A 
ATOM     63  C   UNL     1      -9.267  -4.792   1.088  1.00  0.00     0.049 A 
ATOM     64  H   UNL     1      -8.115  -4.198   2.751  1.00  0.00     0.167 HD
ATOM     65  C   UNL     1      -7.425  -6.471   1.140  1.00  0.00     0.074 A 
ATOM     66  C   UNL     1      -6.756  -7.655   0.637  1.00  0.00     0.031 C 
ATOM     67  C   UNL     1      -8.560  -5.953   0.610  1.00  0.00     0.037 A 
BRANCH  54  68
ATOM     68  C   UNL     1     -10.754  -0.936   3.497  1.00  0.00     0.064 A 
ATOM     69  C   UNL     1     -10.484   0.407   3.199  1.00  0.00     0.173 A 
ATOM     70  C   UNL     1     -12.058  -1.271   3.895  1.00  0.00     0.173 A 
ATOM     71  F   UNL     1      -9.249   0.783   2.835  1.00  0.00    -0.203 F 
ATOM     72  C   UNL     1     -11.475   1.380   3.316  1.00  0.00     0.198 A 
ATOM     73  C   UNL     1     -13.052  -0.301   3.986  1.00  0.00     0.198 A 
ATOM     74  F   UNL     1     -12.367  -2.541   4.197  1.00  0.00    -0.203 F 
ATOM     75  F   UNL     1     -11.184   2.665   3.070  1.00  0.00    -0.200 F 
ATOM     76  C   UNL     1     -12.759   1.024   3.703  1.00  0.00     0.200 A 
ATOM     77  F   UNL     1     -14.293  -0.648   4.355  1.00  0.00    -0.200 F 
ATOM     78  F   UNL     1     -13.711   1.960   3.813  1.00  0.00    -0.200 F 
ENDBRANCH  54  68
BRANCH  55  79
ATOM     79  C   UNL     1      -3.516  -7.920   3.358  1.00  0.00     0.064 A 
ATOM     80  C   UNL     1      -2.552  -8.006   2.346  1.00  0.00     0.173 A 
ATOM     81  C   UNL     1      -3.455  -8.859   4.399  1.00  0.00     0.173 A 
ATOM     82  F   UNL     1      -2.583  -7.146   1.317  1.00  0.00    -0.203 F 
ATOM     83  C   UNL     1      -1.571  -8.995   2.370  1.00  0.00     0.198 A 
ATOM     84  C   UNL     1      -2.458  -9.830   4.437  1.00  0.00     0.198 A 
ATOM     85  F   UNL     1      -4.356  -8.821   5.393  1.00  0.00    -0.203 F 
ATOM     86  F   UNL     1      -0.681  -9.077   1.371  1.00  0.00    -0.200 F 
ATOM     87  C   UNL     1      -1.519  -9.901   3.419  1.00  0.00     0.200 A 
ATOM     88  F   UNL     1      -2.405 -10.695   5.459  1.00  0.00    -0.200 F 
ATOM     89  F   UNL     1      -0.570 -10.846   3.445  1.00  0.00    -0.200 F 
ENDBRANCH  55  79
BRANCH  67  90
ATOM     90  C   UNL     1      -9.118  -6.634  -0.601  1.00  0.00     0.064 A 
ATOM     91  C   UNL     1      -9.821  -7.842  -0.505  1.00  0.00     0.173 A 
ATOM     92  C   UNL     1      -9.005  -6.029  -1.862  1.00  0.00     0.173 A 
ATOM     93  F   UNL     1      -9.939  -8.462   0.679  1.00  0.00    -0.203 F 
ATOM     94  C   UNL     1     -10.385  -8.428  -1.634  1.00  0.00     0.198 A 
ATOM     95  C   UNL     1      -9.591  -6.605  -2.983  1.00  0.00     0.198 A 
ATOM     96  F   UNL     1      -8.346  -4.869  -1.999  1.00  0.00    -0.203 F 
ATOM     97  F   UNL     1     -11.028  -9.598  -1.528  1.00  0.00    -0.200 F 
ATOM     98  C   UNL     1     -10.278  -7.805  -2.869  1.00  0.00     0.200 A 
ATOM     99  F   UNL     1      -9.498  -5.996  -4.173  1.00  0.00    -0.200 F 
ATOM    100  F   UNL     1     -10.835  -8.363  -3.952  1.00  0.00    -0.200 F 
ENDBRANCH  67  90
ENDBRANCH  41  42
ENDBRANCH  34  36
ENDBRANCH  33  34
ENDBRANCH  32  33
ENDBRANCH  31  32
ENDBRANCH  30  31
ENDBRANCH   1  30
TORSDOF 17
