REMARK SMILES COc1ccccc1Nc1nc(C)c(C(=O)OCCOC(=O)c2ccc(-c3c4nc(c(-c5c(F)c(F)c(F)c(F)c5F)c5ccc([nH]5)c(-c5c(F)c(F)c(F)c(F)c5F)c5nc(c(-c6c(F)c(F)c(F)c(F)c6F)c6ccc3[nH]6)C=C5)C=C4)cc2)s1
REMARK SMILES IDX 18 1 17 2 15 3 16 4 14 5 10 6 11 7 86 8 12 9 13 10 9 11 8 13
REMARK SMILES IDX 3 14 4 15 5 16 7 17 6 18 2 19 1 20 19 21 20 22 21 23 22 24
REMARK SMILES IDX 23 25 24 26 85 27 25 28 84 29 26 30 27 31 28 32 78 33 29 34
REMARK SMILES IDX 83 35 77 36 79 37 30 38 82 39 76 40 75 41 31 43 63 44 43 45
REMARK SMILES IDX 62 46 44 47 47 48 61 49 80 50 45 51 46 52 60 54 81 55 48 56
REMARK SMILES IDX 32 57 33 58 41 59 34 60 35 61 39 62 42 63 36 64 37 65 40 66
REMARK SMILES IDX 38 67 64 68 65 69 73 70 66 71 67 72 71 73 74 74 68 75 69 76
REMARK SMILES IDX 72 77 70 78 49 79 50 80 58 81 51 82 52 83 56 84 59 85 53 86
REMARK SMILES IDX 54 87 57 88 55 89
REMARK H PARENT 9 12 79 42 47 53
REMARK Flexibility Score: inf
ROOT
ATOM      1  C   UNL     1       9.898   2.645   3.387  1.00  0.00     0.275 C 
ENDROOT
BRANCH   1   2
ATOM      2  O   UNL     1       8.907   2.300   2.396  1.00  0.00    -0.458 OA
BRANCH   2   3
ATOM      3  C   UNL     1       7.769   1.684   2.834  1.00  0.00     0.350 C 
ATOM      4  O   UNL     1       7.566   1.392   4.004  1.00  0.00    -0.245 OA
BRANCH   3   5
ATOM      5  C   UNL     1       6.821   1.520   1.746  1.00  0.00     0.137 A 
ATOM      6  C   UNL     1       4.739   1.491   0.461  1.00  0.00     0.188 A 
ATOM      7  N   UNL     1       5.772   1.396  -0.341  1.00  0.00    -0.224 NA
ATOM      8  S   UNL     1       5.144   1.337   2.120  1.00  0.00    -0.089 S 
ATOM      9  C   UNL     1       6.968   1.458   0.369  1.00  0.00     0.065 A 
ATOM     10  C   UNL     1       8.212   1.420  -0.442  1.00  0.00     0.069 C 
BRANCH   6  11
ATOM     11  N   UNL     1       3.467   1.555   0.013  1.00  0.00    -0.328 N 
ATOM     12  H   UNL     1       3.170   0.809  -0.557  1.00  0.00     0.169 HD
BRANCH  11  13
ATOM     13  C   UNL     1       2.507   2.567   0.265  1.00  0.00     0.083 A 
ATOM     14  C   UNL     1       1.169   2.366  -0.135  1.00  0.00     0.142 A 
ATOM     15  C   UNL     1       0.219   3.388  -0.028  1.00  0.00     0.048 A 
ATOM     16  C   UNL     1       0.575   4.616   0.523  1.00  0.00     0.004 A 
ATOM     17  C   UNL     1       2.832   3.797   0.858  1.00  0.00     0.030 A 
ATOM     18  C   UNL     1       1.877   4.817   0.974  1.00  0.00     0.002 A 
BRANCH  14  19
ATOM     19  O   UNL     1       0.744   1.214  -0.753  1.00  0.00    -0.495 OA
ATOM     20  C   UNL     1       0.831   0.073   0.103  1.00  0.00     0.278 C 
ENDBRANCH  14  19
ENDBRANCH  11  13
ENDBRANCH   6  11
ENDBRANCH   3   5
ENDBRANCH   2   3
ENDBRANCH   1   2
BRANCH   1  21
ATOM     21  C   UNL     1       9.892   4.146   3.699  1.00  0.00     0.275 C 
BRANCH  21  22
ATOM     22  O   UNL     1       8.727   4.525   4.457  1.00  0.00    -0.458 OA
BRANCH  22  23
ATOM     23  C   UNL     1       7.690   4.972   3.714  1.00  0.00     0.338 C 
ATOM     24  O   UNL     1       7.651   5.106   2.502  1.00  0.00    -0.246 OA
BRANCH  23  25
ATOM     25  C   UNL     1       6.495   5.123   4.554  1.00  0.00     0.060 A 
ATOM     26  C   UNL     1       5.504   4.160   4.402  1.00  0.00     0.016 A 
ATOM     27  C   UNL     1       6.274   6.232   5.364  1.00  0.00     0.016 A 
ATOM     28  C   UNL     1       4.261   4.313   4.996  1.00  0.00     0.010 A 
ATOM     29  C   UNL     1       5.039   6.361   6.018  1.00  0.00     0.010 A 
ATOM     30  C   UNL     1       4.014   5.413   5.821  1.00  0.00    -0.014 A 
BRANCH  30  31
ATOM     31  C   UNL     1       2.669   5.571   6.432  1.00  0.00     0.031 A 
ATOM     32  C   UNL     1       1.801   6.737   6.050  1.00  0.00     0.074 A 
ATOM     33  C   UNL     1       2.207   4.640   7.290  1.00  0.00     0.049 A 
ATOM     34  N   UNL     1       0.652   7.116   6.551  1.00  0.00    -0.248 NA
ATOM     35  C   UNL     1       2.293   7.597   4.963  1.00  0.00     0.031 C 
ATOM     36  C   UNL     1       2.926   3.430   7.693  1.00  0.00     0.029 A 
ATOM     37  N   UNL     1       1.020   4.564   7.978  1.00  0.00    -0.354 N 
ATOM     38  C   UNL     1       0.297   8.266   5.859  1.00  0.00     0.074 A 
ATOM     39  C   UNL     1       1.366   8.543   4.924  1.00  0.00     0.031 C 
ATOM     40  C   UNL     1       2.166   2.729   8.548  1.00  0.00     0.029 A 
ATOM     41  C   UNL     1       0.941   3.475   8.813  1.00  0.00     0.049 A 
ATOM     42  H   UNL     1       0.297   5.224   7.883  1.00  0.00     0.167 HD
ATOM     43  C   UNL     1      -0.824   9.015   5.989  1.00  0.00     0.037 A 
ATOM     44  C   UNL     1       0.010   3.140   9.726  1.00  0.00     0.037 A 
ATOM     45  C   UNL     1      -1.891   8.722   6.912  1.00  0.00     0.049 A 
ATOM     46  C   UNL     1      -1.187   4.034   9.906  1.00  0.00     0.074 A 
ATOM     47  C   UNL     1      -3.061   9.428   7.134  1.00  0.00     0.029 A 
ATOM     48  N   UNL     1      -1.919   7.627   7.764  1.00  0.00    -0.354 N 
ATOM     49  N   UNL     1      -1.500   5.138   9.272  1.00  0.00    -0.248 NA
ATOM     50  C   UNL     1      -2.160   3.639  10.933  1.00  0.00     0.031 C 
ATOM     51  C   UNL     1      -3.773   8.787   8.153  1.00  0.00     0.029 A 
ATOM     52  C   UNL     1      -3.079   7.647   8.523  1.00  0.00     0.049 A 
ATOM     53  H   UNL     1      -1.218   6.937   7.822  1.00  0.00     0.167 HD
ATOM     54  C   UNL     1      -2.714   5.553   9.801  1.00  0.00     0.074 A 
ATOM     55  C   UNL     1      -3.093   4.569  10.794  1.00  0.00     0.031 C 
ATOM     56  C   UNL     1      -3.447   6.651   9.498  1.00  0.00     0.037 A 
BRANCH  43  57
ATOM     57  C   UNL     1      -0.949  10.239   5.126  1.00  0.00     0.064 A 
ATOM     58  C   UNL     1      -1.157  10.150   3.742  1.00  0.00     0.173 A 
ATOM     59  C   UNL     1      -0.905  11.520   5.700  1.00  0.00     0.173 A 
ATOM     60  F   UNL     1      -1.193   8.952   3.140  1.00  0.00    -0.203 F 
ATOM     61  C   UNL     1      -1.291  11.296   2.961  1.00  0.00     0.198 A 
ATOM     62  C   UNL     1      -1.073  12.662   4.922  1.00  0.00     0.198 A 
ATOM     63  F   UNL     1      -0.715  11.664   7.020  1.00  0.00    -0.203 F 
ATOM     64  F   UNL     1      -1.441  11.187   1.634  1.00  0.00    -0.200 F 
ATOM     65  C   UNL     1      -1.258  12.550   3.553  1.00  0.00     0.200 A 
ATOM     66  F   UNL     1      -1.056  13.873   5.498  1.00  0.00    -0.200 F 
ATOM     67  F   UNL     1      -1.398  13.651   2.801  1.00  0.00    -0.200 F 
ENDBRANCH  43  57
BRANCH  44  68
ATOM     68  C   UNL     1       0.198   1.935  10.579  1.00  0.00     0.064 A 
ATOM     69  C   UNL     1      -0.681   0.845  10.508  1.00  0.00     0.173 A 
ATOM     70  C   UNL     1       1.245   1.864  11.513  1.00  0.00     0.173 A 
ATOM     71  F   UNL     1      -1.712   0.872   9.651  1.00  0.00    -0.203 F 
ATOM     72  C   UNL     1      -0.540  -0.251  11.357  1.00  0.00     0.198 A 
ATOM     73  C   UNL     1       1.408   0.750  12.333  1.00  0.00     0.198 A 
ATOM     74  F   UNL     1       2.116   2.877  11.625  1.00  0.00    -0.203 F 
ATOM     75  F   UNL     1      -1.435  -1.248  11.314  1.00  0.00    -0.200 F 
ATOM     76  C   UNL     1       0.507  -0.301  12.264  1.00  0.00     0.200 A 
ATOM     77  F   UNL     1       2.432   0.701  13.195  1.00  0.00    -0.200 F 
ATOM     78  F   UNL     1       0.640  -1.354  13.082  1.00  0.00    -0.200 F 
ENDBRANCH  44  68
BRANCH  56  79
ATOM     79  C   UNL     1      -4.758   6.820  10.211  1.00  0.00     0.064 A 
ATOM     80  C   UNL     1      -4.824   7.133  11.577  1.00  0.00     0.173 A 
ATOM     81  C   UNL     1      -5.967   6.693   9.509  1.00  0.00     0.173 A 
ATOM     82  F   UNL     1      -3.698   7.249  12.298  1.00  0.00    -0.203 F 
ATOM     83  C   UNL     1      -6.050   7.280  12.220  1.00  0.00     0.198 A 
ATOM     84  C   UNL     1      -7.190   6.877  10.147  1.00  0.00     0.198 A 
ATOM     85  F   UNL     1      -5.962   6.402   8.199  1.00  0.00    -0.203 F 
ATOM     86  F   UNL     1      -6.088   7.521  13.537  1.00  0.00    -0.200 F 
ATOM     87  C   UNL     1      -7.231   7.160  11.503  1.00  0.00     0.200 A 
ATOM     88  F   UNL     1      -8.330   6.777   9.448  1.00  0.00    -0.200 F 
ATOM     89  F   UNL     1      -8.410   7.310  12.122  1.00  0.00    -0.200 F 
ENDBRANCH  56  79
ENDBRANCH  30  31
ENDBRANCH  23  25
ENDBRANCH  22  23
ENDBRANCH  21  22
ENDBRANCH   1  21
TORSDOF 14
