REMARK SMILES CCC[C@@]1(C(=O)OCCOC(=O)c2ccc(-c3c4nc(c(-c5c(F)c(F)c(F)c(F)c5F)c5ccc([nH]5)c(-c5c(F)c(F)c(F)c(F)c5F)c5nc(c(-c6c(F)c(F)c(F)c(F)c6F)c6ccc3[nH]6)C=C5)C=C4)cc2)CCCN(C(=O)CCn2cncn2)C1
REMARK SMILES IDX 8 1 7 2 5 3 6 4 4 5 76 6 89 7 77 8 79 9 78 10 3 11 2 12 1 13
REMARK SMILES IDX 80 14 81 15 82 16 83 17 84 18 85 19 88 20 86 21 87 22 9 23
REMARK SMILES IDX 10 24 11 25 12 26 13 27 14 28 75 29 15 30 74 31 16 32 17 33
REMARK SMILES IDX 18 34 68 35 19 36 73 37 67 38 69 39 20 40 72 41 66 42 65 43
REMARK SMILES IDX 21 45 53 46 33 47 52 48 34 49 37 50 51 51 70 52 35 53 36 54
REMARK SMILES IDX 50 56 71 57 38 58 22 59 23 60 31 61 24 62 25 63 29 64 32 65
REMARK SMILES IDX 26 66 27 67 30 68 28 69 54 70 55 71 63 72 56 73 57 74 61 75
REMARK SMILES IDX 64 76 58 77 59 78 62 79 60 80 39 81 40 82 48 83 41 84 42 85
REMARK SMILES IDX 46 86 49 87 43 88 44 89 47 90 45 91
REMARK H PARENT 69 44 37 55
REMARK Flexibility Score: inf
ROOT
ATOM      1  C   UNL     1       1.907   1.213  -3.103  1.00  0.00     0.274 C 
ENDROOT
BRANCH   1   2
ATOM      2  O   UNL     1       0.841   0.363  -2.634  1.00  0.00    -0.462 OA
BRANCH   2   3
ATOM      3  C   UNL     1       0.989  -0.975  -2.859  1.00  0.00     0.314 C 
ATOM      4  O   UNL     1       1.981  -1.488  -3.357  1.00  0.00    -0.252 OA
BRANCH   3   5
ATOM      5  C   UNL     1      -0.259  -1.760  -2.415  1.00  0.00     0.086 C 
ATOM      6  C   UNL     1      -0.050  -3.291  -2.640  1.00  0.00     0.022 C 
ATOM      7  C   UNL     1      -1.399  -1.261  -3.327  1.00  0.00     0.138 C 
ATOM      8  C   UNL     1      -0.020  -3.733  -4.108  1.00  0.00     0.023 C 
ATOM      9  N   UNL     1      -1.123  -1.647  -4.722  1.00  0.00    -0.341 N 
ATOM     10  C   UNL     1      -1.126  -3.091  -4.935  1.00  0.00     0.119 C 
BRANCH   5  11
ATOM     11  C   UNL     1      -0.453  -1.509  -0.886  1.00  0.00     0.020 C 
BRANCH  11  12
ATOM     12  C   UNL     1      -1.867  -1.524  -0.301  1.00  0.00    -0.002 C 
ATOM     13  C   UNL     1      -2.560  -2.875  -0.326  1.00  0.00     0.004 C 
ENDBRANCH  11  12
ENDBRANCH   5  11
BRANCH   9  14
ATOM     14  C   UNL     1      -0.644  -0.687  -5.600  1.00  0.00     0.224 C 
ATOM     15  O   UNL     1      -0.556   0.501  -5.277  1.00  0.00    -0.275 OA
BRANCH  14  16
ATOM     16  C   UNL     1      -0.184  -1.080  -6.989  1.00  0.00     0.124 C 
BRANCH  16  17
ATOM     17  C   UNL     1       1.339  -1.179  -7.067  1.00  0.00     0.156 C 
BRANCH  17  18
ATOM     18  N   UNL     1       1.879  -2.519  -6.968  1.00  0.00    -0.252 N 
ATOM     19  C   UNL     1       1.480  -3.646  -7.622  1.00  0.00     0.219 A 
ATOM     20  N   UNL     1       2.991  -2.760  -6.253  1.00  0.00    -0.160 NA
ATOM     21  N   UNL     1       2.237  -4.657  -7.263  1.00  0.00    -0.224 NA
ATOM     22  C   UNL     1       3.149  -4.073  -6.432  1.00  0.00     0.246 A 
ENDBRANCH  17  18
ENDBRANCH  16  17
ENDBRANCH  14  16
ENDBRANCH   9  14
ENDBRANCH   3   5
ENDBRANCH   2   3
ENDBRANCH   1   2
BRANCH   1  23
ATOM     23  C   UNL     1       2.775   1.648  -1.927  1.00  0.00     0.275 C 
BRANCH  23  24
ATOM     24  O   UNL     1       3.320   0.472  -1.311  1.00  0.00    -0.458 OA
BRANCH  24  25
ATOM     25  C   UNL     1       3.312   0.440   0.039  1.00  0.00     0.338 C 
ATOM     26  O   UNL     1       3.058   1.362   0.800  1.00  0.00    -0.246 OA
BRANCH  25  27
ATOM     27  C   UNL     1       3.632  -0.928   0.494  1.00  0.00     0.060 A 
ATOM     28  C   UNL     1       3.108  -2.035  -0.174  1.00  0.00     0.016 A 
ATOM     29  C   UNL     1       4.386  -1.114   1.649  1.00  0.00     0.016 A 
ATOM     30  C   UNL     1       3.275  -3.320   0.331  1.00  0.00     0.010 A 
ATOM     31  C   UNL     1       4.630  -2.411   2.113  1.00  0.00     0.010 A 
ATOM     32  C   UNL     1       4.056  -3.526   1.471  1.00  0.00    -0.014 A 
BRANCH  32  33
ATOM     33  C   UNL     1       4.228  -4.888   2.037  1.00  0.00     0.031 A 
ATOM     34  C   UNL     1       3.784  -5.158   3.446  1.00  0.00     0.074 A 
ATOM     35  C   UNL     1       4.772  -5.882   1.309  1.00  0.00     0.049 A 
ATOM     36  N   UNL     1       4.096  -6.148   4.240  1.00  0.00    -0.248 NA
ATOM     37  C   UNL     1       2.876  -4.167   4.046  1.00  0.00     0.031 C 
ATOM     38  C   UNL     1       5.166  -5.794  -0.097  1.00  0.00     0.029 A 
ATOM     39  N   UNL     1       5.089  -7.171   1.661  1.00  0.00    -0.354 N 
ATOM     40  C   UNL     1       3.493  -5.858   5.456  1.00  0.00     0.074 A 
ATOM     41  C   UNL     1       2.773  -4.614   5.289  1.00  0.00     0.031 C 
ATOM     42  C   UNL     1       5.646  -6.982  -0.496  1.00  0.00     0.029 A 
ATOM     43  C   UNL     1       5.687  -7.884   0.650  1.00  0.00     0.049 A 
ATOM     44  H   UNL     1       4.906  -7.548   2.552  1.00  0.00     0.167 HD
ATOM     45  C   UNL     1       3.556  -6.563   6.609  1.00  0.00     0.037 A 
ATOM     46  C   UNL     1       6.257  -9.103   0.662  1.00  0.00     0.037 A 
ATOM     47  C   UNL     1       4.222  -7.832   6.742  1.00  0.00     0.049 A 
ATOM     48  C   UNL     1       6.330  -9.864   1.956  1.00  0.00     0.074 A 
ATOM     49  C   UNL     1       4.369  -8.620   7.870  1.00  0.00     0.029 A 
ATOM     50  N   UNL     1       4.827  -8.511   5.696  1.00  0.00    -0.354 N 
ATOM     51  N   UNL     1       5.874  -9.528   3.139  1.00  0.00    -0.248 NA
ATOM     52  C   UNL     1       7.028 -11.156   1.925  1.00  0.00     0.031 C 
ATOM     53  C   UNL     1       5.076  -9.773   7.507  1.00  0.00     0.029 A 
ATOM     54  C   UNL     1       5.342  -9.714   6.149  1.00  0.00     0.049 A 
ATOM     55  H   UNL     1       4.883  -8.187   4.768  1.00  0.00     0.167 HD
ATOM     56  C   UNL     1       6.228 -10.564   3.991  1.00  0.00     0.074 A 
ATOM     57  C   UNL     1       6.915 -11.553   3.185  1.00  0.00     0.031 C 
ATOM     58  C   UNL     1       6.015 -10.682   5.324  1.00  0.00     0.037 A 
BRANCH  45  59
ATOM     59  C   UNL     1       2.932  -5.955   7.828  1.00  0.00     0.064 A 
ATOM     60  C   UNL     1       1.543  -5.924   8.015  1.00  0.00     0.173 A 
ATOM     61  C   UNL     1       3.745  -5.418   8.838  1.00  0.00     0.173 A 
ATOM     62  F   UNL     1       0.724  -6.405   7.069  1.00  0.00    -0.203 F 
ATOM     63  C   UNL     1       0.990  -5.360   9.163  1.00  0.00     0.198 A 
ATOM     64  C   UNL     1       3.190  -4.877   9.994  1.00  0.00     0.198 A 
ATOM     65  F   UNL     1       5.080  -5.423   8.705  1.00  0.00    -0.203 F 
ATOM     66  F   UNL     1      -0.341  -5.305   9.305  1.00  0.00    -0.200 F 
ATOM     67  C   UNL     1       1.813  -4.844  10.153  1.00  0.00     0.200 A 
ATOM     68  F   UNL     1       3.987  -4.386  10.953  1.00  0.00    -0.200 F 
ATOM     69  F   UNL     1       1.278  -4.308  11.259  1.00  0.00    -0.200 F 
ENDBRANCH  45  59
BRANCH  46  70
ATOM     70  C   UNL     1       6.859  -9.651  -0.581  1.00  0.00     0.064 A 
ATOM     71  C   UNL     1       6.280 -10.745  -1.238  1.00  0.00     0.173 A 
ATOM     72  C   UNL     1       8.020  -9.094  -1.138  1.00  0.00     0.173 A 
ATOM     73  F   UNL     1       5.187 -11.330  -0.727  1.00  0.00    -0.203 F 
ATOM     74  C   UNL     1       6.841 -11.263  -2.404  1.00  0.00     0.198 A 
ATOM     75  C   UNL     1       8.564  -9.595  -2.319  1.00  0.00     0.198 A 
ATOM     76  F   UNL     1       8.616  -8.050  -0.544  1.00  0.00    -0.203 F 
ATOM     77  F   UNL     1       6.288 -12.332  -2.992  1.00  0.00    -0.200 F 
ATOM     78  C   UNL     1       7.977 -10.682  -2.947  1.00  0.00     0.200 A 
ATOM     79  F   UNL     1       9.655  -9.024  -2.846  1.00  0.00    -0.200 F 
ATOM     80  F   UNL     1       8.511 -11.176  -4.073  1.00  0.00    -0.200 F 
ENDBRANCH  46  70
BRANCH  58  81
ATOM     81  C   UNL     1       6.508 -11.934   5.981  1.00  0.00     0.064 A 
ATOM     82  C   UNL     1       7.867 -12.119   6.271  1.00  0.00     0.173 A 
ATOM     83  C   UNL     1       5.607 -12.941   6.354  1.00  0.00     0.173 A 
ATOM     84  F   UNL     1       8.765 -11.188   5.917  1.00  0.00    -0.203 F 
ATOM     85  C   UNL     1       8.309 -13.281   6.896  1.00  0.00     0.198 A 
ATOM     86  C   UNL     1       6.051 -14.093   6.997  1.00  0.00     0.198 A 
ATOM     87  F   UNL     1       4.297 -12.805   6.100  1.00  0.00    -0.203 F 
ATOM     88  F   UNL     1       9.617 -13.457   7.131  1.00  0.00    -0.200 F 
ATOM     89  C   UNL     1       7.401 -14.264   7.262  1.00  0.00     0.200 A 
ATOM     90  F   UNL     1       5.172 -15.039   7.356  1.00  0.00    -0.200 F 
ATOM     91  F   UNL     1       7.830 -15.382   7.865  1.00  0.00    -0.200 F 
ENDBRANCH  58  81
ENDBRANCH  32  33
ENDBRANCH  25  27
ENDBRANCH  24  25
ENDBRANCH  23  24
ENDBRANCH   1  23
TORSDOF 17
