REMARK SMILES CCN(C(=O)C1(C)CCCC1)[C@@H]1COC[C@H]1C(=O)OCCOC(=O)c1ccc(-c2c3nc(c(-c4c(F)c(F)c(F)c(F)c4F)c4ccc([nH]4)c(-c4c(F)c(F)c(F)c(F)c4F)c4nc(c(-c5c(F)c(F)c(F)c(F)c5F)c5ccc2[nH]5)C=C4)C=C3)cc1
REMARK SMILES IDX 20 1 19 2 17 3 18 4 16 5 12 6 13 7 14 8 15 9 3 10 2 11 1 12
REMARK SMILES IDX 4 13 5 14 6 15 7 16 8 17 11 18 9 19 10 20 21 21 22 22 23 23
REMARK SMILES IDX 24 24 25 25 26 26 87 27 27 28 86 29 28 30 29 31 30 32 80 33
REMARK SMILES IDX 31 34 85 35 79 36 81 37 32 38 84 39 78 40 77 41 33 43 65 44
REMARK SMILES IDX 45 45 64 46 46 47 49 48 63 49 82 50 47 51 48 52 62 54 83 55
REMARK SMILES IDX 50 56 34 57 35 58 43 59 36 60 37 61 41 62 44 63 38 64 39 65
REMARK SMILES IDX 42 66 40 67 66 68 67 69 75 70 68 71 69 72 73 73 76 74 70 75
REMARK SMILES IDX 71 76 74 77 72 78 51 79 52 80 60 81 53 82 54 83 58 84 61 85
REMARK SMILES IDX 55 86 56 87 59 88 57 89
REMARK H PARENT 81 42 49 53
REMARK Flexibility Score: inf
ROOT
ATOM      1  C   UNL     1       4.611   0.768  -0.738  1.00  0.00     0.274 C 
ENDROOT
BRANCH   1   2
ATOM      2  O   UNL     1       3.793  -0.403  -0.521  1.00  0.00    -0.462 OA
BRANCH   2   3
ATOM      3  C   UNL     1       3.759  -0.848   0.761  1.00  0.00     0.313 C 
ATOM      4  O   UNL     1       4.308  -0.275   1.700  1.00  0.00    -0.252 OA
BRANCH   3   5
ATOM      5  C   UNL     1       2.990  -2.135   0.969  1.00  0.00     0.150 C 
ATOM      6  C   UNL     1       2.413  -2.826  -0.266  1.00  0.00     0.127 C 
ATOM      7  C   UNL     1       2.930  -4.265  -0.135  1.00  0.00     0.186 C 
ATOM      8  O   UNL     1       4.191  -4.148   0.523  1.00  0.00    -0.378 OA
ATOM      9  C   UNL     1       4.008  -3.135   1.522  1.00  0.00     0.177 C 
BRANCH   6  10
ATOM     10  N   UNL     1       0.946  -2.741  -0.482  1.00  0.00    -0.336 N 
BRANCH  10  11
ATOM     11  C   UNL     1       0.458  -1.644  -1.319  1.00  0.00     0.116 C 
ATOM     12  C   UNL     1      -0.062  -0.500  -0.468  1.00  0.00     0.027 C 
ENDBRANCH  10  11
BRANCH  10  13
ATOM     13  C   UNL     1       0.081  -3.491   0.317  1.00  0.00     0.228 C 
ATOM     14  O   UNL     1       0.403  -3.762   1.477  1.00  0.00    -0.274 OA
BRANCH  13  15
ATOM     15  C   UNL     1      -1.204  -4.099  -0.330  1.00  0.00     0.047 C 
ATOM     16  C   UNL     1      -0.806  -4.831  -1.622  1.00  0.00     0.022 C 
ATOM     17  C   UNL     1      -1.853  -5.117   0.642  1.00  0.00     0.016 C 
ATOM     18  C   UNL     1      -2.388  -3.147  -0.545  1.00  0.00     0.016 C 
ATOM     19  C   UNL     1      -2.766  -4.299   1.555  1.00  0.00     0.001 C 
ATOM     20  C   UNL     1      -3.011  -2.979   0.835  1.00  0.00     0.001 C 
ENDBRANCH  13  15
ENDBRANCH  10  13
ENDBRANCH   6  10
ENDBRANCH   3   5
ENDBRANCH   2   3
ENDBRANCH   1   2
BRANCH   1  21
ATOM     21  C   UNL     1       3.773   2.045  -0.737  1.00  0.00     0.275 C 
BRANCH  21  22
ATOM     22  O   UNL     1       2.950   2.090   0.440  1.00  0.00    -0.458 OA
BRANCH  22  23
ATOM     23  C   UNL     1       1.672   2.482   0.246  1.00  0.00     0.338 C 
ATOM     24  O   UNL     1       1.197   2.916  -0.797  1.00  0.00    -0.246 OA
BRANCH  23  25
ATOM     25  C   UNL     1       0.851   2.253   1.460  1.00  0.00     0.060 A 
ATOM     26  C   UNL     1       1.175   1.265   2.397  1.00  0.00     0.016 A 
ATOM     27  C   UNL     1      -0.349   2.957   1.590  1.00  0.00     0.016 A 
ATOM     28  C   UNL     1       0.282   0.945   3.421  1.00  0.00     0.010 A 
ATOM     29  C   UNL     1      -1.202   2.696   2.666  1.00  0.00     0.010 A 
ATOM     30  C   UNL     1      -0.899   1.682   3.588  1.00  0.00    -0.014 A 
BRANCH  30  31
ATOM     31  C   UNL     1      -1.785   1.463   4.761  1.00  0.00     0.031 A 
ATOM     32  C   UNL     1      -3.219   1.050   4.584  1.00  0.00     0.074 A 
ATOM     33  C   UNL     1      -1.310   1.716   5.996  1.00  0.00     0.049 A 
ATOM     34  N   UNL     1      -4.190   1.041   5.462  1.00  0.00    -0.248 NA
ATOM     35  C   UNL     1      -3.618   0.599   3.242  1.00  0.00     0.031 C 
ATOM     36  C   UNL     1       0.065   2.107   6.311  1.00  0.00     0.029 A 
ATOM     37  N   UNL     1      -1.940   1.705   7.216  1.00  0.00    -0.354 N 
ATOM     38  C   UNL     1      -5.321   0.623   4.776  1.00  0.00     0.074 A 
ATOM     39  C   UNL     1      -4.918   0.385   3.405  1.00  0.00     0.031 C 
ATOM     40  C   UNL     1       0.178   2.292   7.633  1.00  0.00     0.029 A 
ATOM     41  C   UNL     1      -1.131   2.110   8.249  1.00  0.00     0.049 A 
ATOM     42  H   UNL     1      -2.878   1.433   7.338  1.00  0.00     0.167 HD
ATOM     43  C   UNL     1      -6.580   0.457   5.250  1.00  0.00     0.037 A 
ATOM     44  C   UNL     1      -1.415   2.361   9.540  1.00  0.00     0.037 A 
ATOM     45  C   UNL     1      -6.970   0.657   6.623  1.00  0.00     0.049 A 
ATOM     46  C   UNL     1      -2.823   2.205  10.030  1.00  0.00     0.074 A 
ATOM     47  C   UNL     1      -8.214   0.471   7.203  1.00  0.00     0.029 A 
ATOM     48  N   UNL     1      -6.120   1.080   7.634  1.00  0.00    -0.354 N 
ATOM     49  N   UNL     1      -3.891   1.841   9.367  1.00  0.00    -0.248 NA
ATOM     50  C   UNL     1      -3.066   2.514  11.446  1.00  0.00     0.031 C 
ATOM     51  C   UNL     1      -8.125   0.813   8.557  1.00  0.00     0.029 A 
ATOM     52  C   UNL     1      -6.818   1.178   8.829  1.00  0.00     0.049 A 
ATOM     53  H   UNL     1      -5.163   1.280   7.520  1.00  0.00     0.167 HD
ATOM     54  C   UNL     1      -4.933   1.870  10.281  1.00  0.00     0.074 A 
ATOM     55  C   UNL     1      -4.365   2.271  11.552  1.00  0.00     0.031 C 
ATOM     56  C   UNL     1      -6.243   1.590  10.082  1.00  0.00     0.037 A 
BRANCH  43  57
ATOM     57  C   UNL     1      -7.649   0.055   4.279  1.00  0.00     0.064 A 
ATOM     58  C   UNL     1      -7.765  -1.262   3.814  1.00  0.00     0.173 A 
ATOM     59  C   UNL     1      -8.622   0.984   3.878  1.00  0.00     0.173 A 
ATOM     60  F   UNL     1      -6.854  -2.183   4.162  1.00  0.00    -0.203 F 
ATOM     61  C   UNL     1      -8.814  -1.634   2.977  1.00  0.00     0.198 A 
ATOM     62  C   UNL     1      -9.680   0.604   3.057  1.00  0.00     0.198 A 
ATOM     63  F   UNL     1      -8.558   2.255   4.301  1.00  0.00    -0.203 F 
ATOM     64  F   UNL     1      -8.896  -2.894   2.527  1.00  0.00    -0.200 F 
ATOM     65  C   UNL     1      -9.775  -0.704   2.607  1.00  0.00     0.200 A 
ATOM     66  F   UNL     1     -10.613   1.501   2.709  1.00  0.00    -0.200 F 
ATOM     67  F   UNL     1     -10.792  -1.068   1.813  1.00  0.00    -0.200 F 
ENDBRANCH  43  57
BRANCH  44  68
ATOM     68  C   UNL     1      -0.335   2.827  10.442  1.00  0.00     0.064 A 
ATOM     69  C   UNL     1       0.199   1.979  11.419  1.00  0.00     0.173 A 
ATOM     70  C   UNL     1       0.208   4.115  10.319  1.00  0.00     0.173 A 
ATOM     71  F   UNL     1      -0.306   0.748  11.586  1.00  0.00    -0.203 F 
ATOM     72  C   UNL     1       1.239   2.402  12.243  1.00  0.00     0.198 A 
ATOM     73  C   UNL     1       1.264   4.528  11.127  1.00  0.00     0.198 A 
ATOM     74  F   UNL     1      -0.271   4.960   9.395  1.00  0.00    -0.203 F 
ATOM     75  F   UNL     1       1.717   1.582  13.189  1.00  0.00    -0.200 F 
ATOM     76  C   UNL     1       1.777   3.672  12.090  1.00  0.00     0.200 A 
ATOM     77  F   UNL     1       1.789   5.750  10.966  1.00  0.00    -0.200 F 
ATOM     78  F   UNL     1       2.787   4.073  12.874  1.00  0.00    -0.200 F 
ENDBRANCH  44  68
BRANCH  56  79
ATOM     79  C   UNL     1      -7.146   1.697  11.273  1.00  0.00     0.064 A 
ATOM     80  C   UNL     1      -7.557   2.943  11.766  1.00  0.00     0.173 A 
ATOM     81  C   UNL     1      -7.611   0.543  11.920  1.00  0.00     0.173 A 
ATOM     82  F   UNL     1      -7.122   4.074  11.190  1.00  0.00    -0.203 F 
ATOM     83  C   UNL     1      -8.386   3.031  12.881  1.00  0.00     0.198 A 
ATOM     84  C   UNL     1      -8.456   0.634  13.022  1.00  0.00     0.198 A 
ATOM     85  F   UNL     1      -7.245  -0.671  11.484  1.00  0.00    -0.203 F 
ATOM     86  F   UNL     1      -8.734   4.232  13.362  1.00  0.00    -0.200 F 
ATOM     87  C   UNL     1      -8.838   1.877  13.505  1.00  0.00     0.200 A 
ATOM     88  F   UNL     1      -8.896  -0.480  13.622  1.00  0.00    -0.200 F 
ATOM     89  F   UNL     1      -9.633   1.964  14.580  1.00  0.00    -0.200 F 
ENDBRANCH  56  79
ENDBRANCH  30  31
ENDBRANCH  23  25
ENDBRANCH  22  23
ENDBRANCH  21  22
ENDBRANCH   1  21
TORSDOF 15
