REMARK SMILES C[C@@H]1[C@@H](C(=O)OCCOC(=O)c2ccc(-c3c4nc(c(-c5c(F)c(F)c(F)c(F)c5F)c5ccc([nH]5)c(-c5c(F)c(F)c(F)c(F)c5F)c5nc(c(-c6c(F)c(F)c(F)c(F)c6F)c6ccc3[nH]6)C=C5)C=C4)cc2)CCN1C(=O)N(C)Cc1ccsc1
REMARK SMILES IDX 7 1 6 2 4 3 5 4 3 5 1 6 2 7 77 8 75 9 76 10 78 11 79 12
REMARK SMILES IDX 80 13 81 14 82 15 83 16 84 17 87 18 85 19 86 20 8 21 9 22
REMARK SMILES IDX 10 23 11 24 12 25 13 26 74 27 14 28 73 29 15 30 16 31 17 32
REMARK SMILES IDX 67 33 18 34 72 35 66 36 68 37 19 38 71 39 65 40 64 41 20 43
REMARK SMILES IDX 52 44 32 45 51 46 33 47 36 48 50 49 69 50 34 51 35 52 49 54
REMARK SMILES IDX 70 55 37 56 21 57 22 58 30 59 23 60 24 61 28 62 31 63 25 64
REMARK SMILES IDX 26 65 29 66 27 67 53 68 54 69 62 70 55 71 56 72 60 73 63 74
REMARK SMILES IDX 57 75 58 76 61 77 59 78 38 79 39 80 47 81 40 82 41 83 45 84
REMARK SMILES IDX 48 85 42 86 43 87 46 88 44 89
REMARK H PARENT 68 42 36 53
REMARK Flexibility Score: inf
ROOT
ATOM      1  C   UNL     1      -2.123   2.152  -3.467  1.00  0.00     0.274 C 
ENDROOT
BRANCH   1   2
ATOM      2  O   UNL     1      -1.684   2.030  -2.100  1.00  0.00    -0.462 OA
BRANCH   2   3
ATOM      3  C   UNL     1      -0.906   0.947  -1.821  1.00  0.00     0.311 C 
ATOM      4  O   UNL     1      -0.534   0.128  -2.650  1.00  0.00    -0.252 OA
BRANCH   3   5
ATOM      5  C   UNL     1      -0.517   0.938  -0.352  1.00  0.00     0.123 C 
ATOM      6  C   UNL     1       1.332   0.167   1.185  1.00  0.00     0.032 C 
ATOM      7  C   UNL     1       0.498  -0.182  -0.056  1.00  0.00     0.098 C 
ATOM      8  N   UNL     1      -0.329  -1.363   0.171  1.00  0.00    -0.321 N 
ATOM      9  C   UNL     1      -1.692   0.568   0.546  1.00  0.00     0.039 C 
ATOM     10  C   UNL     1      -1.686  -0.955   0.530  1.00  0.00     0.122 C 
BRANCH   8  11
ATOM     11  C   UNL     1      -0.131  -2.697  -0.079  1.00  0.00     0.320 C 
ATOM     12  O   UNL     1      -1.081  -3.469   0.110  1.00  0.00    -0.248 OA
BRANCH  11  13
ATOM     13  N   UNL     1       1.068  -3.199  -0.542  1.00  0.00    -0.323 N 
ATOM     14  C   UNL     1       2.331  -2.532  -0.812  1.00  0.00     0.149 C 
BRANCH  13  15
ATOM     15  C   UNL     1       1.078  -4.631  -0.846  1.00  0.00     0.157 C 
BRANCH  15  16
ATOM     16  C   UNL     1       1.412  -5.457   0.372  1.00  0.00    -0.018 A 
ATOM     17  C   UNL     1       1.550  -6.887   0.337  1.00  0.00     0.017 A 
ATOM     18  C   UNL     1       1.588  -4.994   1.666  1.00  0.00     0.070 A 
ATOM     19  C   UNL     1       1.804  -7.432   1.576  1.00  0.00     0.065 A 
ATOM     20  S   UNL     1       1.903  -6.239   2.792  1.00  0.00    -0.152 S 
ENDBRANCH  15  16
ENDBRANCH  13  15
ENDBRANCH  11  13
ENDBRANCH   8  11
ENDBRANCH   3   5
ENDBRANCH   2   3
ENDBRANCH   1   2
BRANCH   1  21
ATOM     21  C   UNL     1      -1.233   3.096  -4.282  1.00  0.00     0.275 C 
BRANCH  21  22
ATOM     22  O   UNL     1       0.078   2.542  -4.510  1.00  0.00    -0.458 OA
BRANCH  22  23
ATOM     23  C   UNL     1       1.047   2.990  -3.678  1.00  0.00     0.338 C 
ATOM     24  O   UNL     1       0.941   3.830  -2.801  1.00  0.00    -0.246 OA
BRANCH  23  25
ATOM     25  C   UNL     1       2.258   2.167  -3.834  1.00  0.00     0.060 A 
ATOM     26  C   UNL     1       2.625   1.383  -2.739  1.00  0.00     0.016 A 
ATOM     27  C   UNL     1       3.068   2.210  -4.969  1.00  0.00     0.016 A 
ATOM     28  C   UNL     1       3.777   0.607  -2.777  1.00  0.00     0.010 A 
ATOM     29  C   UNL     1       4.245   1.447  -5.001  1.00  0.00     0.010 A 
ATOM     30  C   UNL     1       4.604   0.639  -3.905  1.00  0.00    -0.014 A 
BRANCH  30  31
ATOM     31  C   UNL     1       5.887  -0.105  -3.870  1.00  0.00     0.031 A 
ATOM     32  C   UNL     1       7.159   0.630  -3.562  1.00  0.00     0.074 A 
ATOM     33  C   UNL     1       5.903  -1.443  -4.012  1.00  0.00     0.049 A 
ATOM     34  N   UNL     1       8.390   0.186  -3.540  1.00  0.00    -0.248 NA
ATOM     35  C   UNL     1       7.024   2.053  -3.218  1.00  0.00     0.031 C 
ATOM     36  C   UNL     1       4.725  -2.285  -4.211  1.00  0.00     0.029 A 
ATOM     37  N   UNL     1       6.951  -2.331  -3.991  1.00  0.00    -0.354 N 
ATOM     38  C   UNL     1       9.178   1.277  -3.202  1.00  0.00     0.074 A 
ATOM     39  C   UNL     1       8.287   2.405  -3.026  1.00  0.00     0.031 C 
ATOM     40  C   UNL     1       5.113  -3.570  -4.279  1.00  0.00     0.029 A 
ATOM     41  C   UNL     1       6.571  -3.636  -4.186  1.00  0.00     0.049 A 
ATOM     42  H   UNL     1       7.886  -2.058  -3.850  1.00  0.00     0.167 HD
ATOM     43  C   UNL     1      10.524   1.333  -3.059  1.00  0.00     0.037 A 
ATOM     44  C   UNL     1       7.319  -4.751  -4.308  1.00  0.00     0.037 A 
ATOM     45  C   UNL     1      11.408   0.211  -3.228  1.00  0.00     0.049 A 
ATOM     46  C   UNL     1       8.820  -4.643  -4.238  1.00  0.00     0.074 A 
ATOM     47  C   UNL     1      12.790   0.180  -3.155  1.00  0.00     0.029 A 
ATOM     48  N   UNL     1      10.993  -1.084  -3.498  1.00  0.00    -0.354 N 
ATOM     49  N   UNL     1       9.566  -3.594  -3.990  1.00  0.00    -0.248 NA
ATOM     50  C   UNL     1       9.586  -5.874  -4.488  1.00  0.00     0.031 C 
ATOM     51  C   UNL     1      13.213  -1.129  -3.413  1.00  0.00     0.029 A 
ATOM     52  C   UNL     1      12.093  -1.920  -3.606  1.00  0.00     0.049 A 
ATOM     53  H   UNL     1      10.056  -1.368  -3.597  1.00  0.00     0.167 HD
ATOM     54  C   UNL     1      10.881  -4.038  -4.039  1.00  0.00     0.074 A 
ATOM     55  C   UNL     1      10.833  -5.457  -4.321  1.00  0.00     0.031 C 
ATOM     56  C   UNL     1      12.026  -3.332  -3.876  1.00  0.00     0.037 A 
BRANCH  43  57
ATOM     57  C   UNL     1      11.125   2.670  -2.749  1.00  0.00     0.064 A 
ATOM     58  C   UNL     1      11.039   3.240  -1.471  1.00  0.00     0.173 A 
ATOM     59  C   UNL     1      11.817   3.379  -3.743  1.00  0.00     0.173 A 
ATOM     60  F   UNL     1      10.372   2.608  -0.494  1.00  0.00    -0.203 F 
ATOM     61  C   UNL     1      11.608   4.483  -1.204  1.00  0.00     0.198 A 
ATOM     62  C   UNL     1      12.403   4.611  -3.466  1.00  0.00     0.198 A 
ATOM     63  F   UNL     1      11.926   2.875  -4.981  1.00  0.00    -0.203 F 
ATOM     64  F   UNL     1      11.480   5.029   0.013  1.00  0.00    -0.200 F 
ATOM     65  C   UNL     1      12.294   5.164  -2.200  1.00  0.00     0.200 A 
ATOM     66  F   UNL     1      13.071   5.264  -4.428  1.00  0.00    -0.200 F 
ATOM     67  F   UNL     1      12.842   6.359  -1.941  1.00  0.00    -0.200 F 
ENDBRANCH  43  57
BRANCH  44  68
ATOM     68  C   UNL     1       6.672  -6.066  -4.555  1.00  0.00     0.064 A 
ATOM     69  C   UNL     1       6.729  -7.090  -3.599  1.00  0.00     0.173 A 
ATOM     70  C   UNL     1       6.020  -6.341  -5.766  1.00  0.00     0.173 A 
ATOM     71  F   UNL     1       7.369  -6.888  -2.438  1.00  0.00    -0.203 F 
ATOM     72  C   UNL     1       6.173  -8.343  -3.853  1.00  0.00     0.198 A 
ATOM     73  C   UNL     1       5.439  -7.584  -6.007  1.00  0.00     0.198 A 
ATOM     74  F   UNL     1       5.946  -5.399  -6.718  1.00  0.00    -0.203 F 
ATOM     75  F   UNL     1       6.285  -9.320  -2.943  1.00  0.00    -0.200 F 
ATOM     76  C   UNL     1       5.524  -8.587  -5.054  1.00  0.00     0.200 A 
ATOM     77  F   UNL     1       4.807  -7.812  -7.165  1.00  0.00    -0.200 F 
ATOM     78  F   UNL     1       4.991  -9.792  -5.297  1.00  0.00    -0.200 F 
ENDBRANCH  44  68
BRANCH  56  79
ATOM     79  C   UNL     1      13.319  -4.087  -3.971  1.00  0.00     0.064 A 
ATOM     80  C   UNL     1      13.825  -4.522  -5.204  1.00  0.00     0.173 A 
ATOM     81  C   UNL     1      14.082  -4.339  -2.820  1.00  0.00     0.173 A 
ATOM     82  F   UNL     1      13.124  -4.317  -6.330  1.00  0.00    -0.203 F 
ATOM     83  C   UNL     1      15.039  -5.199  -5.281  1.00  0.00     0.198 A 
ATOM     84  C   UNL     1      15.307  -4.995  -2.903  1.00  0.00     0.198 A 
ATOM     85  F   UNL     1      13.643  -3.938  -1.618  1.00  0.00    -0.203 F 
ATOM     86  F   UNL     1      15.485  -5.639  -6.465  1.00  0.00    -0.200 F 
ATOM     87  C   UNL     1      15.781  -5.429  -4.132  1.00  0.00     0.200 A 
ATOM     88  F   UNL     1      16.028  -5.208  -1.794  1.00  0.00    -0.200 F 
ATOM     89  F   UNL     1      16.953  -6.076  -4.208  1.00  0.00    -0.200 F 
ENDBRANCH  56  79
ENDBRANCH  30  31
ENDBRANCH  23  25
ENDBRANCH  22  23
ENDBRANCH  21  22
ENDBRANCH   1  21
TORSDOF 15
