REMARK SMILES COc1cc(C(=O)NC2(C(=O)OCCOC(=O)c3ccc(-c4c5nc(c(-c6c(F)c(F)c(F)c(F)c6F)c6ccc([nH]6)c(-c6c(F)c(F)c(F)c(F)c6F)c6nc(c(-c7c(F)c(F)c(F)c(F)c7F)c7ccc4[nH]7)C=C6)C=C5)cc3)CCCCC2)cc2c1OCCO2
REMARK SMILES IDX 13 1 12 2 10 3 11 4 9 5 81 6 85 7 82 8 84 9 83 10 8 11 6 12
REMARK SMILES IDX 7 13 5 15 3 16 4 17 88 18 87 19 89 20 86 21 92 22 90 23
REMARK SMILES IDX 91 24 2 25 1 26 14 27 15 28 16 29 17 30 18 31 19 32 80 33
REMARK SMILES IDX 20 34 79 35 21 36 22 37 23 38 73 39 24 40 78 41 72 42 74 43
REMARK SMILES IDX 25 44 77 45 71 46 70 47 26 49 58 50 38 51 57 52 39 53 42 54
REMARK SMILES IDX 56 55 75 56 40 57 41 58 55 60 76 61 43 62 27 63 28 64 36 65
REMARK SMILES IDX 29 66 30 67 34 68 37 69 31 70 32 71 35 72 33 73 59 74 60 75
REMARK SMILES IDX 68 76 61 77 62 78 66 79 69 80 63 81 64 82 67 83 65 84 44 85
REMARK SMILES IDX 45 86 53 87 46 88 47 89 51 90 54 91 48 92 49 93 52 94 50 95
REMARK H PARENT 8 14 74 48 42 59
REMARK Flexibility Score: inf
ROOT
ATOM      1  C   UNL     1      -5.505   2.819  -4.335  1.00  0.00     0.274 C 
ENDROOT
BRANCH   1   2
ATOM      2  O   UNL     1      -4.648   2.739  -3.179  1.00  0.00    -0.460 OA
BRANCH   2   3
ATOM      3  C   UNL     1      -3.494   3.455  -3.230  1.00  0.00     0.331 C 
ATOM      4  O   UNL     1      -3.204   4.221  -4.146  1.00  0.00    -0.249 OA
BRANCH   3   5
ATOM      5  C   UNL     1      -2.499   3.103  -2.073  1.00  0.00     0.138 C 
ATOM      6  C   UNL     1      -1.648   1.972  -2.690  1.00  0.00     0.040 C 
ATOM      7  C   UNL     1      -3.263   2.774  -0.770  1.00  0.00     0.040 C 
ATOM      8  C   UNL     1      -2.219   0.571  -2.470  1.00  0.00     0.003 C 
ATOM      9  C   UNL     1      -3.743   1.334  -0.629  1.00  0.00     0.003 C 
ATOM     10  C   UNL     1      -2.683   0.327  -1.042  1.00  0.00     0.000 C 
BRANCH   5  11
ATOM     11  N   UNL     1      -1.742   4.378  -1.823  1.00  0.00    -0.336 N 
ATOM     12  C   UNL     1      -0.642   4.833  -1.151  1.00  0.00     0.252 C 
ATOM     13  O   UNL     1      -0.538   6.056  -1.031  1.00  0.00    -0.269 OA
ATOM     14  H   UNL     1      -2.179   5.124  -2.293  1.00  0.00     0.165 HD
BRANCH  12  15
ATOM     15  C   UNL     1       0.472   3.982  -0.681  1.00  0.00     0.047 A 
ATOM     16  C   UNL     1       1.420   1.821  -0.151  1.00  0.00     0.165 A 
ATOM     17  C   UNL     1       0.316   2.664  -0.282  1.00  0.00     0.064 A 
ATOM     18  C   UNL     1       2.713   2.336  -0.263  1.00  0.00     0.203 A 
ATOM     19  C   UNL     1       2.876   3.702  -0.533  1.00  0.00     0.166 A 
ATOM     20  O   UNL     1       3.779   1.482  -0.160  1.00  0.00    -0.483 OA
ATOM     21  C   UNL     1       1.765   4.519  -0.744  1.00  0.00     0.064 A 
ATOM     22  O   UNL     1       4.100   4.310  -0.659  1.00  0.00    -0.486 OA
ATOM     23  C   UNL     1       4.995   2.187   0.106  1.00  0.00     0.271 C 
ATOM     24  C   UNL     1       5.152   3.360  -0.844  1.00  0.00     0.271 C 
BRANCH  16  25
ATOM     25  O   UNL     1       1.107   0.487  -0.114  1.00  0.00    -0.493 OA
ATOM     26  C   UNL     1       1.622  -0.197   1.019  1.00  0.00     0.278 C 
ENDBRANCH  16  25
ENDBRANCH  12  15
ENDBRANCH   5  11
ENDBRANCH   3   5
ENDBRANCH   2   3
ENDBRANCH   1   2
BRANCH   1  27
ATOM     27  C   UNL     1      -6.667   3.786  -4.118  1.00  0.00     0.275 C 
BRANCH  27  28
ATOM     28  O   UNL     1      -6.188   5.140  -4.042  1.00  0.00    -0.458 OA
BRANCH  28  29
ATOM     29  C   UNL     1      -6.256   5.720  -2.828  1.00  0.00     0.338 C 
ATOM     30  O   UNL     1      -6.716   5.241  -1.792  1.00  0.00    -0.246 OA
BRANCH  29  31
ATOM     31  C   UNL     1      -5.597   7.028  -2.865  1.00  0.00     0.060 A 
ATOM     32  C   UNL     1      -4.208   7.058  -2.812  1.00  0.00     0.016 A 
ATOM     33  C   UNL     1      -6.324   8.211  -2.800  1.00  0.00     0.016 A 
ATOM     34  C   UNL     1      -3.526   8.249  -2.611  1.00  0.00     0.010 A 
ATOM     35  C   UNL     1      -5.637   9.426  -2.684  1.00  0.00     0.010 A 
ATOM     36  C   UNL     1      -4.233   9.453  -2.554  1.00  0.00    -0.014 A 
BRANCH  36  37
ATOM     37  C   UNL     1      -3.516  10.726  -2.288  1.00  0.00     0.031 A 
ATOM     38  C   UNL     1      -3.840  11.512  -1.049  1.00  0.00     0.074 A 
ATOM     39  C   UNL     1      -2.559  11.169  -3.126  1.00  0.00     0.049 A 
ATOM     40  N   UNL     1      -3.522  12.743  -0.739  1.00  0.00    -0.248 NA
ATOM     41  C   UNL     1      -4.644  10.823  -0.028  1.00  0.00     0.031 C 
ATOM     42  C   UNL     1      -2.079  10.466  -4.316  1.00  0.00     0.029 A 
ATOM     43  N   UNL     1      -1.810  12.319  -3.095  1.00  0.00    -0.354 N 
ATOM     44  C   UNL     1      -4.147  12.998   0.473  1.00  0.00     0.074 A 
ATOM     45  C   UNL     1      -4.848  11.790   0.855  1.00  0.00     0.031 C 
ATOM     46  C   UNL     1      -1.095  11.181  -4.882  1.00  0.00     0.029 A 
ATOM     47  C   UNL     1      -0.936  12.432  -4.149  1.00  0.00     0.049 A 
ATOM     48  H   UNL     1      -1.891  12.998  -2.387  1.00  0.00     0.167 HD
ATOM     49  C   UNL     1      -4.143  14.145   1.193  1.00  0.00     0.037 A 
ATOM     50  C   UNL     1      -0.132  13.450  -4.509  1.00  0.00     0.037 A 
ATOM     51  C   UNL     1      -3.384  15.316   0.842  1.00  0.00     0.049 A 
ATOM     52  C   UNL     1      -0.147  14.716  -3.701  1.00  0.00     0.074 A 
ATOM     53  C   UNL     1      -3.320  16.535   1.493  1.00  0.00     0.029 A 
ATOM     54  N   UNL     1      -2.527  15.397  -0.247  1.00  0.00    -0.354 N 
ATOM     55  N   UNL     1      -0.833  14.998  -2.620  1.00  0.00    -0.248 NA
ATOM     56  C   UNL     1       0.700  15.817  -4.180  1.00  0.00     0.031 C 
ATOM     57  C   UNL     1      -2.437  17.361   0.787  1.00  0.00     0.029 A 
ATOM     58  C   UNL     1      -1.930  16.646  -0.286  1.00  0.00     0.049 A 
ATOM     59  H   UNL     1      -2.368  14.674  -0.896  1.00  0.00     0.167 HD
ATOM     60  C   UNL     1      -0.504  16.303  -2.289  1.00  0.00     0.074 A 
ATOM     61  C   UNL     1       0.463  16.753  -3.271  1.00  0.00     0.031 C 
ATOM     62  C   UNL     1      -0.970  17.067  -1.272  1.00  0.00     0.037 A 
BRANCH  49  63
ATOM     63  C   UNL     1      -5.025  14.204   2.402  1.00  0.00     0.064 A 
ATOM     64  C   UNL     1      -4.697  13.551   3.597  1.00  0.00     0.173 A 
ATOM     65  C   UNL     1      -6.215  14.948   2.363  1.00  0.00     0.173 A 
ATOM     66  F   UNL     1      -3.580  12.813   3.678  1.00  0.00    -0.203 F 
ATOM     67  C   UNL     1      -5.538  13.623   4.705  1.00  0.00     0.198 A 
ATOM     68  C   UNL     1      -7.043  15.036   3.479  1.00  0.00     0.198 A 
ATOM     69  F   UNL     1      -6.574  15.592   1.242  1.00  0.00    -0.203 F 
ATOM     70  F   UNL     1      -5.227  12.957   5.826  1.00  0.00    -0.200 F 
ATOM     71  C   UNL     1      -6.707  14.369   4.647  1.00  0.00     0.200 A 
ATOM     72  F   UNL     1      -8.167  15.764   3.423  1.00  0.00    -0.200 F 
ATOM     73  F   UNL     1      -7.513  14.439   5.715  1.00  0.00    -0.200 F 
ENDBRANCH  49  63
BRANCH  50  74
ATOM     74  C   UNL     1       0.716  13.325  -5.723  1.00  0.00     0.064 A 
ATOM     75  C   UNL     1       2.108  13.216  -5.620  1.00  0.00     0.173 A 
ATOM     76  C   UNL     1       0.150  13.296  -7.006  1.00  0.00     0.173 A 
ATOM     77  F   UNL     1       2.697  13.270  -4.417  1.00  0.00    -0.203 F 
ATOM     78  C   UNL     1       2.904  13.085  -6.756  1.00  0.00     0.198 A 
ATOM     79  C   UNL     1       0.944  13.137  -8.139  1.00  0.00     0.198 A 
ATOM     80  F   UNL     1      -1.179  13.402  -7.157  1.00  0.00    -0.203 F 
ATOM     81  F   UNL     1       4.237  13.016  -6.634  1.00  0.00    -0.200 F 
ATOM     82  C   UNL     1       2.321  13.036  -8.014  1.00  0.00     0.200 A 
ATOM     83  F   UNL     1       0.375  13.081  -9.351  1.00  0.00    -0.200 F 
ATOM     84  F   UNL     1       3.086  12.899  -9.105  1.00  0.00    -0.200 F 
ENDBRANCH  50  74
BRANCH  62  85
ATOM     85  C   UNL     1      -0.428  18.459  -1.166  1.00  0.00     0.064 A 
ATOM     86  C   UNL     1      -0.872  19.479  -2.018  1.00  0.00     0.173 A 
ATOM     87  C   UNL     1       0.519  18.780  -0.183  1.00  0.00     0.173 A 
ATOM     88  F   UNL     1      -1.765  19.212  -2.983  1.00  0.00    -0.203 F 
ATOM     89  C   UNL     1      -0.373  20.773  -1.900  1.00  0.00     0.198 A 
ATOM     90  C   UNL     1       1.001  20.079  -0.056  1.00  0.00     0.198 A 
ATOM     91  F   UNL     1       0.970  17.836   0.656  1.00  0.00    -0.203 F 
ATOM     92  F   UNL     1      -0.784  21.728  -2.747  1.00  0.00    -0.200 F 
ATOM     93  C   UNL     1       0.559  21.073  -0.917  1.00  0.00     0.200 A 
ATOM     94  F   UNL     1       1.897  20.370   0.897  1.00  0.00    -0.200 F 
ATOM     95  F   UNL     1       1.037  22.320  -0.804  1.00  0.00    -0.200 F 
ENDBRANCH  62  85
ENDBRANCH  36  37
ENDBRANCH  29  31
ENDBRANCH  28  29
ENDBRANCH  27  28
ENDBRANCH   1  27
TORSDOF 14
