REMARK SMILES O=C(CCOc1cccc(/C=C2/SC(=S)N(c3ccc(Cl)c(Cl)c3)C2=O)c1)OCCOC(=O)c1ccc(-c2c3nc(c(-c4c(F)c(F)c(F)c(F)c4F)c4ccc([nH]4)c(-c4c(F)c(F)c(F)c(F)c4F)c4nc(c(-c5c(F)c(F)c(F)c(F)c5F)c5ccc2[nH]5)C=C4)C=C3)cc1
REMARK SMILES IDX 28 1 2 2 1 3 3 4 4 5 5 6 6 7 7 8 27 9 8 10 10 11 9 12 11 13
REMARK SMILES IDX 12 14 13 15 25 16 14 17 16 18 26 19 15 20 17 21 18 22 24 23
REMARK SMILES IDX 19 24 22 25 20 26 23 27 21 28 29 29 30 30 31 31 32 32 33 33
REMARK SMILES IDX 34 34 35 35 96 36 36 37 95 38 37 39 38 40 39 41 89 42 40 43
REMARK SMILES IDX 94 44 88 45 90 46 41 47 93 48 87 49 86 50 42 52 74 53 54 54
REMARK SMILES IDX 73 55 55 56 58 57 72 58 91 59 56 60 57 61 71 63 92 64 59 65
REMARK SMILES IDX 43 66 44 67 52 68 45 69 46 70 50 71 53 72 47 73 48 74 51 75
REMARK SMILES IDX 49 76 75 77 76 78 84 79 77 80 78 81 82 82 85 83 79 84 80 85
REMARK SMILES IDX 83 86 81 87 60 88 61 89 69 90 62 91 63 92 67 93 70 94 64 95
REMARK SMILES IDX 65 96 68 97 66 98
REMARK H PARENT 90 51 58 62
REMARK Flexibility Score: inf
ROOT
ATOM      1  O   UNL     1       3.483   0.692   0.192  1.00  0.00    -0.462 OA
ENDROOT
BRANCH   1   2
ATOM      2  C   UNL     1       2.708  -0.406   0.303  1.00  0.00     0.309 C 
ATOM      3  O   UNL     1       1.486  -0.287   0.393  1.00  0.00    -0.252 OA
BRANCH   2   4
ATOM      4  C   UNL     1       3.320  -1.768   0.188  1.00  0.00     0.164 C 
BRANCH   4   5
ATOM      5  C   UNL     1       3.174  -2.294  -1.236  1.00  0.00     0.241 C 
BRANCH   5   6
ATOM      6  O   UNL     1       4.186  -1.824  -2.132  1.00  0.00    -0.493 OA
BRANCH   6   7
ATOM      7  C   UNL     1       4.016  -0.639  -2.796  1.00  0.00     0.119 A 
ATOM      8  C   UNL     1       5.085  -0.268  -3.612  1.00  0.00     0.046 A 
ATOM      9  C   UNL     1       2.946   0.243  -2.657  1.00  0.00     0.054 A 
ATOM     10  C   UNL     1       5.106   0.984  -4.232  1.00  0.00     0.004 A 
ATOM     11  C   UNL     1       3.029   1.555  -3.148  1.00  0.00    -0.021 A 
ATOM     12  C   UNL     1       4.091   1.907  -3.978  1.00  0.00     0.008 A 
BRANCH  11  13
ATOM     13  C   UNL     1       2.041   2.535  -2.672  1.00  0.00     0.029 C 
ATOM     14  C   UNL     1       2.267   3.490  -1.750  1.00  0.00     0.081 C 
ATOM     15  S   UNL     1       0.987   4.431  -1.084  1.00  0.00    -0.054 SA
ATOM     16  C   UNL     1       3.554   3.862  -1.079  1.00  0.00     0.270 C 
ATOM     17  C   UNL     1       2.024   5.188   0.128  1.00  0.00     0.152 C 
ATOM     18  N   UNL     1       3.326   4.718   0.004  1.00  0.00    -0.261 N 
ATOM     19  O   UNL     1       4.643   3.457  -1.469  1.00  0.00    -0.268 OA
ATOM     20  S   UNL     1       1.407   6.397   1.111  1.00  0.00    -0.051 S 
BRANCH  18  21
ATOM     21  C   UNL     1       4.403   5.035   0.910  1.00  0.00     0.052 A 
ATOM     22  C   UNL     1       5.719   5.204   0.449  1.00  0.00     0.028 A 
ATOM     23  C   UNL     1       4.201   5.047   2.302  1.00  0.00     0.048 A 
ATOM     24  C   UNL     1       6.792   5.355   1.338  1.00  0.00     0.024 A 
ATOM     25  C   UNL     1       5.273   5.185   3.198  1.00  0.00     0.061 A 
ATOM     26  C   UNL     1       6.574   5.335   2.714  1.00  0.00     0.059 A 
ATOM     27  Cl  UNL     1       4.926   5.089   4.889  1.00  0.00    -0.083 Cl
ATOM     28  Cl  UNL     1       7.948   5.458   3.752  1.00  0.00    -0.083 Cl
ENDBRANCH  18  21
ENDBRANCH  11  13
ENDBRANCH   6   7
ENDBRANCH   5   6
ENDBRANCH   4   5
ENDBRANCH   2   4
ENDBRANCH   1   2
BRANCH   1  29
ATOM     29  C   UNL     1       4.925   0.731   0.299  1.00  0.00     0.274 C 
BRANCH  29  30
ATOM     30  C   UNL     1       5.292   1.434   1.600  1.00  0.00     0.275 C 
BRANCH  30  31
ATOM     31  O   UNL     1       4.680   0.743   2.698  1.00  0.00    -0.458 OA
BRANCH  31  32
ATOM     32  C   UNL     1       3.433   1.177   3.027  1.00  0.00     0.338 C 
ATOM     33  O   UNL     1       2.876   2.189   2.651  1.00  0.00    -0.246 OA
BRANCH  32  34
ATOM     34  C   UNL     1       2.770   0.091   3.778  1.00  0.00     0.060 A 
ATOM     35  C   UNL     1       1.413  -0.156   3.540  1.00  0.00     0.016 A 
ATOM     36  C   UNL     1       3.487  -0.686   4.693  1.00  0.00     0.016 A 
ATOM     37  C   UNL     1       0.757  -1.162   4.245  1.00  0.00     0.010 A 
ATOM     38  C   UNL     1       2.830  -1.683   5.407  1.00  0.00     0.010 A 
ATOM     39  C   UNL     1       1.456  -1.892   5.213  1.00  0.00    -0.014 A 
BRANCH  39  40
ATOM     40  C   UNL     1       0.709  -2.681   6.211  1.00  0.00     0.031 A 
ATOM     41  C   UNL     1       0.299  -1.981   7.476  1.00  0.00     0.074 A 
ATOM     42  C   UNL     1       0.430  -3.979   6.010  1.00  0.00     0.049 A 
ATOM     43  N   UNL     1      -0.339  -2.447   8.517  1.00  0.00    -0.248 NA
ATOM     44  C   UNL     1       0.673  -0.560   7.583  1.00  0.00     0.031 C 
ATOM     45  C   UNL     1       0.780  -4.746   4.817  1.00  0.00     0.029 A 
ATOM     46  N   UNL     1      -0.206  -4.881   6.821  1.00  0.00    -0.354 N 
ATOM     47  C   UNL     1      -0.445  -1.377   9.395  1.00  0.00     0.074 A 
ATOM     48  C   UNL     1       0.227  -0.251   8.789  1.00  0.00     0.031 C 
ATOM     49  C   UNL     1       0.361  -6.014   4.979  1.00  0.00     0.029 A 
ATOM     50  C   UNL     1      -0.272  -6.144   6.290  1.00  0.00     0.049 A 
ATOM     51  H   UNL     1      -0.579  -4.646   7.701  1.00  0.00     0.167 HD
ATOM     52  C   UNL     1      -1.060  -1.337  10.599  1.00  0.00     0.037 A 
ATOM     53  C   UNL     1      -0.787  -7.271   6.817  1.00  0.00     0.037 A 
ATOM     54  C   UNL     1      -1.710  -2.467  11.201  1.00  0.00     0.049 A 
ATOM     55  C   UNL     1      -1.434  -7.209   8.178  1.00  0.00     0.074 A 
ATOM     56  C   UNL     1      -2.373  -2.541  12.411  1.00  0.00     0.029 A 
ATOM     57  N   UNL     1      -1.766  -3.730  10.630  1.00  0.00    -0.354 N 
ATOM     58  N   UNL     1      -1.582  -6.183   8.982  1.00  0.00    -0.248 NA
ATOM     59  C   UNL     1      -1.999  -8.462   8.698  1.00  0.00     0.031 C 
ATOM     60  C   UNL     1      -2.798  -3.863  12.591  1.00  0.00     0.029 A 
ATOM     61  C   UNL     1      -2.440  -4.598  11.470  1.00  0.00     0.049 A 
ATOM     62  H   UNL     1      -1.383  -3.973   9.756  1.00  0.00     0.167 HD
ATOM     63  C   UNL     1      -2.289  -6.654  10.080  1.00  0.00     0.074 A 
ATOM     64  C   UNL     1      -2.545  -8.059   9.837  1.00  0.00     0.031 C 
ATOM     65  C   UNL     1      -2.696  -5.987  11.189  1.00  0.00     0.037 A 
BRANCH  52  66
ATOM     66  C   UNL     1      -1.028  -0.033  11.339  1.00  0.00     0.064 A 
ATOM     67  C   UNL     1      -1.779   1.072  10.910  1.00  0.00     0.173 A 
ATOM     68  C   UNL     1      -0.231   0.117  12.482  1.00  0.00     0.173 A 
ATOM     69  F   UNL     1      -2.538   0.986   9.807  1.00  0.00    -0.203 F 
ATOM     70  C   UNL     1      -1.710   2.289  11.583  1.00  0.00     0.198 A 
ATOM     71  C   UNL     1      -0.185   1.327  13.169  1.00  0.00     0.198 A 
ATOM     72  F   UNL     1       0.510  -0.908  12.929  1.00  0.00    -0.203 F 
ATOM     73  F   UNL     1      -2.395   3.346  11.125  1.00  0.00    -0.200 F 
ATOM     74  C   UNL     1      -0.918   2.414  12.715  1.00  0.00     0.200 A 
ATOM     75  F   UNL     1       0.576   1.445  14.265  1.00  0.00    -0.200 F 
ATOM     76  F   UNL     1      -0.852   3.585  13.362  1.00  0.00    -0.200 F 
ENDBRANCH  52  66
BRANCH  53  77
ATOM     77  C   UNL     1      -0.743  -8.543   6.051  1.00  0.00     0.064 A 
ATOM     78  C   UNL     1      -1.915  -9.109   5.530  1.00  0.00     0.173 A 
ATOM     79  C   UNL     1       0.463  -9.226   5.840  1.00  0.00     0.173 A 
ATOM     80  F   UNL     1      -3.095  -8.503   5.726  1.00  0.00    -0.203 F 
ATOM     81  C   UNL     1      -1.885 -10.323   4.846  1.00  0.00     0.198 A 
ATOM     82  C   UNL     1       0.494 -10.428   5.134  1.00  0.00     0.198 A 
ATOM     83  F   UNL     1       1.612  -8.726   6.317  1.00  0.00    -0.203 F 
ATOM     84  F   UNL     1      -3.026 -10.864   4.399  1.00  0.00    -0.200 F 
ATOM     85  C   UNL     1      -0.681 -10.979   4.645  1.00  0.00     0.200 A 
ATOM     86  F   UNL     1       1.661 -11.055   4.934  1.00  0.00    -0.200 F 
ATOM     87  F   UNL     1      -0.653 -12.147   3.988  1.00  0.00    -0.200 F 
ENDBRANCH  53  77
BRANCH  65  88
ATOM     88  C   UNL     1      -3.505  -6.755  12.192  1.00  0.00     0.064 A 
ATOM     89  C   UNL     1      -2.924  -7.720  13.025  1.00  0.00     0.173 A 
ATOM     90  C   UNL     1      -4.874  -6.486  12.346  1.00  0.00     0.173 A 
ATOM     91  F   UNL     1      -1.622  -8.020  12.905  1.00  0.00    -0.203 F 
ATOM     92  C   UNL     1      -3.691  -8.409  13.960  1.00  0.00     0.198 A 
ATOM     93  C   UNL     1      -5.631  -7.156  13.302  1.00  0.00     0.198 A 
ATOM     94  F   UNL     1      -5.473  -5.564  11.578  1.00  0.00    -0.203 F 
ATOM     95  F   UNL     1      -3.126  -9.362  14.715  1.00  0.00    -0.200 F 
ATOM     96  C   UNL     1      -5.041  -8.123  14.102  1.00  0.00     0.200 A 
ATOM     97  F   UNL     1      -6.931  -6.868  13.447  1.00  0.00    -0.200 F 
ATOM     98  F   UNL     1      -5.776  -8.784  15.007  1.00  0.00    -0.200 F 
ENDBRANCH  65  88
ENDBRANCH  39  40
ENDBRANCH  32  34
ENDBRANCH  31  32
ENDBRANCH  30  31
ENDBRANCH  29  30
ENDBRANCH   1  29
TORSDOF 16
