REMARK SMILES Cc1nc(C[C@H](C(=O)OCCOC(=O)c2ccc(-c3c4nc(c(-c5c(F)c(F)c(F)c(F)c5F)c5ccc([nH]5)c(-c5c(F)c(F)c(F)c(F)c5F)c5nc(c(-c6c(F)c(F)c(F)c(F)c6F)c6ccc3[nH]6)C=C5)C=C4)cc2)c2ccccc2Br)cs1
REMARK SMILES IDX 10 1 9 2 7 3 8 4 6 5 5 6 4 7 1 8 2 9 3 10 86 11 85 12 78 13
REMARK SMILES IDX 79 14 83 15 80 16 82 17 84 18 81 19 11 20 12 21 13 22 14 23
REMARK SMILES IDX 15 24 16 25 77 26 17 27 76 28 18 29 19 30 20 31 70 32 21 33
REMARK SMILES IDX 75 34 69 35 71 36 22 37 74 38 68 39 67 40 23 42 55 43 35 44
REMARK SMILES IDX 54 45 36 46 39 47 53 48 72 49 37 50 38 51 52 53 73 54 40 55
REMARK SMILES IDX 24 56 25 57 33 58 26 59 27 60 31 61 34 62 28 63 29 64 32 65
REMARK SMILES IDX 30 66 56 67 57 68 65 69 58 70 59 71 63 72 66 73 60 74 61 75
REMARK SMILES IDX 64 76 62 77 41 78 42 79 50 80 43 81 44 82 48 83 51 84 45 85
REMARK SMILES IDX 46 86 49 87 47 88
REMARK H PARENT 71 41 39 52
REMARK Flexibility Score: inf
ROOT
ATOM      1  C   UNL     1       1.105  -3.670   1.492  1.00  0.00     0.274 C 
ENDROOT
BRANCH   1   2
ATOM      2  O   UNL     1       2.141  -3.677   0.489  1.00  0.00    -0.462 OA
BRANCH   2   3
ATOM      3  C   UNL     1       1.897  -2.965  -0.643  1.00  0.00     0.313 C 
ATOM      4  O   UNL     1       0.892  -2.281  -0.817  1.00  0.00    -0.252 OA
BRANCH   3   5
ATOM      5  C   UNL     1       2.978  -3.109  -1.718  1.00  0.00     0.136 C 
BRANCH   5   6
ATOM      6  C   UNL     1       3.400  -1.695  -2.144  1.00  0.00     0.077 C 
BRANCH   6   7
ATOM      7  C   UNL     1       4.204  -1.527  -3.393  1.00  0.00     0.053 A 
ATOM      8  C   UNL     1       5.493   1.062  -5.635  1.00  0.00     0.079 C 
ATOM      9  C   UNL     1       5.112  -0.185  -4.918  1.00  0.00     0.090 A 
ATOM     10  N   UNL     1       4.406  -0.216  -3.810  1.00  0.00    -0.247 NA
ATOM     11  S   UNL     1       5.575  -1.719  -5.532  1.00  0.00    -0.127 S 
ATOM     12  C   UNL     1       4.774  -2.476  -4.218  1.00  0.00     0.090 A 
ENDBRANCH   6   7
ENDBRANCH   5   6
BRANCH   5  13
ATOM     13  C   UNL     1       4.020  -4.187  -1.409  1.00  0.00    -0.019 A 
ATOM     14  C   UNL     1       3.607  -5.514  -1.690  1.00  0.00     0.006 A 
ATOM     15  C   UNL     1       5.301  -4.021  -0.855  1.00  0.00     0.022 A 
ATOM     16  C   UNL     1       4.436  -6.614  -1.470  1.00  0.00     0.000 A 
ATOM     17  C   UNL     1       6.141  -5.133  -0.662  1.00  0.00     0.016 A 
ATOM     18  Br  UNL     1       6.033  -2.374  -0.263  1.00  0.00    -0.051 Br
ATOM     19  C   UNL     1       5.713  -6.421  -0.970  1.00  0.00     0.001 A 
ENDBRANCH   5  13
ENDBRANCH   3   5
ENDBRANCH   2   3
ENDBRANCH   1   2
BRANCH   1  20
ATOM     20  C   UNL     1       1.514  -2.813   2.684  1.00  0.00     0.275 C 
BRANCH  20  21
ATOM     21  O   UNL     1       1.646  -1.447   2.259  1.00  0.00    -0.458 OA
BRANCH  21  22
ATOM     22  C   UNL     1       2.873  -0.904   2.412  1.00  0.00     0.338 C 
ATOM     23  O   UNL     1       3.855  -1.405   2.929  1.00  0.00    -0.246 OA
BRANCH  22  24
ATOM     24  C   UNL     1       2.874   0.452   1.843  1.00  0.00     0.060 A 
ATOM     25  C   UNL     1       2.619   0.634   0.485  1.00  0.00     0.016 A 
ATOM     26  C   UNL     1       3.248   1.531   2.641  1.00  0.00     0.016 A 
ATOM     27  C   UNL     1       2.838   1.876  -0.105  1.00  0.00     0.010 A 
ATOM     28  C   UNL     1       3.366   2.799   2.067  1.00  0.00     0.010 A 
ATOM     29  C   UNL     1       3.203   2.978   0.681  1.00  0.00    -0.014 A 
BRANCH  29  30
ATOM     30  C   UNL     1       3.457   4.307   0.061  1.00  0.00     0.031 A 
ATOM     31  C   UNL     1       4.808   4.956   0.203  1.00  0.00     0.074 A 
ATOM     32  C   UNL     1       2.485   4.942  -0.621  1.00  0.00     0.049 A 
ATOM     33  N   UNL     1       5.172   6.184  -0.070  1.00  0.00    -0.248 NA
ATOM     34  C   UNL     1       5.889   4.115   0.740  1.00  0.00     0.031 C 
ATOM     35  C   UNL     1       1.145   4.416  -0.876  1.00  0.00     0.029 A 
ATOM     36  N   UNL     1       2.479   6.175  -1.227  1.00  0.00    -0.354 N 
ATOM     37  C   UNL     1       6.500   6.281   0.324  1.00  0.00     0.074 A 
ATOM     38  C   UNL     1       6.882   4.986   0.848  1.00  0.00     0.031 C 
ATOM     39  C   UNL     1       0.458   5.301  -1.614  1.00  0.00     0.029 A 
ATOM     40  C   UNL     1       1.279   6.491  -1.814  1.00  0.00     0.049 A 
ATOM     41  H   UNL     1       3.259   6.775  -1.238  1.00  0.00     0.167 HD
ATOM     42  C   UNL     1       7.322   7.355   0.260  1.00  0.00     0.037 A 
ATOM     43  C   UNL     1       0.869   7.625  -2.413  1.00  0.00     0.037 A 
ATOM     44  C   UNL     1       6.963   8.620  -0.326  1.00  0.00     0.049 A 
ATOM     45  C   UNL     1       1.800   8.801  -2.481  1.00  0.00     0.074 A 
ATOM     46  C   UNL     1       7.732   9.764  -0.457  1.00  0.00     0.029 A 
ATOM     47  N   UNL     1       5.732   8.899  -0.902  1.00  0.00    -0.354 N 
ATOM     48  N   UNL     1       3.029   8.908  -2.039  1.00  0.00    -0.248 NA
ATOM     49  C   UNL     1       1.278  10.023  -3.109  1.00  0.00     0.031 C 
ATOM     50  C   UNL     1       6.960  10.742  -1.093  1.00  0.00     0.029 A 
ATOM     51  C   UNL     1       5.720  10.198  -1.386  1.00  0.00     0.049 A 
ATOM     52  H   UNL     1       4.979   8.268  -0.959  1.00  0.00     0.167 HD
ATOM     53  C   UNL     1       3.428  10.203  -2.335  1.00  0.00     0.074 A 
ATOM     54  C   UNL     1       2.319  10.838  -3.016  1.00  0.00     0.031 C 
ATOM     55  C   UNL     1       4.606  10.813  -2.059  1.00  0.00     0.037 A 
BRANCH  42  56
ATOM     56  C   UNL     1       8.685   7.222   0.870  1.00  0.00     0.064 A 
ATOM     57  C   UNL     1       9.707   6.486   0.254  1.00  0.00     0.173 A 
ATOM     58  C   UNL     1       8.978   7.869   2.081  1.00  0.00     0.173 A 
ATOM     59  F   UNL     1       9.473   5.838  -0.896  1.00  0.00    -0.203 F 
ATOM     60  C   UNL     1      10.967   6.384   0.840  1.00  0.00     0.198 A 
ATOM     61  C   UNL     1      10.245   7.785   2.651  1.00  0.00     0.198 A 
ATOM     62  F   UNL     1       8.036   8.590   2.707  1.00  0.00    -0.203 F 
ATOM     63  F   UNL     1      11.918   5.642   0.256  1.00  0.00    -0.200 F 
ATOM     64  C   UNL     1      11.237   7.037   2.034  1.00  0.00     0.200 A 
ATOM     65  F   UNL     1      10.507   8.426   3.799  1.00  0.00    -0.200 F 
ATOM     66  F   UNL     1      12.451   6.942   2.593  1.00  0.00    -0.200 F 
ENDBRANCH  42  56
BRANCH  43  67
ATOM     67  C   UNL     1      -0.506   7.703  -2.967  1.00  0.00     0.064 A 
ATOM     68  C   UNL     1      -0.723   7.713  -4.351  1.00  0.00     0.173 A 
ATOM     69  C   UNL     1      -1.629   7.739  -2.127  1.00  0.00     0.173 A 
ATOM     70  F   UNL     1       0.322   7.707  -5.192  1.00  0.00    -0.203 F 
ATOM     71  C   UNL     1      -2.013   7.757  -4.875  1.00  0.00     0.198 A 
ATOM     72  C   UNL     1      -2.919   7.757  -2.652  1.00  0.00     0.198 A 
ATOM     73  F   UNL     1      -1.472   7.733  -0.795  1.00  0.00    -0.203 F 
ATOM     74  F   UNL     1      -2.194   7.795  -6.202  1.00  0.00    -0.200 F 
ATOM     75  C   UNL     1      -3.110   7.769  -4.026  1.00  0.00     0.200 A 
ATOM     76  F   UNL     1      -3.975   7.756  -1.828  1.00  0.00    -0.200 F 
ATOM     77  F   UNL     1      -4.350   7.797  -4.531  1.00  0.00    -0.200 F 
ENDBRANCH  43  67
BRANCH  55  78
ATOM     78  C   UNL     1       4.757  12.235  -2.505  1.00  0.00     0.064 A 
ATOM     79  C   UNL     1       4.138  13.286  -1.812  1.00  0.00     0.173 A 
ATOM     80  C   UNL     1       5.550  12.552  -3.617  1.00  0.00     0.173 A 
ATOM     81  F   UNL     1       3.357  13.028  -0.753  1.00  0.00    -0.203 F 
ATOM     82  C   UNL     1       4.296  14.604  -2.229  1.00  0.00     0.198 A 
ATOM     83  C   UNL     1       5.721  13.873  -4.019  1.00  0.00     0.198 A 
ATOM     84  F   UNL     1       6.163  11.580  -4.309  1.00  0.00    -0.203 F 
ATOM     85  F   UNL     1       3.667  15.591  -1.576  1.00  0.00    -0.200 F 
ATOM     86  C   UNL     1       5.090  14.897  -3.328  1.00  0.00     0.200 A 
ATOM     87  F   UNL     1       6.493  14.156  -5.077  1.00  0.00    -0.200 F 
ATOM     88  F   UNL     1       5.241  16.168  -3.727  1.00  0.00    -0.200 F 
ENDBRANCH  55  78
ENDBRANCH  29  30
ENDBRANCH  22  24
ENDBRANCH  21  22
ENDBRANCH  20  21
ENDBRANCH   1  20
TORSDOF 14
