REMARK SMILES Cc1cccc2c1N=CN1C2=[NH+]NC(=O)[C@@H]1CC(=O)OCCOC(=O)c1ccc(-c2c3nc(c(-c4c(F)c(F)c(F)c(F)c4F)c4ccc([nH]4)c(-c4c(F)c(F)c(F)c(F)c4F)c4nc(c(-c5c(F)c(F)c(F)c(F)c5F)c5ccc2[nH]5)C=C4)C=C3)cc1
REMARK SMILES IDX 22 1 21 2 20 3 18 4 19 5 17 6 16 7 1 8 2 9 3 10 7 11 4 12
REMARK SMILES IDX 6 13 8 14 5 15 11 16 9 17 10 18 12 19 13 20 14 22 15 24
REMARK SMILES IDX 23 25 24 26 25 27 26 28 27 29 88 30 28 31 87 32 29 33 30 34
REMARK SMILES IDX 31 35 81 36 32 37 86 38 80 39 82 40 33 41 85 42 79 43 78 44
REMARK SMILES IDX 34 46 66 47 46 48 65 49 47 50 50 51 64 52 83 53 48 54 49 55
REMARK SMILES IDX 63 57 84 58 51 59 35 60 36 61 44 62 37 63 38 64 42 65 45 66
REMARK SMILES IDX 39 67 40 68 43 69 41 70 67 71 68 72 76 73 69 74 70 75 74 76
REMARK SMILES IDX 77 77 71 78 72 79 75 80 73 81 52 82 53 83 61 84 54 85 55 86
REMARK SMILES IDX 59 87 62 88 56 89 57 90 60 91 58 92
REMARK H PARENT 12 21 13 23 82 45 50 56
REMARK Flexibility Score: inf
ROOT
ATOM      1  C   UNL     1      -5.093   2.450   3.953  1.00  0.00     0.275 C 
ENDROOT
BRANCH   1   2
ATOM      2  C   UNL     1      -4.218   2.403   2.704  1.00  0.00     0.274 C 
BRANCH   2   3
ATOM      3  O   UNL     1      -2.877   2.805   3.067  1.00  0.00    -0.462 OA
BRANCH   3   4
ATOM      4  C   UNL     1      -2.612   4.120   2.892  1.00  0.00     0.310 C 
ATOM      5  O   UNL     1      -3.318   4.898   2.256  1.00  0.00    -0.252 OA
BRANCH   4   6
ATOM      6  C   UNL     1      -1.384   4.615   3.608  1.00  0.00     0.183 C 
BRANCH   6   7
ATOM      7  C   UNL     1      -0.493   3.624   4.349  1.00  0.00     0.286 C 
ATOM      8  C   UNL     1       1.215  -0.225  -0.477  1.00  0.00     0.047 C 
ATOM      9  C   UNL     1       1.063  -0.501   0.992  1.00  0.00    -0.024 A 
ATOM     10  C   UNL     1       0.984  -1.830   1.447  1.00  0.00     0.006 A 
ATOM     11  C   UNL     1       0.980   0.554   1.915  1.00  0.00     0.085 A 
ATOM     12  C   UNL     1       0.842  -2.119   2.804  1.00  0.00     0.001 A 
ATOM     13  C   UNL     1       0.787   0.238   3.273  1.00  0.00     0.092 A 
ATOM     14  N   UNL     1       1.008   1.889   1.445  1.00  0.00    -0.215 NA
ATOM     15  C   UNL     1       0.755  -1.084   3.726  1.00  0.00     0.019 A 
ATOM     16  C   UNL     1       0.332   1.340   4.165  1.00  0.00     0.309 C 
ATOM     17  C   UNL     1       0.562   2.786   2.262  1.00  0.00     0.317 C 
ATOM     18  N   UNL     1       0.107   2.561   3.540  1.00  0.00    -0.202 N 
ATOM     19  N   UNL     1       0.095   1.054   5.413  1.00  0.00    -0.169 N 
ATOM     20  N   UNL     1      -0.610   1.959   6.136  1.00  0.00    -0.193 N 
ATOM     21  H   UNL     1       0.416   0.215   5.815  1.00  0.00     0.340 HD
ATOM     22  C   UNL     1      -1.195   3.075   5.588  1.00  0.00     0.300 C 
ATOM     23  H   UNL     1      -0.709   1.808   7.104  1.00  0.00     0.216 HD
ATOM     24  O   UNL     1      -2.137   3.642   6.137  1.00  0.00    -0.267 OA
ENDBRANCH   6   7
ENDBRANCH   4   6
ENDBRANCH   3   4
ENDBRANCH   2   3
ENDBRANCH   1   2
BRANCH   1  25
ATOM     25  O   UNL     1      -5.094   3.793   4.468  1.00  0.00    -0.458 OA
BRANCH  25  26
ATOM     26  C   UNL     1      -5.150   3.884   5.817  1.00  0.00     0.338 C 
ATOM     27  O   UNL     1      -5.282   2.957   6.599  1.00  0.00    -0.246 OA
BRANCH  26  28
ATOM     28  C   UNL     1      -5.162   5.308   6.232  1.00  0.00     0.060 A 
ATOM     29  C   UNL     1      -4.598   6.341   5.471  1.00  0.00     0.016 A 
ATOM     30  C   UNL     1      -5.811   5.602   7.434  1.00  0.00     0.016 A 
ATOM     31  C   UNL     1      -4.705   7.667   5.906  1.00  0.00     0.010 A 
ATOM     32  C   UNL     1      -5.964   6.924   7.838  1.00  0.00     0.010 A 
ATOM     33  C   UNL     1      -5.422   7.966   7.074  1.00  0.00    -0.014 A 
BRANCH  33  34
ATOM     34  C   UNL     1      -5.708   9.361   7.482  1.00  0.00     0.031 A 
ATOM     35  C   UNL     1      -5.105   9.921   8.734  1.00  0.00     0.074 A 
ATOM     36  C   UNL     1      -6.612  10.065   6.774  1.00  0.00     0.049 A 
ATOM     37  N   UNL     1      -5.335  11.068   9.320  1.00  0.00    -0.248 NA
ATOM     38  C   UNL     1      -4.125   9.074   9.432  1.00  0.00     0.031 C 
ATOM     39  C   UNL     1      -7.282   9.590   5.562  1.00  0.00     0.029 A 
ATOM     40  N   UNL     1      -7.142  11.312   6.980  1.00  0.00    -0.354 N 
ATOM     41  C   UNL     1      -4.532  11.080  10.453  1.00  0.00     0.074 A 
ATOM     42  C   UNL     1      -3.838   9.811  10.497  1.00  0.00     0.031 C 
ATOM     43  C   UNL     1      -8.124  10.538   5.124  1.00  0.00     0.029 A 
ATOM     44  C   UNL     1      -8.085  11.668   6.047  1.00  0.00     0.049 A 
ATOM     45  H   UNL     1      -6.872  11.897   7.725  1.00  0.00     0.167 HD
ATOM     46  C   UNL     1      -4.384  12.073  11.361  1.00  0.00     0.037 A 
ATOM     47  C   UNL     1      -8.842  12.777   5.955  1.00  0.00     0.037 A 
ATOM     48  C   UNL     1      -5.091  13.325  11.303  1.00  0.00     0.049 A 
ATOM     49  C   UNL     1      -8.684  13.848   6.997  1.00  0.00     0.074 A 
ATOM     50  C   UNL     1      -4.995  14.411  12.155  1.00  0.00     0.029 A 
ATOM     51  N   UNL     1      -6.032  13.654  10.337  1.00  0.00    -0.354 N 
ATOM     52  N   UNL     1      -7.886  13.872   8.037  1.00  0.00    -0.248 NA
ATOM     53  C   UNL     1      -9.528  15.042   6.858  1.00  0.00     0.031 C 
ATOM     54  C   UNL     1      -5.908  15.380  11.729  1.00  0.00     0.029 A 
ATOM     55  C   UNL     1      -6.538  14.919  10.583  1.00  0.00     0.049 A 
ATOM     56  H   UNL     1      -6.299  13.074   9.588  1.00  0.00     0.167 HD
ATOM     57  C   UNL     1      -8.109  15.089   8.662  1.00  0.00     0.074 A 
ATOM     58  C   UNL     1      -9.116  15.780   7.881  1.00  0.00     0.031 C 
ATOM     59  C   UNL     1      -7.532  15.588   9.782  1.00  0.00     0.037 A 
BRANCH  46  60
ATOM     60  C   UNL     1      -3.417  11.855  12.488  1.00  0.00     0.064 A 
ATOM     61  C   UNL     1      -2.031  11.857  12.269  1.00  0.00     0.173 A 
ATOM     62  C   UNL     1      -3.872  11.711  13.807  1.00  0.00     0.173 A 
ATOM     63  F   UNL     1      -1.544  11.983  11.026  1.00  0.00    -0.203 F 
ATOM     64  C   UNL     1      -1.137  11.710  13.327  1.00  0.00     0.198 A 
ATOM     65  C   UNL     1      -2.975  11.588  14.866  1.00  0.00     0.198 A 
ATOM     66  F   UNL     1      -5.187  11.707  14.073  1.00  0.00    -0.203 F 
ATOM     67  F   UNL     1       0.182  11.686  13.089  1.00  0.00    -0.200 F 
ATOM     68  C   UNL     1      -1.609  11.585  14.625  1.00  0.00     0.200 A 
ATOM     69  F   UNL     1      -3.432  11.480  16.122  1.00  0.00    -0.200 F 
ATOM     70  F   UNL     1      -0.747  11.459  15.644  1.00  0.00    -0.200 F 
ENDBRANCH  46  60
BRANCH  47  71
ATOM     71  C   UNL     1      -9.774  12.934   4.809  1.00  0.00     0.064 A 
ATOM     72  C   UNL     1      -9.493  13.845   3.782  1.00  0.00     0.173 A 
ATOM     73  C   UNL     1     -10.927  12.144   4.683  1.00  0.00     0.173 A 
ATOM     74  F   UNL     1      -8.412  14.634   3.866  1.00  0.00    -0.203 F 
ATOM     75  C   UNL     1     -10.329  13.961   2.673  1.00  0.00     0.198 A 
ATOM     76  C   UNL     1     -11.748  12.243   3.562  1.00  0.00     0.198 A 
ATOM     77  F   UNL     1     -11.237  11.252   5.635  1.00  0.00    -0.203 F 
ATOM     78  F   UNL     1     -10.047  14.855   1.716  1.00  0.00    -0.200 F 
ATOM     79  C   UNL     1     -11.450  13.153   2.559  1.00  0.00     0.200 A 
ATOM     80  F   UNL     1     -12.822  11.449   3.447  1.00  0.00    -0.200 F 
ATOM     81  F   UNL     1     -12.242  13.252   1.483  1.00  0.00    -0.200 F 
ENDBRANCH  47  71
BRANCH  59  82
ATOM     82  C   UNL     1      -7.950  16.958  10.223  1.00  0.00     0.064 A 
ATOM     83  C   UNL     1      -9.180  17.176  10.857  1.00  0.00     0.173 A 
ATOM     84  C   UNL     1      -7.068  18.041  10.097  1.00  0.00     0.173 A 
ATOM     85  F   UNL     1     -10.060  16.172  10.988  1.00  0.00    -0.203 F 
ATOM     86  C   UNL     1      -9.513  18.434  11.350  1.00  0.00     0.198 A 
ATOM     87  C   UNL     1      -7.394  19.291  10.612  1.00  0.00     0.198 A 
ATOM     88  F   UNL     1      -5.876  17.877   9.502  1.00  0.00    -0.203 F 
ATOM     89  F   UNL     1     -10.703  18.628  11.936  1.00  0.00    -0.200 F 
ATOM     90  C   UNL     1      -8.616  19.486  11.238  1.00  0.00     0.200 A 
ATOM     91  F   UNL     1      -6.520  20.302  10.517  1.00  0.00    -0.200 F 
ATOM     92  F   UNL     1      -8.930  20.691  11.734  1.00  0.00    -0.200 F 
ENDBRANCH  59  82
ENDBRANCH  33  34
ENDBRANCH  26  28
ENDBRANCH  25  26
ENDBRANCH   1  25
TORSDOF 12
