REMARK SMILES CC(C)Cc1cc2c(cc1Cl)C=C(C(=O)OCCOC(=O)c1ccc(-c3c4nc(c(-c5c(F)c(F)c(F)c(F)c5F)c5ccc([nH]5)c(-c5c(F)c(F)c(F)c(F)c5F)c5nc(c(-c6c(F)c(F)c(F)c(F)c6F)c6ccc3[nH]6)C=C5)C=C4)cc1)[C@H](C(F)(F)F)O2
REMARK SMILES IDX 17 1 16 2 14 3 15 4 13 5 5 6 6 7 10 8 7 9 9 10 11 11 8 12
REMARK SMILES IDX 90 13 12 14 85 15 4 16 2 17 1 18 3 19 86 20 87 21 88 22
REMARK SMILES IDX 89 23 18 24 19 25 20 26 21 27 22 28 23 29 84 30 24 31 83 32
REMARK SMILES IDX 25 33 26 34 27 35 77 36 28 37 82 38 76 39 78 40 29 41 81 42
REMARK SMILES IDX 75 43 74 44 30 46 62 47 42 48 61 49 43 50 46 51 60 52 79 53
REMARK SMILES IDX 44 54 45 55 59 57 80 58 47 59 31 60 32 61 40 62 33 63 34 64
REMARK SMILES IDX 38 65 41 66 35 67 36 68 39 69 37 70 63 71 64 72 72 73 65 74
REMARK SMILES IDX 66 75 70 76 73 77 67 78 68 79 71 80 69 81 48 82 49 83 57 84
REMARK SMILES IDX 50 85 51 86 55 87 58 88 52 89 53 90 56 91 54 92
REMARK H PARENT 78 45 46 56
REMARK Flexibility Score: inf
ROOT
ATOM      1  C   UNL     1      -4.533   6.141  -6.610  1.00  0.00     0.275 C 
ENDROOT
BRANCH   1   2
ATOM      2  O   UNL     1      -4.327   4.871  -5.952  1.00  0.00    -0.459 OA
BRANCH   2   3
ATOM      3  C   UNL     1      -3.050   4.544  -5.658  1.00  0.00     0.338 C 
ATOM      4  O   UNL     1      -2.056   5.194  -5.937  1.00  0.00    -0.246 OA
BRANCH   3   5
ATOM      5  C   UNL     1      -3.012   3.347  -4.800  1.00  0.00     0.087 C 
ATOM      6  C   UNL     1      -1.580   0.020  -1.326  1.00  0.00    -0.025 A 
ATOM      7  C   UNL     1      -2.166  -0.104  -2.608  1.00  0.00     0.052 A 
ATOM      8  C   UNL     1      -1.447   1.304  -0.769  1.00  0.00     0.045 A 
ATOM      9  C   UNL     1      -2.502   1.029  -3.345  1.00  0.00     0.128 A 
ATOM     10  C   UNL     1      -1.675   2.429  -1.553  1.00  0.00     0.032 A 
ATOM     11  Cl  UNL     1      -0.983   1.574   0.873  1.00  0.00    -0.084 Cl
ATOM     12  C   UNL     1      -2.139   2.278  -2.857  1.00  0.00     0.019 A 
ATOM     13  O   UNL     1      -3.110   0.886  -4.569  1.00  0.00    -0.475 OA
ATOM     14  C   UNL     1      -2.173   3.403  -3.760  1.00  0.00     0.027 C 
ATOM     15  C   UNL     1      -3.783   2.090  -5.103  1.00  0.00     0.316 C 
BRANCH   6  16
ATOM     16  C   UNL     1      -1.038  -1.213  -0.632  1.00  0.00     0.040 C 
BRANCH  16  17
ATOM     17  C   UNL     1       0.461  -1.479  -0.933  1.00  0.00    -0.013 C 
ATOM     18  C   UNL     1       1.413  -0.424  -0.358  1.00  0.00     0.008 C 
ATOM     19  C   UNL     1       0.866  -2.848  -0.382  1.00  0.00     0.008 C 
ENDBRANCH  16  17
ENDBRANCH   6  16
BRANCH  15  20
ATOM     20  C   UNL     1      -5.261   2.124  -4.678  1.00  0.00     0.430 C 
ATOM     21  F   UNL     1      -5.990   2.951  -5.464  1.00  0.00    -0.167 F 
ATOM     22  F   UNL     1      -5.828   0.897  -4.796  1.00  0.00    -0.167 F 
ATOM     23  F   UNL     1      -5.425   2.522  -3.398  1.00  0.00    -0.167 F 
ENDBRANCH  15  20
ENDBRANCH   3   5
ENDBRANCH   2   3
ENDBRANCH   1   2
BRANCH   1  24
ATOM     24  C   UNL     1      -5.220   7.136  -5.673  1.00  0.00     0.275 C 
BRANCH  24  25
ATOM     25  O   UNL     1      -4.307   7.565  -4.642  1.00  0.00    -0.458 OA
BRANCH  25  26
ATOM     26  C   UNL     1      -4.583   7.133  -3.393  1.00  0.00     0.338 C 
ATOM     27  O   UNL     1      -5.519   6.438  -3.029  1.00  0.00    -0.246 OA
BRANCH  26  28
ATOM     28  C   UNL     1      -3.482   7.513  -2.497  1.00  0.00     0.060 A 
ATOM     29  C   UNL     1      -3.579   8.562  -1.592  1.00  0.00     0.016 A 
ATOM     30  C   UNL     1      -2.359   6.696  -2.493  1.00  0.00     0.016 A 
ATOM     31  C   UNL     1      -2.519   8.790  -0.701  1.00  0.00     0.010 A 
ATOM     32  C   UNL     1      -1.360   6.848  -1.536  1.00  0.00     0.010 A 
ATOM     33  C   UNL     1      -1.406   7.922  -0.643  1.00  0.00    -0.014 A 
BRANCH  33  34
ATOM     34  C   UNL     1      -0.302   8.133   0.340  1.00  0.00     0.031 A 
ATOM     35  C   UNL     1       1.129   8.310  -0.115  1.00  0.00     0.074 A 
ATOM     36  C   UNL     1      -0.574   8.132   1.661  1.00  0.00     0.049 A 
ATOM     37  N   UNL     1       2.202   8.545   0.603  1.00  0.00    -0.248 NA
ATOM     38  C   UNL     1       1.404   8.165  -1.553  1.00  0.00     0.031 C 
ATOM     39  C   UNL     1      -1.884   7.859   2.252  1.00  0.00     0.029 A 
ATOM     40  N   UNL     1       0.232   8.384   2.745  1.00  0.00    -0.354 N 
ATOM     41  C   UNL     1       3.267   8.555  -0.291  1.00  0.00     0.074 A 
ATOM     42  C   UNL     1       2.727   8.230  -1.591  1.00  0.00     0.031 C 
ATOM     43  C   UNL     1      -1.813   8.038   3.580  1.00  0.00     0.029 A 
ATOM     44  C   UNL     1      -0.447   8.407   3.940  1.00  0.00     0.049 A 
ATOM     45  H   UNL     1       1.202   8.535   2.674  1.00  0.00     0.167 HD
ATOM     46  C   UNL     1       4.569   8.851  -0.063  1.00  0.00     0.037 A 
ATOM     47  C   UNL     1      -0.027   8.718   5.182  1.00  0.00     0.037 A 
ATOM     48  C   UNL     1       5.101   9.241   1.215  1.00  0.00     0.049 A 
ATOM     49  C   UNL     1       1.407   9.113   5.402  1.00  0.00     0.074 A 
ATOM     50  C   UNL     1       6.385   9.656   1.525  1.00  0.00     0.029 A 
ATOM     51  N   UNL     1       4.373   9.274   2.394  1.00  0.00    -0.354 N 
ATOM     52  N   UNL     1       2.380   9.212   4.530  1.00  0.00    -0.248 NA
ATOM     53  C   UNL     1       1.802   9.443   6.780  1.00  0.00     0.031 C 
ATOM     54  C   UNL     1       6.442   9.914   2.898  1.00  0.00     0.029 A 
ATOM     55  C   UNL     1       5.184   9.693   3.436  1.00  0.00     0.049 A 
ATOM     56  H   UNL     1       3.422   9.035   2.479  1.00  0.00     0.167 HD
ATOM     57  C   UNL     1       3.494   9.626   5.246  1.00  0.00     0.074 A 
ATOM     58  C   UNL     1       3.074   9.782   6.623  1.00  0.00     0.031 C 
ATOM     59  C   UNL     1       4.754   9.848   4.801  1.00  0.00     0.037 A 
BRANCH  46  60
ATOM     60  C   UNL     1       5.511   8.819  -1.233  1.00  0.00     0.064 A 
ATOM     61  C   UNL     1       5.446   9.787  -2.248  1.00  0.00     0.173 A 
ATOM     62  C   UNL     1       6.530   7.858  -1.311  1.00  0.00     0.173 A 
ATOM     63  F   UNL     1       4.488  10.726  -2.224  1.00  0.00    -0.203 F 
ATOM     64  C   UNL     1       6.346   9.777  -3.310  1.00  0.00     0.198 A 
ATOM     65  C   UNL     1       7.448   7.868  -2.359  1.00  0.00     0.198 A 
ATOM     66  F   UNL     1       6.648   6.918  -0.361  1.00  0.00    -0.203 F 
ATOM     67  F   UNL     1       6.236  10.686  -4.288  1.00  0.00    -0.200 F 
ATOM     68  C   UNL     1       7.351   8.823  -3.360  1.00  0.00     0.200 A 
ATOM     69  F   UNL     1       8.430   6.957  -2.398  1.00  0.00    -0.200 F 
ATOM     70  F   UNL     1       8.226   8.823  -4.376  1.00  0.00    -0.200 F 
ENDBRANCH  46  60
BRANCH  47  71
ATOM     71  C   UNL     1      -1.005   8.748   6.300  1.00  0.00     0.064 A 
ATOM     72  C   UNL     1      -1.432   9.971   6.837  1.00  0.00     0.173 A 
ATOM     73  C   UNL     1      -1.556   7.573   6.829  1.00  0.00     0.173 A 
ATOM     74  F   UNL     1      -0.919  11.121   6.375  1.00  0.00    -0.203 F 
ATOM     75  C   UNL     1      -2.369  10.017   7.867  1.00  0.00     0.198 A 
ATOM     76  C   UNL     1      -2.510   7.621   7.843  1.00  0.00     0.198 A 
ATOM     77  F   UNL     1      -1.183   6.380   6.345  1.00  0.00    -0.203 F 
ATOM     78  F   UNL     1      -2.738  11.197   8.382  1.00  0.00    -0.200 F 
ATOM     79  C   UNL     1      -2.913   8.842   8.364  1.00  0.00     0.200 A 
ATOM     80  F   UNL     1      -3.044   6.485   8.313  1.00  0.00    -0.200 F 
ATOM     81  F   UNL     1      -3.823   8.887   9.346  1.00  0.00    -0.200 F 
ENDBRANCH  47  71
BRANCH  59  82
ATOM     82  C   UNL     1       5.780  10.287   5.802  1.00  0.00     0.064 A 
ATOM     83  C   UNL     1       6.331   9.383   6.721  1.00  0.00     0.173 A 
ATOM     84  C   UNL     1       6.278  11.598   5.785  1.00  0.00     0.173 A 
ATOM     85  F   UNL     1       5.879   8.121   6.781  1.00  0.00    -0.203 F 
ATOM     86  C   UNL     1       7.341   9.778   7.593  1.00  0.00     0.198 A 
ATOM     87  C   UNL     1       7.304  11.983   6.643  1.00  0.00     0.198 A 
ATOM     88  F   UNL     1       5.788  12.497   4.919  1.00  0.00    -0.203 F 
ATOM     89  F   UNL     1       7.838   8.905   8.480  1.00  0.00    -0.200 F 
ATOM     90  C   UNL     1       7.834  11.074   7.547  1.00  0.00     0.200 A 
ATOM     91  F   UNL     1       7.789  13.232   6.588  1.00  0.00    -0.200 F 
ATOM     92  F   UNL     1       8.819  11.447   8.375  1.00  0.00    -0.200 F 
ENDBRANCH  59  82
ENDBRANCH  33  34
ENDBRANCH  26  28
ENDBRANCH  25  26
ENDBRANCH  24  25
ENDBRANCH   1  24
TORSDOF 14
