REMARK SMILES O=C(Cc1c[nH]c(=O)n(Cc2ccccc2)c1=O)OCCOC(=O)c1ccc(-c2c3nc(c(-c4c(F)c(F)c(F)c(F)c4F)c4ccc([nH]4)c(-c4c(F)c(F)c(F)c(F)c4F)c4nc(c(-c5c(F)c(F)c(F)c(F)c5F)c5ccc2[nH]5)C=C4)C=C3)cc1
REMARK SMILES IDX 20 1 19 2 2 3 1 4 3 5 4 6 5 7 17 8 6 9 9 10 18 11 7 12 8 14
REMARK SMILES IDX 10 15 11 16 12 17 16 18 13 19 15 20 14 21 21 22 22 23 23 24
REMARK SMILES IDX 24 25 25 26 26 27 87 28 27 29 86 30 28 31 29 32 30 33 80 34
REMARK SMILES IDX 31 35 85 36 79 37 81 38 32 39 84 40 78 41 77 42 33 44 65 45
REMARK SMILES IDX 45 46 64 47 46 48 49 49 63 50 82 51 47 52 48 53 62 55 83 56
REMARK SMILES IDX 50 57 34 58 35 59 43 60 36 61 37 62 41 63 44 64 38 65 39 66
REMARK SMILES IDX 42 67 40 68 66 69 67 70 75 71 68 72 69 73 73 74 76 75 70 76
REMARK SMILES IDX 71 77 74 78 72 79 51 80 52 81 60 82 53 83 54 84 58 85 61 86
REMARK SMILES IDX 55 87 56 88 59 89 57 90
REMARK H PARENT 6 13 81 43 49 54
REMARK Flexibility Score: inf
ROOT
ATOM      1  C   UNL     1       4.379  -0.412  -0.952  1.00  0.00     0.274 C 
ENDROOT
BRANCH   1   2
ATOM      2  O   UNL     1       3.005  -0.771  -0.685  1.00  0.00    -0.462 OA
BRANCH   2   3
ATOM      3  C   UNL     1       2.294  -0.392   0.403  1.00  0.00     0.310 C 
ATOM      4  O   UNL     1       1.159  -0.826   0.597  1.00  0.00    -0.252 OA
BRANCH   3   5
ATOM      5  C   UNL     1       2.877   0.665   1.322  1.00  0.00     0.165 C 
BRANCH   5   6
ATOM      6  C   UNL     1       3.728   0.287   2.489  1.00  0.00     0.045 A 
ATOM      7  C   UNL     1       4.227   1.244   3.280  1.00  0.00     0.097 A 
ATOM      8  C   UNL     1       4.093  -1.123   2.786  1.00  0.00     0.260 A 
ATOM      9  N   UNL     1       4.958   0.944   4.382  1.00  0.00    -0.314 N 
ATOM     10  N   UNL     1       4.845  -1.339   3.930  1.00  0.00    -0.256 N 
ATOM     11  O   UNL     1       3.754  -2.015   2.014  1.00  0.00    -0.269 OA
ATOM     12  C   UNL     1       5.240  -0.329   4.790  1.00  0.00     0.328 A 
ATOM     13  H   UNL     1       5.306   1.690   4.922  1.00  0.00     0.171 HD
ATOM     14  O   UNL     1       5.811  -0.495   5.866  1.00  0.00    -0.248 OA
BRANCH  10  15
ATOM     15  C   UNL     1       5.271  -2.697   4.232  1.00  0.00     0.166 C 
BRANCH  15  16
ATOM     16  C   UNL     1       6.681  -2.960   3.738  1.00  0.00    -0.028 A 
ATOM     17  C   UNL     1       7.787  -2.550   4.500  1.00  0.00     0.005 A 
ATOM     18  C   UNL     1       6.909  -3.575   2.499  1.00  0.00     0.005 A 
ATOM     19  C   UNL     1       9.087  -2.738   4.034  1.00  0.00     0.000 A 
ATOM     20  C   UNL     1       8.214  -3.779   2.041  1.00  0.00     0.000 A 
ATOM     21  C   UNL     1       9.301  -3.355   2.805  1.00  0.00     0.000 A 
ENDBRANCH  15  16
ENDBRANCH  10  15
ENDBRANCH   5   6
ENDBRANCH   3   5
ENDBRANCH   2   3
ENDBRANCH   1   2
BRANCH   1  22
ATOM     22  C   UNL     1       4.455   0.647  -2.055  1.00  0.00     0.275 C 
BRANCH  22  23
ATOM     23  O   UNL     1       4.064   1.929  -1.525  1.00  0.00    -0.458 OA
BRANCH  23  24
ATOM     24  C   UNL     1       2.788   2.320  -1.764  1.00  0.00     0.338 C 
ATOM     25  O   UNL     1       1.985   1.789  -2.511  1.00  0.00    -0.246 OA
BRANCH  24  26
ATOM     26  C   UNL     1       2.434   3.379  -0.785  1.00  0.00     0.060 A 
ATOM     27  C   UNL     1       3.382   4.300  -0.325  1.00  0.00     0.016 A 
ATOM     28  C   UNL     1       1.137   3.386  -0.254  1.00  0.00     0.016 A 
ATOM     29  C   UNL     1       3.026   5.232   0.653  1.00  0.00     0.010 A 
ATOM     30  C   UNL     1       0.781   4.323   0.722  1.00  0.00     0.010 A 
ATOM     31  C   UNL     1       1.720   5.262   1.171  1.00  0.00    -0.014 A 
BRANCH  31  32
ATOM     32  C   UNL     1       1.304   6.402   2.024  1.00  0.00     0.031 A 
ATOM     33  C   UNL     1       1.217   6.304   3.516  1.00  0.00     0.074 A 
ATOM     34  C   UNL     1       1.017   7.564   1.407  1.00  0.00     0.049 A 
ATOM     35  N   UNL     1       1.017   7.263   4.386  1.00  0.00    -0.248 NA
ATOM     36  C   UNL     1       1.371   4.971   4.113  1.00  0.00     0.031 C 
ATOM     37  C   UNL     1       1.029   7.764  -0.043  1.00  0.00     0.029 A 
ATOM     38  N   UNL     1       0.673   8.792   1.913  1.00  0.00    -0.354 N 
ATOM     39  C   UNL     1       1.046   6.659   5.635  1.00  0.00     0.074 A 
ATOM     40  C   UNL     1       1.243   5.240   5.409  1.00  0.00     0.031 C 
ATOM     41  C   UNL     1       0.734   9.044  -0.310  1.00  0.00     0.029 A 
ATOM     42  C   UNL     1       0.499   9.750   0.946  1.00  0.00     0.049 A 
ATOM     43  H   UNL     1       0.563   8.968   2.875  1.00  0.00     0.167 HD
ATOM     44  C   UNL     1       0.935   7.245   6.851  1.00  0.00     0.037 A 
ATOM     45  C   UNL     1       0.197  11.057   1.055  1.00  0.00     0.037 A 
ATOM     46  C   UNL     1       0.721   8.655   7.065  1.00  0.00     0.049 A 
ATOM     47  C   UNL     1       0.041  11.668   2.417  1.00  0.00     0.074 A 
ATOM     48  C   UNL     1       0.667   9.344   8.266  1.00  0.00     0.029 A 
ATOM     49  N   UNL     1       0.502   9.588   6.063  1.00  0.00    -0.354 N 
ATOM     50  N   UNL     1       0.188  11.109   3.591  1.00  0.00    -0.248 NA
ATOM     51  C   UNL     1      -0.314  13.094   2.469  1.00  0.00     0.031 C 
ATOM     52  C   UNL     1       0.364  10.681   7.994  1.00  0.00     0.029 A 
ATOM     53  C   UNL     1       0.277  10.837   6.620  1.00  0.00     0.049 A 
ATOM     54  H   UNL     1       0.506   9.392   5.098  1.00  0.00     0.167 HD
ATOM     55  C   UNL     1      -0.033  12.114   4.521  1.00  0.00     0.074 A 
ATOM     56  C   UNL     1      -0.314  13.323   3.775  1.00  0.00     0.031 C 
ATOM     57  C   UNL     1      -0.003  12.036   5.873  1.00  0.00     0.037 A 
BRANCH  44  58
ATOM     58  C   UNL     1       1.069   6.386   8.073  1.00  0.00     0.064 A 
ATOM     59  C   UNL     1       2.325   5.925   8.496  1.00  0.00     0.173 A 
ATOM     60  C   UNL     1      -0.033   6.153   8.910  1.00  0.00     0.173 A 
ATOM     61  F   UNL     1       3.409   6.123   7.730  1.00  0.00    -0.203 F 
ATOM     62  C   UNL     1       2.473   5.269   9.715  1.00  0.00     0.198 A 
ATOM     63  C   UNL     1       0.122   5.512  10.137  1.00  0.00     0.198 A 
ATOM     64  F   UNL     1      -1.252   6.586   8.557  1.00  0.00    -0.203 F 
ATOM     65  F   UNL     1       3.683   4.838  10.098  1.00  0.00    -0.200 F 
ATOM     66  C   UNL     1       1.375   5.074  10.540  1.00  0.00     0.200 A 
ATOM     67  F   UNL     1      -0.937   5.341  10.941  1.00  0.00    -0.200 F 
ATOM     68  F   UNL     1       1.526   4.471  11.727  1.00  0.00    -0.200 F 
ENDBRANCH  44  58
BRANCH  45  69
ATOM     69  C   UNL     1       0.073  11.878  -0.174  1.00  0.00     0.064 A 
ATOM     70  C   UNL     1       1.055  12.820  -0.508  1.00  0.00     0.173 A 
ATOM     71  C   UNL     1      -1.004  11.710  -1.056  1.00  0.00     0.173 A 
ATOM     72  F   UNL     1       2.095  13.022   0.314  1.00  0.00    -0.203 F 
ATOM     73  C   UNL     1       0.960  13.571  -1.676  1.00  0.00     0.198 A 
ATOM     74  C   UNL     1      -1.085  12.444  -2.236  1.00  0.00     0.198 A 
ATOM     75  F   UNL     1      -1.962  10.813  -0.782  1.00  0.00    -0.203 F 
ATOM     76  F   UNL     1       1.897  14.485  -1.961  1.00  0.00    -0.200 F 
ATOM     77  C   UNL     1      -0.106  13.377  -2.543  1.00  0.00     0.200 A 
ATOM     78  F   UNL     1      -2.107  12.242  -3.079  1.00  0.00    -0.200 F 
ATOM     79  F   UNL     1      -0.190  14.091  -3.674  1.00  0.00    -0.200 F 
ENDBRANCH  45  69
BRANCH  57  80
ATOM     80  C   UNL     1      -0.272  13.291   6.649  1.00  0.00     0.064 A 
ATOM     81  C   UNL     1      -1.569  13.809   6.770  1.00  0.00     0.173 A 
ATOM     82  C   UNL     1       0.762  13.935   7.345  1.00  0.00     0.173 A 
ATOM     83  F   UNL     1      -2.588  13.237   6.111  1.00  0.00    -0.203 F 
ATOM     84  C   UNL     1      -1.820  14.931   7.555  1.00  0.00     0.198 A 
ATOM     85  C   UNL     1       0.504  15.042   8.148  1.00  0.00     0.198 A 
ATOM     86  F   UNL     1       2.020  13.474   7.265  1.00  0.00    -0.203 F 
ATOM     87  F   UNL     1      -3.063  15.425   7.638  1.00  0.00    -0.200 F 
ATOM     88  C   UNL     1      -0.786  15.540   8.252  1.00  0.00     0.200 A 
ATOM     89  F   UNL     1       1.502  15.620   8.831  1.00  0.00    -0.200 F 
ATOM     90  F   UNL     1      -1.033  16.608   9.023  1.00  0.00    -0.200 F 
ENDBRANCH  57  80
ENDBRANCH  31  32
ENDBRANCH  24  26
ENDBRANCH  23  24
ENDBRANCH  22  23
ENDBRANCH   1  22
TORSDOF 14
