REMARK SMILES CC(C)Cc1cc2c(cc1Cl)C=C(C(=O)OCCOC(=O)c1ccc(-c3c4nc(c(-c5c(F)c(F)c(F)c(F)c5F)c5ccc([nH]5)c(-c5c(F)c(F)c(F)c(F)c5F)c5nc(c(-c6c(F)c(F)c(F)c(F)c6F)c6ccc3[nH]6)C=C5)C=C4)cc1)[C@@H](C(F)(F)F)O2
REMARK SMILES IDX 17 1 16 2 14 3 15 4 13 5 5 6 6 7 10 8 7 9 9 10 11 11 8 12
REMARK SMILES IDX 90 13 12 14 85 15 4 16 2 17 1 18 3 19 86 20 87 21 88 22
REMARK SMILES IDX 89 23 18 24 19 25 20 26 21 27 22 28 23 29 84 30 24 31 83 32
REMARK SMILES IDX 25 33 26 34 27 35 77 36 28 37 82 38 76 39 78 40 29 41 81 42
REMARK SMILES IDX 75 43 74 44 30 46 62 47 42 48 61 49 43 50 46 51 60 52 79 53
REMARK SMILES IDX 44 54 45 55 59 57 80 58 47 59 31 60 32 61 40 62 33 63 34 64
REMARK SMILES IDX 38 65 41 66 35 67 36 68 39 69 37 70 63 71 64 72 72 73 65 74
REMARK SMILES IDX 66 75 70 76 73 77 67 78 68 79 71 80 69 81 48 82 49 83 57 84
REMARK SMILES IDX 50 85 51 86 55 87 58 88 52 89 53 90 56 91 54 92
REMARK H PARENT 78 45 46 56
REMARK Flexibility Score: inf
ROOT
ATOM      1  C   UNL     1      -3.791  -2.010   8.429  1.00  0.00     0.275 C 
ENDROOT
BRANCH   1   2
ATOM      2  O   UNL     1      -3.210  -1.815   7.121  1.00  0.00    -0.459 OA
BRANCH   2   3
ATOM      3  C   UNL     1      -3.876  -0.961   6.311  1.00  0.00     0.338 C 
ATOM      4  O   UNL     1      -4.894  -0.342   6.582  1.00  0.00    -0.246 OA
BRANCH   3   5
ATOM      5  C   UNL     1      -3.182  -0.822   5.018  1.00  0.00     0.087 C 
ATOM      6  C   UNL     1      -1.405   0.960   0.662  1.00  0.00    -0.025 A 
ATOM      7  C   UNL     1      -1.607  -0.332   1.191  1.00  0.00     0.052 A 
ATOM      8  C   UNL     1      -1.706   2.071   1.464  1.00  0.00     0.045 A 
ATOM      9  C   UNL     1      -2.097  -0.512   2.482  1.00  0.00     0.128 A 
ATOM     10  C   UNL     1      -2.208   1.891   2.751  1.00  0.00     0.032 A 
ATOM     11  Cl  UNL     1      -1.484   3.694   0.917  1.00  0.00    -0.084 Cl
ATOM     12  C   UNL     1      -2.409   0.601   3.252  1.00  0.00     0.019 A 
ATOM     13  O   UNL     1      -2.225  -1.799   2.924  1.00  0.00    -0.475 OA
ATOM     14  C   UNL     1      -2.974   0.420   4.570  1.00  0.00     0.027 C 
ATOM     15  C   UNL     1      -2.864  -2.049   4.211  1.00  0.00     0.316 C 
BRANCH   6  16
ATOM     16  C   UNL     1      -0.830   1.095  -0.728  1.00  0.00     0.040 C 
BRANCH  16  17
ATOM     17  C   UNL     1       0.698   1.296  -0.736  1.00  0.00    -0.013 C 
ATOM     18  C   UNL     1       1.443   0.075  -0.189  1.00  0.00     0.008 C 
ATOM     19  C   UNL     1       1.169   1.597  -2.159  1.00  0.00     0.008 C 
ENDBRANCH  16  17
ENDBRANCH   6  16
BRANCH  15  20
ATOM     20  C   UNL     1      -4.120  -2.902   3.969  1.00  0.00     0.430 C 
ATOM     21  F   UNL     1      -3.837  -3.999   3.227  1.00  0.00    -0.167 F 
ATOM     22  F   UNL     1      -4.652  -3.348   5.132  1.00  0.00    -0.167 F 
ATOM     23  F   UNL     1      -5.085  -2.211   3.321  1.00  0.00    -0.167 F 
ENDBRANCH  15  20
ENDBRANCH   3   5
ENDBRANCH   2   3
ENDBRANCH   1   2
BRANCH   1  24
ATOM     24  C   UNL     1      -3.049  -1.211   9.502  1.00  0.00     0.275 C 
BRANCH  24  25
ATOM     25  O   UNL     1      -3.260   0.201   9.317  1.00  0.00    -0.458 OA
BRANCH  25  26
ATOM     26  C   UNL     1      -2.188   0.894   8.874  1.00  0.00     0.338 C 
ATOM     27  O   UNL     1      -1.070   0.471   8.638  1.00  0.00    -0.246 OA
BRANCH  26  28
ATOM     28  C   UNL     1      -2.571   2.290   8.614  1.00  0.00     0.060 A 
ATOM     29  C   UNL     1      -2.055   3.334   9.373  1.00  0.00     0.016 A 
ATOM     30  C   UNL     1      -3.320   2.563   7.476  1.00  0.00     0.016 A 
ATOM     31  C   UNL     1      -2.303   4.653   8.973  1.00  0.00     0.010 A 
ATOM     32  C   UNL     1      -3.428   3.863   6.994  1.00  0.00     0.010 A 
ATOM     33  C   UNL     1      -2.950   4.937   7.751  1.00  0.00    -0.014 A 
BRANCH  33  34
ATOM     34  C   UNL     1      -3.124   6.338   7.266  1.00  0.00     0.031 A 
ATOM     35  C   UNL     1      -4.489   6.877   6.901  1.00  0.00     0.074 A 
ATOM     36  C   UNL     1      -2.042   7.129   7.111  1.00  0.00     0.049 A 
ATOM     37  N   UNL     1      -4.819   8.074   6.476  1.00  0.00    -0.248 NA
ATOM     38  C   UNL     1      -5.627   5.946   6.975  1.00  0.00     0.031 C 
ATOM     39  C   UNL     1      -0.653   6.712   7.312  1.00  0.00     0.029 A 
ATOM     40  N   UNL     1      -1.938   8.456   6.768  1.00  0.00    -0.354 N 
ATOM     41  C   UNL     1      -6.183   8.021   6.209  1.00  0.00     0.074 A 
ATOM     42  C   UNL     1      -6.607   6.661   6.444  1.00  0.00     0.031 C 
ATOM     43  C   UNL     1       0.153   7.776   7.177  1.00  0.00     0.029 A 
ATOM     44  C   UNL     1      -0.655   8.944   6.841  1.00  0.00     0.049 A 
ATOM     45  H   UNL     1      -2.709   9.005   6.496  1.00  0.00     0.167 HD
ATOM     46  C   UNL     1      -7.020   9.023   5.846  1.00  0.00     0.037 A 
ATOM     47  C   UNL     1      -0.183  10.196   6.684  1.00  0.00     0.037 A 
ATOM     48  C   UNL     1      -6.617  10.394   5.682  1.00  0.00     0.049 A 
ATOM     49  C   UNL     1      -1.141  11.310   6.367  1.00  0.00     0.074 A 
ATOM     50  C   UNL     1      -7.403  11.496   5.397  1.00  0.00     0.029 A 
ATOM     51  N   UNL     1      -5.314  10.851   5.808  1.00  0.00    -0.354 N 
ATOM     52  N   UNL     1      -2.439  11.258   6.196  1.00  0.00    -0.248 NA
ATOM     53  C   UNL     1      -0.570  12.657   6.229  1.00  0.00     0.031 C 
ATOM     54  C   UNL     1      -6.572  12.619   5.327  1.00  0.00     0.029 A 
ATOM     55  C   UNL     1      -5.275  12.220   5.606  1.00  0.00     0.049 A 
ATOM     56  H   UNL     1      -4.533  10.286   6.010  1.00  0.00     0.167 HD
ATOM     57  C   UNL     1      -2.843  12.562   5.948  1.00  0.00     0.074 A 
ATOM     58  C   UNL     1      -1.655  13.388   6.011  1.00  0.00     0.031 C 
ATOM     59  C   UNL     1      -4.087  13.030   5.685  1.00  0.00     0.037 A 
BRANCH  46  60
ATOM     60  C   UNL     1      -8.472   8.687   5.652  1.00  0.00     0.064 A 
ATOM     61  C   UNL     1      -9.295   8.348   6.737  1.00  0.00     0.173 A 
ATOM     62  C   UNL     1      -9.063   8.762   4.381  1.00  0.00     0.173 A 
ATOM     63  F   UNL     1      -8.779   8.255   7.972  1.00  0.00    -0.203 F 
ATOM     64  C   UNL     1     -10.646   8.067   6.554  1.00  0.00     0.198 A 
ATOM     65  C   UNL     1     -10.423   8.512   4.207  1.00  0.00     0.198 A 
ATOM     66  F   UNL     1      -8.326   9.093   3.310  1.00  0.00    -0.203 F 
ATOM     67  F   UNL     1     -11.400   7.701   7.601  1.00  0.00    -0.200 F 
ATOM     68  C   UNL     1     -11.211   8.158   5.292  1.00  0.00     0.200 A 
ATOM     69  F   UNL     1     -10.972   8.617   2.989  1.00  0.00    -0.200 F 
ATOM     70  F   UNL     1     -12.515   7.903   5.120  1.00  0.00    -0.200 F 
ENDBRANCH  46  60
BRANCH  47  71
ATOM     71  C   UNL     1       1.259  10.470   6.916  1.00  0.00     0.064 A 
ATOM     72  C   UNL     1       1.677  11.155   8.066  1.00  0.00     0.173 A 
ATOM     73  C   UNL     1       2.247  10.027   6.025  1.00  0.00     0.173 A 
ATOM     74  F   UNL     1       0.768  11.613   8.939  1.00  0.00    -0.203 F 
ATOM     75  C   UNL     1       3.027  11.394   8.312  1.00  0.00     0.198 A 
ATOM     76  C   UNL     1       3.599  10.245   6.285  1.00  0.00     0.198 A 
ATOM     77  F   UNL     1       1.899   9.360   4.915  1.00  0.00    -0.203 F 
ATOM     78  F   UNL     1       3.396  12.076   9.405  1.00  0.00    -0.200 F 
ATOM     79  C   UNL     1       3.987  10.931   7.426  1.00  0.00     0.200 A 
ATOM     80  F   UNL     1       4.525   9.782   5.435  1.00  0.00    -0.200 F 
ATOM     81  F   UNL     1       5.287  11.148   7.670  1.00  0.00    -0.200 F 
ENDBRANCH  47  71
BRANCH  59  82
ATOM     82  C   UNL     1      -4.242  14.505   5.466  1.00  0.00     0.064 A 
ATOM     83  C   UNL     1      -3.816  15.116   4.278  1.00  0.00     0.173 A 
ATOM     84  C   UNL     1      -4.890  15.300   6.423  1.00  0.00     0.173 A 
ATOM     85  F   UNL     1      -3.182  14.397   3.339  1.00  0.00    -0.203 F 
ATOM     86  C   UNL     1      -4.022  16.475   4.062  1.00  0.00     0.198 A 
ATOM     87  C   UNL     1      -5.117  16.654   6.192  1.00  0.00     0.198 A 
ATOM     88  F   UNL     1      -5.323  14.759   7.571  1.00  0.00    -0.203 F 
ATOM     89  F   UNL     1      -3.580  17.046   2.933  1.00  0.00    -0.200 F 
ATOM     90  C   UNL     1      -4.680  17.241   5.013  1.00  0.00     0.200 A 
ATOM     91  F   UNL     1      -5.764  17.389   7.106  1.00  0.00    -0.200 F 
ATOM     92  F   UNL     1      -4.890  18.546   4.796  1.00  0.00    -0.200 F 
ENDBRANCH  59  82
ENDBRANCH  33  34
ENDBRANCH  26  28
ENDBRANCH  25  26
ENDBRANCH  24  25
ENDBRANCH   1  24
TORSDOF 14
