REMARK SMILES CC(C)(CC(=O)OCCOC(=O)c1ccc(-c2c3nc(c(-c4c(F)c(F)c(F)c(F)c4F)c4ccc([nH]4)c(-c4c(F)c(F)c(F)c(F)c4F)c4nc(c(-c5c(F)c(F)c(F)c(F)c5F)c5ccc2[nH]5)C=C4)C=C3)cc1)NC(=O)c1nc(C(C)(C)C)n[nH]1
REMARK SMILES IDX 8 1 7 2 5 3 6 4 4 5 2 6 1 7 3 8 76 9 77 10 78 12 79 13 80 14
REMARK SMILES IDX 87 15 81 16 86 17 82 19 83 20 84 21 85 22 9 23 10 24 11 25
REMARK SMILES IDX 12 26 13 27 14 28 75 29 15 30 74 31 16 32 17 33 18 34 68 35
REMARK SMILES IDX 19 36 73 37 67 38 69 39 20 40 72 41 66 42 65 43 21 45 53 46
REMARK SMILES IDX 33 47 52 48 34 49 37 50 51 51 70 52 35 53 36 54 50 56 71 57
REMARK SMILES IDX 38 58 22 59 23 60 31 61 24 62 25 63 29 64 32 65 26 66 27 67
REMARK SMILES IDX 30 68 28 69 54 70 55 71 63 72 56 73 57 74 61 75 64 76 58 77
REMARK SMILES IDX 59 78 62 79 60 80 39 81 40 82 48 83 41 84 42 85 46 86 49 87
REMARK SMILES IDX 43 88 44 89 47 90 45 91
REMARK H PARENT 76 11 87 18 69 44 37 55
REMARK Flexibility Score: inf
ROOT
ATOM      1  C   UNL     1      -1.956   1.449   2.249  1.00  0.00     0.274 C 
ENDROOT
BRANCH   1   2
ATOM      2  O   UNL     1      -1.240   0.918   1.119  1.00  0.00    -0.462 OA
BRANCH   2   3
ATOM      3  C   UNL     1      -1.957   0.624   0.016  1.00  0.00     0.308 C 
ATOM      4  O   UNL     1      -3.177   0.724  -0.076  1.00  0.00    -0.252 OA
BRANCH   3   5
ATOM      5  C   UNL     1      -1.123   0.174  -1.164  1.00  0.00     0.150 C 
BRANCH   5   6
ATOM      6  C   UNL     1       0.416   0.153  -1.037  1.00  0.00     0.045 C 
ATOM      7  C   UNL     1       0.845  -0.963  -0.069  1.00  0.00     0.035 C 
ATOM      8  C   UNL     1       0.976  -0.241  -2.429  1.00  0.00     0.035 C 
BRANCH   6   9
ATOM      9  N   UNL     1       0.934   1.513  -0.763  1.00  0.00    -0.344 N 
ATOM     10  C   UNL     1       2.105   1.893  -0.147  1.00  0.00     0.289 C 
ATOM     11  H   UNL     1       0.358   2.252  -1.066  1.00  0.00     0.164 HD
ATOM     12  O   UNL     1       2.788   2.754  -0.704  1.00  0.00    -0.266 OA
BRANCH  10  13
ATOM     13  C   UNL     1       2.511   1.270   1.083  1.00  0.00     0.214 A 
ATOM     14  N   UNL     1       1.771   1.051   2.156  1.00  0.00    -0.207 NA
ATOM     15  N   UNL     1       3.790   0.891   1.349  1.00  0.00    -0.255 N 
ATOM     16  C   UNL     1       2.668   0.541   3.065  1.00  0.00     0.156 A 
ATOM     17  N   UNL     1       3.908   0.372   2.581  1.00  0.00    -0.158 NA
ATOM     18  H   UNL     1       4.538   0.987   0.716  1.00  0.00     0.192 HD
BRANCH  16  19
ATOM     19  C   UNL     1       2.323   0.268   4.511  1.00  0.00     0.024 C 
ATOM     20  C   UNL     1       3.147   1.202   5.420  1.00  0.00     0.019 C 
ATOM     21  C   UNL     1       0.831   0.522   4.796  1.00  0.00     0.019 C 
ATOM     22  C   UNL     1       2.634  -1.196   4.875  1.00  0.00     0.019 C 
ENDBRANCH  16  19
ENDBRANCH  10  13
ENDBRANCH   6   9
ENDBRANCH   5   6
ENDBRANCH   3   5
ENDBRANCH   2   3
ENDBRANCH   1   2
BRANCH   1  23
ATOM     23  C   UNL     1      -1.672   2.940   2.394  1.00  0.00     0.275 C 
BRANCH  23  24
ATOM     24  O   UNL     1      -2.176   3.627   1.234  1.00  0.00    -0.458 OA
BRANCH  24  25
ATOM     25  C   UNL     1      -1.252   4.254   0.474  1.00  0.00     0.338 C 
ATOM     26  O   UNL     1      -0.062   4.393   0.682  1.00  0.00    -0.246 OA
BRANCH  25  27
ATOM     27  C   UNL     1      -1.919   4.779  -0.723  1.00  0.00     0.060 A 
ATOM     28  C   UNL     1      -2.333   3.899  -1.724  1.00  0.00     0.016 A 
ATOM     29  C   UNL     1      -2.074   6.155  -0.872  1.00  0.00     0.016 A 
ATOM     30  C   UNL     1      -2.896   4.396  -2.896  1.00  0.00     0.010 A 
ATOM     31  C   UNL     1      -2.689   6.649  -2.022  1.00  0.00     0.010 A 
ATOM     32  C   UNL     1      -3.101   5.774  -3.043  1.00  0.00    -0.014 A 
BRANCH  32  33
ATOM     33  C   UNL     1      -3.792   6.312  -4.237  1.00  0.00     0.031 A 
ATOM     34  C   UNL     1      -3.052   7.179  -5.211  1.00  0.00     0.074 A 
ATOM     35  C   UNL     1      -5.103   6.060  -4.405  1.00  0.00     0.049 A 
ATOM     36  N   UNL     1      -3.521   7.902  -6.195  1.00  0.00    -0.248 NA
ATOM     37  C   UNL     1      -1.591   7.248  -5.053  1.00  0.00     0.031 C 
ATOM     38  C   UNL     1      -5.915   5.205  -3.538  1.00  0.00     0.029 A 
ATOM     39  N   UNL     1      -5.989   6.518  -5.347  1.00  0.00    -0.354 N 
ATOM     40  C   UNL     1      -2.420   8.537  -6.754  1.00  0.00     0.074 A 
ATOM     41  C   UNL     1      -1.259   8.116  -5.999  1.00  0.00     0.031 C 
ATOM     42  C   UNL     1      -7.181   5.205  -3.982  1.00  0.00     0.029 A 
ATOM     43  C   UNL     1      -7.281   6.113  -5.120  1.00  0.00     0.049 A 
ATOM     44  H   UNL     1      -5.724   7.080  -6.111  1.00  0.00     0.167 HD
ATOM     45  C   UNL     1      -2.392   9.395  -7.800  1.00  0.00     0.037 A 
ATOM     46  C   UNL     1      -8.427   6.477  -5.724  1.00  0.00     0.037 A 
ATOM     47  C   UNL     1      -3.554   9.789  -8.554  1.00  0.00     0.049 A 
ATOM     48  C   UNL     1      -8.377   7.482  -6.838  1.00  0.00     0.074 A 
ATOM     49  C   UNL     1      -3.627  10.618  -9.660  1.00  0.00     0.029 A 
ATOM     50  N   UNL     1      -4.850   9.381  -8.273  1.00  0.00    -0.354 N 
ATOM     51  N   UNL     1      -7.335   8.084  -7.358  1.00  0.00    -0.248 NA
ATOM     52  C   UNL     1      -9.660   7.874  -7.434  1.00  0.00     0.031 C 
ATOM     53  C   UNL     1      -4.973  10.744 -10.023  1.00  0.00     0.029 A 
ATOM     54  C   UNL     1      -5.734   9.965  -9.166  1.00  0.00     0.049 A 
ATOM     55  H   UNL     1      -5.104   8.767  -7.547  1.00  0.00     0.167 HD
ATOM     56  C   UNL     1      -7.833   8.924  -8.342  1.00  0.00     0.074 A 
ATOM     57  C   UNL     1      -9.270   8.739  -8.361  1.00  0.00     0.031 C 
ATOM     58  C   UNL     1      -7.162   9.776  -9.154  1.00  0.00     0.037 A 
BRANCH  45  59
ATOM     59  C   UNL     1      -1.070   9.992  -8.176  1.00  0.00     0.064 A 
ATOM     60  C   UNL     1      -0.089   9.250  -8.848  1.00  0.00     0.173 A 
ATOM     61  C   UNL     1      -0.800  11.342  -7.901  1.00  0.00     0.173 A 
ATOM     62  F   UNL     1      -0.294   7.953  -9.123  1.00  0.00    -0.203 F 
ATOM     63  C   UNL     1       1.121   9.832  -9.217  1.00  0.00     0.198 A 
ATOM     64  C   UNL     1       0.402  11.926  -8.289  1.00  0.00     0.198 A 
ATOM     65  F   UNL     1      -1.708  12.095  -7.263  1.00  0.00    -0.203 F 
ATOM     66  F   UNL     1       2.058   9.097  -9.832  1.00  0.00    -0.200 F 
ATOM     67  C   UNL     1       1.363  11.171  -8.943  1.00  0.00     0.200 A 
ATOM     68  F   UNL     1       0.630  13.222  -8.032  1.00  0.00    -0.200 F 
ATOM     69  F   UNL     1       2.525  11.732  -9.306  1.00  0.00    -0.200 F 
ENDBRANCH  45  59
BRANCH  46  70
ATOM     70  C   UNL     1      -9.717   5.921  -5.244  1.00  0.00     0.064 A 
ATOM     71  C   UNL     1     -10.433   4.995  -6.013  1.00  0.00     0.173 A 
ATOM     72  C   UNL     1     -10.245   6.283  -3.995  1.00  0.00     0.173 A 
ATOM     73  F   UNL     1      -9.979   4.637  -7.223  1.00  0.00    -0.203 F 
ATOM     74  C   UNL     1     -11.630   4.452  -5.551  1.00  0.00     0.198 A 
ATOM     75  C   UNL     1     -11.428   5.721  -3.524  1.00  0.00     0.198 A 
ATOM     76  F   UNL     1      -9.596   7.167  -3.223  1.00  0.00    -0.203 F 
ATOM     77  F   UNL     1     -12.311   3.589  -6.317  1.00  0.00    -0.200 F 
ATOM     78  C   UNL     1     -12.122   4.809  -4.304  1.00  0.00     0.200 A 
ATOM     79  F   UNL     1     -11.893   6.059  -2.313  1.00  0.00    -0.200 F 
ATOM     80  F   UNL     1     -13.268   4.277  -3.856  1.00  0.00    -0.200 F 
ENDBRANCH  46  70
BRANCH  58  81
ATOM     81  C   UNL     1      -7.978  10.568 -10.128  1.00  0.00     0.064 A 
ATOM     82  C   UNL     1      -8.734  11.674  -9.712  1.00  0.00     0.173 A 
ATOM     83  C   UNL     1      -7.979  10.241 -11.491  1.00  0.00     0.173 A 
ATOM     84  F   UNL     1      -8.778  12.011  -8.414  1.00  0.00    -0.203 F 
ATOM     85  C   UNL     1      -9.474  12.416 -10.627  1.00  0.00     0.198 A 
ATOM     86  C   UNL     1      -8.703  10.999 -12.406  1.00  0.00     0.198 A 
ATOM     87  F   UNL     1      -7.269   9.193 -11.935  1.00  0.00    -0.203 F 
ATOM     88  F   UNL     1     -10.219  13.447 -10.204  1.00  0.00    -0.200 F 
ATOM     89  C   UNL     1      -9.453  12.083 -11.973  1.00  0.00     0.200 A 
ATOM     90  F   UNL     1      -8.676  10.681 -13.708  1.00  0.00    -0.200 F 
ATOM     91  F   UNL     1     -10.163  12.801 -12.854  1.00  0.00    -0.200 F 
ENDBRANCH  58  81
ENDBRANCH  32  33
ENDBRANCH  25  27
ENDBRANCH  24  25
ENDBRANCH  23  24
ENDBRANCH   1  23
TORSDOF 15
