REMARK SMILES C[C@H]1CC[C@@](CCOCCO)(C(=O)OCCOC(=O)c2ccc(-c3c4nc(c(-c5c(F)c(F)c(F)c(F)c5F)c5ccc([nH]5)c(-c5c(F)c(F)c(F)c(F)c5F)c5nc(c(-c6c(F)c(F)c(F)c(F)c6F)c6ccc3[nH]6)C=C5)C=C4)cc2)C1
REMARK SMILES IDX 12 1 13 2 5 3 1 4 2 5 3 6 83 7 4 8 6 9 7 10 8 11 9 12 10 13
REMARK SMILES IDX 11 14 14 16 15 17 16 18 17 19 18 20 19 21 20 22 21 23 82 24
REMARK SMILES IDX 22 25 81 26 23 27 24 28 25 29 75 30 26 31 80 32 74 33 76 34
REMARK SMILES IDX 27 35 79 36 73 37 72 38 28 40 60 41 40 42 59 43 41 44 44 45
REMARK SMILES IDX 58 46 77 47 42 48 43 49 57 51 78 52 45 53 29 54 30 55 38 56
REMARK SMILES IDX 31 57 32 58 36 59 39 60 33 61 34 62 37 63 35 64 61 65 62 66
REMARK SMILES IDX 70 67 63 68 64 69 68 70 71 71 65 72 66 73 69 74 67 75 46 76
REMARK SMILES IDX 47 77 55 78 48 79 49 80 53 81 56 82 50 83 51 84 54 85 52 86
REMARK H PARENT 11 15 76 39 44 50
REMARK Flexibility Score: inf
ROOT
ATOM      1  C   UNL     1      -2.084   2.023  -0.324  1.00  0.00     0.312 C 
ATOM      2  O   UNL     1      -1.865   3.230  -0.320  1.00  0.00    -0.252 OA
ENDROOT
BRANCH   1   3
ATOM      3  C   UNL     1      -1.053   0.987  -0.808  1.00  0.00     0.070 C 
ATOM      4  C   UNL     1       2.228   0.185   1.019  1.00  0.00     0.007 C 
ATOM      5  C   UNL     1       1.060   0.067   0.055  1.00  0.00    -0.013 C 
ATOM      6  C   UNL     1      -0.057  -0.794   0.613  1.00  0.00     0.004 C 
ATOM      7  C   UNL     1       0.344   1.388  -0.231  1.00  0.00     0.022 C 
ATOM      8  C   UNL     1      -1.253  -0.456  -0.266  1.00  0.00     0.019 C 
BRANCH   3   9
ATOM      9  C   UNL     1      -0.998   1.090  -2.359  1.00  0.00     0.047 C 
BRANCH   9  10
ATOM     10  C   UNL     1      -1.963   0.246  -3.199  1.00  0.00     0.161 C 
BRANCH  10  11
ATOM     11  O   UNL     1      -3.334   0.558  -3.009  1.00  0.00    -0.379 OA
BRANCH  11  12
ATOM     12  C   UNL     1      -4.093  -0.355  -2.213  1.00  0.00     0.188 C 
BRANCH  12  13
ATOM     13  C   UNL     1      -4.435  -1.688  -2.879  1.00  0.00     0.184 C 
BRANCH  13  14
ATOM     14  O   UNL     1      -3.316  -2.569  -2.926  1.00  0.00    -0.394 OA
ATOM     15  H   UNL     1      -2.607  -2.163  -3.450  1.00  0.00     0.210 HD
ENDBRANCH  13  14
ENDBRANCH  12  13
ENDBRANCH  11  12
ENDBRANCH  10  11
ENDBRANCH   9  10
ENDBRANCH   3   9
ENDBRANCH   1   3
BRANCH   1  16
ATOM     16  O   UNL     1      -3.254   1.464   0.077  1.00  0.00    -0.462 OA
BRANCH  16  17
ATOM     17  C   UNL     1      -4.332   2.356   0.429  1.00  0.00     0.274 C 
BRANCH  17  18
ATOM     18  C   UNL     1      -5.078   1.793   1.638  1.00  0.00     0.275 C 
BRANCH  18  19
ATOM     19  O   UNL     1      -4.237   1.966   2.791  1.00  0.00    -0.458 OA
BRANCH  19  20
ATOM     20  C   UNL     1      -3.611   0.857   3.239  1.00  0.00     0.338 C 
ATOM     21  O   UNL     1      -3.839  -0.309   2.967  1.00  0.00    -0.246 OA
BRANCH  20  22
ATOM     22  C   UNL     1      -2.438   1.307   3.996  1.00  0.00     0.060 A 
ATOM     23  C   UNL     1      -1.334   1.742   3.264  1.00  0.00     0.016 A 
ATOM     24  C   UNL     1      -2.396   1.257   5.385  1.00  0.00     0.016 A 
ATOM     25  C   UNL     1      -0.155   2.086   3.911  1.00  0.00     0.010 A 
ATOM     26  C   UNL     1      -1.228   1.661   6.039  1.00  0.00     0.010 A 
ATOM     27  C   UNL     1      -0.089   2.058   5.308  1.00  0.00    -0.014 A 
BRANCH  27  28
ATOM     28  C   UNL     1       1.189   2.368   5.999  1.00  0.00     0.031 A 
ATOM     29  C   UNL     1       1.857   1.304   6.821  1.00  0.00     0.074 A 
ATOM     30  C   UNL     1       1.771   3.576   5.873  1.00  0.00     0.049 A 
ATOM     31  N   UNL     1       2.831   1.411   7.687  1.00  0.00    -0.248 NA
ATOM     32  C   UNL     1       1.347  -0.066   6.655  1.00  0.00     0.031 C 
ATOM     33  C   UNL     1       1.278   4.674   5.042  1.00  0.00     0.029 A 
ATOM     34  N   UNL     1       2.914   4.080   6.444  1.00  0.00    -0.354 N 
ATOM     35  C   UNL     1       2.999   0.142   8.223  1.00  0.00     0.074 A 
ATOM     36  C   UNL     1       2.041  -0.725   7.571  1.00  0.00     0.031 C 
ATOM     37  C   UNL     1       2.127   5.710   5.133  1.00  0.00     0.029 A 
ATOM     38  C   UNL     1       3.174   5.382   6.095  1.00  0.00     0.049 A 
ATOM     39  H   UNL     1       3.491   3.557   7.047  1.00  0.00     0.167 HD
ATOM     40  C   UNL     1       3.868  -0.255   9.183  1.00  0.00     0.037 A 
ATOM     41  C   UNL     1       4.122   6.231   6.536  1.00  0.00     0.037 A 
ATOM     42  C   UNL     1       4.859   0.603   9.778  1.00  0.00     0.049 A 
ATOM     43  C   UNL     1       5.079   5.770   7.600  1.00  0.00     0.074 A 
ATOM     44  C   UNL     1       5.772   0.310  10.776  1.00  0.00     0.029 A 
ATOM     45  N   UNL     1       5.085   1.919   9.402  1.00  0.00    -0.354 N 
ATOM     46  N   UNL     1       5.158   4.602   8.191  1.00  0.00    -0.248 NA
ATOM     47  C   UNL     1       6.061   6.753   8.080  1.00  0.00     0.031 C 
ATOM     48  C   UNL     1       6.540   1.456  11.016  1.00  0.00     0.029 A 
ATOM     49  C   UNL     1       6.126   2.451  10.144  1.00  0.00     0.049 A 
ATOM     50  H   UNL     1       4.579   2.404   8.710  1.00  0.00     0.167 HD
ATOM     51  C   UNL     1       6.191   4.708   9.110  1.00  0.00     0.074 A 
ATOM     52  C   UNL     1       6.731   6.046   8.980  1.00  0.00     0.031 C 
ATOM     53  C   UNL     1       6.645   3.786   9.994  1.00  0.00     0.037 A 
BRANCH  40  54
ATOM     54  C   UNL     1       3.747  -1.663   9.683  1.00  0.00     0.064 A 
ATOM     55  C   UNL     1       4.170  -2.762   8.924  1.00  0.00     0.173 A 
ATOM     56  C   UNL     1       3.205  -1.910  10.954  1.00  0.00     0.173 A 
ATOM     57  F   UNL     1       4.675  -2.579   7.695  1.00  0.00    -0.203 F 
ATOM     58  C   UNL     1       4.032  -4.061   9.409  1.00  0.00     0.198 A 
ATOM     59  C   UNL     1       3.092  -3.208  11.446  1.00  0.00     0.198 A 
ATOM     60  F   UNL     1       2.785  -0.892  11.721  1.00  0.00    -0.203 F 
ATOM     61  F   UNL     1       4.398  -5.101   8.647  1.00  0.00    -0.200 F 
ATOM     62  C   UNL     1       3.499  -4.282  10.670  1.00  0.00     0.200 A 
ATOM     63  F   UNL     1       2.585  -3.418  12.669  1.00  0.00    -0.200 F 
ATOM     64  F   UNL     1       3.369  -5.532  11.135  1.00  0.00    -0.200 F 
ENDBRANCH  40  54
BRANCH  41  65
ATOM     65  C   UNL     1       4.177   7.617   6.005  1.00  0.00     0.064 A 
ATOM     66  C   UNL     1       5.233   8.034   5.184  1.00  0.00     0.173 A 
ATOM     67  C   UNL     1       3.169   8.549   6.296  1.00  0.00     0.173 A 
ATOM     68  F   UNL     1       6.235   7.189   4.902  1.00  0.00    -0.203 F 
ATOM     69  C   UNL     1       5.281   9.332   4.677  1.00  0.00     0.198 A 
ATOM     70  C   UNL     1       3.203   9.837   5.765  1.00  0.00     0.198 A 
ATOM     71  F   UNL     1       2.139   8.201   7.081  1.00  0.00    -0.203 F 
ATOM     72  F   UNL     1       6.320   9.716   3.923  1.00  0.00    -0.200 F 
ATOM     73  C   UNL     1       4.261  10.229   4.960  1.00  0.00     0.200 A 
ATOM     74  F   UNL     1       2.209  10.695   6.031  1.00  0.00    -0.200 F 
ATOM     75  F   UNL     1       4.302  11.472   4.462  1.00  0.00    -0.200 F 
ENDBRANCH  41  65
BRANCH  53  76
ATOM     76  C   UNL     1       7.788   4.191  10.873  1.00  0.00     0.064 A 
ATOM     77  C   UNL     1       7.598   5.045  11.969  1.00  0.00     0.173 A 
ATOM     78  C   UNL     1       9.078   3.695  10.636  1.00  0.00     0.173 A 
ATOM     79  F   UNL     1       6.384   5.556  12.224  1.00  0.00    -0.203 F 
ATOM     80  C   UNL     1       8.665   5.404  12.786  1.00  0.00     0.198 A 
ATOM     81  C   UNL     1      10.139   4.040  11.468  1.00  0.00     0.198 A 
ATOM     82  F   UNL     1       9.307   2.873   9.601  1.00  0.00    -0.203 F 
ATOM     83  F   UNL     1       8.471   6.251  13.806  1.00  0.00    -0.200 F 
ATOM     84  C   UNL     1       9.933   4.898  12.538  1.00  0.00     0.200 A 
ATOM     85  F   UNL     1      11.362   3.545  11.232  1.00  0.00    -0.200 F 
ATOM     86  F   UNL     1      10.960   5.244  13.328  1.00  0.00    -0.200 F 
ENDBRANCH  53  76
ENDBRANCH  27  28
ENDBRANCH  20  22
ENDBRANCH  19  20
ENDBRANCH  18  19
ENDBRANCH  17  18
ENDBRANCH  16  17
ENDBRANCH   1  16
TORSDOF 17
