REMARK SMILES O=C(OCCOC(=O)c1cnccc1C(=O)N1CCC(Cc2ccccc2)CC1)c1ccc(-c2c3nc(c(-c4c(F)c(F)c(F)c(F)c4F)c4ccc([nH]4)c(-c4c(F)c(F)c(F)c(F)c4F)c4nc(c(-c5c(F)c(F)c(F)c(F)c5F)c5ccc2[nH]5)C=C4)C=C3)cc1
REMARK SMILES IDX 5 1 4 2 3 3 2 4 1 5 30 6 31 7 92 8 32 9 91 10 33 11 34 12
REMARK SMILES IDX 35 13 85 14 36 15 90 16 84 17 86 18 37 19 89 20 83 21 82 22
REMARK SMILES IDX 38 24 70 25 50 26 69 27 51 28 54 29 68 30 87 31 52 32 53 33
REMARK SMILES IDX 67 35 88 36 55 37 39 38 40 39 48 40 41 41 42 42 46 43 49 44
REMARK SMILES IDX 43 45 44 46 47 47 45 48 71 49 72 50 80 51 73 52 74 53 78 54
REMARK SMILES IDX 81 55 75 56 76 57 79 58 77 59 56 60 57 61 65 62 58 63 59 64
REMARK SMILES IDX 63 65 66 66 60 67 61 68 64 69 62 70 6 71 7 72 8 73 9 74
REMARK SMILES IDX 10 75 14 76 11 77 13 78 12 79 15 80 16 81 17 82 18 83 29 84
REMARK SMILES IDX 19 85 28 86 20 87 21 88 22 89 23 90 27 91 24 92 26 93 25 94
REMARK H PARENT 86 23 54 34
REMARK Flexibility Score: inf
ROOT
ATOM      1  C   UNL     1       3.837   0.318  -1.654  1.00  0.00     0.275 C 
ENDROOT
BRANCH   1   2
ATOM      2  C   UNL     1       4.066  -1.067  -1.055  1.00  0.00     0.275 C 
BRANCH   2   3
ATOM      3  O   UNL     1       3.010  -1.519  -0.189  1.00  0.00    -0.458 OA
BRANCH   3   4
ATOM      4  C   UNL     1       2.556  -1.000   0.974  1.00  0.00     0.338 C 
ATOM      5  O   UNL     1       1.420  -1.301   1.338  1.00  0.00    -0.246 OA
BRANCH   4   6
ATOM      6  C   UNL     1       3.339  -0.063   1.851  1.00  0.00     0.060 A 
ATOM      7  C   UNL     1       4.687   0.272   1.696  1.00  0.00     0.016 A 
ATOM      8  C   UNL     1       2.634   0.547   2.908  1.00  0.00     0.016 A 
ATOM      9  C   UNL     1       5.296   1.223   2.513  1.00  0.00     0.010 A 
ATOM     10  C   UNL     1       3.242   1.485   3.749  1.00  0.00     0.010 A 
ATOM     11  C   UNL     1       4.586   1.815   3.557  1.00  0.00    -0.014 A 
BRANCH  11  12
ATOM     12  C   UNL     1       5.356   2.558   4.574  1.00  0.00     0.031 A 
ATOM     13  C   UNL     1       5.878   1.777   5.734  1.00  0.00     0.074 A 
ATOM     14  C   UNL     1       5.707   3.841   4.390  1.00  0.00     0.049 A 
ATOM     15  N   UNL     1       6.710   2.144   6.668  1.00  0.00    -0.248 NA
ATOM     16  C   UNL     1       5.434   0.376   5.829  1.00  0.00     0.031 C 
ATOM     17  C   UNL     1       5.338   4.631   3.229  1.00  0.00     0.029 A 
ATOM     18  N   UNL     1       6.468   4.698   5.140  1.00  0.00    -0.354 N 
ATOM     19  C   UNL     1       6.909   1.016   7.445  1.00  0.00     0.074 A 
ATOM     20  C   UNL     1       6.086  -0.039   6.902  1.00  0.00     0.031 C 
ATOM     21  C   UNL     1       5.855   5.864   3.333  1.00  0.00     0.029 A 
ATOM     22  C   UNL     1       6.597   5.950   4.583  1.00  0.00     0.049 A 
ATOM     23  H   UNL     1       6.884   4.442   5.995  1.00  0.00     0.167 HD
ATOM     24  C   UNL     1       7.722   0.879   8.516  1.00  0.00     0.037 A 
ATOM     25  C   UNL     1       7.251   7.035   5.037  1.00  0.00     0.037 A 
ATOM     26  C   UNL     1       8.490   1.960   9.066  1.00  0.00     0.049 A 
ATOM     27  C   UNL     1       8.039   6.889   6.311  1.00  0.00     0.074 A 
ATOM     28  C   UNL     1       9.301   1.962  10.184  1.00  0.00     0.029 A 
ATOM     29  N   UNL     1       8.519   3.248   8.542  1.00  0.00    -0.354 N 
ATOM     30  N   UNL     1       8.232   5.816   7.043  1.00  0.00    -0.248 NA
ATOM     31  C   UNL     1       8.714   8.090   6.815  1.00  0.00     0.031 C 
ATOM     32  C   UNL     1       9.765   3.267  10.376  1.00  0.00     0.029 A 
ATOM     33  C   UNL     1       9.307   4.063   9.336  1.00  0.00     0.049 A 
ATOM     34  H   UNL     1       8.048   3.538   7.728  1.00  0.00     0.167 HD
ATOM     35  C   UNL     1       9.082   6.199   8.069  1.00  0.00     0.074 A 
ATOM     36  C   UNL     1       9.375   7.604   7.856  1.00  0.00     0.031 C 
ATOM     37  C   UNL     1       9.581   5.459   9.089  1.00  0.00     0.037 A 
BRANCH  24  38
ATOM     38  C   UNL     1       7.726  -0.462   9.182  1.00  0.00     0.064 A 
ATOM     39  C   UNL     1       8.281  -1.596   8.567  1.00  0.00     0.173 A 
ATOM     40  C   UNL     1       7.094  -0.630  10.422  1.00  0.00     0.173 A 
ATOM     41  F   UNL     1       8.861  -1.495   7.361  1.00  0.00    -0.203 F 
ATOM     42  C   UNL     1       8.169  -2.854   9.153  1.00  0.00     0.198 A 
ATOM     43  C   UNL     1       7.011  -1.884  11.019  1.00  0.00     0.198 A 
ATOM     44  F   UNL     1       6.532   0.419  11.041  1.00  0.00    -0.203 F 
ATOM     45  F   UNL     1       8.637  -3.934   8.512  1.00  0.00    -0.200 F 
ATOM     46  C   UNL     1       7.537  -2.996  10.380  1.00  0.00     0.200 A 
ATOM     47  F   UNL     1       6.400  -2.019  12.204  1.00  0.00    -0.200 F 
ATOM     48  F   UNL     1       7.417  -4.209  10.936  1.00  0.00    -0.200 F 
ENDBRANCH  24  38
BRANCH  25  49
ATOM     49  C   UNL     1       7.203   8.324   4.294  1.00  0.00     0.064 A 
ATOM     50  C   UNL     1       8.356   8.887   3.728  1.00  0.00     0.173 A 
ATOM     51  C   UNL     1       6.004   9.044   4.167  1.00  0.00     0.173 A 
ATOM     52  F   UNL     1       9.533   8.254   3.836  1.00  0.00    -0.203 F 
ATOM     53  C   UNL     1       8.318  10.130   3.094  1.00  0.00     0.198 A 
ATOM     54  C   UNL     1       5.961  10.272   3.508  1.00  0.00     0.198 A 
ATOM     55  F   UNL     1       4.869   8.558   4.692  1.00  0.00    -0.203 F 
ATOM     56  F   UNL     1       9.448  10.671   2.618  1.00  0.00    -0.200 F 
ATOM     57  C   UNL     1       7.121  10.820   2.982  1.00  0.00     0.200 A 
ATOM     58  F   UNL     1       4.801  10.933   3.399  1.00  0.00    -0.200 F 
ATOM     59  F   UNL     1       7.089  12.019   2.385  1.00  0.00    -0.200 F 
ENDBRANCH  25  49
BRANCH  37  60
ATOM     60  C   UNL     1      10.533   6.147  10.023  1.00  0.00     0.064 A 
ATOM     61  C   UNL     1      10.107   7.140  10.917  1.00  0.00     0.173 A 
ATOM     62  C   UNL     1      11.886   5.775  10.045  1.00  0.00     0.173 A 
ATOM     63  F   UNL     1       8.826   7.539  10.924  1.00  0.00    -0.203 F 
ATOM     64  C   UNL     1      11.010   7.760  11.775  1.00  0.00     0.198 A 
ATOM     65  C   UNL     1      12.776   6.369  10.932  1.00  0.00     0.198 A 
ATOM     66  F   UNL     1      12.340   4.824   9.215  1.00  0.00    -0.203 F 
ATOM     67  F   UNL     1      10.595   8.749  12.579  1.00  0.00    -0.200 F 
ATOM     68  C   UNL     1      12.340   7.368  11.788  1.00  0.00     0.200 A 
ATOM     69  F   UNL     1      14.057   5.975  10.957  1.00  0.00    -0.200 F 
ATOM     70  F   UNL     1      13.206   7.960  12.623  1.00  0.00    -0.200 F 
ENDBRANCH  37  60
ENDBRANCH  11  12
ENDBRANCH   4   6
ENDBRANCH   3   4
ENDBRANCH   2   3
ENDBRANCH   1   2
BRANCH   1  71
ATOM     71  O   UNL     1       3.441   1.286  -0.664  1.00  0.00    -0.458 OA
BRANCH  71  72
ATOM     72  C   UNL     1       2.349   2.035  -0.941  1.00  0.00     0.340 C 
ATOM     73  O   UNL     1       1.653   1.978  -1.946  1.00  0.00    -0.246 OA
BRANCH  72  74
ATOM     74  C   UNL     1       2.032   2.914   0.179  1.00  0.00     0.091 A 
ATOM     75  C   UNL     1       0.914   2.535   0.919  1.00  0.00     0.127 A 
ATOM     76  C   UNL     1       2.690   4.096   0.528  1.00  0.00     0.057 A 
ATOM     77  N   UNL     1       0.453   3.203   2.003  1.00  0.00    -0.264 NA
ATOM     78  C   UNL     1       2.191   4.815   1.633  1.00  0.00     0.035 A 
ATOM     79  C   UNL     1       1.104   4.329   2.341  1.00  0.00     0.112 A 
BRANCH  76  80
ATOM     80  C   UNL     1       3.930   4.673  -0.097  1.00  0.00     0.254 C 
ATOM     81  O   UNL     1       4.345   5.769   0.277  1.00  0.00    -0.269 OA
ATOM     82  N   UNL     1       4.685   3.888  -0.946  1.00  0.00    -0.339 N 
ATOM     83  C   UNL     1       6.043   3.520  -0.543  1.00  0.00     0.120 C 
ATOM     84  C   UNL     1       4.324   3.795  -2.355  1.00  0.00     0.120 C 
ATOM     85  C   UNL     1       7.130   3.982  -1.513  1.00  0.00     0.025 C 
ATOM     86  C   UNL     1       5.419   4.284  -3.284  1.00  0.00     0.025 C 
ATOM     87  C   UNL     1       6.756   3.601  -2.952  1.00  0.00    -0.003 C 
BRANCH  87  88
ATOM     88  C   UNL     1       7.794   4.016  -4.004  1.00  0.00     0.039 C 
BRANCH  88  89
ATOM     89  C   UNL     1       9.188   3.481  -3.805  1.00  0.00    -0.048 A 
ATOM     90  C   UNL     1      10.248   4.379  -3.613  1.00  0.00     0.004 A 
ATOM     91  C   UNL     1       9.465   2.109  -3.868  1.00  0.00     0.004 A 
ATOM     92  C   UNL     1      11.558   3.918  -3.499  1.00  0.00     0.000 A 
ATOM     93  C   UNL     1      10.779   1.649  -3.752  1.00  0.00     0.000 A 
ATOM     94  C   UNL     1      11.825   2.553  -3.573  1.00  0.00     0.000 A 
ENDBRANCH  88  89
ENDBRANCH  87  88
ENDBRANCH  76  80
ENDBRANCH  72  74
ENDBRANCH  71  72
ENDBRANCH   1  71
TORSDOF 14
