REMARK SMILES CC(C)C[NH2+][C@@H](CC(=O)Nc1cccc(Cl)c1)C(=O)OCCOC(=O)c1ccc(-c2c3nc(c(-c4c(F)c(F)c(F)c(F)c4F)c4ccc([nH]4)c(-c4c(F)c(F)c(F)c(F)c4F)c4nc(c(-c5c(F)c(F)c(F)c(F)c5F)c5ccc2[nH]5)C=C4)C=C3)cc1
REMARK SMILES IDX 21 1 20 2 18 3 19 4 6 5 5 6 4 9 2 10 1 11 3 12 7 13 8 14
REMARK SMILES IDX 9 15 10 16 11 18 12 19 17 20 13 21 15 22 14 23 16 24 22 25
REMARK SMILES IDX 23 26 24 27 25 28 26 29 27 30 88 31 28 32 87 33 29 34 30 35
REMARK SMILES IDX 31 36 81 37 32 38 86 39 80 40 82 41 33 42 85 43 79 44 78 45
REMARK SMILES IDX 34 47 66 48 46 49 65 50 47 51 50 52 64 53 83 54 48 55 49 56
REMARK SMILES IDX 63 58 84 59 51 60 35 61 36 62 44 63 37 64 38 65 42 66 45 67
REMARK SMILES IDX 39 68 40 69 43 70 41 71 67 72 68 73 76 74 69 75 70 76 74 77
REMARK SMILES IDX 77 78 71 79 72 80 75 81 73 82 52 83 53 84 61 85 54 86 55 87
REMARK SMILES IDX 59 88 62 89 56 90 57 91 60 92 58 93
REMARK H PARENT 5 7 5 8 10 17 82 46 50 57
REMARK Flexibility Score: inf
ROOT
ATOM      1  C   UNL     1      -3.869  -3.573   1.804  1.00  0.00     0.274 C 
ENDROOT
BRANCH   1   2
ATOM      2  O   UNL     1      -3.392  -2.292   1.347  1.00  0.00    -0.458 OA
BRANCH   2   3
ATOM      3  C   UNL     1      -4.317  -1.291   1.272  1.00  0.00     0.365 C 
ATOM      4  O   UNL     1      -5.476  -1.379   1.661  1.00  0.00    -0.245 OA
BRANCH   3   5
ATOM      5  C   UNL     1      -3.734  -0.015   0.630  1.00  0.00     0.302 C 
BRANCH   5   6
ATOM      6  N   UNL     1      -2.544   0.441   1.351  1.00  0.00    -0.334 N 
ATOM      7  H   UNL     1      -2.868   0.905   2.199  1.00  0.00     0.347 HD
ATOM      8  H   UNL     1      -1.994  -0.409   1.478  1.00  0.00     0.347 HD
BRANCH   6   9
ATOM      9  C   UNL     1      -1.627   1.352   0.691  1.00  0.00     0.264 C 
BRANCH   9  10
ATOM     10  C   UNL     1       0.145   1.140   0.630  1.00  0.00     0.038 C 
ATOM     11  C   UNL     1       1.374  -0.506  -0.117  1.00  0.00     0.013 C 
ATOM     12  C   UNL     1       0.333   2.873   0.324  1.00  0.00     0.013 C 
ENDBRANCH   9  10
ENDBRANCH   6   9
ENDBRANCH   5   6
BRANCH   5  13
ATOM     13  C   UNL     1      -3.659  -0.180  -0.882  1.00  0.00     0.177 C 
BRANCH  13  14
ATOM     14  C   UNL     1      -2.829  -1.343  -1.368  1.00  0.00     0.231 C 
ATOM     15  O   UNL     1      -3.370  -2.265  -1.986  1.00  0.00    -0.274 OA
ATOM     16  N   UNL     1      -1.482  -1.389  -1.188  1.00  0.00    -0.326 N 
ATOM     17  H   UNL     1      -1.028  -2.157  -1.604  1.00  0.00     0.169 HD
BRANCH  16  18
ATOM     18  C   UNL     1      -0.646  -0.503  -0.498  1.00  0.00     0.042 A 
ATOM     19  C   UNL     1      -0.162  -0.908   1.199  1.00  0.00     0.026 A 
ATOM     20  C   UNL     1       0.309   0.690  -1.451  1.00  0.00     0.046 A 
ATOM     21  C   UNL     1       1.308  -0.162   1.934  1.00  0.00     0.004 A 
ATOM     22  C   UNL     1       1.803   1.391  -0.732  1.00  0.00     0.043 A 
ATOM     23  C   UNL     1       2.263   1.030   0.985  1.00  0.00     0.020 A 
ATOM     24  Cl  UNL     1       2.889   2.283  -1.733  1.00  0.00    -0.084 Cl
ENDBRANCH  16  18
ENDBRANCH  13  14
ENDBRANCH   5  13
ENDBRANCH   3   5
ENDBRANCH   2   3
ENDBRANCH   1   2
BRANCH   1  25
ATOM     25  C   UNL     1      -3.369  -3.897   3.214  1.00  0.00     0.275 C 
BRANCH  25  26
ATOM     26  O   UNL     1      -3.820  -2.920   4.170  1.00  0.00    -0.458 OA
BRANCH  26  27
ATOM     27  C   UNL     1      -2.945  -1.911   4.378  1.00  0.00     0.338 C 
ATOM     28  O   UNL     1      -1.824  -1.795   3.908  1.00  0.00    -0.246 OA
BRANCH  27  29
ATOM     29  C   UNL     1      -3.571  -0.828   5.144  1.00  0.00     0.060 A 
ATOM     30  C   UNL     1      -3.754   0.381   4.478  1.00  0.00     0.016 A 
ATOM     31  C   UNL     1      -3.820  -0.923   6.511  1.00  0.00     0.016 A 
ATOM     32  C   UNL     1      -4.113   1.522   5.169  1.00  0.00     0.010 A 
ATOM     33  C   UNL     1      -4.238   0.220   7.206  1.00  0.00     0.010 A 
ATOM     34  C   UNL     1      -4.359   1.455   6.542  1.00  0.00    -0.014 A 
BRANCH  34  35
ATOM     35  C   UNL     1      -4.698   2.715   7.242  1.00  0.00     0.031 A 
ATOM     36  C   UNL     1      -3.725   3.331   8.203  1.00  0.00     0.074 A 
ATOM     37  C   UNL     1      -5.841   3.350   6.922  1.00  0.00     0.049 A 
ATOM     38  N   UNL     1      -3.830   4.441   8.888  1.00  0.00    -0.248 NA
ATOM     39  C   UNL     1      -2.466   2.605   8.425  1.00  0.00     0.031 C 
ATOM     40  C   UNL     1      -6.832   2.865   5.958  1.00  0.00     0.029 A 
ATOM     41  N   UNL     1      -6.352   4.548   7.350  1.00  0.00    -0.354 N 
ATOM     42  C   UNL     1      -2.665   4.536   9.636  1.00  0.00     0.074 A 
ATOM     43  C   UNL     1      -1.878   3.357   9.345  1.00  0.00     0.031 C 
ATOM     44  C   UNL     1      -7.814   3.770   5.845  1.00  0.00     0.029 A 
ATOM     45  C   UNL     1      -7.556   4.865   6.773  1.00  0.00     0.049 A 
ATOM     46  H   UNL     1      -5.898   5.124   8.007  1.00  0.00     0.167 HD
ATOM     47  C   UNL     1      -2.288   5.524  10.483  1.00  0.00     0.037 A 
ATOM     48  C   UNL     1      -8.373   5.912   6.989  1.00  0.00     0.037 A 
ATOM     49  C   UNL     1      -3.079   6.698  10.755  1.00  0.00     0.049 A 
ATOM     50  C   UNL     1      -7.955   6.961   7.981  1.00  0.00     0.074 A 
ATOM     51  C   UNL     1      -2.789   7.761  11.593  1.00  0.00     0.029 A 
ATOM     52  N   UNL     1      -4.322   6.962  10.195  1.00  0.00    -0.354 N 
ATOM     53  N   UNL     1      -6.853   7.043   8.688  1.00  0.00    -0.248 NA
ATOM     54  C   UNL     1      -8.894   8.068   8.201  1.00  0.00     0.031 C 
ATOM     55  C   UNL     1      -3.883   8.633  11.591  1.00  0.00     0.029 A 
ATOM     56  C   UNL     1      -4.823   8.156  10.691  1.00  0.00     0.049 A 
ATOM     57  H   UNL     1      -4.781   6.385   9.542  1.00  0.00     0.167 HD
ATOM     58  C   UNL     1      -6.952   8.222   9.414  1.00  0.00     0.074 A 
ATOM     59  C   UNL     1      -8.211   8.833   9.040  1.00  0.00     0.031 C 
ATOM     60  C   UNL     1      -6.080   8.751  10.308  1.00  0.00     0.037 A 
BRANCH  47  61
ATOM     61  C   UNL     1      -0.982   5.357  11.210  1.00  0.00     0.064 A 
ATOM     62  C   UNL     1       0.254   5.415  10.548  1.00  0.00     0.173 A 
ATOM     63  C   UNL     1      -0.969   5.162  12.600  1.00  0.00     0.173 A 
ATOM     64  F   UNL     1       0.301   5.586   9.218  1.00  0.00    -0.203 F 
ATOM     65  C   UNL     1       1.450   5.253  11.244  1.00  0.00     0.198 A 
ATOM     66  C   UNL     1       0.229   5.035  13.298  1.00  0.00     0.198 A 
ATOM     67  F   UNL     1      -2.120   5.101  13.286  1.00  0.00    -0.203 F 
ATOM     68  F   UNL     1       2.615   5.256  10.582  1.00  0.00    -0.200 F 
ATOM     69  C   UNL     1       1.437   5.071  12.619  1.00  0.00     0.200 A 
ATOM     70  F   UNL     1       0.214   4.875  14.629  1.00  0.00    -0.200 F 
ATOM     71  F   UNL     1       2.588   4.923  13.288  1.00  0.00    -0.200 F 
ENDBRANCH  47  61
BRANCH  48  72
ATOM     72  C   UNL     1      -9.670   6.006   6.267  1.00  0.00     0.064 A 
ATOM     73  C   UNL     1      -9.919   7.035   5.349  1.00  0.00     0.173 A 
ATOM     74  C   UNL     1     -10.694   5.073   6.492  1.00  0.00     0.173 A 
ATOM     75  F   UNL     1      -8.980   7.965   5.114  1.00  0.00    -0.203 F 
ATOM     76  C   UNL     1     -11.150   7.144   4.705  1.00  0.00     0.198 A 
ATOM     77  C   UNL     1     -11.910   5.160   5.819  1.00  0.00     0.198 A 
ATOM     78  F   UNL     1     -10.508   4.066   7.358  1.00  0.00    -0.203 F 
ATOM     79  F   UNL     1     -11.382   8.171   3.877  1.00  0.00    -0.200 F 
ATOM     80  C   UNL     1     -12.142   6.202   4.936  1.00  0.00     0.200 A 
ATOM     81  F   UNL     1     -12.858   4.237   6.032  1.00  0.00    -0.200 F 
ATOM     82  F   UNL     1     -13.324   6.305   4.314  1.00  0.00    -0.200 F 
ENDBRANCH  48  72
BRANCH  60  83
ATOM     83  C   UNL     1      -6.443  10.084  10.903  1.00  0.00     0.064 A 
ATOM     84  C   UNL     1      -7.530  10.238  11.777  1.00  0.00     0.173 A 
ATOM     85  C   UNL     1      -5.689  11.226  10.589  1.00  0.00     0.173 A 
ATOM     86  F   UNL     1      -8.291   9.182  12.102  1.00  0.00    -0.203 F 
ATOM     87  C   UNL     1      -7.880  11.493  12.270  1.00  0.00     0.198 A 
ATOM     88  C   UNL     1      -6.017  12.471  11.118  1.00  0.00     0.198 A 
ATOM     89  F   UNL     1      -4.633  11.136   9.768  1.00  0.00    -0.203 F 
ATOM     90  F   UNL     1      -8.970  11.627  13.039  1.00  0.00    -0.200 F 
ATOM     91  C   UNL     1      -7.121  12.606  11.945  1.00  0.00     0.200 A 
ATOM     92  F   UNL     1      -5.270  13.542  10.818  1.00  0.00    -0.200 F 
ATOM     93  F   UNL     1      -7.462  13.813  12.418  1.00  0.00    -0.200 F 
ENDBRANCH  60  83
ENDBRANCH  34  35
ENDBRANCH  27  29
ENDBRANCH  26  27
ENDBRANCH  25  26
ENDBRANCH   1  25
TORSDOF 17
