REMARK SMILES O=C(C[C@H]([NH2+]Cc1ccccc1C1CC1)c1cccs1)OCCOC(=O)c1ccc(-c2c3nc(c(-c4c(F)c(F)c(F)c(F)c4F)c4ccc([nH]4)c(-c4c(F)c(F)c(F)c(F)c4F)c4nc(c(-c5c(F)c(F)c(F)c(F)c5F)c5ccc2[nH]5)C=C4)C=C3)cc1
REMARK SMILES IDX 21 1 2 2 1 3 3 4 4 5 16 6 17 7 20 8 18 9 19 10 5 11 6 14
REMARK SMILES IDX 7 15 8 16 12 17 9 18 11 19 10 20 13 21 14 22 15 23 22 24
REMARK SMILES IDX 23 25 24 26 25 27 26 28 27 29 28 30 89 31 29 32 88 33 30 34
REMARK SMILES IDX 31 35 32 36 82 37 33 38 87 39 81 40 83 41 34 42 86 43 80 44
REMARK SMILES IDX 79 45 35 47 67 48 47 49 66 50 48 51 51 52 65 53 84 54 49 55
REMARK SMILES IDX 50 56 64 58 85 59 52 60 36 61 37 62 45 63 38 64 39 65 43 66
REMARK SMILES IDX 46 67 40 68 41 69 44 70 42 71 68 72 69 73 77 74 70 75 71 76
REMARK SMILES IDX 75 77 78 78 72 79 73 80 76 81 74 82 53 83 54 84 62 85 55 86
REMARK SMILES IDX 56 87 60 88 63 89 57 90 58 91 61 92 59 93
REMARK H PARENT 5 12 5 13 83 46 51 57
REMARK Flexibility Score: inf
ROOT
ATOM      1  O   UNL     1       5.457   1.774   0.556  1.00  0.00    -0.462 OA
ENDROOT
BRANCH   1   2
ATOM      2  C   UNL     1       5.808   0.748   1.359  1.00  0.00     0.312 C 
ATOM      3  O   UNL     1       6.993   0.534   1.603  1.00  0.00    -0.252 OA
BRANCH   2   4
ATOM      4  C   UNL     1       4.696  -0.086   1.985  1.00  0.00     0.193 C 
BRANCH   4   5
ATOM      5  C   UNL     1       3.432   0.646   2.443  1.00  0.00     0.235 C 
BRANCH   5   6
ATOM      6  C   UNL     1       3.898   1.825   3.303  1.00  0.00     0.062 A 
ATOM      7  C   UNL     1       4.048   3.167   2.992  1.00  0.00     0.021 A 
ATOM      8  S   UNL     1       4.589   1.494   4.858  1.00  0.00    -0.143 S 
ATOM      9  C   UNL     1       4.927   3.840   3.897  1.00  0.00     0.012 A 
ATOM     10  C   UNL     1       5.346   3.022   4.922  1.00  0.00     0.065 A 
ENDBRANCH   5   6
BRANCH   5  11
ATOM     11  N   UNL     1       2.491   1.014   1.368  1.00  0.00    -0.335 N 
ATOM     12  H   UNL     1       2.945   1.733   0.804  1.00  0.00     0.347 HD
ATOM     13  H   UNL     1       1.646   1.297   1.865  1.00  0.00     0.347 HD
BRANCH  11  14
ATOM     14  C   UNL     1       2.020  -0.054   0.427  1.00  0.00     0.298 C 
BRANCH  14  15
ATOM     15  C   UNL     1       1.165   0.529  -0.713  1.00  0.00     0.010 A 
ATOM     16  C   UNL     1       0.287   1.573  -0.287  1.00  0.00     0.010 A 
ATOM     17  C   UNL     1       1.140   0.141  -2.090  1.00  0.00    -0.036 A 
ATOM     18  C   UNL     1      -0.500   2.315  -1.161  1.00  0.00     0.001 A 
ATOM     19  C   UNL     1       0.372   0.996  -2.945  1.00  0.00     0.004 A 
ATOM     20  C   UNL     1      -0.427   2.050  -2.507  1.00  0.00     0.000 A 
BRANCH  17  21
ATOM     21  C   UNL     1       1.655  -1.084  -2.871  1.00  0.00     0.020 C 
ATOM     22  C   UNL     1       2.967  -1.796  -2.873  1.00  0.00     0.009 C 
ATOM     23  C   UNL     1       1.754  -2.473  -2.313  1.00  0.00     0.009 C 
ENDBRANCH  17  21
ENDBRANCH  14  15
ENDBRANCH  11  14
ENDBRANCH   5  11
ENDBRANCH   4   5
ENDBRANCH   2   4
ENDBRANCH   1   2
BRANCH   1  24
ATOM     24  C   UNL     1       4.963   1.575  -0.778  1.00  0.00     0.274 C 
BRANCH  24  25
ATOM     25  C   UNL     1       5.282   0.273  -1.513  1.00  0.00     0.275 C 
BRANCH  25  26
ATOM     26  O   UNL     1       5.249  -0.879  -0.651  1.00  0.00    -0.458 OA
BRANCH  26  27
ATOM     27  C   UNL     1       6.221  -1.808  -0.817  1.00  0.00     0.338 C 
ATOM     28  O   UNL     1       7.000  -1.876  -1.755  1.00  0.00    -0.246 OA
BRANCH  27  29
ATOM     29  C   UNL     1       6.331  -2.656   0.397  1.00  0.00     0.060 A 
ATOM     30  C   UNL     1       7.474  -2.490   1.184  1.00  0.00     0.016 A 
ATOM     31  C   UNL     1       5.369  -3.604   0.769  1.00  0.00     0.016 A 
ATOM     32  C   UNL     1       7.679  -3.285   2.314  1.00  0.00     0.010 A 
ATOM     33  C   UNL     1       5.580  -4.408   1.911  1.00  0.00     0.010 A 
ATOM     34  C   UNL     1       6.754  -4.275   2.677  1.00  0.00    -0.014 A 
BRANCH  34  35
ATOM     35  C   UNL     1       7.117  -5.193   3.800  1.00  0.00     0.031 A 
ATOM     36  C   UNL     1       7.668  -6.564   3.501  1.00  0.00     0.074 A 
ATOM     37  C   UNL     1       7.100  -4.760   5.076  1.00  0.00     0.049 A 
ATOM     38  N   UNL     1       8.242  -7.426   4.307  1.00  0.00    -0.248 NA
ATOM     39  C   UNL     1       7.567  -7.024   2.109  1.00  0.00     0.031 C 
ATOM     40  C   UNL     1       6.603  -3.458   5.517  1.00  0.00     0.029 A 
ATOM     41  N   UNL     1       7.542  -5.359   6.234  1.00  0.00    -0.354 N 
ATOM     42  C   UNL     1       8.605  -8.508   3.514  1.00  0.00     0.074 A 
ATOM     43  C   UNL     1       8.127  -8.223   2.177  1.00  0.00     0.031 C 
ATOM     44  C   UNL     1       6.783  -3.348   6.844  1.00  0.00     0.029 A 
ATOM     45  C   UNL     1       7.402  -4.572   7.353  1.00  0.00     0.049 A 
ATOM     46  H   UNL     1       7.922  -6.267   6.260  1.00  0.00     0.167 HD
ATOM     47  C   UNL     1       9.297  -9.623   3.857  1.00  0.00     0.037 A 
ATOM     48  C   UNL     1       7.742  -4.801   8.638  1.00  0.00     0.037 A 
ATOM     49  C   UNL     1       9.756  -9.928   5.189  1.00  0.00     0.049 A 
ATOM     50  C   UNL     1       8.458  -6.079   9.004  1.00  0.00     0.074 A 
ATOM     51  C   UNL     1      10.461 -11.037   5.628  1.00  0.00     0.029 A 
ATOM     52  N   UNL     1       9.544  -9.129   6.303  1.00  0.00    -0.354 N 
ATOM     53  N   UNL     1       8.849  -7.064   8.233  1.00  0.00    -0.248 NA
ATOM     54  C   UNL     1       8.799  -6.265  10.424  1.00  0.00     0.031 C 
ATOM     55  C   UNL     1      10.627 -10.936   7.013  1.00  0.00     0.029 A 
ATOM     56  C   UNL     1      10.082  -9.733   7.430  1.00  0.00     0.049 A 
ATOM     57  H   UNL     1       9.081  -8.261   6.294  1.00  0.00     0.167 HD
ATOM     58  C   UNL     1       9.498  -7.970   9.065  1.00  0.00     0.074 A 
ATOM     59  C   UNL     1       9.480  -7.401  10.395  1.00  0.00     0.031 C 
ATOM     60  C   UNL     1      10.055  -9.168   8.756  1.00  0.00     0.037 A 
BRANCH  47  61
ATOM     61  C   UNL     1       9.604 -10.611   2.765  1.00  0.00     0.064 A 
ATOM     62  C   UNL     1      10.535 -10.321   1.756  1.00  0.00     0.173 A 
ATOM     63  C   UNL     1       9.005 -11.879   2.756  1.00  0.00     0.173 A 
ATOM     64  F   UNL     1      11.133  -9.120   1.712  1.00  0.00    -0.203 F 
ATOM     65  C   UNL     1      10.835 -11.253   0.765  1.00  0.00     0.198 A 
ATOM     66  C   UNL     1       9.329 -12.821   1.782  1.00  0.00     0.198 A 
ATOM     67  F   UNL     1       8.115 -12.214   3.703  1.00  0.00    -0.203 F 
ATOM     68  F   UNL     1      11.694 -10.937  -0.213  1.00  0.00    -0.200 F 
ATOM     69  C   UNL     1      10.238 -12.505   0.784  1.00  0.00     0.200 A 
ATOM     70  F   UNL     1       8.764 -14.036   1.812  1.00  0.00    -0.200 F 
ATOM     71  F   UNL     1      10.535 -13.405  -0.164  1.00  0.00    -0.200 F 
ENDBRANCH  47  61
BRANCH  48  72
ATOM     72  C   UNL     1       7.408  -3.801   9.691  1.00  0.00     0.064 A 
ATOM     73  C   UNL     1       8.404  -3.122  10.407  1.00  0.00     0.173 A 
ATOM     74  C   UNL     1       6.072  -3.548  10.040  1.00  0.00     0.173 A 
ATOM     75  F   UNL     1       9.698  -3.350  10.137  1.00  0.00    -0.203 F 
ATOM     76  C   UNL     1       8.079  -2.254  11.450  1.00  0.00     0.198 A 
ATOM     77  C   UNL     1       5.748  -2.653  11.057  1.00  0.00     0.198 A 
ATOM     78  F   UNL     1       5.079  -4.175   9.393  1.00  0.00    -0.203 F 
ATOM     79  F   UNL     1       9.053  -1.672  12.163  1.00  0.00    -0.200 F 
ATOM     80  C   UNL     1       6.751  -2.016  11.770  1.00  0.00     0.200 A 
ATOM     81  F   UNL     1       4.462  -2.420  11.356  1.00  0.00    -0.200 F 
ATOM     82  F   UNL     1       6.439  -1.187  12.775  1.00  0.00    -0.200 F 
ENDBRANCH  48  72
BRANCH  60  83
ATOM     83  C   UNL     1      10.707  -9.935   9.875  1.00  0.00     0.064 A 
ATOM     84  C   UNL     1       9.960 -10.484  10.929  1.00  0.00     0.173 A 
ATOM     85  C   UNL     1      12.098 -10.127   9.894  1.00  0.00     0.173 A 
ATOM     86  F   UNL     1       8.629 -10.324  10.968  1.00  0.00    -0.203 F 
ATOM     87  C   UNL     1      10.584 -11.151  11.982  1.00  0.00     0.198 A 
ATOM     88  C   UNL     1      12.714 -10.827  10.929  1.00  0.00     0.198 A 
ATOM     89  F   UNL     1      12.863  -9.637   8.908  1.00  0.00    -0.203 F 
ATOM     90  F   UNL     1       9.854 -11.601  13.012  1.00  0.00    -0.200 F 
ATOM     91  C   UNL     1      11.959 -11.325  11.979  1.00  0.00     0.200 A 
ATOM     92  F   UNL     1      14.042 -11.011  10.915  1.00  0.00    -0.200 F 
ATOM     93  F   UNL     1      12.557 -11.963  12.995  1.00  0.00    -0.200 F 
ENDBRANCH  60  83
ENDBRANCH  34  35
ENDBRANCH  27  29
ENDBRANCH  26  27
ENDBRANCH  25  26
ENDBRANCH  24  25
ENDBRANCH   1  24
TORSDOF 17
