REMARK SMILES Cc1cc(NS(=O)(=O)CC(=O)OCCOC(=O)c2ccc(-c3c4nc(c(-c5c(F)c(F)c(F)c(F)c5F)c5ccc([nH]5)c(-c5c(F)c(F)c(F)c(F)c5F)c5nc(c(-c6c(F)c(F)c(F)c(F)c6F)c6ccc3[nH]6)C=C5)C=C4)cc2)ccn1
REMARK SMILES IDX 13 1 12 2 10 3 11 4 9 5 6 6 7 7 8 8 5 9 4 11 1 12 2 13 3 14
REMARK SMILES IDX 83 15 82 16 81 17 14 18 15 19 16 20 17 21 18 22 19 23 80 24
REMARK SMILES IDX 20 25 79 26 21 27 22 28 23 29 73 30 24 31 78 32 72 33 74 34
REMARK SMILES IDX 25 35 77 36 71 37 70 38 26 40 58 41 38 42 57 43 39 44 42 45
REMARK SMILES IDX 56 46 75 47 40 48 41 49 55 51 76 52 43 53 27 54 28 55 36 56
REMARK SMILES IDX 29 57 30 58 34 59 37 60 31 61 32 62 35 63 33 64 59 65 60 66
REMARK SMILES IDX 68 67 61 68 62 69 66 70 69 71 63 72 64 73 67 74 65 75 44 76
REMARK SMILES IDX 45 77 53 78 46 79 47 80 51 81 54 82 48 83 49 84 52 85 50 86
REMARK H PARENT 5 10 74 39 42 50
REMARK Flexibility Score: inf
ROOT
ATOM      1  C   UNL     1      -3.754   0.155   3.649  1.00  0.00     0.274 C 
ENDROOT
BRANCH   1   2
ATOM      2  O   UNL     1      -3.787  -0.754   2.522  1.00  0.00    -0.461 OA
BRANCH   2   3
ATOM      3  C   UNL     1      -4.359  -0.269   1.398  1.00  0.00     0.323 C 
ATOM      4  O   UNL     1      -4.776   0.886   1.299  1.00  0.00    -0.251 OA
BRANCH   3   5
ATOM      5  C   UNL     1      -4.440  -1.168   0.221  1.00  0.00     0.282 C 
BRANCH   5   6
ATOM      6  S   UNL     1      -3.908  -2.836   0.388  1.00  0.00     0.243 S 
ATOM      7  O   UNL     1      -4.120  -3.472  -0.898  1.00  0.00    -0.206 OA
ATOM      8  O   UNL     1      -4.523  -3.396   1.574  1.00  0.00    -0.206 OA
BRANCH   6   9
ATOM      9  N   UNL     1      -2.274  -2.786   0.676  1.00  0.00    -0.283 N 
ATOM     10  H   UNL     1      -1.966  -3.123   1.548  1.00  0.00     0.180 HD
BRANCH   9  11
ATOM     11  C   UNL     1      -1.271  -2.299  -0.221  1.00  0.00     0.052 A 
ATOM     12  C   UNL     1       2.373  -1.373   0.145  1.00  0.00     0.067 C 
ATOM     13  C   UNL     1       1.020  -1.604  -0.459  1.00  0.00     0.039 A 
ATOM     14  C   UNL     1       0.028  -2.228   0.287  1.00  0.00     0.050 A 
ATOM     15  N   UNL     1       0.798  -1.139  -1.707  1.00  0.00    -0.261 NA
ATOM     16  C   UNL     1      -0.443  -1.306  -2.215  1.00  0.00     0.113 A 
ATOM     17  C   UNL     1      -1.498  -1.881  -1.524  1.00  0.00     0.047 A 
ENDBRANCH   9  11
ENDBRANCH   6   9
ENDBRANCH   5   6
ENDBRANCH   3   5
ENDBRANCH   2   3
ENDBRANCH   1   2
BRANCH   1  18
ATOM     18  C   UNL     1      -2.409   0.877   3.798  1.00  0.00     0.275 C 
BRANCH  18  19
ATOM     19  O   UNL     1      -2.095   1.716   2.666  1.00  0.00    -0.458 OA
BRANCH  19  20
ATOM     20  C   UNL     1      -1.419   1.056   1.702  1.00  0.00     0.338 C 
ATOM     21  O   UNL     1      -1.120  -0.125   1.733  1.00  0.00    -0.246 OA
BRANCH  20  22
ATOM     22  C   UNL     1      -1.043   1.907   0.566  1.00  0.00     0.060 A 
ATOM     23  C   UNL     1      -1.836   1.931  -0.585  1.00  0.00     0.016 A 
ATOM     24  C   UNL     1       0.227   2.484   0.565  1.00  0.00     0.016 A 
ATOM     25  C   UNL     1      -1.337   2.507  -1.758  1.00  0.00     0.010 A 
ATOM     26  C   UNL     1       0.711   3.083  -0.600  1.00  0.00     0.010 A 
ATOM     27  C   UNL     1      -0.055   3.078  -1.777  1.00  0.00    -0.014 A 
BRANCH  27  28
ATOM     28  C   UNL     1       0.497   3.706  -3.004  1.00  0.00     0.031 A 
ATOM     29  C   UNL     1       1.609   3.054  -3.776  1.00  0.00     0.074 A 
ATOM     30  C   UNL     1       0.033   4.909  -3.389  1.00  0.00     0.049 A 
ATOM     31  N   UNL     1       2.307   3.521  -4.782  1.00  0.00    -0.248 NA
ATOM     32  C   UNL     1       1.974   1.690  -3.377  1.00  0.00     0.031 C 
ATOM     33  C   UNL     1      -1.066   5.630  -2.749  1.00  0.00     0.029 A 
ATOM     34  N   UNL     1       0.457   5.752  -4.385  1.00  0.00    -0.354 N 
ATOM     35  C   UNL     1       3.178   2.502  -5.146  1.00  0.00     0.074 A 
ATOM     36  C   UNL     1       2.937   1.397  -4.242  1.00  0.00     0.031 C 
ATOM     37  C   UNL     1      -1.204   6.826  -3.340  1.00  0.00     0.029 A 
ATOM     38  C   UNL     1      -0.169   6.973  -4.360  1.00  0.00     0.049 A 
ATOM     39  H   UNL     1       1.140   5.506  -5.050  1.00  0.00     0.167 HD
ATOM     40  C   UNL     1       4.095   2.493  -6.144  1.00  0.00     0.037 A 
ATOM     41  C   UNL     1       0.098   8.105  -5.037  1.00  0.00     0.037 A 
ATOM     42  C   UNL     1       4.367   3.610  -7.010  1.00  0.00     0.049 A 
ATOM     43  C   UNL     1       1.221   8.127  -6.033  1.00  0.00     0.074 A 
ATOM     44  C   UNL     1       5.279   3.699  -8.048  1.00  0.00     0.029 A 
ATOM     45  N   UNL     1       3.744   4.845  -6.920  1.00  0.00    -0.354 N 
ATOM     46  N   UNL     1       2.032   7.158  -6.381  1.00  0.00    -0.248 NA
ATOM     47  C   UNL     1       1.473   9.399  -6.723  1.00  0.00     0.031 C 
ATOM     48  C   UNL     1       5.242   5.004  -8.553  1.00  0.00     0.029 A 
ATOM     49  C   UNL     1       4.276   5.714  -7.859  1.00  0.00     0.049 A 
ATOM     50  H   UNL     1       3.028   5.072  -6.282  1.00  0.00     0.167 HD
ATOM     51  C   UNL     1       2.872   7.692  -7.347  1.00  0.00     0.074 A 
ATOM     52  C   UNL     1       2.475   9.073  -7.529  1.00  0.00     0.031 C 
ATOM     53  C   UNL     1       3.874   7.086  -8.028  1.00  0.00     0.037 A 
BRANCH  40  54
ATOM     54  C   UNL     1       4.896   1.242  -6.345  1.00  0.00     0.064 A 
ATOM     55  C   UNL     1       4.347   0.118  -6.980  1.00  0.00     0.173 A 
ATOM     56  C   UNL     1       6.247   1.192  -5.970  1.00  0.00     0.173 A 
ATOM     57  F   UNL     1       3.059   0.117  -7.355  1.00  0.00    -0.203 F 
ATOM     58  C   UNL     1       5.122  -1.013  -7.227  1.00  0.00     0.198 A 
ATOM     59  C   UNL     1       7.022   0.066  -6.234  1.00  0.00     0.198 A 
ATOM     60  F   UNL     1       6.819   2.245  -5.367  1.00  0.00    -0.203 F 
ATOM     61  F   UNL     1       4.575  -2.082  -7.824  1.00  0.00    -0.200 F 
ATOM     62  C   UNL     1       6.459  -1.036  -6.860  1.00  0.00     0.200 A 
ATOM     63  F   UNL     1       8.318   0.050  -5.890  1.00  0.00    -0.200 F 
ATOM     64  F   UNL     1       7.207  -2.119  -7.113  1.00  0.00    -0.200 F 
ENDBRANCH  40  54
BRANCH  41  65
ATOM     65  C   UNL     1      -0.694   9.323  -4.740  1.00  0.00     0.064 A 
ATOM     66  C   UNL     1      -1.647   9.806  -5.645  1.00  0.00     0.173 A 
ATOM     67  C   UNL     1      -0.548   9.996  -3.517  1.00  0.00     0.173 A 
ATOM     68  F   UNL     1      -1.803   9.207  -6.835  1.00  0.00    -0.203 F 
ATOM     69  C   UNL     1      -2.430  10.915  -5.335  1.00  0.00     0.198 A 
ATOM     70  C   UNL     1      -1.349  11.089  -3.199  1.00  0.00     0.198 A 
ATOM     71  F   UNL     1       0.352   9.569  -2.619  1.00  0.00    -0.203 F 
ATOM     72  F   UNL     1      -3.324  11.370  -6.224  1.00  0.00    -0.200 F 
ATOM     73  C   UNL     1      -2.289  11.549  -4.109  1.00  0.00     0.200 A 
ATOM     74  F   UNL     1      -1.219  11.688  -2.007  1.00  0.00    -0.200 F 
ATOM     75  F   UNL     1      -3.058  12.602  -3.804  1.00  0.00    -0.200 F 
ENDBRANCH  41  65
BRANCH  53  76
ATOM     76  C   UNL     1       4.594   7.901  -9.058  1.00  0.00     0.064 A 
ATOM     77  C   UNL     1       5.548   8.862  -8.697  1.00  0.00     0.173 A 
ATOM     78  C   UNL     1       4.357   7.686 -10.424  1.00  0.00     0.173 A 
ATOM     79  F   UNL     1       5.796   9.114  -7.403  1.00  0.00    -0.203 F 
ATOM     80  C   UNL     1       6.230   9.590  -9.668  1.00  0.00     0.198 A 
ATOM     81  C   UNL     1       5.056   8.400 -11.392  1.00  0.00     0.198 A 
ATOM     82  F   UNL     1       3.455   6.774 -10.818  1.00  0.00    -0.203 F 
ATOM     83  F   UNL     1       7.115  10.527  -9.302  1.00  0.00    -0.200 F 
ATOM     84  C   UNL     1       5.988   9.354 -11.014  1.00  0.00     0.200 A 
ATOM     85  F   UNL     1       4.826   8.166 -12.692  1.00  0.00    -0.200 F 
ATOM     86  F   UNL     1       6.650  10.052 -11.947  1.00  0.00    -0.200 F 
ENDBRANCH  53  76
ENDBRANCH  27  28
ENDBRANCH  20  22
ENDBRANCH  19  20
ENDBRANCH  18  19
ENDBRANCH   1  18
TORSDOF 14
