REMARK SMILES Cc1ccc(Cn2c(C)c(C[NH2+]Cc3ccco3)c(C(=O)OCCOC(=O)c3ccc(-c4c5nc(c(-c6c(F)c(F)c(F)c(F)c6F)c6ccc([nH]6)c(-c6c(F)c(F)c(F)c(F)c6F)c6nc(c(-c7c(F)c(F)c(F)c(F)c7F)c7ccc4[nH]7)C=C6)C=C5)cc3)c2C)cc1
REMARK SMILES IDX 23 1 22 2 20 3 21 4 19 5 7 6 8 7 91 8 9 9 10 10 92 11 6 12
REMARK SMILES IDX 5 13 1 14 2 15 3 16 94 17 4 18 93 19 11 20 12 21 13 24 14 25
REMARK SMILES IDX 15 26 18 27 16 28 17 29 24 30 25 31 26 32 27 33 28 34 29 35
REMARK SMILES IDX 90 36 30 37 89 38 31 39 32 40 33 41 83 42 34 43 88 44 82 45
REMARK SMILES IDX 84 46 35 47 87 48 81 49 80 50 36 52 68 53 48 54 67 55 49 56
REMARK SMILES IDX 52 57 66 58 85 59 50 60 51 61 65 63 86 64 53 65 37 66 38 67
REMARK SMILES IDX 46 68 39 69 40 70 44 71 47 72 41 73 42 74 45 75 43 76 69 77
REMARK SMILES IDX 70 78 78 79 71 80 72 81 76 82 79 83 73 84 74 85 77 86 75 87
REMARK SMILES IDX 54 88 55 89 63 90 56 91 57 92 61 93 64 94 58 95 59 96 62 97
REMARK SMILES IDX 60 98
REMARK H PARENT 12 22 12 23 84 51 52 62
REMARK Flexibility Score: inf
ROOT
ATOM      1  C   UNL     1      -4.252  -6.059  -1.531  1.00  0.00     0.275 C 
ENDROOT
BRANCH   1   2
ATOM      2  O   UNL     1      -4.951  -4.793  -1.537  1.00  0.00    -0.458 OA
BRANCH   2   3
ATOM      3  C   UNL     1      -4.179  -3.746  -1.978  1.00  0.00     0.340 C 
ATOM      4  O   UNL     1      -3.026  -3.899  -2.370  1.00  0.00    -0.246 OA
BRANCH   3   5
ATOM      5  C   UNL     1      -4.636  -2.407  -1.629  1.00  0.00     0.089 A 
ATOM      6  N   UNL     1      -4.063  -0.534  -0.561  1.00  0.00    -0.343 N 
ATOM      7  C   UNL     1      -4.935  -0.169  -1.583  1.00  0.00     0.025 A 
ATOM      8  C   UNL     1      -4.134  -1.903  -0.434  1.00  0.00     0.030 A 
ATOM      9  C   UNL     1      -5.329   1.241  -1.893  1.00  0.00     0.065 C 
ATOM     10  C   UNL     1      -5.303  -1.320  -2.310  1.00  0.00     0.042 A 
ATOM     11  C   UNL     1      -3.560  -2.725   0.670  1.00  0.00     0.065 C 
BRANCH   6  12
ATOM     12  C   UNL     1      -3.282   0.355   0.321  1.00  0.00     0.157 C 
BRANCH  12  13
ATOM     13  C   UNL     1      -1.766   0.351   0.133  1.00  0.00    -0.028 A 
ATOM     14  C   UNL     1       2.587   0.447  -0.082  1.00  0.00     0.044 C 
ATOM     15  C   UNL     1       1.089   0.440  -0.000  1.00  0.00    -0.051 A 
ATOM     16  C   UNL     1       0.431  -0.719   0.397  1.00  0.00     0.004 A 
ATOM     17  C   UNL     1       0.318   1.556  -0.339  1.00  0.00     0.004 A 
ATOM     18  C   UNL     1      -0.965  -0.743   0.490  1.00  0.00     0.006 A 
ATOM     19  C   UNL     1      -1.088   1.510  -0.279  1.00  0.00     0.006 A 
ENDBRANCH  12  13
ENDBRANCH   6  12
BRANCH  10  20
ATOM     20  C   UNL     1      -6.093  -1.253  -3.622  1.00  0.00     0.300 C 
BRANCH  20  21
ATOM     21  N   UNL     1      -7.430  -1.851  -3.534  1.00  0.00    -0.336 N 
ATOM     22  H   UNL     1      -7.886  -1.503  -2.691  1.00  0.00     0.346 HD
ATOM     23  H   UNL     1      -7.310  -2.864  -3.512  1.00  0.00     0.346 HD
BRANCH  21  24
ATOM     24  C   UNL     1      -8.287  -1.531  -4.704  1.00  0.00     0.337 C 
BRANCH  24  25
ATOM     25  C   UNL     1      -8.791  -2.712  -5.486  1.00  0.00     0.157 A 
ATOM     26  C   UNL     1      -9.094  -2.913  -6.826  1.00  0.00     0.052 A 
ATOM     27  O   UNL     1      -8.975  -3.881  -4.808  1.00  0.00    -0.463 OA
ATOM     28  C   UNL     1      -9.353  -4.303  -6.981  1.00  0.00     0.042 A 
ATOM     29  C   UNL     1      -9.275  -4.842  -5.720  1.00  0.00     0.195 A 
ENDBRANCH  24  25
ENDBRANCH  21  24
ENDBRANCH  20  21
ENDBRANCH  10  20
ENDBRANCH   3   5
ENDBRANCH   2   3
ENDBRANCH   1   2
BRANCH   1  30
ATOM     30  C   UNL     1      -5.147  -7.267  -1.866  1.00  0.00     0.275 C 
BRANCH  30  31
ATOM     31  O   UNL     1      -5.831  -7.315  -3.138  1.00  0.00    -0.458 OA
BRANCH  31  32
ATOM     32  C   UNL     1      -6.106  -6.136  -3.729  1.00  0.00     0.338 C 
ATOM     33  O   UNL     1      -7.114  -5.481  -3.522  1.00  0.00    -0.246 OA
BRANCH  32  34
ATOM     34  C   UNL     1      -4.948  -5.688  -4.526  1.00  0.00     0.060 A 
ATOM     35  C   UNL     1      -4.830  -4.319  -4.794  1.00  0.00     0.016 A 
ATOM     36  C   UNL     1      -3.880  -6.555  -4.739  1.00  0.00     0.016 A 
ATOM     37  C   UNL     1      -3.625  -3.771  -5.204  1.00  0.00     0.010 A 
ATOM     38  C   UNL     1      -2.660  -6.013  -5.045  1.00  0.00     0.010 A 
ATOM     39  C   UNL     1      -2.551  -4.634  -5.308  1.00  0.00    -0.014 A 
BRANCH  39  40
ATOM     40  C   UNL     1      -1.325  -4.273  -5.975  1.00  0.00     0.031 A 
ATOM     41  C   UNL     1      -0.187  -3.688  -5.254  1.00  0.00     0.074 A 
ATOM     42  C   UNL     1      -1.320  -4.847  -7.198  1.00  0.00     0.049 A 
ATOM     43  N   UNL     1       0.846  -3.214  -5.856  1.00  0.00    -0.248 NA
ATOM     44  C   UNL     1      -0.104  -3.519  -3.803  1.00  0.00     0.031 C 
ATOM     45  C   UNL     1      -0.241  -5.357  -8.013  1.00  0.00     0.029 A 
ATOM     46  N   UNL     1      -2.469  -5.095  -7.972  1.00  0.00    -0.354 N 
ATOM     47  C   UNL     1       1.839  -3.080  -4.908  1.00  0.00     0.074 A 
ATOM     48  C   UNL     1       1.157  -3.090  -3.641  1.00  0.00     0.031 C 
ATOM     49  C   UNL     1      -0.714  -5.585  -9.256  1.00  0.00     0.029 A 
ATOM     50  C   UNL     1      -2.073  -5.063  -9.316  1.00  0.00     0.049 A 
ATOM     51  H   UNL     1      -3.378  -5.261  -7.634  1.00  0.00     0.167 HD
ATOM     52  C   UNL     1       3.132  -3.200  -5.324  1.00  0.00     0.037 A 
ATOM     53  C   UNL     1      -2.499  -3.997 -10.068  1.00  0.00     0.037 A 
ATOM     54  C   UNL     1       3.156  -3.422  -6.768  1.00  0.00     0.049 A 
ATOM     55  C   UNL     1      -1.381  -3.019 -10.332  1.00  0.00     0.074 A 
ATOM     56  C   UNL     1       3.188  -4.561  -7.554  1.00  0.00     0.029 A 
ATOM     57  N   UNL     1       2.708  -2.408  -7.584  1.00  0.00    -0.354 N 
ATOM     58  N   UNL     1      -0.230  -3.057  -9.725  1.00  0.00    -0.248 NA
ATOM     59  C   UNL     1      -1.503  -1.882 -11.237  1.00  0.00     0.031 C 
ATOM     60  C   UNL     1       2.731  -4.205  -8.859  1.00  0.00     0.029 A 
ATOM     61  C   UNL     1       2.414  -2.858  -8.852  1.00  0.00     0.049 A 
ATOM     62  H   UNL     1       2.610  -1.471  -7.296  1.00  0.00     0.167 HD
ATOM     63  C   UNL     1       0.555  -2.045 -10.173  1.00  0.00     0.074 A 
ATOM     64  C   UNL     1      -0.307  -1.293 -11.070  1.00  0.00     0.031 C 
ATOM     65  C   UNL     1       1.857  -1.907  -9.795  1.00  0.00     0.037 A 
BRANCH  52  66
ATOM     66  C   UNL     1       4.355  -3.390  -4.460  1.00  0.00     0.064 A 
ATOM     67  C   UNL     1       5.490  -4.048  -4.992  1.00  0.00     0.173 A 
ATOM     68  C   UNL     1       4.496  -2.950  -3.132  1.00  0.00     0.173 A 
ATOM     69  F   UNL     1       5.527  -4.475  -6.260  1.00  0.00    -0.203 F 
ATOM     70  C   UNL     1       6.641  -4.295  -4.245  1.00  0.00     0.198 A 
ATOM     71  C   UNL     1       5.646  -3.218  -2.375  1.00  0.00     0.198 A 
ATOM     72  F   UNL     1       3.554  -2.208  -2.537  1.00  0.00    -0.203 F 
ATOM     73  F   UNL     1       7.677  -4.928  -4.816  1.00  0.00    -0.200 F 
ATOM     74  C   UNL     1       6.716  -3.894  -2.930  1.00  0.00     0.200 A 
ATOM     75  F   UNL     1       5.716  -2.807  -1.100  1.00  0.00    -0.200 F 
ATOM     76  F   UNL     1       7.819  -4.140  -2.211  1.00  0.00    -0.200 F 
ENDBRANCH  52  66
BRANCH  53  77
ATOM     77  C   UNL     1      -3.898  -3.584  -9.711  1.00  0.00     0.064 A 
ATOM     78  C   UNL     1      -4.866  -4.614  -9.682  1.00  0.00     0.173 A 
ATOM     79  C   UNL     1      -4.128  -2.439  -8.933  1.00  0.00     0.173 A 
ATOM     80  F   UNL     1      -4.717  -5.707 -10.448  1.00  0.00    -0.203 F 
ATOM     81  C   UNL     1      -5.829  -4.636  -8.690  1.00  0.00     0.198 A 
ATOM     82  C   UNL     1      -5.137  -2.439  -7.984  1.00  0.00     0.198 A 
ATOM     83  F   UNL     1      -3.297  -1.390  -8.977  1.00  0.00    -0.203 F 
ATOM     84  F   UNL     1      -6.569  -5.736  -8.485  1.00  0.00    -0.200 F 
ATOM     85  C   UNL     1      -5.905  -3.576  -7.813  1.00  0.00     0.200 A 
ATOM     86  F   UNL     1      -5.271  -1.411  -7.132  1.00  0.00    -0.200 F 
ATOM     87  F   UNL     1      -6.628  -3.704  -6.707  1.00  0.00    -0.200 F 
ENDBRANCH  53  77
BRANCH  65  88
ATOM     88  C   UNL     1       2.728  -0.826 -10.335  1.00  0.00     0.064 A 
ATOM     89  C   UNL     1       2.759  -0.531 -11.703  1.00  0.00     0.173 A 
ATOM     90  C   UNL     1       3.638  -0.126  -9.516  1.00  0.00     0.173 A 
ATOM     91  F   UNL     1       2.001  -1.216 -12.572  1.00  0.00    -0.203 F 
ATOM     92  C   UNL     1       3.581   0.471 -12.206  1.00  0.00     0.198 A 
ATOM     93  C   UNL     1       4.517   0.813 -10.035  1.00  0.00     0.198 A 
ATOM     94  F   UNL     1       3.683  -0.304  -8.188  1.00  0.00    -0.203 F 
ATOM     95  F   UNL     1       3.510   0.792 -13.505  1.00  0.00    -0.200 F 
ATOM     96  C   UNL     1       4.466   1.134 -11.375  1.00  0.00     0.200 A 
ATOM     97  F   UNL     1       5.398   1.414  -9.223  1.00  0.00    -0.200 F 
ATOM     98  F   UNL     1       5.268   2.087 -11.865  1.00  0.00    -0.200 F 
ENDBRANCH  65  88
ENDBRANCH  39  40
ENDBRANCH  32  34
ENDBRANCH  31  32
ENDBRANCH  30  31
ENDBRANCH   1  30
TORSDOF 17
