REMARK SMILES COc1ccc(-c2[nH]nc3nc(-c4ccc(C(F)(F)F)cc4)cc(C(=O)OCCOC(=O)c4ccc(-c5c6nc(c(-c7c(F)c(F)c(F)c(F)c7F)c7ccc([nH]7)c(-c7c(F)c(F)c(F)c(F)c7F)c7nc(c(-c8c(F)c(F)c(F)c(F)c8F)c8ccc5[nH]8)C=C7)C=C6)cc4)c23)cc1
REMARK SMILES IDX 28 1 27 2 25 3 26 4 24 5 7 6 8 7 96 8 9 9 10 11 11 12 23 13
REMARK SMILES IDX 12 14 6 15 3 16 4 17 98 18 5 19 97 20 2 21 1 22 13 23 14 24
REMARK SMILES IDX 22 25 15 26 21 27 16 28 17 29 18 30 19 31 20 32 29 33 30 34
REMARK SMILES IDX 31 35 32 36 33 37 34 38 95 39 35 40 94 41 36 42 37 43 38 44
REMARK SMILES IDX 88 45 39 46 93 47 87 48 89 49 40 50 92 51 86 52 85 53 41 55
REMARK SMILES IDX 73 56 53 57 72 58 54 59 57 60 71 61 90 62 55 63 56 64 70 66
REMARK SMILES IDX 91 67 58 68 42 69 43 70 51 71 44 72 45 73 49 74 52 75 46 76
REMARK SMILES IDX 47 77 50 78 48 79 74 80 75 81 83 82 76 83 77 84 81 85 84 86
REMARK SMILES IDX 78 87 79 88 82 89 80 90 59 91 60 92 68 93 61 94 62 95 66 96
REMARK SMILES IDX 69 97 63 98 64 99 67 100 65 101
REMARK H PARENT 8 10 89 54 57 65
REMARK Flexibility Score: inf
ROOT
ATOM      1  C   UNL     1       5.449  -1.562  -5.438  1.00  0.00     0.275 C 
ENDROOT
BRANCH   1   2
ATOM      2  O   UNL     1       5.138  -0.474  -6.318  1.00  0.00    -0.458 OA
BRANCH   2   3
ATOM      3  C   UNL     1       3.838  -0.095  -6.405  1.00  0.00     0.339 C 
ATOM      4  O   UNL     1       2.873  -0.735  -6.037  1.00  0.00    -0.246 OA
BRANCH   3   5
ATOM      5  C   UNL     1       3.801   1.245  -7.001  1.00  0.00     0.075 A 
ATOM      6  C   UNL     1       1.832   2.406  -5.874  1.00  0.00     0.075 A 
ATOM      7  N   UNL     1       1.312   3.656  -6.144  1.00  0.00    -0.275 N 
ATOM      8  C   UNL     1       2.881   2.283  -6.782  1.00  0.00     0.061 A 
ATOM      9  N   UNL     1       1.936   4.350  -7.103  1.00  0.00    -0.154 NA
ATOM     10  H   UNL     1       0.531   4.014  -5.663  1.00  0.00     0.190 HD
ATOM     11  C   UNL     1       2.906   3.533  -7.504  1.00  0.00     0.182 A 
ATOM     12  N   UNL     1       3.814   3.815  -8.475  1.00  0.00    -0.226 NA
ATOM     13  C   UNL     1       4.737   1.585  -7.994  1.00  0.00     0.045 A 
ATOM     14  C   UNL     1       4.695   2.806  -8.704  1.00  0.00     0.074 A 
BRANCH   6  15
ATOM     15  C   UNL     1       1.309   1.643  -4.732  1.00  0.00     0.001 A 
ATOM     16  C   UNL     1       0.408   0.358  -2.371  1.00  0.00     0.118 A 
ATOM     17  C   UNL     1      -0.503   0.912  -3.271  1.00  0.00     0.047 A 
ATOM     18  C   UNL     1       1.758   0.394  -2.679  1.00  0.00     0.047 A 
ATOM     19  C   UNL     1      -0.058   1.556  -4.440  1.00  0.00     0.014 A 
ATOM     20  C   UNL     1       2.190   1.048  -3.834  1.00  0.00     0.014 A 
BRANCH  16  21
ATOM     21  O   UNL     1      -0.101  -0.257  -1.261  1.00  0.00    -0.497 OA
ATOM     22  C   UNL     1       0.644  -0.032  -0.065  1.00  0.00     0.278 C 
ENDBRANCH  16  21
ENDBRANCH   6  15
BRANCH  14  23
ATOM     23  C   UNL     1       5.588   2.978  -9.868  1.00  0.00     0.000 A 
ATOM     24  C   UNL     1       6.367   4.128 -10.061  1.00  0.00     0.011 A 
ATOM     25  C   UNL     1       5.681   1.955 -10.832  1.00  0.00     0.011 A 
ATOM     26  C   UNL     1       7.225   4.237 -11.166  1.00  0.00     0.014 A 
ATOM     27  C   UNL     1       6.532   2.059 -11.933  1.00  0.00     0.014 A 
ATOM     28  C   UNL     1       7.318   3.201 -12.111  1.00  0.00     0.056 A 
BRANCH  28  29
ATOM     29  C   UNL     1       8.240   3.320 -13.300  1.00  0.00     0.416 C 
ATOM     30  F   UNL     1       7.931   4.376 -14.101  1.00  0.00    -0.166 F 
ATOM     31  F   UNL     1       9.542   3.489 -12.938  1.00  0.00    -0.166 F 
ATOM     32  F   UNL     1       8.222   2.223 -14.110  1.00  0.00    -0.166 F 
ENDBRANCH  28  29
ENDBRANCH  14  23
ENDBRANCH   3   5
ENDBRANCH   2   3
ENDBRANCH   1   2
BRANCH   1  33
ATOM     33  C   UNL     1       6.293  -1.023  -4.296  1.00  0.00     0.275 C 
BRANCH  33  34
ATOM     34  O   UNL     1       5.548  -0.064  -3.551  1.00  0.00    -0.458 OA
BRANCH  34  35
ATOM     35  C   UNL     1       5.766   1.247  -3.819  1.00  0.00     0.338 C 
ATOM     36  O   UNL     1       6.303   1.738  -4.784  1.00  0.00    -0.246 OA
BRANCH  35  37
ATOM     37  C   UNL     1       5.283   1.991  -2.639  1.00  0.00     0.060 A 
ATOM     38  C   UNL     1       5.148   3.381  -2.699  1.00  0.00     0.016 A 
ATOM     39  C   UNL     1       5.062   1.282  -1.446  1.00  0.00     0.016 A 
ATOM     40  C   UNL     1       4.941   4.071  -1.518  1.00  0.00     0.010 A 
ATOM     41  C   UNL     1       4.849   1.962  -0.281  1.00  0.00     0.010 A 
ATOM     42  C   UNL     1       4.880   3.348  -0.321  1.00  0.00    -0.014 A 
BRANCH  42  43
ATOM     43  C   UNL     1       4.807   4.039   0.947  1.00  0.00     0.031 A 
ATOM     44  C   UNL     1       3.451   4.555   1.233  1.00  0.00     0.074 A 
ATOM     45  C   UNL     1       5.858   4.009   1.795  1.00  0.00     0.049 A 
ATOM     46  N   UNL     1       3.074   5.787   1.261  1.00  0.00    -0.248 NA
ATOM     47  C   UNL     1       2.333   3.597   1.314  1.00  0.00     0.031 C 
ATOM     48  C   UNL     1       7.089   3.217   1.650  1.00  0.00     0.029 A 
ATOM     49  N   UNL     1       6.016   4.592   3.019  1.00  0.00    -0.354 N 
ATOM     50  C   UNL     1       1.736   5.757   1.649  1.00  0.00     0.074 A 
ATOM     51  C   UNL     1       1.283   4.414   1.427  1.00  0.00     0.031 C 
ATOM     52  C   UNL     1       7.754   3.186   2.827  1.00  0.00     0.029 A 
ATOM     53  C   UNL     1       7.089   4.079   3.755  1.00  0.00     0.049 A 
ATOM     54  H   UNL     1       5.429   5.308   3.354  1.00  0.00     0.167 HD
ATOM     55  C   UNL     1       1.259   6.736   2.467  1.00  0.00     0.037 A 
ATOM     56  C   UNL     1       7.371   4.358   5.052  1.00  0.00     0.037 A 
ATOM     57  C   UNL     1       2.173   7.851   2.477  1.00  0.00     0.049 A 
ATOM     58  C   UNL     1       6.680   5.625   5.383  1.00  0.00     0.074 A 
ATOM     59  C   UNL     1       2.500   8.885   1.628  1.00  0.00     0.029 A 
ATOM     60  N   UNL     1       3.221   7.681   3.342  1.00  0.00    -0.354 N 
ATOM     61  N   UNL     1       6.997   6.770   4.842  1.00  0.00    -0.248 NA
ATOM     62  C   UNL     1       5.362   5.569   6.005  1.00  0.00     0.031 C 
ATOM     63  C   UNL     1       3.845   9.246   1.943  1.00  0.00     0.029 A 
ATOM     64  C   UNL     1       4.282   8.477   3.019  1.00  0.00     0.049 A 
ATOM     65  H   UNL     1       3.211   7.059   4.105  1.00  0.00     0.167 HD
ATOM     66  C   UNL     1       5.788   7.418   4.681  1.00  0.00     0.074 A 
ATOM     67  C   UNL     1       4.851   6.717   5.552  1.00  0.00     0.031 C 
ATOM     68  C   UNL     1       5.577   8.235   3.610  1.00  0.00     0.037 A 
BRANCH  55  69
ATOM     69  C   UNL     1       0.336   6.502   3.652  1.00  0.00     0.064 A 
ATOM     70  C   UNL     1      -0.085   7.618   4.407  1.00  0.00     0.173 A 
ATOM     71  C   UNL     1       0.123   5.248   4.268  1.00  0.00     0.173 A 
ATOM     72  F   UNL     1       0.078   8.863   3.934  1.00  0.00    -0.203 F 
ATOM     73  C   UNL     1      -0.598   7.490   5.702  1.00  0.00     0.198 A 
ATOM     74  C   UNL     1      -0.430   5.122   5.542  1.00  0.00     0.198 A 
ATOM     75  F   UNL     1       0.537   4.099   3.725  1.00  0.00    -0.203 F 
ATOM     76  F   UNL     1      -0.870   8.585   6.424  1.00  0.00    -0.200 F 
ATOM     77  C   UNL     1      -0.762   6.241   6.271  1.00  0.00     0.200 A 
ATOM     78  F   UNL     1      -0.557   3.902   6.084  1.00  0.00    -0.200 F 
ATOM     79  F   UNL     1      -1.195   6.116   7.533  1.00  0.00    -0.200 F 
ENDBRANCH  55  69
BRANCH  56  80
ATOM     80  C   UNL     1       7.924   3.461   6.094  1.00  0.00     0.064 A 
ATOM     81  C   UNL     1       8.543   3.962   7.251  1.00  0.00     0.173 A 
ATOM     82  C   UNL     1       7.588   2.094   6.105  1.00  0.00     0.173 A 
ATOM     83  F   UNL     1       8.851   5.264   7.339  1.00  0.00    -0.203 F 
ATOM     84  C   UNL     1       8.790   3.146   8.363  1.00  0.00     0.198 A 
ATOM     85  C   UNL     1       7.832   1.282   7.214  1.00  0.00     0.198 A 
ATOM     86  F   UNL     1       6.923   1.548   5.076  1.00  0.00    -0.203 F 
ATOM     87  F   UNL     1       9.331   3.670   9.472  1.00  0.00    -0.200 F 
ATOM     88  C   UNL     1       8.423   1.810   8.347  1.00  0.00     0.200 A 
ATOM     89  F   UNL     1       7.430   0.003   7.203  1.00  0.00    -0.200 F 
ATOM     90  F   UNL     1       8.598   1.045   9.434  1.00  0.00    -0.200 F 
ENDBRANCH  56  80
BRANCH  68  91
ATOM     91  C   UNL     1       6.775   8.814   2.931  1.00  0.00     0.064 A 
ATOM     92  C   UNL     1       7.696   8.083   2.164  1.00  0.00     0.173 A 
ATOM     93  C   UNL     1       6.933  10.204   2.990  1.00  0.00     0.173 A 
ATOM     94  F   UNL     1       7.564   6.759   2.007  1.00  0.00    -0.203 F 
ATOM     95  C   UNL     1       8.746   8.724   1.507  1.00  0.00     0.198 A 
ATOM     96  C   UNL     1       7.959  10.844   2.307  1.00  0.00     0.198 A 
ATOM     97  F   UNL     1       6.054  10.949   3.679  1.00  0.00    -0.203 F 
ATOM     98  F   UNL     1       9.624   8.011   0.785  1.00  0.00    -0.200 F 
ATOM     99  C   UNL     1       8.871  10.104   1.573  1.00  0.00     0.200 A 
ATOM    100  F   UNL     1       8.046  12.180   2.341  1.00  0.00    -0.200 F 
ATOM    101  F   UNL     1       9.858  10.725   0.912  1.00  0.00    -0.200 F 
ENDBRANCH  68  91
ENDBRANCH  42  43
ENDBRANCH  35  37
ENDBRANCH  34  35
ENDBRANCH  33  34
ENDBRANCH   1  33
TORSDOF 15
