REMARK SMILES O=C(OCCOC(=O)c1ccc2c(=O)n(CCc3c[nH]c4ccccc34)c(=O)[nH]c2c1)c1ccc(-c2c3nc(c(-c4c(F)c(F)c(F)c(F)c4F)c4ccc([nH]4)c(-c4c(F)c(F)c(F)c(F)c4F)c4nc(c(-c5c(F)c(F)c(F)c(F)c5F)c5ccc2[nH]5)C=C4)C=C3)cc1
REMARK SMILES IDX 5 1 4 2 3 3 2 4 1 5 32 6 33 7 94 8 34 9 93 10 35 11 36 12
REMARK SMILES IDX 37 13 87 14 38 15 92 16 86 17 88 18 39 19 91 20 85 21 84 22
REMARK SMILES IDX 40 24 72 25 52 26 71 27 53 28 56 29 70 30 89 31 54 32 55 33
REMARK SMILES IDX 69 35 90 36 57 37 41 38 42 39 50 40 43 41 44 42 48 43 51 44
REMARK SMILES IDX 45 45 46 46 49 47 47 48 73 49 74 50 82 51 75 52 76 53 80 54
REMARK SMILES IDX 83 55 77 56 78 57 81 58 79 59 58 60 59 61 67 62 60 63 61 64
REMARK SMILES IDX 65 65 68 66 62 67 63 68 66 69 64 70 6 71 7 72 8 73 9 74
REMARK SMILES IDX 10 75 31 76 11 77 30 78 12 79 29 80 13 81 27 82 14 84 15 85
REMARK SMILES IDX 28 86 16 87 17 88 18 89 19 90 26 91 20 92 21 93 25 94 22 96
REMARK SMILES IDX 24 97 23 98
REMARK H PARENT 88 23 56 34 29 83 20 95
REMARK Flexibility Score: inf
ROOT
ATOM      1  C   UNL     1       2.869  -0.694   1.396  1.00  0.00     0.275 C 
ENDROOT
BRANCH   1   2
ATOM      2  C   UNL     1       3.599   0.631   1.129  1.00  0.00     0.275 C 
BRANCH   2   3
ATOM      3  O   UNL     1       4.304   0.693  -0.124  1.00  0.00    -0.458 OA
BRANCH   3   4
ATOM      4  C   UNL     1       3.668   0.386  -1.264  1.00  0.00     0.338 C 
ATOM      5  O   UNL     1       2.495   0.629  -1.543  1.00  0.00    -0.246 OA
BRANCH   4   6
ATOM      6  C   UNL     1       4.564  -0.516  -2.041  1.00  0.00     0.060 A 
ATOM      7  C   UNL     1       4.091  -1.028  -3.238  1.00  0.00     0.016 A 
ATOM      8  C   UNL     1       5.763  -1.037  -1.506  1.00  0.00     0.016 A 
ATOM      9  C   UNL     1       4.727  -2.140  -3.792  1.00  0.00     0.010 A 
ATOM     10  C   UNL     1       6.445  -2.109  -2.118  1.00  0.00     0.010 A 
ATOM     11  C   UNL     1       5.915  -2.709  -3.257  1.00  0.00    -0.014 A 
BRANCH  11  12
ATOM     12  C   UNL     1       6.570  -3.789  -4.065  1.00  0.00     0.031 A 
ATOM     13  C   UNL     1       6.671  -5.253  -3.674  1.00  0.00     0.074 A 
ATOM     14  C   UNL     1       6.792  -3.456  -5.352  1.00  0.00     0.049 A 
ATOM     15  N   UNL     1       6.514  -6.303  -4.456  1.00  0.00    -0.248 NA
ATOM     16  C   UNL     1       6.859  -5.627  -2.267  1.00  0.00     0.031 C 
ATOM     17  C   UNL     1       6.699  -2.096  -5.904  1.00  0.00     0.029 A 
ATOM     18  N   UNL     1       7.053  -4.239  -6.439  1.00  0.00    -0.354 N 
ATOM     19  C   UNL     1       6.330  -7.407  -3.617  1.00  0.00     0.074 A 
ATOM     20  C   UNL     1       6.556  -6.931  -2.276  1.00  0.00     0.031 C 
ATOM     21  C   UNL     1       6.827  -2.154  -7.232  1.00  0.00     0.029 A 
ATOM     22  C   UNL     1       7.170  -3.519  -7.597  1.00  0.00     0.049 A 
ATOM     23  H   UNL     1       7.147  -5.218  -6.395  1.00  0.00     0.167 HD
ATOM     24  C   UNL     1       5.781  -8.592  -4.005  1.00  0.00     0.037 A 
ATOM     25  C   UNL     1       7.633  -3.903  -8.797  1.00  0.00     0.037 A 
ATOM     26  C   UNL     1       6.006  -9.114  -5.331  1.00  0.00     0.049 A 
ATOM     27  C   UNL     1       7.872  -5.360  -9.004  1.00  0.00     0.074 A 
ATOM     28  C   UNL     1       5.927 -10.427  -5.763  1.00  0.00     0.029 A 
ATOM     29  N   UNL     1       6.508  -8.375  -6.388  1.00  0.00    -0.354 N 
ATOM     30  N   UNL     1       7.433  -6.362  -8.281  1.00  0.00    -0.248 NA
ATOM     31  C   UNL     1       8.689  -5.748 -10.152  1.00  0.00     0.031 C 
ATOM     32  C   UNL     1       6.559 -10.503  -7.012  1.00  0.00     0.029 A 
ATOM     33  C   UNL     1       6.940  -9.225  -7.389  1.00  0.00     0.049 A 
ATOM     34  H   UNL     1       6.551  -7.392  -6.422  1.00  0.00     0.167 HD
ATOM     35  C   UNL     1       7.899  -7.508  -8.899  1.00  0.00     0.074 A 
ATOM     36  C   UNL     1       8.662  -7.072 -10.053  1.00  0.00     0.031 C 
ATOM     37  C   UNL     1       7.697  -8.798  -8.538  1.00  0.00     0.037 A 
BRANCH  24  38
ATOM     38  C   UNL     1       4.998  -9.471  -3.062  1.00  0.00     0.064 A 
ATOM     39  C   UNL     1       3.593  -9.572  -3.186  1.00  0.00     0.173 A 
ATOM     40  C   UNL     1       5.626 -10.394  -2.224  1.00  0.00     0.173 A 
ATOM     41  F   UNL     1       2.931  -8.785  -4.045  1.00  0.00    -0.203 F 
ATOM     42  C   UNL     1       2.859 -10.537  -2.491  1.00  0.00     0.198 A 
ATOM     43  C   UNL     1       4.893 -11.370  -1.542  1.00  0.00     0.198 A 
ATOM     44  F   UNL     1       6.962 -10.394  -2.119  1.00  0.00    -0.203 F 
ATOM     45  F   UNL     1       1.530 -10.624  -2.650  1.00  0.00    -0.200 F 
ATOM     46  C   UNL     1       3.513 -11.441  -1.673  1.00  0.00     0.200 A 
ATOM     47  F   UNL     1       5.532 -12.272  -0.785  1.00  0.00    -0.200 F 
ATOM     48  F   UNL     1       2.822 -12.397  -1.035  1.00  0.00    -0.200 F 
ENDBRANCH  24  38
BRANCH  25  49
ATOM     49  C   UNL     1       8.087  -2.844  -9.730  1.00  0.00     0.064 A 
ATOM     50  C   UNL     1       7.559  -2.680 -11.011  1.00  0.00     0.173 A 
ATOM     51  C   UNL     1       9.056  -1.915  -9.297  1.00  0.00     0.173 A 
ATOM     52  F   UNL     1       6.663  -3.556 -11.487  1.00  0.00    -0.203 F 
ATOM     53  C   UNL     1       7.958  -1.607 -11.810  1.00  0.00     0.198 A 
ATOM     54  C   UNL     1       9.414  -0.822 -10.072  1.00  0.00     0.198 A 
ATOM     55  F   UNL     1       9.621  -2.044  -8.085  1.00  0.00    -0.203 F 
ATOM     56  F   UNL     1       7.457  -1.474 -13.045  1.00  0.00    -0.200 F 
ATOM     57  C   UNL     1       8.866  -0.669 -11.332  1.00  0.00     0.200 A 
ATOM     58  F   UNL     1      10.272   0.087  -9.588  1.00  0.00    -0.200 F 
ATOM     59  F   UNL     1       9.216   0.379 -12.089  1.00  0.00    -0.200 F 
ENDBRANCH  25  49
BRANCH  37  60
ATOM     60  C   UNL     1       8.295  -9.851  -9.412  1.00  0.00     0.064 A 
ATOM     61  C   UNL     1       9.677 -10.083  -9.431  1.00  0.00     0.173 A 
ATOM     62  C   UNL     1       7.475 -10.657 -10.213  1.00  0.00     0.173 A 
ATOM     63  F   UNL     1      10.500  -9.327  -8.688  1.00  0.00    -0.203 F 
ATOM     64  C   UNL     1      10.220 -11.070 -10.246  1.00  0.00     0.198 A 
ATOM     65  C   UNL     1       8.018 -11.664 -11.002  1.00  0.00     0.198 A 
ATOM     66  F   UNL     1       6.146 -10.477 -10.217  1.00  0.00    -0.203 F 
ATOM     67  F   UNL     1      11.548 -11.244 -10.289  1.00  0.00    -0.200 F 
ATOM     68  C   UNL     1       9.391 -11.864 -11.025  1.00  0.00     0.200 A 
ATOM     69  F   UNL     1       7.214 -12.440 -11.741  1.00  0.00    -0.200 F 
ATOM     70  F   UNL     1       9.915 -12.818 -11.806  1.00  0.00    -0.200 F 
ENDBRANCH  37  60
ENDBRANCH  11  12
ENDBRANCH   4   6
ENDBRANCH   3   4
ENDBRANCH   2   3
ENDBRANCH   1   2
BRANCH   1  71
ATOM     71  O   UNL     1       1.566  -0.781   0.779  1.00  0.00    -0.458 OA
BRANCH  71  72
ATOM     72  C   UNL     1       0.719  -1.668   1.385  1.00  0.00     0.338 C 
ATOM     73  O   UNL     1       0.807  -2.054   2.534  1.00  0.00    -0.246 OA
BRANCH  72  74
ATOM     74  C   UNL     1      -0.126  -2.367   0.367  1.00  0.00     0.062 A 
ATOM     75  C   UNL     1      -0.214  -3.766   0.497  1.00  0.00     0.016 A 
ATOM     76  C   UNL     1      -0.602  -1.744  -0.797  1.00  0.00     0.042 A 
ATOM     77  C   UNL     1      -0.658  -4.552  -0.570  1.00  0.00     0.017 A 
ATOM     78  C   UNL     1      -1.024  -2.542  -1.873  1.00  0.00     0.056 A 
ATOM     79  C   UNL     1      -1.014  -3.935  -1.772  1.00  0.00     0.064 A 
ATOM     80  N   UNL     1      -1.256  -1.956  -3.121  1.00  0.00    -0.307 N 
ATOM     81  C   UNL     1      -1.125  -4.739  -3.011  1.00  0.00     0.264 A 
ATOM     82  C   UNL     1      -1.226  -2.656  -4.299  1.00  0.00     0.328 A 
ATOM     83  H   UNL     1      -1.452  -0.992  -3.155  1.00  0.00     0.171 HD
ATOM     84  O   UNL     1      -1.222  -5.960  -2.933  1.00  0.00    -0.268 OA
ATOM     85  N   UNL     1      -1.041  -4.025  -4.205  1.00  0.00    -0.260 N 
ATOM     86  O   UNL     1      -1.276  -2.041  -5.364  1.00  0.00    -0.248 OA
BRANCH  85  87
ATOM     87  C   UNL     1      -0.647  -4.741  -5.418  1.00  0.00     0.136 C 
BRANCH  87  88
ATOM     88  C   UNL     1       0.797  -4.407  -5.837  1.00  0.00     0.060 C 
BRANCH  88  89
ATOM     89  C   UNL     1       1.836  -4.897  -4.885  1.00  0.00    -0.021 A 
ATOM     90  C   UNL     1       2.642  -5.985  -5.119  1.00  0.00     0.087 A 
ATOM     91  C   UNL     1       2.237  -4.365  -3.615  1.00  0.00     0.003 A 
ATOM     92  N   UNL     1       3.579  -5.998  -4.136  1.00  0.00    -0.361 N 
ATOM     93  C   UNL     1       3.213  -5.201  -3.088  1.00  0.00     0.046 A 
ATOM     94  C   UNL     1       1.909  -3.237  -2.857  1.00  0.00     0.010 A 
ATOM     95  H   UNL     1       4.415  -6.516  -4.174  1.00  0.00     0.166 HD
ATOM     96  C   UNL     1       3.733  -5.063  -1.792  1.00  0.00     0.026 A 
ATOM     97  C   UNL     1       2.456  -3.062  -1.580  1.00  0.00     0.001 A 
ATOM     98  C   UNL     1       3.335  -3.975  -1.031  1.00  0.00     0.002 A 
ENDBRANCH  88  89
ENDBRANCH  87  88
ENDBRANCH  85  87
ENDBRANCH  72  74
ENDBRANCH  71  72
ENDBRANCH   1  71
TORSDOF 14
