REMARK SMILES C[C@@H](C(=O)OCCOC(=O)c1ccc(-c2c3nc(c(-c4c(F)c(F)c(F)c(F)c4F)c4ccc([nH]4)c(-c4c(F)c(F)c(F)c(F)c4F)c4nc(c(-c5c(F)c(F)c(F)c(F)c5F)c5ccc2[nH]5)C=C4)C=C3)cc1)c1ccc(-c2ccccc2)c(F)c1
REMARK SMILES IDX 6 1 5 2 3 3 4 4 2 5 1 6 74 7 75 8 86 9 76 10 84 11 77 12
REMARK SMILES IDX 85 13 78 14 79 15 83 16 80 17 82 18 81 19 7 20 8 21 9 22
REMARK SMILES IDX 10 23 11 24 12 25 73 26 13 27 72 28 14 29 15 30 16 31 66 32
REMARK SMILES IDX 17 33 71 34 65 35 67 36 18 37 70 38 64 39 63 40 19 42 51 43
REMARK SMILES IDX 31 44 50 45 32 46 35 47 49 48 68 49 33 50 34 51 48 53 69 54
REMARK SMILES IDX 36 55 20 56 21 57 29 58 22 59 23 60 27 61 30 62 24 63 25 64
REMARK SMILES IDX 28 65 26 66 52 67 53 68 61 69 54 70 55 71 59 72 62 73 56 74
REMARK SMILES IDX 57 75 60 76 58 77 37 78 38 79 46 80 39 81 40 82 44 83 47 84
REMARK SMILES IDX 41 85 42 86 45 87 43 88
REMARK H PARENT 67 41 35 52
REMARK Flexibility Score: inf
ROOT
ATOM      1  C   UNL     1       2.680  -0.577   3.475  1.00  0.00     0.274 C 
ENDROOT
BRANCH   1   2
ATOM      2  O   UNL     1       2.219  -0.571   2.108  1.00  0.00    -0.462 OA
BRANCH   2   3
ATOM      3  C   UNL     1       1.162  -1.376   1.811  1.00  0.00     0.313 C 
ATOM      4  O   UNL     1       0.630  -2.134   2.616  1.00  0.00    -0.252 OA
BRANCH   3   5
ATOM      5  C   UNL     1       0.737  -1.272   0.338  1.00  0.00     0.126 C 
ATOM      6  C   UNL     1       1.429  -0.127  -0.410  1.00  0.00     0.025 C 
BRANCH   5   7
ATOM      7  C   UNL     1      -0.785  -1.252   0.198  1.00  0.00    -0.031 A 
ATOM      8  C   UNL     1      -1.522  -0.073   0.041  1.00  0.00     0.005 A 
ATOM      9  C   UNL     1      -1.503  -2.454   0.286  1.00  0.00     0.044 A 
ATOM     10  C   UNL     1      -2.927  -0.096   0.002  1.00  0.00     0.012 A 
ATOM     11  C   UNL     1      -2.902  -2.467   0.244  1.00  0.00     0.131 A 
ATOM     12  C   UNL     1      -3.661  -1.291   0.125  1.00  0.00     0.017 A 
ATOM     13  F   UNL     1      -3.503  -3.663   0.346  1.00  0.00    -0.206 F 
BRANCH  12  14
ATOM     14  C   UNL     1      -5.147  -1.273   0.201  1.00  0.00    -0.015 A 
ATOM     15  C   UNL     1      -5.911  -0.298  -0.471  1.00  0.00     0.009 A 
ATOM     16  C   UNL     1      -5.859  -2.193   0.994  1.00  0.00     0.009 A 
ATOM     17  C   UNL     1      -7.303  -0.230  -0.335  1.00  0.00     0.001 A 
ATOM     18  C   UNL     1      -7.253  -2.142   1.114  1.00  0.00     0.001 A 
ATOM     19  C   UNL     1      -7.974  -1.151   0.460  1.00  0.00     0.000 A 
ENDBRANCH  12  14
ENDBRANCH   5   7
ENDBRANCH   3   5
ENDBRANCH   2   3
ENDBRANCH   1   2
BRANCH   1  20
ATOM     20  C   UNL     1       2.212   0.685   4.193  1.00  0.00     0.275 C 
BRANCH  20  21
ATOM     21  O   UNL     1       0.781   0.654   4.329  1.00  0.00    -0.458 OA
BRANCH  21  22
ATOM     22  C   UNL     1       0.101   1.647   3.718  1.00  0.00     0.338 C 
ATOM     23  O   UNL     1       0.559   2.602   3.108  1.00  0.00    -0.246 OA
BRANCH  22  24
ATOM     24  C   UNL     1      -1.345   1.426   3.882  1.00  0.00     0.060 A 
ATOM     25  C   UNL     1      -1.914   0.222   3.475  1.00  0.00     0.016 A 
ATOM     26  C   UNL     1      -2.157   2.468   4.333  1.00  0.00     0.016 A 
ATOM     27  C   UNL     1      -3.301   0.096   3.428  1.00  0.00     0.010 A 
ATOM     28  C   UNL     1      -3.547   2.305   4.360  1.00  0.00     0.010 A 
ATOM     29  C   UNL     1      -4.141   1.135   3.857  1.00  0.00    -0.014 A 
BRANCH  29  30
ATOM     30  C   UNL     1      -5.622   1.019   3.704  1.00  0.00     0.031 A 
ATOM     31  C   UNL     1      -6.385   2.029   2.884  1.00  0.00     0.074 A 
ATOM     32  C   UNL     1      -6.291  -0.020   4.243  1.00  0.00     0.049 A 
ATOM     33  N   UNL     1      -7.680   2.189   2.756  1.00  0.00    -0.248 NA
ATOM     34  C   UNL     1      -5.591   3.008   2.124  1.00  0.00     0.031 C 
ATOM     35  C   UNL     1      -5.689  -1.113   5.005  1.00  0.00     0.029 A 
ATOM     36  N   UNL     1      -7.622  -0.355   4.184  1.00  0.00    -0.354 N 
ATOM     37  C   UNL     1      -7.850   3.333   1.987  1.00  0.00     0.074 A 
ATOM     38  C   UNL     1      -6.529   3.814   1.648  1.00  0.00     0.031 C 
ATOM     39  C   UNL     1      -6.619  -2.052   5.235  1.00  0.00     0.029 A 
ATOM     40  C   UNL     1      -7.903  -1.586   4.722  1.00  0.00     0.049 A 
ATOM     41  H   UNL     1      -8.309   0.232   3.792  1.00  0.00     0.167 HD
ATOM     42  C   UNL     1      -9.006   3.935   1.617  1.00  0.00     0.037 A 
ATOM     43  C   UNL     1      -9.063  -2.266   4.790  1.00  0.00     0.037 A 
ATOM     44  C   UNL     1     -10.319   3.399   1.864  1.00  0.00     0.049 A 
ATOM     45  C   UNL     1     -10.327  -1.619   4.299  1.00  0.00     0.074 A 
ATOM     46  C   UNL     1     -11.552   3.950   1.558  1.00  0.00     0.029 A 
ATOM     47  N   UNL     1     -10.565   2.161   2.437  1.00  0.00    -0.354 N 
ATOM     48  N   UNL     1     -10.488  -0.473   3.687  1.00  0.00    -0.248 NA
ATOM     49  C   UNL     1     -11.580  -2.348   4.549  1.00  0.00     0.031 C 
ATOM     50  C   UNL     1     -12.546   3.049   1.956  1.00  0.00     0.029 A 
ATOM     51  C   UNL     1     -11.930   1.926   2.484  1.00  0.00     0.049 A 
ATOM     52  H   UNL     1      -9.873   1.541   2.763  1.00  0.00     0.167 HD
ATOM     53  C   UNL     1     -11.856  -0.328   3.504  1.00  0.00     0.074 A 
ATOM     54  C   UNL     1     -12.478  -1.532   4.016  1.00  0.00     0.031 C 
ATOM     55  C   UNL     1     -12.536   0.725   2.992  1.00  0.00     0.037 A 
BRANCH  42  56
ATOM     56  C   UNL     1      -8.912   5.276   0.952  1.00  0.00     0.064 A 
ATOM     57  C   UNL     1      -8.538   5.420  -0.390  1.00  0.00     0.173 A 
ATOM     58  C   UNL     1      -9.251   6.434   1.670  1.00  0.00     0.173 A 
ATOM     59  F   UNL     1      -8.189   4.345  -1.113  1.00  0.00    -0.203 F 
ATOM     60  C   UNL     1      -8.491   6.679  -0.986  1.00  0.00     0.198 A 
ATOM     61  C   UNL     1      -9.226   7.687   1.065  1.00  0.00     0.198 A 
ATOM     62  F   UNL     1      -9.621   6.348   2.957  1.00  0.00    -0.203 F 
ATOM     63  F   UNL     1      -8.098   6.800  -2.261  1.00  0.00    -0.200 F 
ATOM     64  C   UNL     1      -8.842   7.809  -0.261  1.00  0.00     0.200 A 
ATOM     65  F   UNL     1      -9.576   8.776   1.765  1.00  0.00    -0.200 F 
ATOM     66  F   UNL     1      -8.806   9.018  -0.840  1.00  0.00    -0.200 F 
ENDBRANCH  42  56
BRANCH  43  67
ATOM     67  C   UNL     1      -9.084  -3.648   5.334  1.00  0.00     0.064 A 
ATOM     68  C   UNL     1      -9.342  -4.735   4.487  1.00  0.00     0.173 A 
ATOM     69  C   UNL     1      -8.842  -3.917   6.688  1.00  0.00     0.173 A 
ATOM     70  F   UNL     1      -9.604  -4.523   3.188  1.00  0.00    -0.203 F 
ATOM     71  C   UNL     1      -9.361  -6.039   4.976  1.00  0.00     0.198 A 
ATOM     72  C   UNL     1      -8.832  -5.224   7.170  1.00  0.00     0.198 A 
ATOM     73  F   UNL     1      -8.595  -2.911   7.539  1.00  0.00    -0.203 F 
ATOM     74  F   UNL     1      -9.647  -7.057   4.152  1.00  0.00    -0.200 F 
ATOM     75  C   UNL     1      -9.097  -6.283   6.315  1.00  0.00     0.200 A 
ATOM     76  F   UNL     1      -8.564  -5.457   8.462  1.00  0.00    -0.200 F 
ATOM     77  F   UNL     1      -9.105  -7.538   6.783  1.00  0.00    -0.200 F 
ENDBRANCH  43  67
BRANCH  55  78
ATOM     78  C   UNL     1     -14.031   0.630   2.972  1.00  0.00     0.064 A 
ATOM     79  C   UNL     1     -14.781   0.787   4.146  1.00  0.00     0.173 A 
ATOM     80  C   UNL     1     -14.721   0.422   1.770  1.00  0.00     0.173 A 
ATOM     81  F   UNL     1     -14.163   0.976   5.322  1.00  0.00    -0.203 F 
ATOM     82  C   UNL     1     -16.171   0.721   4.121  1.00  0.00     0.198 A 
ATOM     83  C   UNL     1     -16.112   0.375   1.745  1.00  0.00     0.198 A 
ATOM     84  F   UNL     1     -14.046   0.271   0.620  1.00  0.00    -0.203 F 
ATOM     85  F   UNL     1     -16.867   0.839   5.260  1.00  0.00    -0.200 F 
ATOM     86  C   UNL     1     -16.835   0.520   2.920  1.00  0.00     0.200 A 
ATOM     87  F   UNL     1     -16.755   0.188   0.583  1.00  0.00    -0.200 F 
ATOM     88  F   UNL     1     -18.174   0.458   2.896  1.00  0.00    -0.200 F 
ENDBRANCH  55  78
ENDBRANCH  29  30
ENDBRANCH  22  24
ENDBRANCH  21  22
ENDBRANCH  20  21
ENDBRANCH   1  20
TORSDOF 13
