REMARK SMILES O=C(OCCOC(=O)c1ccc(F)c(S(=O)(=O)N2CCOc3ccccc32)c1)c1ccc(-c2c3nc(c(-c4c(F)c(F)c(F)c(F)c4F)c4ccc([nH]4)c(-c4c(F)c(F)c(F)c(F)c4F)c4nc(c(-c5c(F)c(F)c(F)c(F)c5F)c5ccc2[nH]5)C=C4)C=C3)cc1
REMARK SMILES IDX 4 1 3 2 2 3 1 4 29 5 30 6 91 7 31 8 90 9 32 10 33 11 34 12
REMARK SMILES IDX 84 13 35 14 89 15 83 16 85 17 36 18 88 19 82 20 81 21 37 23
REMARK SMILES IDX 69 24 49 25 68 26 50 27 53 28 67 29 86 30 51 31 52 32 66 34
REMARK SMILES IDX 87 35 54 36 38 37 39 38 47 39 40 40 41 41 45 42 48 43 42 44
REMARK SMILES IDX 43 45 46 46 44 47 70 48 71 49 79 50 72 51 73 52 77 53 80 54
REMARK SMILES IDX 74 55 75 56 78 57 76 58 55 59 56 60 64 61 57 62 58 63 62 64
REMARK SMILES IDX 65 65 59 66 60 67 63 68 61 69 5 70 6 71 7 72 8 73 9 74 10 75
REMARK SMILES IDX 28 76 11 77 14 78 12 79 13 80 15 81 16 82 17 83 18 84 19 85
REMARK SMILES IDX 27 86 20 87 22 88 26 89 21 90 23 91 25 92 24 93
REMARK H PARENT 85 22 53 33
REMARK Flexibility Score: inf
ROOT
ATOM      1  C   UNL     1       4.177  -1.375   0.586  1.00  0.00     0.275 C 
ENDROOT
BRANCH   1   2
ATOM      2  O   UNL     1       3.309  -0.357   1.104  1.00  0.00    -0.458 OA
BRANCH   2   3
ATOM      3  C   UNL     1       3.220   0.954   0.789  1.00  0.00     0.338 C 
ATOM      4  O   UNL     1       2.505   1.678   1.480  1.00  0.00    -0.246 OA
BRANCH   3   5
ATOM      5  C   UNL     1       3.842   1.564  -0.430  1.00  0.00     0.060 A 
ATOM      6  C   UNL     1       5.027   1.169  -1.062  1.00  0.00     0.016 A 
ATOM      7  C   UNL     1       3.159   2.664  -0.967  1.00  0.00     0.016 A 
ATOM      8  C   UNL     1       5.482   1.803  -2.228  1.00  0.00     0.010 A 
ATOM      9  C   UNL     1       3.596   3.288  -2.136  1.00  0.00     0.010 A 
ATOM     10  C   UNL     1       4.769   2.869  -2.771  1.00  0.00    -0.014 A 
BRANCH  10  11
ATOM     11  C   UNL     1       5.311   3.701  -3.869  1.00  0.00     0.031 A 
ATOM     12  C   UNL     1       5.787   5.080  -3.524  1.00  0.00     0.074 A 
ATOM     13  C   UNL     1       5.319   3.275  -5.144  1.00  0.00     0.049 A 
ATOM     14  N   UNL     1       6.156   6.053  -4.312  1.00  0.00    -0.248 NA
ATOM     15  C   UNL     1       5.856   5.404  -2.088  1.00  0.00     0.031 C 
ATOM     16  C   UNL     1       4.958   1.935  -5.589  1.00  0.00     0.029 A 
ATOM     17  N   UNL     1       5.594   3.950  -6.308  1.00  0.00    -0.354 N 
ATOM     18  C   UNL     1       6.515   7.092  -3.468  1.00  0.00     0.074 A 
ATOM     19  C   UNL     1       6.239   6.668  -2.115  1.00  0.00     0.031 C 
ATOM     20  C   UNL     1       4.928   1.910  -6.933  1.00  0.00     0.029 A 
ATOM     21  C   UNL     1       5.277   3.235  -7.437  1.00  0.00     0.049 A 
ATOM     22  H   UNL     1       5.980   4.855  -6.331  1.00  0.00     0.167 HD
ATOM     23  C   UNL     1       7.076   8.278  -3.794  1.00  0.00     0.037 A 
ATOM     24  C   UNL     1       5.244   3.618  -8.729  1.00  0.00     0.037 A 
ATOM     25  C   UNL     1       7.348   8.681  -5.144  1.00  0.00     0.049 A 
ATOM     26  C   UNL     1       5.729   4.995  -9.086  1.00  0.00     0.074 A 
ATOM     27  C   UNL     1       7.968   9.829  -5.594  1.00  0.00     0.029 A 
ATOM     28  N   UNL     1       6.996   7.941  -6.265  1.00  0.00    -0.354 N 
ATOM     29  N   UNL     1       6.144   5.949  -8.287  1.00  0.00    -0.248 NA
ATOM     30  C   UNL     1       5.787   5.341 -10.513  1.00  0.00     0.031 C 
ATOM     31  C   UNL     1       7.946   9.809  -6.991  1.00  0.00     0.029 A 
ATOM     32  C   UNL     1       7.358   8.624  -7.411  1.00  0.00     0.049 A 
ATOM     33  H   UNL     1       6.554   7.061  -6.246  1.00  0.00     0.167 HD
ATOM     34  C   UNL     1       6.569   6.982  -9.109  1.00  0.00     0.074 A 
ATOM     35  C   UNL     1       6.331   6.552 -10.473  1.00  0.00     0.031 C 
ATOM     36  C   UNL     1       7.134   8.163  -8.760  1.00  0.00     0.037 A 
BRANCH  23  37
ATOM     37  C   UNL     1       7.427   9.196  -2.663  1.00  0.00     0.064 A 
ATOM     38  C   UNL     1       6.710  10.383  -2.458  1.00  0.00     0.173 A 
ATOM     39  C   UNL     1       8.456   8.884  -1.760  1.00  0.00     0.173 A 
ATOM     40  F   UNL     1       5.717  10.727  -3.292  1.00  0.00    -0.203 F 
ATOM     41  C   UNL     1       7.001  11.216  -1.381  1.00  0.00     0.198 A 
ATOM     42  C   UNL     1       8.723   9.702  -0.667  1.00  0.00     0.198 A 
ATOM     43  F   UNL     1       9.159   7.749  -1.903  1.00  0.00    -0.203 F 
ATOM     44  F   UNL     1       6.305  12.347  -1.205  1.00  0.00    -0.200 F 
ATOM     45  C   UNL     1       7.997  10.869  -0.480  1.00  0.00     0.200 A 
ATOM     46  F   UNL     1       9.661   9.346   0.222  1.00  0.00    -0.200 F 
ATOM     47  F   UNL     1       8.249  11.652   0.578  1.00  0.00    -0.200 F 
ENDBRANCH  23  37
BRANCH  24  48
ATOM     48  C   UNL     1       4.756   2.665  -9.758  1.00  0.00     0.064 A 
ATOM     49  C   UNL     1       3.389   2.366  -9.873  1.00  0.00     0.173 A 
ATOM     50  C   UNL     1       5.645   1.982 -10.596  1.00  0.00     0.173 A 
ATOM     51  F   UNL     1       2.497   2.984  -9.085  1.00  0.00    -0.203 F 
ATOM     52  C   UNL     1       2.934   1.407 -10.777  1.00  0.00     0.198 A 
ATOM     53  C   UNL     1       5.188   1.032 -11.509  1.00  0.00     0.198 A 
ATOM     54  F   UNL     1       6.959   2.239 -10.528  1.00  0.00    -0.203 F 
ATOM     55  F   UNL     1       1.628   1.116 -10.845  1.00  0.00    -0.200 F 
ATOM     56  C   UNL     1       3.835   0.739 -11.594  1.00  0.00     0.200 A 
ATOM     57  F   UNL     1       6.060   0.392 -12.300  1.00  0.00    -0.200 F 
ATOM     58  F   UNL     1       3.400  -0.190 -12.455  1.00  0.00    -0.200 F 
ENDBRANCH  24  48
BRANCH  36  59
ATOM     59  C   UNL     1       7.601   9.073  -9.854  1.00  0.00     0.064 A 
ATOM     60  C   UNL     1       8.977   9.256 -10.067  1.00  0.00     0.173 A 
ATOM     61  C   UNL     1       6.707   9.880 -10.568  1.00  0.00     0.173 A 
ATOM     62  F   UNL     1       9.869   8.509  -9.398  1.00  0.00    -0.203 F 
ATOM     63  C   UNL     1       9.440  10.248 -10.924  1.00  0.00     0.198 A 
ATOM     64  C   UNL     1       7.175  10.855 -11.444  1.00  0.00     0.198 A 
ATOM     65  F   UNL     1       5.384   9.729 -10.405  1.00  0.00    -0.203 F 
ATOM     66  F   UNL     1      10.758  10.448 -11.063  1.00  0.00    -0.200 F 
ATOM     67  C   UNL     1       8.539  11.050 -11.607  1.00  0.00     0.200 A 
ATOM     68  F   UNL     1       6.305  11.620 -12.117  1.00  0.00    -0.200 F 
ATOM     69  F   UNL     1       8.986  12.020 -12.416  1.00  0.00    -0.200 F 
ENDBRANCH  36  59
ENDBRANCH  10  11
ENDBRANCH   3   5
ENDBRANCH   2   3
ENDBRANCH   1   2
BRANCH   1  70
ATOM     70  C   UNL     1       3.658  -2.076  -0.670  1.00  0.00     0.275 C 
BRANCH  70  71
ATOM     71  O   UNL     1       3.198  -1.181  -1.694  1.00  0.00    -0.458 OA
BRANCH  71  72
ATOM     72  C   UNL     1       1.855  -0.941  -1.715  1.00  0.00     0.338 C 
ATOM     73  O   UNL     1       1.021  -1.376  -0.956  1.00  0.00    -0.246 OA
BRANCH  72  74
ATOM     74  C   UNL     1       1.564   0.026  -2.801  1.00  0.00     0.061 A 
ATOM     75  C   UNL     1       2.114  -0.172  -4.069  1.00  0.00     0.019 A 
ATOM     76  C   UNL     1       0.764   1.154  -2.546  1.00  0.00     0.041 A 
ATOM     77  C   UNL     1       1.905   0.783  -5.059  1.00  0.00     0.041 A 
ATOM     78  C   UNL     1       0.603   2.143  -3.539  1.00  0.00     0.124 A 
ATOM     79  C   UNL     1       1.202   1.954  -4.778  1.00  0.00     0.143 A 
ATOM     80  F   UNL     1       1.165   2.865  -5.752  1.00  0.00    -0.205 F 
BRANCH  78  81
ATOM     81  S   UNL     1      -0.271   3.638  -3.099  1.00  0.00     0.267 S 
ATOM     82  O   UNL     1      -1.675   3.279  -3.077  1.00  0.00    -0.201 OA
ATOM     83  O   UNL     1       0.388   4.114  -1.901  1.00  0.00    -0.201 OA
BRANCH  81  84
ATOM     84  N   UNL     1      -0.034   4.750  -4.374  1.00  0.00    -0.259 N 
ATOM     85  C   UNL     1      -0.859   4.477  -5.596  1.00  0.00     0.177 C 
ATOM     86  C   UNL     1       0.079   6.176  -4.083  1.00  0.00     0.094 A 
ATOM     87  C   UNL     1      -2.055   5.412  -5.622  1.00  0.00     0.252 C 
ATOM     88  C   UNL     1      -0.664   7.109  -4.837  1.00  0.00     0.143 A 
ATOM     89  C   UNL     1       1.038   6.671  -3.192  1.00  0.00     0.031 A 
ATOM     90  O   UNL     1      -1.625   6.768  -5.761  1.00  0.00    -0.489 OA
ATOM     91  C   UNL     1      -0.435   8.483  -4.716  1.00  0.00     0.049 A 
ATOM     92  C   UNL     1       1.247   8.050  -3.051  1.00  0.00     0.002 A 
ATOM     93  C   UNL     1       0.519   8.954  -3.820  1.00  0.00     0.004 A 
ENDBRANCH  81  84
ENDBRANCH  78  81
ENDBRANCH  72  74
ENDBRANCH  71  72
ENDBRANCH  70  71
ENDBRANCH   1  70
TORSDOF 13
