REMARK SMILES Cc1coc2cc3c(cc12)[C@@H](C)[C@H](CCC(=O)N[C@@H](Cc1c[nH]c2ccccc12)C(=O)OCCOC(=O)c1ccc(-c2c4nc(c(-c5c(F)c(F)c(F)c(F)c5F)c5ccc([nH]5)c(-c5c(F)c(F)c(F)c(F)c5F)c5nc(c(-c6c(F)c(F)c(F)c(F)c6F)c6ccc2[nH]6)C=C5)C=C4)cc1)C(=O)O3
REMARK SMILES IDX 33 1 32 2 30 3 31 4 19 5 18 6 16 7 17 8 15 10 14 11 13 12
REMARK SMILES IDX 1 13 2 14 3 15 10 16 4 17 5 18 9 19 6 20 8 21 7 22 11 23
REMARK SMILES IDX 103 24 12 25 101 26 102 27 20 28 21 29 22 30 29 31 23 32
REMARK SMILES IDX 24 33 28 34 25 36 27 37 26 38 34 39 35 40 36 41 37 42 38 43
REMARK SMILES IDX 39 44 100 45 40 46 99 47 41 48 42 49 43 50 93 51 44 52 98 53
REMARK SMILES IDX 92 54 94 55 45 56 97 57 91 58 90 59 46 61 78 62 58 63 77 64
REMARK SMILES IDX 59 65 62 66 76 67 95 68 60 69 61 70 75 72 96 73 63 74 47 75
REMARK SMILES IDX 48 76 56 77 49 78 50 79 54 80 57 81 51 82 52 83 55 84 53 85
REMARK SMILES IDX 79 86 80 87 88 88 81 89 82 90 86 91 89 92 83 93 84 94 87 95
REMARK SMILES IDX 85 96 64 97 65 98 73 99 66 100 67 101 71 102 74 103 68 104
REMARK SMILES IDX 69 105 72 106 70 107
REMARK H PARENT 18 9 23 35 94 60 62 71
REMARK Flexibility Score: inf
ROOT
ATOM      1  C   UNL     1       5.112  -0.658  -0.736  1.00  0.00     0.274 C 
ENDROOT
BRANCH   1   2
ATOM      2  O   UNL     1       4.662  -0.914  -2.109  1.00  0.00    -0.461 OA
BRANCH   2   3
ATOM      3  C   UNL     1       4.991  -2.152  -2.556  1.00  0.00     0.329 C 
ATOM      4  O   UNL     1       5.872  -2.808  -1.992  1.00  0.00    -0.250 OA
BRANCH   3   5
ATOM      5  C   UNL     1       4.033  -2.807  -3.697  1.00  0.00     0.196 C 
BRANCH   5   6
ATOM      6  N   UNL     1       2.676  -2.636  -4.386  1.00  0.00    -0.342 N 
ATOM      7  C   UNL     1       1.612  -3.464  -4.732  1.00  0.00     0.220 C 
ATOM      8  O   UNL     1       1.013  -3.038  -5.741  1.00  0.00    -0.275 OA
ATOM      9  H   UNL     1       2.515  -1.702  -4.653  1.00  0.00     0.164 HD
BRANCH   7  10
ATOM     10  C   UNL     1       0.864  -4.732  -4.026  1.00  0.00     0.101 C 
BRANCH  10  11
ATOM     11  C   UNL     1       1.251  -6.179  -3.539  1.00  0.00     0.026 C 
BRANCH  11  12
ATOM     12  C   UNL     1       2.554  -6.397  -2.787  1.00  0.00     0.107 C 
ATOM     13  C   UNL     1       0.110   0.340  -0.111  1.00  0.00     0.048 C 
ATOM     14  C   UNL     1       0.223  -0.893   0.721  1.00  0.00    -0.005 A 
ATOM     15  C   UNL     1       0.274  -0.872   2.124  1.00  0.00     0.199 A 
ATOM     16  C   UNL     1       0.624  -2.201   0.296  1.00  0.00     0.024 A 
ATOM     17  O   UNL     1       1.107  -1.793   2.717  1.00  0.00    -0.464 OA
ATOM     18  C   UNL     1       1.610  -2.580   1.725  1.00  0.00     0.137 A 
ATOM     19  C   UNL     1       0.941  -3.116  -1.270  1.00  0.00     0.020 A 
ATOM     20  C   UNL     1       2.940  -3.874   1.639  1.00  0.00     0.095 A 
ATOM     21  C   UNL     1       2.325  -4.335  -1.371  1.00  0.00    -0.001 A 
ATOM     22  C   UNL     1       3.220  -4.704   0.049  1.00  0.00     0.138 A 
ATOM     23  C   UNL     1       3.167  -5.130  -2.440  1.00  0.00     0.034 C 
ATOM     24  O   UNL     1       3.218  -6.261  -0.306  1.00  0.00    -0.426 OA
ATOM     25  C   UNL     1       4.732  -5.472  -2.103  1.00  0.00     0.014 C 
ATOM     26  C   UNL     1       2.664  -7.131  -1.516  1.00  0.00     0.314 C 
ATOM     27  O   UNL     1       2.348  -8.320  -1.493  1.00  0.00    -0.251 OA
ENDBRANCH  11  12
ENDBRANCH  10  11
ENDBRANCH   7  10
ENDBRANCH   5   6
BRANCH   5  28
ATOM     28  C   UNL     1       4.848  -3.799  -4.632  1.00  0.00     0.074 C 
BRANCH  28  29
ATOM     29  C   UNL     1       6.264  -3.413  -4.765  1.00  0.00    -0.020 A 
ATOM     30  C   UNL     1       6.625  -2.109  -5.021  1.00  0.00     0.087 A 
ATOM     31  C   UNL     1       7.461  -4.184  -4.590  1.00  0.00     0.003 A 
ATOM     32  N   UNL     1       7.974  -2.034  -4.929  1.00  0.00    -0.361 N 
ATOM     33  C   UNL     1       8.510  -3.293  -4.815  1.00  0.00     0.046 A 
ATOM     34  C   UNL     1       7.788  -5.528  -4.278  1.00  0.00     0.010 A 
ATOM     35  H   UNL     1       8.494  -1.199  -4.942  1.00  0.00     0.166 HD
ATOM     36  C   UNL     1       9.845  -3.687  -4.882  1.00  0.00     0.026 A 
ATOM     37  C   UNL     1       9.130  -5.939  -4.341  1.00  0.00     0.001 A 
ATOM     38  C   UNL     1      10.134  -5.036  -4.680  1.00  0.00     0.002 A 
ENDBRANCH  28  29
ENDBRANCH   5  28
ENDBRANCH   3   5
ENDBRANCH   2   3
ENDBRANCH   1   2
BRANCH   1  39
ATOM     39  C   UNL     1       3.929  -0.635   0.248  1.00  0.00     0.275 C 
BRANCH  39  40
ATOM     40  O   UNL     1       3.527  -1.955   0.770  1.00  0.00    -0.458 OA
BRANCH  40  41
ATOM     41  C   UNL     1       2.550  -2.740  -0.059  1.00  0.00     0.338 C 
ATOM     42  O   UNL     1       2.749  -2.154  -1.159  1.00  0.00    -0.246 OA
BRANCH  41  43
ATOM     43  C   UNL     1       1.167  -4.268   0.552  1.00  0.00     0.060 A 
ATOM     44  C   UNL     1       0.848  -4.849   1.897  1.00  0.00     0.016 A 
ATOM     45  C   UNL     1       0.406  -5.257  -0.155  1.00  0.00     0.016 A 
ATOM     46  C   UNL     1       1.302  -6.141   2.229  1.00  0.00     0.010 A 
ATOM     47  C   UNL     1       0.668  -6.616   0.134  1.00  0.00     0.010 A 
ATOM     48  C   UNL     1       1.588  -6.941   1.160  1.00  0.00    -0.014 A 
BRANCH  48  49
ATOM     49  C   UNL     1       2.480  -8.258   1.133  1.00  0.00     0.031 A 
ATOM     50  C   UNL     1       1.464  -9.123   1.694  1.00  0.00     0.074 A 
ATOM     51  C   UNL     1       3.741  -8.731   0.657  1.00  0.00     0.049 A 
ATOM     52  N   UNL     1       1.252  -9.066   2.975  1.00  0.00    -0.248 NA
ATOM     53  C   UNL     1       0.262  -9.511   0.927  1.00  0.00     0.031 C 
ATOM     54  C   UNL     1       4.917  -8.045   0.012  1.00  0.00     0.029 A 
ATOM     55  N   UNL     1       4.221 -10.057   0.465  1.00  0.00    -0.354 N 
ATOM     56  C   UNL     1       0.208  -9.924   3.120  1.00  0.00     0.074 A 
ATOM     57  C   UNL     1      -0.590  -9.736   1.938  1.00  0.00     0.031 C 
ATOM     58  C   UNL     1       5.642  -8.849  -0.817  1.00  0.00     0.029 A 
ATOM     59  C   UNL     1       5.243 -10.221  -0.583  1.00  0.00     0.049 A 
ATOM     60  H   UNL     1       3.891 -10.816   0.998  1.00  0.00     0.167 HD
ATOM     61  C   UNL     1       0.551 -11.104   3.701  1.00  0.00     0.037 A 
ATOM     62  C   UNL     1       5.984 -11.346  -0.927  1.00  0.00     0.037 A 
ATOM     63  C   UNL     1       1.859 -11.007   4.349  1.00  0.00     0.049 A 
ATOM     64  C   UNL     1       5.899 -12.223   0.256  1.00  0.00     0.074 A 
ATOM     65  C   UNL     1       2.405 -10.143   5.290  1.00  0.00     0.029 A 
ATOM     66  N   UNL     1       2.913 -11.418   3.563  1.00  0.00    -0.354 N 
ATOM     67  N   UNL     1       6.491 -11.954   1.385  1.00  0.00    -0.248 NA
ATOM     68  C   UNL     1       4.734 -13.084   0.314  1.00  0.00     0.031 C 
ATOM     69  C   UNL     1       3.798 -10.038   5.008  1.00  0.00     0.029 A 
ATOM     70  C   UNL     1       4.123 -10.958   4.019  1.00  0.00     0.049 A 
ATOM     71  H   UNL     1       2.810 -11.980   2.761  1.00  0.00     0.167 HD
ATOM     72  C   UNL     1       5.478 -12.140   2.305  1.00  0.00     0.074 A 
ATOM     73  C   UNL     1       4.464 -12.948   1.614  1.00  0.00     0.031 C 
ATOM     74  C   UNL     1       5.370 -11.269   3.353  1.00  0.00     0.037 A 
BRANCH  61  75
ATOM     75  C   UNL     1      -0.022 -12.393   3.210  1.00  0.00     0.064 A 
ATOM     76  C   UNL     1      -0.128 -13.431   4.131  1.00  0.00     0.173 A 
ATOM     77  C   UNL     1      -0.341 -12.715   1.868  1.00  0.00     0.173 A 
ATOM     78  F   UNL     1       0.237 -13.237   5.406  1.00  0.00    -0.203 F 
ATOM     79  C   UNL     1      -0.571 -14.692   3.743  1.00  0.00     0.198 A 
ATOM     80  C   UNL     1      -0.860 -13.943   1.498  1.00  0.00     0.198 A 
ATOM     81  F   UNL     1      -0.071 -11.911   0.837  1.00  0.00    -0.203 F 
ATOM     82  F   UNL     1      -0.594 -15.684   4.640  1.00  0.00    -0.200 F 
ATOM     83  C   UNL     1      -0.964 -14.939   2.436  1.00  0.00     0.200 A 
ATOM     84  F   UNL     1      -1.196 -14.159   0.218  1.00  0.00    -0.200 F 
ATOM     85  F   UNL     1      -1.395 -16.151   2.069  1.00  0.00    -0.200 F 
ENDBRANCH  61  75
BRANCH  62  86
ATOM     86  C   UNL     1       6.595 -11.947  -2.188  1.00  0.00     0.064 A 
ATOM     87  C   UNL     1       7.365 -13.151  -2.164  1.00  0.00     0.173 A 
ATOM     88  C   UNL     1       6.138 -11.580  -3.462  1.00  0.00     0.173 A 
ATOM     89  F   UNL     1       7.869 -13.614  -1.010  1.00  0.00    -0.203 F 
ATOM     90  C   UNL     1       7.571 -13.957  -3.304  1.00  0.00     0.198 A 
ATOM     91  C   UNL     1       6.338 -12.391  -4.601  1.00  0.00     0.198 A 
ATOM     92  F   UNL     1       5.412 -10.465  -3.613  1.00  0.00    -0.203 F 
ATOM     93  F   UNL     1       8.234 -15.121  -3.206  1.00  0.00    -0.200 F 
ATOM     94  C   UNL     1       7.029 -13.589  -4.518  1.00  0.00     0.200 A 
ATOM     95  F   UNL     1       5.793 -12.035  -5.774  1.00  0.00    -0.200 F 
ATOM     96  F   UNL     1       7.139 -14.393  -5.588  1.00  0.00    -0.200 F 
ENDBRANCH  62  86
BRANCH  74  97
ATOM     97  C   UNL     1       6.597 -10.501   3.784  1.00  0.00     0.064 A 
ATOM     98  C   UNL     1       7.233  -9.472   3.066  1.00  0.00     0.173 A 
ATOM     99  C   UNL     1       7.062 -10.746   5.082  1.00  0.00     0.173 A 
ATOM    100  F   UNL     1       6.828  -9.133   1.838  1.00  0.00    -0.203 F 
ATOM    101  C   UNL     1       8.278  -8.729   3.626  1.00  0.00     0.198 A 
ATOM    102  C   UNL     1       8.084  -9.991   5.648  1.00  0.00     0.198 A 
ATOM    103  F   UNL     1       6.476 -11.693   5.830  1.00  0.00    -0.203 F 
ATOM    104  F   UNL     1       8.856  -7.740   2.926  1.00  0.00    -0.200 F 
ATOM    105  C   UNL     1       8.696  -8.985   4.921  1.00  0.00     0.200 A 
ATOM    106  F   UNL     1       8.450 -10.219   6.916  1.00  0.00    -0.200 F 
ATOM    107  F   UNL     1       9.670  -8.250   5.476  1.00  0.00    -0.200 F 
ENDBRANCH  74  97
ENDBRANCH  48  49
ENDBRANCH  41  43
ENDBRANCH  40  41
ENDBRANCH  39  40
ENDBRANCH   1  39
TORSDOF 17
