REMARK SMILES COc1c(C)cc(Br)cc1C(=O)Nc1ccc(O)c(C(=O)OCCOC(=O)c2ccc(-c3c4nc(c(-c5c(F)c(F)c(F)c(F)c5F)c5ccc([nH]5)c(-c5c(F)c(F)c(F)c(F)c5F)c5nc(c(-c6c(F)c(F)c(F)c(F)c6F)c6ccc3[nH]6)C=C5)C=C4)cc2)c1
REMARK SMILES IDX 23 1 22 2 20 3 21 4 19 5 14 6 15 7 91 8 16 9 17 10 13 11
REMARK SMILES IDX 11 12 12 13 10 15 3 16 4 17 5 18 6 19 9 20 7 21 8 22 2 23
REMARK SMILES IDX 1 24 18 25 24 27 25 28 26 29 27 30 28 31 29 32 90 33 30 34
REMARK SMILES IDX 89 35 31 36 32 37 33 38 83 39 34 40 88 41 82 42 84 43 35 44
REMARK SMILES IDX 87 45 81 46 80 47 36 49 68 50 48 51 67 52 49 53 52 54 66 55
REMARK SMILES IDX 85 56 50 57 51 58 65 60 86 61 53 62 37 63 38 64 46 65 39 66
REMARK SMILES IDX 40 67 44 68 47 69 41 70 42 71 45 72 43 73 69 74 70 75 78 76
REMARK SMILES IDX 71 77 72 78 76 79 79 80 73 81 74 82 77 83 75 84 54 85 55 86
REMARK SMILES IDX 63 87 56 88 57 89 61 90 64 91 58 92 59 93 62 94 60 95
REMARK H PARENT 13 14 18 26 84 48 52 59
REMARK Flexibility Score: inf
ROOT
ATOM      1  C   UNL     1       1.265  -1.960   5.596  1.00  0.00     0.275 C 
ENDROOT
BRANCH   1   2
ATOM      2  O   UNL     1       0.960  -1.117   4.471  1.00  0.00    -0.458 OA
BRANCH   2   3
ATOM      3  C   UNL     1       0.799  -1.731   3.279  1.00  0.00     0.342 C 
ATOM      4  O   UNL     1       0.974  -2.923   3.065  1.00  0.00    -0.246 OA
BRANCH   3   5
ATOM      5  C   UNL     1       0.243  -0.818   2.244  1.00  0.00     0.103 A 
ATOM      6  C   UNL     1      -0.840  -0.660   0.069  1.00  0.00     0.042 A 
ATOM      7  C   UNL     1      -0.814   0.727   0.140  1.00  0.00     0.030 A 
ATOM      8  C   UNL     1      -0.360  -1.429   1.130  1.00  0.00     0.045 A 
ATOM      9  C   UNL     1      -0.203   1.349   1.231  1.00  0.00     0.049 A 
ATOM     10  C   UNL     1       0.350   0.580   2.264  1.00  0.00     0.130 A 
BRANCH   6  11
ATOM     11  N   UNL     1      -1.491  -1.280  -0.996  1.00  0.00    -0.322 N 
ATOM     12  C   UNL     1      -0.959  -2.162  -1.912  1.00  0.00     0.259 C 
ATOM     13  O   UNL     1      -1.691  -3.083  -2.290  1.00  0.00    -0.269 OA
ATOM     14  H   UNL     1      -2.445  -1.062  -1.108  1.00  0.00     0.170 HD
BRANCH  12  15
ATOM     15  C   UNL     1       0.319  -1.932  -2.657  1.00  0.00     0.083 A 
ATOM     16  C   UNL     1       1.613  -1.710  -2.140  1.00  0.00     0.134 A 
ATOM     17  C   UNL     1       2.730  -1.718  -3.019  1.00  0.00    -0.007 A 
ATOM     18  C   UNL     1       4.161  -1.634  -2.554  1.00  0.00     0.048 C 
ATOM     19  C   UNL     1       2.528  -1.851  -4.402  1.00  0.00     0.023 A 
ATOM     20  C   UNL     1       0.162  -2.087  -4.053  1.00  0.00     0.033 A 
ATOM     21  C   UNL     1       1.253  -2.037  -4.911  1.00  0.00     0.019 A 
ATOM     22  Br  UNL     1       1.015  -2.291  -6.768  1.00  0.00    -0.051 Br
BRANCH  16  23
ATOM     23  O   UNL     1       1.797  -1.635  -0.784  1.00  0.00    -0.496 OA
ATOM     24  C   UNL     1       2.549  -0.496  -0.358  1.00  0.00     0.278 C 
ENDBRANCH  16  23
ENDBRANCH  12  15
ENDBRANCH   6  11
BRANCH  10  25
ATOM     25  O   UNL     1       1.073   1.215   3.234  1.00  0.00    -0.507 OA
ATOM     26  H   UNL     1       1.135   2.150   3.235  1.00  0.00     0.293 HD
ENDBRANCH  10  25
ENDBRANCH   3   5
ENDBRANCH   2   3
ENDBRANCH   1   2
BRANCH   1  27
ATOM     27  C   UNL     1       0.032  -2.077   6.487  1.00  0.00     0.275 C 
BRANCH  27  28
ATOM     28  O   UNL     1      -1.012  -2.778   5.785  1.00  0.00    -0.458 OA
BRANCH  28  29
ATOM     29  C   UNL     1      -2.022  -2.006   5.326  1.00  0.00     0.338 C 
ATOM     30  O   UNL     1      -2.197  -0.813   5.496  1.00  0.00    -0.246 OA
BRANCH  29  31
ATOM     31  C   UNL     1      -2.947  -2.832   4.537  1.00  0.00     0.060 A 
ATOM     32  C   UNL     1      -2.564  -3.287   3.277  1.00  0.00     0.016 A 
ATOM     33  C   UNL     1      -4.246  -3.036   4.995  1.00  0.00     0.016 A 
ATOM     34  C   UNL     1      -3.504  -3.865   2.427  1.00  0.00     0.010 A 
ATOM     35  C   UNL     1      -5.161  -3.709   4.181  1.00  0.00     0.010 A 
ATOM     36  C   UNL     1      -4.813  -4.098   2.873  1.00  0.00    -0.014 A 
BRANCH  36  37
ATOM     37  C   UNL     1      -5.837  -4.713   1.982  1.00  0.00     0.031 A 
ATOM     38  C   UNL     1      -7.119  -3.977   1.696  1.00  0.00     0.074 A 
ATOM     39  C   UNL     1      -5.641  -5.935   1.449  1.00  0.00     0.049 A 
ATOM     40  N   UNL     1      -8.234  -4.418   1.169  1.00  0.00    -0.248 NA
ATOM     41  C   UNL     1      -7.158  -2.555   2.074  1.00  0.00     0.031 C 
ATOM     42  C   UNL     1      -4.429  -6.741   1.590  1.00  0.00     0.029 A 
ATOM     43  N   UNL     1      -6.472  -6.720   0.685  1.00  0.00    -0.354 N 
ATOM     44  C   UNL     1      -9.122  -3.350   1.211  1.00  0.00     0.074 A 
ATOM     45  C   UNL     1      -8.419  -2.240   1.816  1.00  0.00     0.031 C 
ATOM     46  C   UNL     1      -4.583  -7.891   0.919  1.00  0.00     0.029 A 
ATOM     47  C   UNL     1      -5.936  -7.947   0.379  1.00  0.00     0.049 A 
ATOM     48  H   UNL     1      -7.364  -6.430   0.385  1.00  0.00     0.167 HD
ATOM     49  C   UNL     1     -10.408  -3.307   0.786  1.00  0.00     0.037 A 
ATOM     50  C   UNL     1      -6.488  -9.020  -0.220  1.00  0.00     0.037 A 
ATOM     51  C   UNL     1     -11.081  -4.399   0.131  1.00  0.00     0.049 A 
ATOM     52  C   UNL     1      -7.926  -8.961  -0.651  1.00  0.00     0.074 A 
ATOM     53  C   UNL     1     -12.377  -4.450  -0.354  1.00  0.00     0.029 A 
ATOM     54  N   UNL     1     -10.503  -5.629  -0.147  1.00  0.00    -0.354 N 
ATOM     55  N   UNL     1      -8.780  -7.971  -0.554  1.00  0.00    -0.248 NA
ATOM     56  C   UNL     1      -8.485 -10.177  -1.259  1.00  0.00     0.031 C 
ATOM     57  C   UNL     1     -12.595  -5.723  -0.891  1.00  0.00     0.029 A 
ATOM     58  C   UNL     1     -11.420  -6.450  -0.785  1.00  0.00     0.049 A 
ATOM     59  H   UNL     1      -9.578  -5.882   0.077  1.00  0.00     0.167 HD
ATOM     60  C   UNL     1      -9.966  -8.434  -1.105  1.00  0.00     0.074 A 
ATOM     61  C   UNL     1      -9.720  -9.791  -1.548  1.00  0.00     0.031 C 
ATOM     62  C   UNL     1     -11.153  -7.793  -1.231  1.00  0.00     0.037 A 
BRANCH  49  63
ATOM     63  C   UNL     1     -11.188  -2.050   1.045  1.00  0.00     0.064 A 
ATOM     64  C   UNL     1     -10.940  -0.860   0.347  1.00  0.00     0.173 A 
ATOM     65  C   UNL     1     -12.231  -2.051   1.986  1.00  0.00     0.173 A 
ATOM     66  F   UNL     1      -9.947  -0.800  -0.553  1.00  0.00    -0.203 F 
ATOM     67  C   UNL     1     -11.687   0.289   0.600  1.00  0.00     0.198 A 
ATOM     68  C   UNL     1     -12.995  -0.910   2.215  1.00  0.00     0.198 A 
ATOM     69  F   UNL     1     -12.517  -3.165   2.678  1.00  0.00    -0.203 F 
ATOM     70  F   UNL     1     -11.400   1.428  -0.046  1.00  0.00    -0.200 F 
ATOM     71  C   UNL     1     -12.718   0.261   1.527  1.00  0.00     0.200 A 
ATOM     72  F   UNL     1     -14.000  -0.944   3.101  1.00  0.00    -0.200 F 
ATOM     73  F   UNL     1     -13.440   1.365   1.763  1.00  0.00    -0.200 F 
ENDBRANCH  49  63
BRANCH  50  74
ATOM     74  C   UNL     1      -5.684 -10.258  -0.404  1.00  0.00     0.064 A 
ATOM     75  C   UNL     1      -5.306 -10.687  -1.683  1.00  0.00     0.173 A 
ATOM     76  C   UNL     1      -5.274 -11.032   0.692  1.00  0.00     0.173 A 
ATOM     77  F   UNL     1      -5.699  -9.997  -2.764  1.00  0.00    -0.203 F 
ATOM     78  C   UNL     1      -4.555 -11.848  -1.860  1.00  0.00     0.198 A 
ATOM     79  C   UNL     1      -4.497 -12.175   0.516  1.00  0.00     0.198 A 
ATOM     80  F   UNL     1      -5.614 -10.668   1.937  1.00  0.00    -0.203 F 
ATOM     81  F   UNL     1      -4.244 -12.260  -3.096  1.00  0.00    -0.200 F 
ATOM     82  C   UNL     1      -4.144 -12.585  -0.760  1.00  0.00     0.200 A 
ATOM     83  F   UNL     1      -4.091 -12.877   1.583  1.00  0.00    -0.200 F 
ATOM     84  F   UNL     1      -3.416 -13.697  -0.930  1.00  0.00    -0.200 F 
ENDBRANCH  50  74
BRANCH  62  85
ATOM     85  C   UNL     1     -12.264  -8.534  -1.915  1.00  0.00     0.064 A 
ATOM     86  C   UNL     1     -12.946  -9.584  -1.286  1.00  0.00     0.173 A 
ATOM     87  C   UNL     1     -12.675  -8.158  -3.203  1.00  0.00     0.173 A 
ATOM     88  F   UNL     1     -12.578  -9.990  -0.061  1.00  0.00    -0.203 F 
ATOM     89  C   UNL     1     -13.987 -10.247  -1.930  1.00  0.00     0.198 A 
ATOM     90  C   UNL     1     -13.734  -8.805  -3.833  1.00  0.00     0.198 A 
ATOM     91  F   UNL     1     -12.058  -7.155  -3.845  1.00  0.00    -0.203 F 
ATOM     92  F   UNL     1     -14.598 -11.276  -1.327  1.00  0.00    -0.200 F 
ATOM     93  C   UNL     1     -14.385  -9.852  -3.199  1.00  0.00     0.200 A 
ATOM     94  F   UNL     1     -14.126  -8.414  -5.054  1.00  0.00    -0.200 F 
ATOM     95  F   UNL     1     -15.393 -10.486  -3.813  1.00  0.00    -0.200 F 
ENDBRANCH  62  85
ENDBRANCH  36  37
ENDBRANCH  29  31
ENDBRANCH  28  29
ENDBRANCH  27  28
ENDBRANCH   1  27
TORSDOF 15
