REMARK SMILES CC(=O)c1c[nH]c(C(=O)N[C@H]2C=C[C@H](C(=O)OCCOC(=O)c3ccc(-c4c5nc(c(-c6c(F)c(F)c(F)c(F)c6F)c6ccc([nH]6)c(-c6c(F)c(F)c(F)c(F)c6F)c6nc(c(-c7c(F)c(F)c(F)c(F)c7F)c7ccc4[nH]7)C=C6)C=C5)cc3)C2)c1
REMARK SMILES IDX 18 1 17 2 15 3 16 4 14 5 11 6 12 7 86 8 13 9 10 10 8 11 9 12
REMARK SMILES IDX 7 14 4 15 5 16 87 17 6 18 2 20 1 21 3 22 19 23 20 24 21 25
REMARK SMILES IDX 22 26 23 27 24 28 85 29 25 30 84 31 26 32 27 33 28 34 78 35
REMARK SMILES IDX 29 36 83 37 77 38 79 39 30 40 82 41 76 42 75 43 31 45 63 46
REMARK SMILES IDX 43 47 62 48 44 49 47 50 61 51 80 52 45 53 46 54 60 56 81 57
REMARK SMILES IDX 48 58 32 59 33 60 41 61 34 62 35 63 39 64 42 65 36 66 37 67
REMARK SMILES IDX 40 68 38 69 64 70 65 71 73 72 66 73 67 74 71 75 74 76 68 77
REMARK SMILES IDX 69 78 72 79 70 80 49 81 50 82 58 83 51 84 52 85 56 86 59 87
REMARK SMILES IDX 53 88 54 89 57 90 55 91
REMARK H PARENT 10 13 6 19 79 44 47 55
REMARK Flexibility Score: inf
ROOT
ATOM      1  C   UNL     1      -5.892  -0.467  -2.359  1.00  0.00     0.274 C 
ENDROOT
BRANCH   1   2
ATOM      2  O   UNL     1      -4.711  -0.086  -3.085  1.00  0.00    -0.462 OA
BRANCH   2   3
ATOM      3  C   UNL     1      -4.252   1.182  -2.868  1.00  0.00     0.312 C 
ATOM      4  O   UNL     1      -4.859   2.034  -2.230  1.00  0.00    -0.252 OA
BRANCH   3   5
ATOM      5  C   UNL     1      -2.823   1.357  -3.387  1.00  0.00     0.124 C 
ATOM      6  C   UNL     1      -2.126   3.070  -4.997  1.00  0.00     0.106 C 
ATOM      7  C   UNL     1      -2.189   1.728  -5.629  1.00  0.00    -0.006 C 
ATOM      8  C   UNL     1      -2.402   2.835  -3.510  1.00  0.00     0.048 C 
ATOM      9  C   UNL     1      -2.604   0.798  -4.763  1.00  0.00    -0.014 C 
BRANCH   6  10
ATOM     10  N   UNL     1      -0.917   3.781  -5.358  1.00  0.00    -0.345 N 
ATOM     11  C   UNL     1       0.393   3.756  -4.972  1.00  0.00     0.268 C 
ATOM     12  O   UNL     1       1.112   4.657  -5.417  1.00  0.00    -0.268 OA
ATOM     13  H   UNL     1      -1.080   4.452  -6.060  1.00  0.00     0.164 HD
BRANCH  11  14
ATOM     14  C   UNL     1       0.915   2.806  -4.021  1.00  0.00     0.105 A 
ATOM     15  C   UNL     1       1.353   1.095  -2.572  1.00  0.00     0.035 A 
ATOM     16  C   UNL     1       2.184   2.155  -2.268  1.00  0.00     0.094 A 
ATOM     17  C   UNL     1       0.646   1.479  -3.748  1.00  0.00     0.045 A 
ATOM     18  N   UNL     1       1.964   3.145  -3.190  1.00  0.00    -0.356 N 
ATOM     19  H   UNL     1       2.482   3.981  -3.251  1.00  0.00     0.166 HD
BRANCH  15  20
ATOM     20  C   UNL     1       1.209  -0.165  -1.847  1.00  0.00     0.161 C 
ATOM     21  C   UNL     1       1.812  -0.276  -0.471  1.00  0.00     0.093 C 
ATOM     22  O   UNL     1       0.596  -1.113  -2.336  1.00  0.00    -0.294 OA
ENDBRANCH  15  20
ENDBRANCH  11  14
ENDBRANCH   6  10
ENDBRANCH   3   5
ENDBRANCH   2   3
ENDBRANCH   1   2
BRANCH   1  23
ATOM     23  C   UNL     1      -5.570  -1.145  -1.026  1.00  0.00     0.275 C 
BRANCH  23  24
ATOM     24  O   UNL     1      -4.894  -0.299  -0.088  1.00  0.00    -0.458 OA
BRANCH  24  25
ATOM     25  C   UNL     1      -3.553  -0.349  -0.228  1.00  0.00     0.338 C 
ATOM     26  O   UNL     1      -2.924  -0.752  -1.191  1.00  0.00    -0.246 OA
BRANCH  25  27
ATOM     27  C   UNL     1      -2.861  -0.101   1.030  1.00  0.00     0.060 A 
ATOM     28  C   UNL     1      -1.546   0.363   0.940  1.00  0.00     0.016 A 
ATOM     29  C   UNL     1      -3.367  -0.693   2.192  1.00  0.00     0.016 A 
ATOM     30  C   UNL     1      -0.687   0.115   1.989  1.00  0.00     0.010 A 
ATOM     31  C   UNL     1      -2.497  -0.966   3.232  1.00  0.00     0.010 A 
ATOM     32  C   UNL     1      -1.153  -0.591   3.104  1.00  0.00    -0.014 A 
BRANCH  32  33
ATOM     33  C   UNL     1      -0.251  -0.672   4.258  1.00  0.00     0.031 A 
ATOM     34  C   UNL     1      -0.324   0.653   5.046  1.00  0.00     0.074 A 
ATOM     35  C   UNL     1       0.479  -1.825   4.396  1.00  0.00     0.049 A 
ATOM     36  N   UNL     1       0.493   1.139   5.923  1.00  0.00    -0.248 NA
ATOM     37  C   UNL     1      -1.446   1.611   4.792  1.00  0.00     0.031 C 
ATOM     38  C   UNL     1       0.388  -3.003   3.500  1.00  0.00     0.029 A 
ATOM     39  N   UNL     1       1.445  -2.251   5.291  1.00  0.00    -0.354 N 
ATOM     40  C   UNL     1      -0.118   2.282   6.485  1.00  0.00     0.074 A 
ATOM     41  C   UNL     1      -1.234   2.601   5.658  1.00  0.00     0.031 C 
ATOM     42  C   UNL     1       1.300  -3.946   3.835  1.00  0.00     0.029 A 
ATOM     43  C   UNL     1       2.049  -3.511   4.999  1.00  0.00     0.049 A 
ATOM     44  H   UNL     1       1.699  -1.719   6.079  1.00  0.00     0.167 HD
ATOM     45  C   UNL     1       0.249   2.776   7.702  1.00  0.00     0.037 A 
ATOM     46  C   UNL     1       3.091  -4.137   5.641  1.00  0.00     0.037 A 
ATOM     47  C   UNL     1       1.378   2.054   8.177  1.00  0.00     0.049 A 
ATOM     48  C   UNL     1       3.260  -3.376   6.883  1.00  0.00     0.074 A 
ATOM     49  C   UNL     1       2.676   2.030   7.740  1.00  0.00     0.029 A 
ATOM     50  N   UNL     1       1.121   0.935   8.932  1.00  0.00    -0.354 N 
ATOM     51  N   UNL     1       2.434  -3.429   7.884  1.00  0.00    -0.248 NA
ATOM     52  C   UNL     1       4.383  -2.440   6.999  1.00  0.00     0.031 C 
ATOM     53  C   UNL     1       3.008   0.667   7.830  1.00  0.00     0.029 A 
ATOM     54  C   UNL     1       2.037  -0.017   8.573  1.00  0.00     0.049 A 
ATOM     55  H   UNL     1       0.410   0.836   9.605  1.00  0.00     0.167 HD
ATOM     56  C   UNL     1       2.744  -2.277   8.560  1.00  0.00     0.074 A 
ATOM     57  C   UNL     1       4.103  -1.934   8.198  1.00  0.00     0.031 C 
ATOM     58  C   UNL     1       1.743  -1.403   8.839  1.00  0.00     0.037 A 
BRANCH  45  59
ATOM     59  C   UNL     1      -0.444   3.681   8.678  1.00  0.00     0.064 A 
ATOM     60  C   UNL     1       0.322   4.181   9.762  1.00  0.00     0.173 A 
ATOM     61  C   UNL     1      -1.835   3.746   8.820  1.00  0.00     0.173 A 
ATOM     62  F   UNL     1       1.663   4.221   9.697  1.00  0.00    -0.203 F 
ATOM     63  C   UNL     1      -0.263   4.544  10.971  1.00  0.00     0.198 A 
ATOM     64  C   UNL     1      -2.420   4.167  10.018  1.00  0.00     0.198 A 
ATOM     65  F   UNL     1      -2.655   3.307   7.858  1.00  0.00    -0.203 F 
ATOM     66  F   UNL     1       0.512   4.842  12.024  1.00  0.00    -0.200 F 
ATOM     67  C   UNL     1      -1.635   4.514  11.105  1.00  0.00     0.200 A 
ATOM     68  F   UNL     1      -3.754   4.152  10.141  1.00  0.00    -0.200 F 
ATOM     69  F   UNL     1      -2.201   4.784  12.289  1.00  0.00    -0.200 F 
ENDBRANCH  45  59
BRANCH  46  70
ATOM     70  C   UNL     1       4.065  -5.292   5.462  1.00  0.00     0.064 A 
ATOM     71  C   UNL     1       4.069  -6.223   4.419  1.00  0.00     0.173 A 
ATOM     72  C   UNL     1       5.180  -5.423   6.351  1.00  0.00     0.173 A 
ATOM     73  F   UNL     1       3.036  -6.311   3.574  1.00  0.00    -0.203 F 
ATOM     74  C   UNL     1       5.150  -7.109   4.213  1.00  0.00     0.198 A 
ATOM     75  C   UNL     1       6.277  -6.249   6.111  1.00  0.00     0.198 A 
ATOM     76  F   UNL     1       5.255  -4.740   7.500  1.00  0.00    -0.203 F 
ATOM     77  F   UNL     1       5.110  -7.982   3.196  1.00  0.00    -0.200 F 
ATOM     78  C   UNL     1       6.272  -7.085   5.026  1.00  0.00     0.200 A 
ATOM     79  F   UNL     1       7.338  -6.199   6.931  1.00  0.00    -0.200 F 
ATOM     80  F   UNL     1       7.331  -7.865   4.774  1.00  0.00    -0.200 F 
ENDBRANCH  46  70
BRANCH  58  81
ATOM     81  C   UNL     1       0.374  -2.047   8.985  1.00  0.00     0.064 A 
ATOM     82  C   UNL     1       0.187  -3.067   9.935  1.00  0.00     0.173 A 
ATOM     83  C   UNL     1      -0.723  -1.788   8.148  1.00  0.00     0.173 A 
ATOM     84  F   UNL     1       1.168  -3.357  10.804  1.00  0.00    -0.203 F 
ATOM     85  C   UNL     1      -1.000  -3.802  10.011  1.00  0.00     0.198 A 
ATOM     86  C   UNL     1      -1.912  -2.522   8.218  1.00  0.00     0.198 A 
ATOM     87  F   UNL     1      -0.677  -0.805   7.250  1.00  0.00    -0.203 F 
ATOM     88  F   UNL     1      -1.129  -4.768  10.931  1.00  0.00    -0.200 F 
ATOM     89  C   UNL     1      -2.047  -3.535   9.147  1.00  0.00     0.200 A 
ATOM     90  F   UNL     1      -2.928  -2.236   7.388  1.00  0.00    -0.200 F 
ATOM     91  F   UNL     1      -3.189  -4.234   9.225  1.00  0.00    -0.200 F 
ENDBRANCH  58  81
ENDBRANCH  32  33
ENDBRANCH  25  27
ENDBRANCH  24  25
ENDBRANCH  23  24
ENDBRANCH   1  23
TORSDOF 14
