REMARK SMILES Cc1cccc(-c2cc(C(=O)OCCOC(=O)c3ccc(-c4c5nc(c(-c6c(F)c(F)c(F)c(F)c6F)c6ccc([nH]6)c(-c6c(F)c(F)c(F)c(F)c6F)c6nc(c(-c7c(F)c(F)c(F)c(F)c7F)c7ccc4[nH]7)C=C6)C=C5)cc3)ccn2)c1
REMARK SMILES IDX 14 1 13 2 12 3 10 4 11 5 9 6 7 7 8 8 83 9 82 10 81 11 6 12
REMARK SMILES IDX 1 13 2 14 3 15 84 16 4 17 5 18 15 19 16 20 17 21 18 22 19 23
REMARK SMILES IDX 80 24 20 25 79 26 21 27 22 28 23 29 73 30 24 31 78 32 72 33
REMARK SMILES IDX 74 34 25 35 77 36 71 37 70 38 26 40 58 41 38 42 57 43 39 44
REMARK SMILES IDX 42 45 56 46 75 47 40 48 41 49 55 51 76 52 43 53 27 54 28 55
REMARK SMILES IDX 36 56 29 57 30 58 34 59 37 60 31 61 32 62 35 63 33 64 59 65
REMARK SMILES IDX 60 66 68 67 61 68 62 69 66 70 69 71 63 72 64 73 67 74 65 75
REMARK SMILES IDX 44 76 45 77 53 78 46 79 47 80 51 81 54 82 48 83 49 84 52 85
REMARK SMILES IDX 50 86
REMARK H PARENT 74 39 42 50
REMARK Flexibility Score: inf
ROOT
ATOM      1  C   UNL     1      -3.212   5.317  -5.718  1.00  0.00     0.275 C 
ENDROOT
BRANCH   1   2
ATOM      2  C   UNL     1      -1.932   4.747  -5.058  1.00  0.00     0.275 C 
BRANCH   2   3
ATOM      3  O   UNL     1      -1.978   4.308  -3.689  1.00  0.00    -0.458 OA
BRANCH   3   4
ATOM      4  C   UNL     1      -3.014   3.536  -3.301  1.00  0.00     0.338 C 
ATOM      5  O   UNL     1      -3.972   3.200  -3.968  1.00  0.00    -0.246 OA
BRANCH   4   6
ATOM      6  C   UNL     1      -2.828   3.161  -1.892  1.00  0.00     0.063 A 
ATOM      7  C   UNL     1      -1.709   1.855  -0.253  1.00  0.00     0.071 A 
ATOM      8  C   UNL     1      -1.736   2.378  -1.539  1.00  0.00     0.044 A 
ATOM      9  N   UNL     1      -2.631   2.177   0.688  1.00  0.00    -0.256 NA
ATOM     10  C   UNL     1      -3.648   2.987   0.323  1.00  0.00     0.112 A 
ATOM     11  C   UNL     1      -3.818   3.461  -0.962  1.00  0.00     0.036 A 
BRANCH   7  12
ATOM     12  C   UNL     1      -0.855   0.701   0.036  1.00  0.00     0.000 A 
ATOM     13  C   UNL     1       2.826  -0.315   0.095  1.00  0.00     0.044 C 
ATOM     14  C   UNL     1       1.328  -0.383   0.133  1.00  0.00    -0.050 A 
ATOM     15  C   UNL     1       0.696  -1.632   0.209  1.00  0.00     0.003 A 
ATOM     16  C   UNL     1       0.546   0.780   0.046  1.00  0.00     0.013 A 
ATOM     17  C   UNL     1      -0.693  -1.722   0.234  1.00  0.00     0.001 A 
ATOM     18  C   UNL     1      -1.459  -0.563   0.159  1.00  0.00     0.010 A 
ENDBRANCH   7  12
ENDBRANCH   4   6
ENDBRANCH   3   4
ENDBRANCH   2   3
ENDBRANCH   1   2
BRANCH   1  19
ATOM     19  O   UNL     1      -3.966   6.431  -5.164  1.00  0.00    -0.458 OA
BRANCH  19  20
ATOM     20  C   UNL     1      -4.278   6.528  -3.847  1.00  0.00     0.338 C 
ATOM     21  O   UNL     1      -5.386   6.421  -3.373  1.00  0.00    -0.246 OA
BRANCH  20  22
ATOM     22  C   UNL     1      -3.106   6.939  -3.055  1.00  0.00     0.060 A 
ATOM     23  C   UNL     1      -3.046   6.641  -1.685  1.00  0.00     0.016 A 
ATOM     24  C   UNL     1      -2.013   7.471  -3.734  1.00  0.00     0.016 A 
ATOM     25  C   UNL     1      -1.835   6.757  -1.014  1.00  0.00     0.010 A 
ATOM     26  C   UNL     1      -0.796   7.469  -3.115  1.00  0.00     0.010 A 
ATOM     27  C   UNL     1      -0.720   7.157  -1.749  1.00  0.00    -0.014 A 
BRANCH  27  28
ATOM     28  C   UNL     1       0.492   7.672  -1.146  1.00  0.00     0.031 A 
ATOM     29  C   UNL     1       1.651   6.835  -0.826  1.00  0.00     0.074 A 
ATOM     30  C   UNL     1       0.494   9.022  -1.159  1.00  0.00     0.049 A 
ATOM     31  N   UNL     1       2.582   7.205  -0.019  1.00  0.00    -0.248 NA
ATOM     32  C   UNL     1       1.865   5.498  -1.372  1.00  0.00     0.031 C 
ATOM     33  C   UNL     1       1.581   9.971  -1.034  1.00  0.00     0.029 A 
ATOM     34  N   UNL     1      -0.661   9.825  -1.224  1.00  0.00    -0.354 N 
ATOM     35  C   UNL     1       3.635   6.329  -0.162  1.00  0.00     0.074 A 
ATOM     36  C   UNL     1       3.105   5.229  -0.936  1.00  0.00     0.031 C 
ATOM     37  C   UNL     1       1.053  11.175  -0.732  1.00  0.00     0.029 A 
ATOM     38  C   UNL     1      -0.375  10.979  -0.495  1.00  0.00     0.049 A 
ATOM     39  H   UNL     1      -1.502   9.614  -1.690  1.00  0.00     0.167 HD
ATOM     40  C   UNL     1       4.875   6.729   0.250  1.00  0.00     0.037 A 
ATOM     41  C   UNL     1      -1.017  11.149   0.699  1.00  0.00     0.037 A 
ATOM     42  C   UNL     1       4.804   8.085   0.791  1.00  0.00     0.049 A 
ATOM     43  C   UNL     1      -0.038  11.100   1.845  1.00  0.00     0.074 A 
ATOM     44  C   UNL     1       4.989   9.315   0.179  1.00  0.00     0.029 A 
ATOM     45  N   UNL     1       4.112   8.329   1.972  1.00  0.00    -0.354 N 
ATOM     46  N   UNL     1       1.069  10.408   1.829  1.00  0.00    -0.248 NA
ATOM     47  C   UNL     1      -0.217  11.863   3.073  1.00  0.00     0.031 C 
ATOM     48  C   UNL     1       4.319  10.293   0.954  1.00  0.00     0.029 A 
ATOM     49  C   UNL     1       3.752   9.663   2.049  1.00  0.00     0.049 A 
ATOM     50  H   UNL     1       3.908   7.651   2.656  1.00  0.00     0.167 HD
ATOM     51  C   UNL     1       1.778  10.679   2.966  1.00  0.00     0.074 A 
ATOM     52  C   UNL     1       0.922  11.575   3.724  1.00  0.00     0.031 C 
ATOM     53  C   UNL     1       3.026  10.178   3.196  1.00  0.00     0.037 A 
BRANCH  40  54
ATOM     54  C   UNL     1       6.174   6.059  -0.138  1.00  0.00     0.064 A 
ATOM     55  C   UNL     1       7.350   6.822  -0.334  1.00  0.00     0.173 A 
ATOM     56  C   UNL     1       6.324   4.678  -0.355  1.00  0.00     0.173 A 
ATOM     57  F   UNL     1       7.383   8.137  -0.086  1.00  0.00    -0.203 F 
ATOM     58  C   UNL     1       8.543   6.265  -0.801  1.00  0.00     0.198 A 
ATOM     59  C   UNL     1       7.511   4.124  -0.857  1.00  0.00     0.198 A 
ATOM     60  F   UNL     1       5.341   3.819  -0.055  1.00  0.00    -0.203 F 
ATOM     61  F   UNL     1       9.616   7.048  -0.982  1.00  0.00    -0.200 F 
ATOM     62  C   UNL     1       8.617   4.920  -1.090  1.00  0.00     0.200 A 
ATOM     63  F   UNL     1       7.576   2.810  -1.115  1.00  0.00    -0.200 F 
ATOM     64  F   UNL     1       9.750   4.391  -1.571  1.00  0.00    -0.200 F 
ENDBRANCH  40  54
BRANCH  41  65
ATOM     65  C   UNL     1      -2.411  10.593   0.733  1.00  0.00     0.064 A 
ATOM     66  C   UNL     1      -3.337  11.015  -0.250  1.00  0.00     0.173 A 
ATOM     67  C   UNL     1      -2.772   9.475   1.495  1.00  0.00     0.173 A 
ATOM     68  F   UNL     1      -3.056  12.079  -1.021  1.00  0.00    -0.203 F 
ATOM     69  C   UNL     1      -4.506  10.302  -0.520  1.00  0.00     0.198 A 
ATOM     70  C   UNL     1      -3.956   8.771   1.234  1.00  0.00     0.198 A 
ATOM     71  F   UNL     1      -1.953   9.006   2.446  1.00  0.00    -0.203 F 
ATOM     72  F   UNL     1      -5.304  10.682  -1.528  1.00  0.00    -0.200 F 
ATOM     73  C   UNL     1      -4.807   9.170   0.213  1.00  0.00     0.200 A 
ATOM     74  F   UNL     1      -4.240   7.659   1.928  1.00  0.00    -0.200 F 
ATOM     75  F   UNL     1      -5.894   8.443  -0.083  1.00  0.00    -0.200 F 
ENDBRANCH  41  65
BRANCH  53  76
ATOM     76  C   UNL     1       3.733  10.228   4.518  1.00  0.00     0.064 A 
ATOM     77  C   UNL     1       3.059  10.137   5.745  1.00  0.00     0.173 A 
ATOM     78  C   UNL     1       5.145  10.185   4.578  1.00  0.00     0.173 A 
ATOM     79  F   UNL     1       1.722  10.056   5.799  1.00  0.00    -0.203 F 
ATOM     80  C   UNL     1       3.749  10.066   6.953  1.00  0.00     0.198 A 
ATOM     81  C   UNL     1       5.829  10.049   5.781  1.00  0.00     0.198 A 
ATOM     82  F   UNL     1       5.897  10.243   3.469  1.00  0.00    -0.203 F 
ATOM     83  F   UNL     1       3.064  10.024   8.104  1.00  0.00    -0.200 F 
ATOM     84  C   UNL     1       5.131  10.006   6.970  1.00  0.00     0.200 A 
ATOM     85  F   UNL     1       7.164   9.935   5.778  1.00  0.00    -0.200 F 
ATOM     86  F   UNL     1       5.787   9.884   8.131  1.00  0.00    -0.200 F 
ENDBRANCH  53  76
ENDBRANCH  27  28
ENDBRANCH  20  22
ENDBRANCH  19  20
ENDBRANCH   1  19
TORSDOF 12
