REMARK SMILES O=C(OCCOC(=O)c1ccc(-c2c3nc(c(-c4c(F)c(F)c(F)c(F)c4F)c4ccc([nH]4)c(-c4c(F)c(F)c(F)c(F)c4F)c4nc(c(-c5c(F)c(F)c(F)c(F)c5F)c5ccc2[nH]5)C=C4)C=C3)cc1)c1ccc(/N=C\c2ccccc2O)cc1
REMARK SMILES IDX 4 1 3 2 2 3 1 4 72 5 73 6 86 7 74 8 85 9 75 10 76 11 77 12
REMARK SMILES IDX 78 13 79 14 83 15 80 16 82 17 81 18 84 19 5 21 6 22 7 23
REMARK SMILES IDX 8 24 9 25 10 26 71 27 11 28 70 29 12 30 13 31 14 32 64 33
REMARK SMILES IDX 15 34 69 35 63 36 65 37 16 38 68 39 62 40 61 41 17 43 49 44
REMARK SMILES IDX 29 45 48 46 30 47 33 48 47 49 66 50 31 51 32 52 46 54 67 55
REMARK SMILES IDX 34 56 18 57 19 58 27 59 20 60 21 61 25 62 28 63 22 64 23 65
REMARK SMILES IDX 26 66 24 67 50 68 51 69 59 70 52 71 53 72 57 73 60 74 54 75
REMARK SMILES IDX 55 76 58 77 56 78 35 79 36 80 44 81 37 82 38 83 42 84 45 85
REMARK SMILES IDX 39 86 40 87 43 88 41 89
REMARK H PARENT 84 20 65 42 33 53
REMARK Flexibility Score: inf
ROOT
ATOM      1  C   UNL     1       4.292   0.060  -1.435  1.00  0.00     0.275 C 
ENDROOT
BRANCH   1   2
ATOM      2  O   UNL     1       3.186  -0.629  -0.822  1.00  0.00    -0.458 OA
BRANCH   2   3
ATOM      3  C   UNL     1       2.895  -0.808   0.487  1.00  0.00     0.338 C 
ATOM      4  O   UNL     1       1.956  -1.538   0.800  1.00  0.00    -0.246 OA
BRANCH   3   5
ATOM      5  C   UNL     1       3.579  -0.065   1.583  1.00  0.00     0.060 A 
ATOM      6  C   UNL     1       4.950   0.187   1.665  1.00  0.00     0.018 A 
ATOM      7  C   UNL     1       2.765   0.352   2.647  1.00  0.00     0.018 A 
ATOM      8  C   UNL     1       5.486   0.873   2.764  1.00  0.00     0.029 A 
ATOM      9  C   UNL     1       3.307   1.032   3.741  1.00  0.00     0.029 A 
ATOM     10  C   UNL     1       4.679   1.252   3.836  1.00  0.00     0.063 A 
BRANCH  10  11
ATOM     11  N   UNL     1       5.297   1.776   4.981  1.00  0.00    -0.256 NA
ATOM     12  C   UNL     1       5.056   1.314   6.176  1.00  0.00     0.123 C 
BRANCH  12  13
ATOM     13  C   UNL     1       4.175   0.194   6.575  1.00  0.00     0.035 A 
ATOM     14  C   UNL     1       3.232   0.474   7.568  1.00  0.00     0.013 A 
ATOM     15  C   UNL     1       4.181  -1.063   5.959  1.00  0.00     0.124 A 
ATOM     16  C   UNL     1       2.254  -0.473   7.872  1.00  0.00     0.001 A 
ATOM     17  C   UNL     1       3.173  -1.983   6.236  1.00  0.00     0.047 A 
ATOM     18  C   UNL     1       2.197  -1.681   7.182  1.00  0.00     0.004 A 
BRANCH  15  19
ATOM     19  O   UNL     1       5.135  -1.471   5.071  1.00  0.00    -0.507 OA
ATOM     20  H   UNL     1       5.840  -0.897   4.844  1.00  0.00     0.293 HD
ENDBRANCH  15  19
ENDBRANCH  12  13
ENDBRANCH  10  11
ENDBRANCH   3   5
ENDBRANCH   2   3
ENDBRANCH   1   2
BRANCH   1  21
ATOM     21  C   UNL     1       4.081   1.560  -1.635  1.00  0.00     0.275 C 
BRANCH  21  22
ATOM     22  O   UNL     1       3.622   2.222  -0.445  1.00  0.00    -0.458 OA
BRANCH  22  23
ATOM     23  C   UNL     1       2.293   2.506  -0.430  1.00  0.00     0.338 C 
ATOM     24  O   UNL     1       1.501   2.294  -1.334  1.00  0.00    -0.246 OA
BRANCH  23  25
ATOM     25  C   UNL     1       1.869   3.034   0.891  1.00  0.00     0.060 A 
ATOM     26  C   UNL     1       0.556   2.767   1.300  1.00  0.00     0.016 A 
ATOM     27  C   UNL     1       2.718   3.760   1.733  1.00  0.00     0.016 A 
ATOM     28  C   UNL     1       0.085   3.236   2.530  1.00  0.00     0.010 A 
ATOM     29  C   UNL     1       2.248   4.216   2.976  1.00  0.00     0.010 A 
ATOM     30  C   UNL     1       0.920   3.977   3.377  1.00  0.00    -0.014 A 
BRANCH  30  31
ATOM     31  C   UNL     1       0.362   4.580   4.620  1.00  0.00     0.031 A 
ATOM     32  C   UNL     1       0.060   6.054   4.658  1.00  0.00     0.074 A 
ATOM     33  C   UNL     1       0.053   3.834   5.699  1.00  0.00     0.049 A 
ATOM     34  N   UNL     1      -0.545   6.748   5.591  1.00  0.00    -0.248 NA
ATOM     35  C   UNL     1       0.460   6.844   3.484  1.00  0.00     0.031 C 
ATOM     36  C   UNL     1       0.216   2.389   5.815  1.00  0.00     0.029 A 
ATOM     37  N   UNL     1      -0.466   4.207   6.919  1.00  0.00    -0.354 N 
ATOM     38  C   UNL     1      -0.669   8.032   5.083  1.00  0.00     0.074 A 
ATOM     39  C   UNL     1       0.021   8.051   3.810  1.00  0.00     0.031 C 
ATOM     40  C   UNL     1      -0.131   2.008   7.057  1.00  0.00     0.029 A 
ATOM     41  C   UNL     1      -0.547   3.177   7.822  1.00  0.00     0.049 A 
ATOM     42  H   UNL     1      -0.751   5.127   7.124  1.00  0.00     0.167 HD
ATOM     43  C   UNL     1      -1.352   9.084   5.593  1.00  0.00     0.037 A 
ATOM     44  C   UNL     1      -0.914   3.170   9.117  1.00  0.00     0.037 A 
ATOM     45  C   UNL     1      -2.015   9.103   6.870  1.00  0.00     0.049 A 
ATOM     46  C   UNL     1      -1.502   4.403   9.741  1.00  0.00     0.074 A 
ATOM     47  C   UNL     1      -2.759  10.121   7.443  1.00  0.00     0.029 A 
ATOM     48  N   UNL     1      -1.995   8.064   7.787  1.00  0.00    -0.354 N 
ATOM     49  N   UNL     1      -1.700   5.583   9.213  1.00  0.00    -0.248 NA
ATOM     50  C   UNL     1      -1.977   4.277  11.128  1.00  0.00     0.031 C 
ATOM     51  C   UNL     1      -3.145   9.718   8.726  1.00  0.00     0.029 A 
ATOM     52  C   UNL     1      -2.683   8.430   8.934  1.00  0.00     0.049 A 
ATOM     53  H   UNL     1      -1.556   7.194   7.645  1.00  0.00     0.167 HD
ATOM     54  C   UNL     1      -2.376   6.320  10.175  1.00  0.00     0.074 A 
ATOM     55  C   UNL     1      -2.538   5.460  11.328  1.00  0.00     0.031 C 
ATOM     56  C   UNL     1      -2.847   7.587  10.089  1.00  0.00     0.037 A 
BRANCH  43  57
ATOM     57  C   UNL     1      -1.450  10.307   4.733  1.00  0.00     0.064 A 
ATOM     58  C   UNL     1      -2.267  10.317   3.591  1.00  0.00     0.173 A 
ATOM     59  C   UNL     1      -0.767  11.482   5.067  1.00  0.00     0.173 A 
ATOM     60  F   UNL     1      -2.932   9.210   3.226  1.00  0.00    -0.203 F 
ATOM     61  C   UNL     1      -2.380  11.457   2.803  1.00  0.00     0.198 A 
ATOM     62  C   UNL     1      -0.901  12.629   4.289  1.00  0.00     0.198 A 
ATOM     63  F   UNL     1       0.023  11.522   6.151  1.00  0.00    -0.203 F 
ATOM     64  F   UNL     1      -3.136  11.434   1.697  1.00  0.00    -0.200 F 
ATOM     65  C   UNL     1      -1.702  12.614   3.156  1.00  0.00     0.200 A 
ATOM     66  F   UNL     1      -0.254  13.750   4.636  1.00  0.00    -0.200 F 
ATOM     67  F   UNL     1      -1.817  13.715   2.401  1.00  0.00    -0.200 F 
ENDBRANCH  43  57
BRANCH  44  68
ATOM     68  C   UNL     1      -0.735   1.951   9.941  1.00  0.00     0.064 A 
ATOM     69  C   UNL     1      -1.812   1.126  10.285  1.00  0.00     0.173 A 
ATOM     70  C   UNL     1       0.527   1.641  10.469  1.00  0.00     0.173 A 
ATOM     71  F   UNL     1      -3.042   1.412   9.837  1.00  0.00    -0.203 F 
ATOM     72  C   UNL     1      -1.636   0.038  11.139  1.00  0.00     0.198 A 
ATOM     73  C   UNL     1       0.704   0.545  11.309  1.00  0.00     0.198 A 
ATOM     74  F   UNL     1       1.588   2.402  10.162  1.00  0.00    -0.203 F 
ATOM     75  F   UNL     1      -2.688  -0.713  11.489  1.00  0.00    -0.200 F 
ATOM     76  C   UNL     1      -0.378  -0.253  11.648  1.00  0.00     0.200 A 
ATOM     77  F   UNL     1       1.924   0.260  11.784  1.00  0.00    -0.200 F 
ATOM     78  F   UNL     1      -0.209  -1.298  12.469  1.00  0.00    -0.200 F 
ENDBRANCH  44  68
BRANCH  56  79
ATOM     79  C   UNL     1      -3.635   8.108  11.256  1.00  0.00     0.064 A 
ATOM     80  C   UNL     1      -3.031   8.405  12.486  1.00  0.00     0.173 A 
ATOM     81  C   UNL     1      -5.021   8.302  11.143  1.00  0.00     0.173 A 
ATOM     82  F   UNL     1      -1.714   8.216  12.655  1.00  0.00    -0.203 F 
ATOM     83  C   UNL     1      -3.789   8.845  13.569  1.00  0.00     0.198 A 
ATOM     84  C   UNL     1      -5.771   8.771  12.218  1.00  0.00     0.198 A 
ATOM     85  F   UNL     1      -5.650   8.033   9.989  1.00  0.00    -0.203 F 
ATOM     86  F   UNL     1      -3.200   9.062  14.753  1.00  0.00    -0.200 F 
ATOM     87  C   UNL     1      -5.157   9.031  13.433  1.00  0.00     0.200 A 
ATOM     88  F   UNL     1      -7.091   8.958  12.081  1.00  0.00    -0.200 F 
ATOM     89  F   UNL     1      -5.885   9.449  14.478  1.00  0.00    -0.200 F 
ENDBRANCH  56  79
ENDBRANCH  30  31
ENDBRANCH  23  25
ENDBRANCH  22  23
ENDBRANCH  21  22
ENDBRANCH   1  21
TORSDOF 14
