REMARK SMILES CCCCCCNC(=O)Oc1cccc(-c2ccc([C@@H](C)C(=O)OCCOC(=O)c3ccc(-c4c5nc(c(-c6c(F)c(F)c(F)c(F)c6F)c6ccc([nH]6)c(-c6c(F)c(F)c(F)c(F)c6F)c6nc(c(-c7c(F)c(F)c(F)c(F)c7F)c7ccc4[nH]7)C=C6)C=C5)cc3)cc2[N+](=O)[O-])c1
REMARK SMILES IDX 20 1 21 2 19 3 16 4 17 5 94 6 18 7 93 8 15 9 11 10 12 11
REMARK SMILES IDX 98 12 13 13 14 14 10 15 8 16 7 17 9 19 6 20 5 21 4 22 3 23
REMARK SMILES IDX 2 24 1 25 95 26 96 27 97 28 22 29 23 30 24 31 25 32 26 33
REMARK SMILES IDX 27 34 28 35 29 36 30 37 31 38 92 39 32 40 91 41 33 42 34 43
REMARK SMILES IDX 35 44 85 45 36 46 90 47 84 48 86 49 37 50 89 51 83 52 82 53
REMARK SMILES IDX 38 55 70 56 50 57 69 58 51 59 54 60 68 61 87 62 52 63 53 64
REMARK SMILES IDX 67 66 88 67 55 68 39 69 40 70 48 71 41 72 42 73 46 74 49 75
REMARK SMILES IDX 43 76 44 77 47 78 45 79 71 80 72 81 80 82 73 83 74 84 78 85
REMARK SMILES IDX 81 86 75 87 76 88 79 89 77 90 56 91 57 92 65 93 58 94 59 95
REMARK SMILES IDX 63 96 66 97 60 98 61 99 64 100 62 101
REMARK H PARENT 7 18 86 54 54 65
REMARK Flexibility Score: inf
ROOT
ATOM      1  C   UNL     1      -5.207 -13.792  -1.083  1.00  0.00     0.126 C 
ATOM      2  C   UNL     1      -6.524 -14.471  -1.452  1.00  0.00     0.025 C 
ENDROOT
BRANCH   1   3
ATOM      3  C   UNL     1      -5.112 -12.373  -1.624  1.00  0.00    -0.027 A 
ATOM      4  C   UNL     1      -5.016  -9.674  -2.594  1.00  0.00     0.060 A 
ATOM      5  C   UNL     1      -5.166 -10.772  -3.463  1.00  0.00     0.016 A 
ATOM      6  C   UNL     1      -4.883  -9.975  -1.228  1.00  0.00     0.277 A 
ATOM      7  C   UNL     1      -5.221 -12.090  -2.990  1.00  0.00     0.006 A 
ATOM      8  C   UNL     1      -4.931 -11.296  -0.743  1.00  0.00     0.091 A 
BRANCH   4   9
ATOM      9  C   UNL     1      -5.062  -8.311  -3.158  1.00  0.00    -0.008 A 
ATOM     10  C   UNL     1      -4.147  -6.091  -3.483  1.00  0.00     0.133 A 
ATOM     11  C   UNL     1      -5.275  -5.697  -4.200  1.00  0.00     0.047 A 
ATOM     12  C   UNL     1      -4.027  -7.384  -2.966  1.00  0.00     0.056 A 
ATOM     13  C   UNL     1      -6.297  -6.613  -4.418  1.00  0.00     0.004 A 
ATOM     14  C   UNL     1      -6.193  -7.904  -3.896  1.00  0.00     0.009 A 
BRANCH  10  15
ATOM     15  O   UNL     1      -3.222  -5.079  -3.177  1.00  0.00    -0.410 OA
BRANCH  15  16
ATOM     16  C   UNL     1      -1.871  -5.299  -3.393  1.00  0.00     0.412 C 
ATOM     17  N   UNL     1      -1.090  -4.259  -2.968  1.00  0.00    -0.321 N 
ATOM     18  H   UNL     1      -0.120  -4.350  -3.108  1.00  0.00     0.167 HD
ATOM     19  O   UNL     1      -1.378  -6.290  -3.916  1.00  0.00    -0.224 OA
BRANCH  17  20
ATOM     20  C   UNL     1      -1.543  -3.037  -2.333  1.00  0.00     0.119 C 
BRANCH  20  21
ATOM     21  C   UNL     1      -0.961  -2.868  -0.929  1.00  0.00     0.021 C 
BRANCH  21  22
ATOM     22  C   UNL     1       0.566  -2.740  -0.874  1.00  0.00     0.002 C 
BRANCH  22  23
ATOM     23  C   UNL     1       1.163  -1.585  -1.685  1.00  0.00    -0.000 C 
BRANCH  23  24
ATOM     24  C   UNL     1       0.674  -0.187  -1.296  1.00  0.00    -0.003 C 
ATOM     25  C   UNL     1       1.043   0.206   0.126  1.00  0.00     0.004 C 
ENDBRANCH  23  24
ENDBRANCH  22  23
ENDBRANCH  21  22
ENDBRANCH  20  21
ENDBRANCH  17  20
ENDBRANCH  15  16
ENDBRANCH  10  15
ENDBRANCH   4   9
BRANCH   6  26
ATOM     26  N   UNL     1      -4.753  -8.924  -0.228  1.00  0.00     0.063 N 
ATOM     27  O   UNL     1      -3.798  -9.012   0.558  1.00  0.00    -0.258 OA
ATOM     28  O   UNL     1      -5.635  -8.056  -0.186  1.00  0.00    -0.258 OA
ENDBRANCH   6  26
ENDBRANCH   1   3
BRANCH   1  29
ATOM     29  C   UNL     1      -4.035 -14.712  -1.404  1.00  0.00     0.313 C 
ATOM     30  O   UNL     1      -3.680 -15.604  -0.638  1.00  0.00    -0.252 OA
BRANCH  29  31
ATOM     31  O   UNL     1      -3.466 -14.471  -2.613  1.00  0.00    -0.462 OA
BRANCH  31  32
ATOM     32  C   UNL     1      -2.311 -15.259  -2.960  1.00  0.00     0.274 C 
BRANCH  32  33
ATOM     33  C   UNL     1      -1.012 -14.483  -2.724  1.00  0.00     0.275 C 
BRANCH  33  34
ATOM     34  O   UNL     1      -0.756 -14.298  -1.319  1.00  0.00    -0.458 OA
BRANCH  34  35
ATOM     35  C   UNL     1      -1.200 -13.127  -0.808  1.00  0.00     0.338 C 
ATOM     36  O   UNL     1      -1.747 -12.216  -1.405  1.00  0.00    -0.246 OA
BRANCH  35  37
ATOM     37  C   UNL     1      -1.067 -13.144   0.656  1.00  0.00     0.060 A 
ATOM     38  C   UNL     1      -2.238 -13.098   1.415  1.00  0.00     0.016 A 
ATOM     39  C   UNL     1       0.182 -13.107   1.277  1.00  0.00     0.016 A 
ATOM     40  C   UNL     1      -2.174 -12.990   2.798  1.00  0.00     0.010 A 
ATOM     41  C   UNL     1       0.248 -13.010   2.671  1.00  0.00     0.010 A 
ATOM     42  C   UNL     1      -0.930 -12.932   3.437  1.00  0.00    -0.014 A 
BRANCH  42  43
ATOM     43  C   UNL     1      -0.879 -12.732   4.905  1.00  0.00     0.031 A 
ATOM     44  C   UNL     1      -0.491 -11.394   5.462  1.00  0.00     0.074 A 
ATOM     45  C   UNL     1      -1.222 -13.738   5.730  1.00  0.00     0.049 A 
ATOM     46  N   UNL     1      -0.332 -11.030   6.710  1.00  0.00    -0.248 NA
ATOM     47  C   UNL     1      -0.247 -10.321   4.486  1.00  0.00     0.031 C 
ATOM     48  C   UNL     1      -1.659 -15.066   5.303  1.00  0.00     0.029 A 
ATOM     49  N   UNL     1      -1.259 -13.795   7.100  1.00  0.00    -0.354 N 
ATOM     50  C   UNL     1       0.053  -9.697   6.668  1.00  0.00     0.074 A 
ATOM     51  C   UNL     1       0.117  -9.318   5.272  1.00  0.00     0.031 C 
ATOM     52  C   UNL     1      -1.924 -15.809   6.390  1.00  0.00     0.029 A 
ATOM     53  C   UNL     1      -1.636 -15.022   7.587  1.00  0.00     0.049 A 
ATOM     54  H   UNL     1      -1.037 -13.030   7.679  1.00  0.00     0.167 HD
ATOM     55  C   UNL     1       0.322  -8.866   7.703  1.00  0.00     0.037 A 
ATOM     56  C   UNL     1      -1.717 -15.466   8.855  1.00  0.00     0.037 A 
ATOM     57  C   UNL     1       0.229  -9.239   9.090  1.00  0.00     0.049 A 
ATOM     58  C   UNL     1      -1.379 -14.531   9.984  1.00  0.00     0.074 A 
ATOM     59  C   UNL     1       0.465  -8.463  10.212  1.00  0.00     0.029 A 
ATOM     60  N   UNL     1      -0.136 -10.498   9.545  1.00  0.00    -0.354 N 
ATOM     61  N   UNL     1      -1.008 -13.275   9.936  1.00  0.00    -0.248 NA
ATOM     62  C   UNL     1      -1.469 -15.078  11.345  1.00  0.00     0.031 C 
ATOM     63  C   UNL     1       0.280  -9.263  11.345  1.00  0.00     0.029 A 
ATOM     64  C   UNL     1      -0.114 -10.525  10.931  1.00  0.00     0.049 A 
ATOM     65  H   UNL     1      -0.375 -11.259   8.969  1.00  0.00     0.167 HD
ATOM     66  C   UNL     1      -0.839 -12.876  11.254  1.00  0.00     0.074 A 
ATOM     67  C   UNL     1      -1.165 -14.019  12.082  1.00  0.00     0.031 C 
ATOM     68  C   UNL     1      -0.446 -11.671  11.737  1.00  0.00     0.037 A 
BRANCH  55  69
ATOM     69  C   UNL     1       0.774  -7.474   7.372  1.00  0.00     0.064 A 
ATOM     70  C   UNL     1      -0.112  -6.506   6.880  1.00  0.00     0.173 A 
ATOM     71  C   UNL     1       2.110  -7.098   7.582  1.00  0.00     0.173 A 
ATOM     72  F   UNL     1      -1.396  -6.820   6.652  1.00  0.00    -0.203 F 
ATOM     73  C   UNL     1       0.327  -5.216   6.588  1.00  0.00     0.198 A 
ATOM     74  C   UNL     1       2.540  -5.801   7.314  1.00  0.00     0.198 A 
ATOM     75  F   UNL     1       2.996  -7.986   8.056  1.00  0.00    -0.203 F 
ATOM     76  F   UNL     1      -0.527  -4.317   6.082  1.00  0.00    -0.200 F 
ATOM     77  C   UNL     1       1.650  -4.864   6.811  1.00  0.00     0.200 A 
ATOM     78  F   UNL     1       3.816  -5.459   7.541  1.00  0.00    -0.200 F 
ATOM     79  F   UNL     1       2.070  -3.621   6.536  1.00  0.00    -0.200 F 
ENDBRANCH  55  69
BRANCH  56  80
ATOM     80  C   UNL     1      -2.120 -16.870   9.122  1.00  0.00     0.064 A 
ATOM     81  C   UNL     1      -3.352 -17.168   9.720  1.00  0.00     0.173 A 
ATOM     82  C   UNL     1      -1.278 -17.942   8.791  1.00  0.00     0.173 A 
ATOM     83  F   UNL     1      -4.179 -16.175  10.079  1.00  0.00    -0.203 F 
ATOM     84  C   UNL     1      -3.720 -18.485   9.990  1.00  0.00     0.198 A 
ATOM     85  C   UNL     1      -1.659 -19.259   9.036  1.00  0.00     0.198 A 
ATOM     86  F   UNL     1      -0.087 -17.709   8.219  1.00  0.00    -0.203 F 
ATOM     87  F   UNL     1      -4.884 -18.740  10.602  1.00  0.00    -0.200 F 
ATOM     88  C   UNL     1      -2.876 -19.529   9.642  1.00  0.00     0.200 A 
ATOM     89  F   UNL     1      -0.845 -20.265   8.689  1.00  0.00    -0.200 F 
ATOM     90  F   UNL     1      -3.233 -20.795   9.899  1.00  0.00    -0.200 F 
ENDBRANCH  56  80
BRANCH  68  91
ATOM     91  C   UNL     1      -0.374 -11.524  13.228  1.00  0.00     0.064 A 
ATOM     92  C   UNL     1       0.649 -12.124  13.976  1.00  0.00     0.173 A 
ATOM     93  C   UNL     1      -1.325 -10.752  13.912  1.00  0.00     0.173 A 
ATOM     94  F   UNL     1       1.572 -12.886  13.369  1.00  0.00    -0.203 F 
ATOM     95  C   UNL     1       0.703 -11.977  15.360  1.00  0.00     0.198 A 
ATOM     96  C   UNL     1      -1.252 -10.586  15.292  1.00  0.00     0.198 A 
ATOM     97  F   UNL     1      -2.320 -10.153  13.241  1.00  0.00    -0.203 F 
ATOM     98  F   UNL     1       1.662 -12.598  16.061  1.00  0.00    -0.200 F 
ATOM     99  C   UNL     1      -0.244 -11.204  16.015  1.00  0.00     0.200 A 
ATOM    100  F   UNL     1      -2.162  -9.831  15.923  1.00  0.00    -0.200 F 
ATOM    101  F   UNL     1      -0.189 -11.063  17.347  1.00  0.00    -0.200 F 
ENDBRANCH  68  91
ENDBRANCH  42  43
ENDBRANCH  35  37
ENDBRANCH  34  35
ENDBRANCH  33  34
ENDBRANCH  32  33
ENDBRANCH  31  32
ENDBRANCH  29  31
ENDBRANCH   1  29
TORSDOF 21
