REMARK SMILES O=C(CN1C(=O)N/C(=C/c2cc3c(cc2Cl)OCO3)C1=O)OCCOC(=O)c1ccc(-c2c3nc(c(-c4c(F)c(F)c(F)c(F)c4F)c4ccc([nH]4)c(-c4c(F)c(F)c(F)c(F)c4F)c4nc(c(-c5c(F)c(F)c(F)c(F)c5F)c5ccc2[nH]5)C=C4)C=C3)cc1
REMARK SMILES IDX 23 1 22 2 2 3 1 4 3 5 4 6 5 7 20 8 6 9 7 10 8 11 21 12 9 14
REMARK SMILES IDX 10 15 11 16 15 17 12 18 14 19 16 20 13 21 19 22 17 23 18 24
REMARK SMILES IDX 24 25 25 26 26 27 27 28 28 29 29 30 90 31 30 32 89 33 31 34
REMARK SMILES IDX 32 35 33 36 83 37 34 38 88 39 82 40 84 41 35 42 87 43 81 44
REMARK SMILES IDX 80 45 36 47 68 48 48 49 67 50 49 51 52 52 66 53 85 54 50 55
REMARK SMILES IDX 51 56 65 58 86 59 53 60 37 61 38 62 46 63 39 64 40 65 44 66
REMARK SMILES IDX 47 67 41 68 42 69 45 70 43 71 69 72 70 73 78 74 71 75 72 76
REMARK SMILES IDX 76 77 79 78 73 79 74 80 77 81 75 82 54 83 55 84 63 85 56 86
REMARK SMILES IDX 57 87 61 88 64 89 58 90 59 91 62 92 60 93
REMARK H PARENT 7 13 84 46 52 57
REMARK Flexibility Score: inf
ROOT
ATOM      1  C   UNL     1       4.380   0.355   0.805  1.00  0.00     0.274 C 
ENDROOT
BRANCH   1   2
ATOM      2  O   UNL     1       3.020   0.729   0.498  1.00  0.00    -0.461 OA
BRANCH   2   3
ATOM      3  C   UNL     1       2.219   0.091  -0.385  1.00  0.00     0.326 C 
ATOM      4  O   UNL     1       1.006   0.035  -0.175  1.00  0.00    -0.250 OA
BRANCH   3   5
ATOM      5  C   UNL     1       2.813  -0.641  -1.584  1.00  0.00     0.253 C 
BRANCH   5   6
ATOM      6  N   UNL     1       3.838   0.051  -2.308  1.00  0.00    -0.247 N 
ATOM      7  C   UNL     1       4.915  -0.541  -2.928  1.00  0.00     0.329 C 
ATOM      8  C   UNL     1       3.654   1.321  -2.763  1.00  0.00     0.279 C 
ATOM      9  O   UNL     1       5.250  -1.712  -2.865  1.00  0.00    -0.248 OA
ATOM     10  N   UNL     1       5.561   0.438  -3.674  1.00  0.00    -0.303 N 
ATOM     11  C   UNL     1       4.898   1.622  -3.540  1.00  0.00     0.109 C 
ATOM     12  O   UNL     1       2.668   2.019  -2.622  1.00  0.00    -0.267 OA
ATOM     13  H   UNL     1       6.371   0.298  -4.215  1.00  0.00     0.172 HD
ATOM     14  C   UNL     1       5.319   2.832  -3.919  1.00  0.00     0.042 C 
BRANCH  14  15
ATOM     15  C   UNL     1       4.597   4.012  -3.416  1.00  0.00    -0.001 A 
ATOM     16  C   UNL     1       3.628   4.605  -4.238  1.00  0.00     0.060 A 
ATOM     17  C   UNL     1       4.705   4.409  -2.051  1.00  0.00     0.052 A 
ATOM     18  C   UNL     1       2.779   5.528  -3.662  1.00  0.00     0.166 A 
ATOM     19  C   UNL     1       3.832   5.349  -1.502  1.00  0.00     0.071 A 
ATOM     20  Cl  UNL     1       5.869   3.685  -0.987  1.00  0.00    -0.084 Cl
ATOM     21  C   UNL     1       2.872   5.879  -2.334  1.00  0.00     0.167 A 
ATOM     22  O   UNL     1       1.747   6.152  -4.290  1.00  0.00    -0.454 OA
ATOM     23  O   UNL     1       1.910   6.765  -1.962  1.00  0.00    -0.454 OA
ATOM     24  C   UNL     1       1.179   6.906  -3.198  1.00  0.00     0.468 C 
ENDBRANCH  14  15
ENDBRANCH   5   6
ENDBRANCH   3   5
ENDBRANCH   2   3
ENDBRANCH   1   2
BRANCH   1  25
ATOM     25  C   UNL     1       4.444  -0.812   1.793  1.00  0.00     0.275 C 
BRANCH  25  26
ATOM     26  O   UNL     1       4.043  -2.024   1.133  1.00  0.00    -0.458 OA
BRANCH  26  27
ATOM     27  C   UNL     1       2.801  -2.494   1.409  1.00  0.00     0.338 C 
ATOM     28  O   UNL     1       2.010  -2.065   2.228  1.00  0.00    -0.246 OA
BRANCH  27  29
ATOM     29  C   UNL     1       2.481  -3.497   0.370  1.00  0.00     0.060 A 
ATOM     30  C   UNL     1       1.281  -3.377  -0.346  1.00  0.00     0.016 A 
ATOM     31  C   UNL     1       3.416  -4.476   0.026  1.00  0.00     0.016 A 
ATOM     32  C   UNL     1       1.019  -4.234  -1.419  1.00  0.00     0.010 A 
ATOM     33  C   UNL     1       3.143  -5.345  -1.028  1.00  0.00     0.010 A 
ATOM     34  C   UNL     1       1.938  -5.239  -1.745  1.00  0.00    -0.014 A 
BRANCH  34  35
ATOM     35  C   UNL     1       1.578  -6.334  -2.676  1.00  0.00     0.031 A 
ATOM     36  C   UNL     1       1.067  -7.612  -2.078  1.00  0.00     0.074 A 
ATOM     37  C   UNL     1       1.775  -6.238  -4.001  1.00  0.00     0.049 A 
ATOM     38  N   UNL     1       0.844  -8.770  -2.643  1.00  0.00    -0.248 NA
ATOM     39  C   UNL     1       0.795  -7.580  -0.632  1.00  0.00     0.031 C 
ATOM     40  C   UNL     1       2.246  -5.049  -4.704  1.00  0.00     0.029 A 
ATOM     41  N   UNL     1       1.632  -7.184  -4.988  1.00  0.00    -0.354 N 
ATOM     42  C   UNL     1       0.424  -9.607  -1.619  1.00  0.00     0.074 A 
ATOM     43  C   UNL     1       0.455  -8.835  -0.396  1.00  0.00     0.031 C 
ATOM     44  C   UNL     1       2.380  -5.343  -6.009  1.00  0.00     0.029 A 
ATOM     45  C   UNL     1       2.046  -6.753  -6.223  1.00  0.00     0.049 A 
ATOM     46  H   UNL     1       1.268  -8.084  -4.824  1.00  0.00     0.167 HD
ATOM     47  C   UNL     1       0.046 -10.905  -1.692  1.00  0.00     0.037 A 
ATOM     48  C   UNL     1       2.176  -7.431  -7.382  1.00  0.00     0.037 A 
ATOM     49  C   UNL     1       0.036 -11.673  -2.908  1.00  0.00     0.049 A 
ATOM     50  C   UNL     1       1.814  -8.895  -7.434  1.00  0.00     0.074 A 
ATOM     51  C   UNL     1      -0.354 -12.986  -3.094  1.00  0.00     0.029 A 
ATOM     52  N   UNL     1       0.457 -11.199  -4.143  1.00  0.00    -0.354 N 
ATOM     53  N   UNL     1       1.381  -9.677  -6.474  1.00  0.00    -0.248 NA
ATOM     54  C   UNL     1       1.959  -9.572  -8.732  1.00  0.00     0.031 C 
ATOM     55  C   UNL     1      -0.104 -13.329  -4.426  1.00  0.00     0.029 A 
ATOM     56  C   UNL     1       0.367 -12.206  -5.090  1.00  0.00     0.049 A 
ATOM     57  H   UNL     1       0.772 -10.284  -4.319  1.00  0.00     0.167 HD
ATOM     58  C   UNL     1       1.168 -10.922  -7.056  1.00  0.00     0.074 A 
ATOM     59  C   UNL     1       1.522 -10.793  -8.454  1.00  0.00     0.031 C 
ATOM     60  C   UNL     1       0.710 -12.063  -6.484  1.00  0.00     0.037 A 
BRANCH  47  61
ATOM     61  C   UNL     1      -0.331 -11.578  -0.404  1.00  0.00     0.064 A 
ATOM     62  C   UNL     1      -1.477 -11.210   0.319  1.00  0.00     0.173 A 
ATOM     63  C   UNL     1       0.482 -12.589   0.128  1.00  0.00     0.173 A 
ATOM     64  F   UNL     1      -2.281 -10.237  -0.137  1.00  0.00    -0.203 F 
ATOM     65  C   UNL     1      -1.765 -11.794   1.549  1.00  0.00     0.198 A 
ATOM     66  C   UNL     1       0.169 -13.199   1.339  1.00  0.00     0.198 A 
ATOM     67  F   UNL     1       1.588 -12.982  -0.522  1.00  0.00    -0.203 F 
ATOM     68  F   UNL     1      -2.821 -11.371   2.258  1.00  0.00    -0.200 F 
ATOM     69  C   UNL     1      -0.945 -12.790   2.056  1.00  0.00     0.200 A 
ATOM     70  F   UNL     1       0.955 -14.171   1.820  1.00  0.00    -0.200 F 
ATOM     71  F   UNL     1      -1.220 -13.347   3.244  1.00  0.00    -0.200 F 
ENDBRANCH  47  61
BRANCH  48  72
ATOM     72  C   UNL     1       2.688  -6.729  -8.588  1.00  0.00     0.064 A 
ATOM     73  C   UNL     1       1.850  -6.462  -9.680  1.00  0.00     0.173 A 
ATOM     74  C   UNL     1       4.021  -6.300  -8.670  1.00  0.00     0.173 A 
ATOM     75  F   UNL     1       0.576  -6.878  -9.663  1.00  0.00    -0.203 F 
ATOM     76  C   UNL     1       2.328  -5.798 -10.809  1.00  0.00     0.198 A 
ATOM     77  C   UNL     1       4.490  -5.610  -9.787  1.00  0.00     0.198 A 
ATOM     78  F   UNL     1       4.866  -6.535  -7.655  1.00  0.00    -0.203 F 
ATOM     79  F   UNL     1       1.515  -5.587 -11.853  1.00  0.00    -0.200 F 
ATOM     80  C   UNL     1       3.644  -5.363 -10.857  1.00  0.00     0.200 A 
ATOM     81  F   UNL     1       5.759  -5.181  -9.824  1.00  0.00    -0.200 F 
ATOM     82  F   UNL     1       4.098  -4.712 -11.936  1.00  0.00    -0.200 F 
ENDBRANCH  48  72
BRANCH  60  83
ATOM     83  C   UNL     1       0.501 -13.262  -7.367  1.00  0.00     0.064 A 
ATOM     84  C   UNL     1       1.573 -13.998  -7.891  1.00  0.00     0.173 A 
ATOM     85  C   UNL     1      -0.799 -13.730  -7.618  1.00  0.00     0.173 A 
ATOM     86  F   UNL     1       2.835 -13.589  -7.692  1.00  0.00    -0.203 F 
ATOM     87  C   UNL     1       1.351 -15.150  -8.644  1.00  0.00     0.198 A 
ATOM     88  C   UNL     1      -1.017 -14.899  -8.342  1.00  0.00     0.198 A 
ATOM     89  F   UNL     1      -1.861 -13.069  -7.133  1.00  0.00    -0.203 F 
ATOM     90  F   UNL     1       2.389 -15.819  -9.164  1.00  0.00    -0.200 F 
ATOM     91  C   UNL     1       0.058 -15.605  -8.858  1.00  0.00     0.200 A 
ATOM     92  F   UNL     1      -2.266 -15.346  -8.531  1.00  0.00    -0.200 F 
ATOM     93  F   UNL     1      -0.152 -16.725  -9.564  1.00  0.00    -0.200 F 
ENDBRANCH  60  83
ENDBRANCH  34  35
ENDBRANCH  27  29
ENDBRANCH  26  27
ENDBRANCH  25  26
ENDBRANCH   1  25
TORSDOF 13
