REMARK SMILES Cc1cc2c(N[C@@H]3CCCCC[C@@H]3C(=O)OCCOC(=O)c3ccc(-c4c5nc(c(-c6c(F)c(F)c(F)c(F)c6F)c6ccc([nH]6)c(-c6c(F)c(F)c(F)c(F)c6F)c6nc(c(-c7c(F)c(F)c(F)c(F)c7F)c7ccc4[nH]7)C=C6)C=C5)cc3)ncnc2s1
REMARK SMILES IDX 17 1 16 2 14 3 15 4 13 5 7 6 6 7 5 9 1 10 2 11 3 12 89 13
REMARK SMILES IDX 4 14 88 15 87 16 85 17 86 18 8 19 9 20 12 22 11 23 10 24
REMARK SMILES IDX 18 26 19 27 20 28 21 29 22 30 23 31 84 32 24 33 83 34 25 35
REMARK SMILES IDX 26 36 27 37 77 38 28 39 82 40 76 41 78 42 29 43 81 44 75 45
REMARK SMILES IDX 74 46 30 48 62 49 42 50 61 51 43 52 46 53 60 54 79 55 44 56
REMARK SMILES IDX 45 57 59 59 80 60 47 61 31 62 32 63 40 64 33 65 34 66 38 67
REMARK SMILES IDX 41 68 35 69 36 70 39 71 37 72 63 73 64 74 72 75 65 76 66 77
REMARK SMILES IDX 70 78 73 79 67 80 68 81 71 82 69 83 48 84 49 85 57 86 50 87
REMARK SMILES IDX 51 88 55 89 58 90 52 91 53 92 56 93 54 94
REMARK H PARENT 6 8 78 47 46 58
REMARK Flexibility Score: 100.00
ROOT
ATOM      1  C   UNL     1       3.637  -4.448  -3.571  1.00  0.00     0.274 C 
ENDROOT
BRANCH   1   2
ATOM      2  O   UNL     1       3.365  -3.841  -2.294  1.00  0.00    -0.462 OA
BRANCH   2   3
ATOM      3  C   UNL     1       3.050  -4.675  -1.261  1.00  0.00     0.311 C 
ATOM      4  O   UNL     1       2.915  -5.889  -1.381  1.00  0.00    -0.252 OA
BRANCH   3   5
ATOM      5  C   UNL     1       3.031  -3.952   0.095  1.00  0.00     0.121 C 
BRANCH   5   6
ATOM      6  C   UNL     1       1.982  -4.613   1.030  1.00  0.00     0.095 C 
BRANCH   6   7
ATOM      7  N   UNL     1       0.778  -5.184   0.408  1.00  0.00    -0.366 N 
ATOM      8  H   UNL     1       0.509  -6.063   0.760  1.00  0.00     0.162 HD
BRANCH   7   9
ATOM      9  C   UNL     1      -0.033  -4.689  -0.585  1.00  0.00     0.138 A 
ATOM     10  C   UNL     1      -0.038   0.390  -0.566  1.00  0.00     0.056 C 
ATOM     11  C   UNL     1      -0.418  -1.011  -0.895  1.00  0.00     0.004 A 
ATOM     12  C   UNL     1      -0.204  -2.130  -0.122  1.00  0.00     0.029 A 
ATOM     13  S   UNL     1      -1.143  -1.428  -2.381  1.00  0.00    -0.121 S 
ATOM     14  C   UNL     1      -0.368  -3.350  -0.842  1.00  0.00     0.054 A 
ATOM     15  C   UNL     1      -0.998  -3.098  -2.052  1.00  0.00     0.129 A 
ATOM     16  N   UNL     1      -1.420  -4.013  -2.940  1.00  0.00    -0.225 NA
ATOM     17  N   UNL     1      -0.499  -5.635  -1.431  1.00  0.00    -0.219 NA
ATOM     18  C   UNL     1      -1.160  -5.257  -2.535  1.00  0.00     0.225 A 
ENDBRANCH   7   9
ENDBRANCH   6   7
BRANCH   6  19
ATOM     19  C   UNL     1       1.594  -3.979   2.372  1.00  0.00     0.026 C 
BRANCH  19  20
ATOM     20  C   UNL     1       2.611  -3.067   3.037  1.00  0.00     0.002 CG0
ATOM     21  G   UNL     1       2.686  -1.684   2.410  1.00  0.00     0.000 G0
ENDBRANCH  19  20
ENDBRANCH   6  19
ENDBRANCH   5   6
BRANCH   5  22
ATOM     22  C   UNL     1       3.111  -2.422  -0.040  1.00  0.00     0.017 C 
BRANCH  22  23
ATOM     23  C   UNL     1       3.567  -1.625   1.178  1.00  0.00     0.001 C 
BRANCH  23  24
ATOM     24  C   UNL     1       2.686  -1.684   2.410  1.00  0.00     0.000 CG0
ATOM     25  G   UNL     1       2.611  -3.067   3.037  1.00  0.00     0.000 G0
ENDBRANCH  23  24
ENDBRANCH  22  23
ENDBRANCH   5  22
ENDBRANCH   3   5
ENDBRANCH   2   3
ENDBRANCH   1   2
BRANCH   1  26
ATOM     26  C   UNL     1       5.092  -4.892  -3.699  1.00  0.00     0.275 C 
BRANCH  26  27
ATOM     27  O   UNL     1       5.354  -6.043  -2.898  1.00  0.00    -0.458 OA
BRANCH  27  28
ATOM     28  C   UNL     1       5.764  -5.797  -1.638  1.00  0.00     0.338 C 
ATOM     29  O   UNL     1       5.892  -4.699  -1.102  1.00  0.00    -0.246 OA
BRANCH  28  30
ATOM     30  C   UNL     1       6.174  -7.050  -1.001  1.00  0.00     0.060 A 
ATOM     31  C   UNL     1       6.670  -6.965   0.303  1.00  0.00     0.016 A 
ATOM     32  C   UNL     1       6.307  -8.217  -1.767  1.00  0.00     0.016 A 
ATOM     33  C   UNL     1       7.495  -7.970   0.757  1.00  0.00     0.010 A 
ATOM     34  C   UNL     1       7.141  -9.215  -1.318  1.00  0.00     0.010 A 
ATOM     35  C   UNL     1       7.793  -9.033  -0.102  1.00  0.00    -0.014 A 
BRANCH  35  36
ATOM     36  C   UNL     1       8.816  -9.963   0.323  1.00  0.00     0.031 A 
ATOM     37  C   UNL     1       8.397 -10.888   1.396  1.00  0.00     0.074 A 
ATOM     38  C   UNL     1      10.017 -10.022  -0.282  1.00  0.00     0.049 A 
ATOM     39  N   UNL     1       8.913 -11.035   2.571  1.00  0.00    -0.248 NA
ATOM     40  C   UNL     1       7.181 -11.681   1.161  1.00  0.00     0.031 C 
ATOM     41  C   UNL     1      10.437  -9.370  -1.526  1.00  0.00     0.029 A 
ATOM     42  N   UNL     1      11.095 -10.779   0.053  1.00  0.00    -0.354 N 
ATOM     43  C   UNL     1       8.184 -12.055   3.173  1.00  0.00     0.074 A 
ATOM     44  C   UNL     1       7.055 -12.320   2.321  1.00  0.00     0.031 C 
ATOM     45  C   UNL     1      11.595  -9.928  -1.947  1.00  0.00     0.029 A 
ATOM     46  C   UNL     1      12.052 -10.877  -0.945  1.00  0.00     0.049 A 
ATOM     47  H   UNL     1      11.189 -11.220   0.928  1.00  0.00     0.167 HD
ATOM     48  C   UNL     1       8.685 -12.761   4.220  1.00  0.00     0.037 A 
ATOM     49  C   UNL     1      13.089 -11.748  -0.968  1.00  0.00     0.037 A 
ATOM     50  C   UNL     1       9.725 -12.039   4.901  1.00  0.00     0.049 A 
ATOM     51  C   UNL     1      13.304 -12.221   0.423  1.00  0.00     0.074 A 
ATOM     52  C   UNL     1       9.780 -10.839   5.584  1.00  0.00     0.029 A 
ATOM     53  N   UNL     1      11.028 -12.388   4.655  1.00  0.00    -0.354 N 
ATOM     54  N   UNL     1      13.761 -11.480   1.394  1.00  0.00    -0.248 NA
ATOM     55  C   UNL     1      12.635 -13.446   0.837  1.00  0.00     0.031 C 
ATOM     56  C   UNL     1      11.074 -10.309   5.308  1.00  0.00     0.029 A 
ATOM     57  C   UNL     1      11.741 -11.228   4.497  1.00  0.00     0.049 A 
ATOM     58  H   UNL     1      11.386 -13.303   4.603  1.00  0.00     0.167 HD
ATOM     59  C   UNL     1      13.086 -11.921   2.522  1.00  0.00     0.074 A 
ATOM     60  C   UNL     1      12.501 -13.200   2.142  1.00  0.00     0.031 C 
ATOM     61  C   UNL     1      12.833 -11.075   3.563  1.00  0.00     0.037 A 
BRANCH  48  62
ATOM     62  C   UNL     1       8.460 -14.239   4.398  1.00  0.00     0.064 A 
ATOM     63  C   UNL     1       8.861 -14.861   5.595  1.00  0.00     0.173 A 
ATOM     64  C   UNL     1       8.134 -15.111   3.335  1.00  0.00     0.173 A 
ATOM     65  F   UNL     1       9.227 -14.127   6.656  1.00  0.00    -0.203 F 
ATOM     66  C   UNL     1       8.984 -16.249   5.697  1.00  0.00     0.198 A 
ATOM     67  C   UNL     1       8.201 -16.496   3.459  1.00  0.00     0.198 A 
ATOM     68  F   UNL     1       7.851 -14.663   2.106  1.00  0.00    -0.203 F 
ATOM     69  F   UNL     1       9.486 -16.790   6.814  1.00  0.00    -0.200 F 
ATOM     70  C   UNL     1       8.655 -17.065   4.630  1.00  0.00     0.200 A 
ATOM     71  F   UNL     1       7.900 -17.267   2.405  1.00  0.00    -0.200 F 
ATOM     72  F   UNL     1       8.825 -18.390   4.707  1.00  0.00    -0.200 F 
ENDBRANCH  48  62
BRANCH  49  73
ATOM     73  C   UNL     1      13.691 -12.432  -2.137  1.00  0.00     0.064 A 
ATOM     74  C   UNL     1      14.914 -13.113  -2.016  1.00  0.00     0.173 A 
ATOM     75  C   UNL     1      12.955 -12.677  -3.313  1.00  0.00     0.173 A 
ATOM     76  F   UNL     1      15.660 -12.967  -0.911  1.00  0.00    -0.203 F 
ATOM     77  C   UNL     1      15.354 -14.013  -2.991  1.00  0.00     0.198 A 
ATOM     78  C   UNL     1      13.401 -13.565  -4.293  1.00  0.00     0.198 A 
ATOM     79  F   UNL     1      11.741 -12.139  -3.495  1.00  0.00    -0.203 F 
ATOM     80  F   UNL     1      16.489 -14.699  -2.803  1.00  0.00    -0.200 F 
ATOM     81  C   UNL     1      14.591 -14.246  -4.123  1.00  0.00     0.200 A 
ATOM     82  F   UNL     1      12.638 -13.805  -5.368  1.00  0.00    -0.200 F 
ATOM     83  F   UNL     1      14.979 -15.157  -5.027  1.00  0.00    -0.200 F 
ENDBRANCH  49  73
BRANCH  61  84
ATOM     84  C   UNL     1      13.563  -9.762   3.588  1.00  0.00     0.064 A 
ATOM     85  C   UNL     1      13.393  -8.756   2.621  1.00  0.00     0.173 A 
ATOM     86  C   UNL     1      14.344  -9.455   4.710  1.00  0.00     0.173 A 
ATOM     87  F   UNL     1      12.581  -8.937   1.572  1.00  0.00    -0.203 F 
ATOM     88  C   UNL     1      14.013  -7.515   2.755  1.00  0.00     0.198 A 
ATOM     89  C   UNL     1      14.930  -8.201   4.860  1.00  0.00     0.198 A 
ATOM     90  F   UNL     1      14.493 -10.357   5.692  1.00  0.00    -0.203 F 
ATOM     91  F   UNL     1      13.844  -6.573   1.815  1.00  0.00    -0.200 F 
ATOM     92  C   UNL     1      14.773  -7.236   3.879  1.00  0.00     0.200 A 
ATOM     93  F   UNL     1      15.623  -7.918   5.973  1.00  0.00    -0.200 F 
ATOM     94  F   UNL     1      15.330  -6.026   4.032  1.00  0.00    -0.200 F 
ENDBRANCH  61  84
ENDBRANCH  35  36
ENDBRANCH  28  30
ENDBRANCH  27  28
ENDBRANCH  26  27
ENDBRANCH   1  26
TORSDOF 13
