REMARK SMILES O=C(CCC(=O)N1CCC[C@@]2(CCC(=O)N(Cc3ccncc3)C2)C1)OCCOC(=O)c1ccc(-c2c3nc(c(-c4c(F)c(F)c(F)c(F)c4F)c4ccc([nH]4)c(-c4c(F)c(F)c(F)c(F)c4F)c4nc(c(-c5c(F)c(F)c(F)c(F)c5F)c5ccc2[nH]5)C=C4)C=C3)cc1
REMARK SMILES IDX 26 1 2 2 1 3 3 4 4 5 5 6 6 7 7 8 8 9 25 10 9 11 11 12 10 13
REMARK SMILES IDX 12 14 24 15 13 16 16 17 14 18 15 19 17 20 18 21 19 22 23 23
REMARK SMILES IDX 20 24 22 25 21 26 27 27 28 28 29 29 30 30 31 31 32 32 33 33
REMARK SMILES IDX 94 34 34 35 93 36 35 37 36 38 37 39 87 40 38 41 92 42 86 43
REMARK SMILES IDX 88 44 39 45 91 46 85 47 84 48 40 50 72 51 52 52 71 53 53 54
REMARK SMILES IDX 56 55 70 56 89 57 54 58 55 59 69 61 90 62 57 63 41 64 42 65
REMARK SMILES IDX 50 66 43 67 44 68 48 69 51 70 45 71 46 72 49 73 47 74 73 75
REMARK SMILES IDX 74 76 82 77 75 78 76 79 80 80 83 81 77 82 78 83 81 84 79 85
REMARK SMILES IDX 58 86 59 87 67 88 60 89 61 90 65 91 68 92 62 93 63 94 66 95
REMARK SMILES IDX 64 96
REMARK H PARENT 88 49 56 60
REMARK Flexibility Score: inf
ROOT
ATOM      1  O   UNL     1       3.752  -0.319  -0.752  1.00  0.00    -0.462 OA
ENDROOT
BRANCH   1   2
ATOM      2  C   UNL     1       3.095   0.779  -0.326  1.00  0.00     0.306 C 
ATOM      3  O   UNL     1       1.892   0.725  -0.075  1.00  0.00    -0.252 OA
BRANCH   2   4
ATOM      4  C   UNL     1       3.869   2.044  -0.052  1.00  0.00     0.132 C 
BRANCH   4   5
ATOM      5  C   UNL     1       4.546   2.076   1.316  1.00  0.00     0.112 C 
BRANCH   5   6
ATOM      6  C   UNL     1       5.185   0.746   1.658  1.00  0.00     0.223 C 
ATOM      7  O   UNL     1       6.346   0.529   1.304  1.00  0.00    -0.275 OA
BRANCH   6   8
ATOM      8  N   UNL     1       4.372  -0.236   2.222  1.00  0.00    -0.342 N 
ATOM      9  C   UNL     1       4.863  -1.614   2.131  1.00  0.00     0.119 C 
ATOM     10  C   UNL     1       3.123   0.086   2.927  1.00  0.00     0.128 C 
ATOM     11  C   UNL     1       3.866  -2.744   2.355  1.00  0.00     0.022 C 
ATOM     12  C   UNL     1       2.393  -1.099   3.569  1.00  0.00     0.006 C 
ATOM     13  C   UNL     1       2.444  -2.277   2.580  1.00  0.00     0.012 C 
ATOM     14  C   UNL     1       3.034  -1.371   4.941  1.00  0.00     0.020 C 
ATOM     15  C   UNL     1       0.920  -0.747   3.841  1.00  0.00     0.128 C 
ATOM     16  C   UNL     1       2.346  -2.494   5.680  1.00  0.00     0.101 C 
ATOM     17  N   UNL     1       0.234  -1.794   4.599  1.00  0.00    -0.338 N 
ATOM     18  C   UNL     1       0.835  -2.457   5.662  1.00  0.00     0.222 C 
ATOM     19  O   UNL     1       0.223  -3.143   6.480  1.00  0.00    -0.275 OA
BRANCH  17  20
ATOM     20  C   UNL     1      -1.097  -2.218   4.165  1.00  0.00     0.155 C 
BRANCH  20  21
ATOM     21  C   UNL     1      -2.178  -2.058   5.198  1.00  0.00    -0.026 A 
ATOM     22  C   UNL     1      -2.651  -0.800   5.569  1.00  0.00     0.025 A 
ATOM     23  C   UNL     1      -2.697  -3.184   5.848  1.00  0.00     0.025 A 
ATOM     24  C   UNL     1      -3.605  -0.726   6.572  1.00  0.00     0.111 A 
ATOM     25  C   UNL     1      -3.639  -3.005   6.845  1.00  0.00     0.111 A 
ATOM     26  N   UNL     1      -4.115  -1.798   7.215  1.00  0.00    -0.265 NA
ENDBRANCH  20  21
ENDBRANCH  17  20
ENDBRANCH   6   8
ENDBRANCH   5   6
ENDBRANCH   4   5
ENDBRANCH   2   4
ENDBRANCH   1   2
BRANCH   1  27
ATOM     27  C   UNL     1       5.035  -0.349  -1.426  1.00  0.00     0.274 C 
BRANCH  27  28
ATOM     28  C   UNL     1       4.910  -1.277  -2.636  1.00  0.00     0.275 C 
BRANCH  28  29
ATOM     29  O   UNL     1       4.199  -0.566  -3.659  1.00  0.00    -0.458 OA
BRANCH  29  30
ATOM     30  C   UNL     1       2.851  -0.529  -3.492  1.00  0.00     0.338 C 
ATOM     31  O   UNL     1       2.153  -1.402  -3.023  1.00  0.00    -0.246 OA
BRANCH  30  32
ATOM     32  C   UNL     1       2.415   0.870  -3.746  1.00  0.00     0.060 A 
ATOM     33  C   UNL     1       1.250   1.337  -3.121  1.00  0.00     0.016 A 
ATOM     34  C   UNL     1       3.197   1.744  -4.509  1.00  0.00     0.016 A 
ATOM     35  C   UNL     1       0.854   2.667  -3.277  1.00  0.00     0.010 A 
ATOM     36  C   UNL     1       2.805   3.069  -4.664  1.00  0.00     0.010 A 
ATOM     37  C   UNL     1       1.617   3.527  -4.074  1.00  0.00    -0.014 A 
BRANCH  37  38
ATOM     38  C   UNL     1       1.112   4.853  -4.488  1.00  0.00     0.031 A 
ATOM     39  C   UNL     1       0.454   4.952  -5.834  1.00  0.00     0.074 A 
ATOM     40  C   UNL     1       1.332   5.948  -3.741  1.00  0.00     0.049 A 
ATOM     41  N   UNL     1       0.107   6.013  -6.513  1.00  0.00    -0.248 NA
ATOM     42  C   UNL     1       0.174   3.677  -6.518  1.00  0.00     0.031 C 
ATOM     43  C   UNL     1       1.953   5.962  -2.419  1.00  0.00     0.029 A 
ATOM     44  N   UNL     1       1.091   7.271  -4.016  1.00  0.00    -0.354 N 
ATOM     45  C   UNL     1      -0.417   5.534  -7.707  1.00  0.00     0.074 A 
ATOM     46  C   UNL     1      -0.322   4.092  -7.673  1.00  0.00     0.031 C 
ATOM     47  C   UNL     1       2.078   7.238  -2.011  1.00  0.00     0.029 A 
ATOM     48  C   UNL     1       1.580   8.127  -3.060  1.00  0.00     0.049 A 
ATOM     49  H   UNL     1       0.613   7.577  -4.820  1.00  0.00     0.167 HD
ATOM     50  C   UNL     1      -0.934   6.241  -8.736  1.00  0.00     0.037 A 
ATOM     51  C   UNL     1       1.651   9.473  -3.060  1.00  0.00     0.037 A 
ATOM     52  C   UNL     1      -1.028   7.674  -8.758  1.00  0.00     0.049 A 
ATOM     53  C   UNL     1       1.121  10.235  -4.251  1.00  0.00     0.074 A 
ATOM     54  C   UNL     1      -1.589   8.486  -9.726  1.00  0.00     0.029 A 
ATOM     55  N   UNL     1      -0.533   8.508  -7.768  1.00  0.00    -0.354 N 
ATOM     56  N   UNL     1       0.563   9.779  -5.348  1.00  0.00    -0.248 NA
ATOM     57  C   UNL     1       1.236  11.700  -4.207  1.00  0.00     0.031 C 
ATOM     58  C   UNL     1      -1.383   9.816  -9.349  1.00  0.00     0.029 A 
ATOM     59  C   UNL     1      -0.741   9.830  -8.121  1.00  0.00     0.049 A 
ATOM     60  H   UNL     1      -0.099   8.206  -6.937  1.00  0.00     0.167 HD
ATOM     61  C   UNL     1       0.241  10.897  -6.108  1.00  0.00     0.074 A 
ATOM     62  C   UNL     1       0.646  12.055  -5.339  1.00  0.00     0.031 C 
ATOM     63  C   UNL     1      -0.334  10.965  -7.334  1.00  0.00     0.037 A 
BRANCH  50  64
ATOM     64  C   UNL     1      -1.422   5.481  -9.932  1.00  0.00     0.064 A 
ATOM     65  C   UNL     1      -2.605   4.730  -9.893  1.00  0.00     0.173 A 
ATOM     66  C   UNL     1      -0.728   5.557 -11.148  1.00  0.00     0.173 A 
ATOM     67  F   UNL     1      -3.294   4.613  -8.748  1.00  0.00    -0.203 F 
ATOM     68  C   UNL     1      -3.072   4.075 -11.029  1.00  0.00     0.198 A 
ATOM     69  C   UNL     1      -1.211   4.921 -12.288  1.00  0.00     0.198 A 
ATOM     70  F   UNL     1       0.412   6.259 -11.235  1.00  0.00    -0.203 F 
ATOM     71  F   UNL     1      -4.190   3.338 -10.963  1.00  0.00    -0.200 F 
ATOM     72  C   UNL     1      -2.381   4.180 -12.227  1.00  0.00     0.200 A 
ATOM     73  F   UNL     1      -0.547   5.031 -13.447  1.00  0.00    -0.200 F 
ATOM     74  F   UNL     1      -2.842   3.563 -13.324  1.00  0.00    -0.200 F 
ENDBRANCH  50  64
BRANCH  51  75
ATOM     75  C   UNL     1       2.279  10.198  -1.923  1.00  0.00     0.064 A 
ATOM     76  C   UNL     1       1.521  11.042  -1.098  1.00  0.00     0.173 A 
ATOM     77  C   UNL     1       3.656  10.111  -1.673  1.00  0.00     0.173 A 
ATOM     78  F   UNL     1       0.204  11.181  -1.313  1.00  0.00    -0.203 F 
ATOM     79  C   UNL     1       2.121  11.796  -0.091  1.00  0.00     0.198 A 
ATOM     80  C   UNL     1       4.250  10.840  -0.644  1.00  0.00     0.198 A 
ATOM     81  F   UNL     1       4.429   9.320  -2.431  1.00  0.00    -0.203 F 
ATOM     82  F   UNL     1       1.382  12.643   0.638  1.00  0.00    -0.200 F 
ATOM     83  C   UNL     1       3.484  11.692   0.138  1.00  0.00     0.200 A 
ATOM     84  F   UNL     1       5.566  10.728  -0.419  1.00  0.00    -0.200 F 
ATOM     85  F   UNL     1       4.062  12.422   1.101  1.00  0.00    -0.200 F 
ENDBRANCH  51  75
BRANCH  63  86
ATOM     86  C   UNL     1      -0.578  12.329  -7.911  1.00  0.00     0.064 A 
ATOM     87  C   UNL     1       0.476  13.123  -8.383  1.00  0.00     0.173 A 
ATOM     88  C   UNL     1      -1.885  12.819  -8.048  1.00  0.00     0.173 A 
ATOM     89  F   UNL     1       1.745  12.704  -8.262  1.00  0.00    -0.203 F 
ATOM     90  C   UNL     1       0.232  14.369  -8.955  1.00  0.00     0.198 A 
ATOM     91  C   UNL     1      -2.128  14.051  -8.649  1.00  0.00     0.198 A 
ATOM     92  F   UNL     1      -2.929  12.093  -7.620  1.00  0.00    -0.203 F 
ATOM     93  F   UNL     1       1.257  15.130  -9.361  1.00  0.00    -0.200 F 
ATOM     94  C   UNL     1      -1.070  14.827  -9.096  1.00  0.00     0.200 A 
ATOM     95  F   UNL     1      -3.388  14.484  -8.799  1.00  0.00    -0.200 F 
ATOM     96  F   UNL     1      -1.304  16.020  -9.659  1.00  0.00    -0.200 F 
ENDBRANCH  63  86
ENDBRANCH  37  38
ENDBRANCH  30  32
ENDBRANCH  29  30
ENDBRANCH  28  29
ENDBRANCH  27  28
ENDBRANCH   1  27
TORSDOF 16
