REMARK SMILES O=C(OCCOC(=O)c1ccc(NC2CC2)c(F)c1F)c1ccc(-c2c3nc(c(-c4c(F)c(F)c(F)c(F)c4F)c4ccc([nH]4)c(-c4c(F)c(F)c(F)c(F)c4F)c4nc(c(-c5c(F)c(F)c(F)c(F)c5F)c5ccc2[nH]5)C=C4)C=C3)cc1
REMARK SMILES IDX 4 1 3 2 2 3 1 4 21 5 22 6 83 7 23 8 82 9 24 10 25 11 26 12
REMARK SMILES IDX 76 13 27 14 81 15 75 16 77 17 28 18 80 19 74 20 73 21 29 23
REMARK SMILES IDX 61 24 41 25 60 26 42 27 45 28 59 29 78 30 43 31 44 32 58 34
REMARK SMILES IDX 79 35 46 36 30 37 31 38 39 39 32 40 33 41 37 42 40 43 34 44
REMARK SMILES IDX 35 45 38 46 36 47 62 48 63 49 71 50 64 51 65 52 69 53 72 54
REMARK SMILES IDX 66 55 67 56 70 57 68 58 47 59 48 60 56 61 49 62 50 63 54 64
REMARK SMILES IDX 57 65 51 66 52 67 55 68 53 69 5 70 6 71 7 72 8 73 9 74 10 75
REMARK SMILES IDX 19 76 11 77 17 78 20 79 12 80 18 81 13 82 14 84 15 85 16 86
REMARK H PARENT 77 22 45 33 13 83
REMARK Flexibility Score: inf
ROOT
ATOM      1  C   UNL     1       4.016  -1.011  -1.363  1.00  0.00     0.275 C 
ENDROOT
BRANCH   1   2
ATOM      2  O   UNL     1       2.941  -1.070  -0.410  1.00  0.00    -0.458 OA
BRANCH   2   3
ATOM      3  C   UNL     1       2.993  -0.666   0.883  1.00  0.00     0.338 C 
ATOM      4  O   UNL     1       2.304  -1.214   1.739  1.00  0.00    -0.246 OA
BRANCH   3   5
ATOM      5  C   UNL     1       3.701   0.588   1.260  1.00  0.00     0.060 A 
ATOM      6  C   UNL     1       5.039   0.863   0.968  1.00  0.00     0.016 A 
ATOM      7  C   UNL     1       2.983   1.506   2.045  1.00  0.00     0.016 A 
ATOM      8  C   UNL     1       5.632   2.052   1.397  1.00  0.00     0.010 A 
ATOM      9  C   UNL     1       3.571   2.701   2.473  1.00  0.00     0.010 A 
ATOM     10  C   UNL     1       4.909   2.971   2.164  1.00  0.00    -0.014 A 
BRANCH  10  11
ATOM     11  C   UNL     1       5.628   4.091   2.812  1.00  0.00     0.031 A 
ATOM     12  C   UNL     1       6.019   3.937   4.255  1.00  0.00     0.074 A 
ATOM     13  C   UNL     1       6.008   5.175   2.110  1.00  0.00     0.049 A 
ATOM     14  N   UNL     1       6.723   4.738   5.011  1.00  0.00    -0.248 NA
ATOM     15  C   UNL     1       5.597   2.694   4.927  1.00  0.00     0.031 C 
ATOM     16  C   UNL     1       5.769   5.389   0.684  1.00  0.00     0.029 A 
ATOM     17  N   UNL     1       6.671   6.309   2.507  1.00  0.00    -0.354 N 
ATOM     18  C   UNL     1       6.881   4.067   6.216  1.00  0.00     0.074 A 
ATOM     19  C   UNL     1       6.127   2.839   6.131  1.00  0.00     0.031 C 
ATOM     20  C   UNL     1       6.226   6.606   0.337  1.00  0.00     0.029 A 
ATOM     21  C   UNL     1       6.795   7.252   1.516  1.00  0.00     0.049 A 
ATOM     22  H   UNL     1       7.026   6.435   3.417  1.00  0.00     0.167 HD
ATOM     23  C   UNL     1       7.642   4.420   7.277  1.00  0.00     0.037 A 
ATOM     24  C   UNL     1       7.298   8.501   1.568  1.00  0.00     0.037 A 
ATOM     25  C   UNL     1       8.373   5.651   7.362  1.00  0.00     0.049 A 
ATOM     26  C   UNL     1       7.942   8.969   2.844  1.00  0.00     0.074 A 
ATOM     27  C   UNL     1       9.188   6.104   8.382  1.00  0.00     0.029 A 
ATOM     28  N   UNL     1       8.360   6.636   6.385  1.00  0.00    -0.354 N 
ATOM     29  N   UNL     1       8.126   8.310   3.961  1.00  0.00    -0.248 NA
ATOM     30  C   UNL     1       8.474  10.339   2.859  1.00  0.00     0.031 C 
ATOM     31  C   UNL     1       9.633   7.384   8.042  1.00  0.00     0.029 A 
ATOM     32  C   UNL     1       9.125   7.713   6.794  1.00  0.00     0.049 A 
ATOM     33  H   UNL     1       7.878   6.577   5.529  1.00  0.00     0.167 HD
ATOM     34  C   UNL     1       8.838   9.161   4.794  1.00  0.00     0.074 A 
ATOM     35  C   UNL     1       9.033  10.395   4.061  1.00  0.00     0.031 C 
ATOM     36  C   UNL     1       9.308   8.929   6.043  1.00  0.00     0.037 A 
BRANCH  23  37
ATOM     37  C   UNL     1       7.743   3.442   8.407  1.00  0.00     0.064 A 
ATOM     38  C   UNL     1       7.112   3.688   9.633  1.00  0.00     0.173 A 
ATOM     39  C   UNL     1       8.502   2.268   8.278  1.00  0.00     0.173 A 
ATOM     40  F   UNL     1       6.375   4.795   9.804  1.00  0.00    -0.203 F 
ATOM     41  C   UNL     1       7.242   2.794  10.694  1.00  0.00     0.198 A 
ATOM     42  C   UNL     1       8.613   1.368   9.333  1.00  0.00     0.198 A 
ATOM     43  F   UNL     1       9.112   1.983   7.117  1.00  0.00    -0.203 F 
ATOM     44  F   UNL     1       6.643   3.055  11.864  1.00  0.00    -0.200 F 
ATOM     45  C   UNL     1       7.988   1.635  10.542  1.00  0.00     0.200 A 
ATOM     46  F   UNL     1       9.317   0.238   9.177  1.00  0.00    -0.200 F 
ATOM     47  F   UNL     1       8.102   0.771  11.560  1.00  0.00    -0.200 F 
ENDBRANCH  23  37
BRANCH  24  48
ATOM     48  C   UNL     1       7.218   9.392   0.384  1.00  0.00     0.064 A 
ATOM     49  C   UNL     1       6.014  10.023   0.040  1.00  0.00     0.173 A 
ATOM     50  C   UNL     1       8.338   9.650  -0.415  1.00  0.00     0.173 A 
ATOM     51  F   UNL     1       4.923   9.841   0.795  1.00  0.00    -0.203 F 
ATOM     52  C   UNL     1       5.926  10.861  -1.070  1.00  0.00     0.198 A 
ATOM     53  C   UNL     1       8.256  10.504  -1.515  1.00  0.00     0.198 A 
ATOM     54  F   UNL     1       9.520   9.097  -0.107  1.00  0.00    -0.203 F 
ATOM     55  F   UNL     1       4.758  11.440  -1.381  1.00  0.00    -0.200 F 
ATOM     56  C   UNL     1       7.049  11.104  -1.845  1.00  0.00     0.200 A 
ATOM     57  F   UNL     1       9.349  10.758  -2.246  1.00  0.00    -0.200 F 
ATOM     58  F   UNL     1       6.971  11.923  -2.903  1.00  0.00    -0.200 F 
ENDBRANCH  24  48
BRANCH  36  59
ATOM     59  C   UNL     1      10.110  10.011   6.696  1.00  0.00     0.064 A 
ATOM     60  C   UNL     1      11.495   9.863   6.858  1.00  0.00     0.173 A 
ATOM     61  C   UNL     1       9.493  11.137   7.255  1.00  0.00     0.173 A 
ATOM     62  F   UNL     1      12.126   8.797   6.343  1.00  0.00    -0.203 F 
ATOM     63  C   UNL     1      12.232  10.792   7.585  1.00  0.00     0.198 A 
ATOM     64  C   UNL     1      10.237  12.077   7.961  1.00  0.00     0.198 A 
ATOM     65  F   UNL     1       8.172  11.326   7.110  1.00  0.00    -0.203 F 
ATOM     66  F   UNL     1      13.546  10.609   7.766  1.00  0.00    -0.200 F 
ATOM     67  C   UNL     1      11.602  11.898   8.137  1.00  0.00     0.200 A 
ATOM     68  F   UNL     1       9.632  13.156   8.477  1.00  0.00    -0.200 F 
ATOM     69  F   UNL     1      12.311  12.790   8.840  1.00  0.00    -0.200 F 
ENDBRANCH  36  59
ENDBRANCH  10  11
ENDBRANCH   3   5
ENDBRANCH   2   3
ENDBRANCH   1   2
BRANCH   1  70
ATOM     70  C   UNL     1       3.885   0.135  -2.367  1.00  0.00     0.275 C 
BRANCH  70  71
ATOM     71  O   UNL     1       3.504   1.373  -1.746  1.00  0.00    -0.458 OA
BRANCH  71  72
ATOM     72  C   UNL     1       2.192   1.698  -1.880  1.00  0.00     0.341 C 
ATOM     73  O   UNL     1       1.348   1.101  -2.525  1.00  0.00    -0.246 OA
BRANCH  72  74
ATOM     74  C   UNL     1       1.899   2.879  -1.058  1.00  0.00     0.099 A 
ATOM     75  C   UNL     1       2.612   4.072  -1.199  1.00  0.00     0.021 A 
ATOM     76  C   UNL     1       0.894   2.787  -0.109  1.00  0.00     0.175 A 
ATOM     77  C   UNL     1       2.325   5.166  -0.362  1.00  0.00     0.030 A 
ATOM     78  C   UNL     1       0.640   3.865   0.731  1.00  0.00     0.182 A 
ATOM     79  F   UNL     1       0.224   1.641   0.077  1.00  0.00    -0.203 F 
ATOM     80  C   UNL     1       1.351   5.078   0.637  1.00  0.00     0.074 A 
ATOM     81  F   UNL     1      -0.282   3.732   1.700  1.00  0.00    -0.201 F 
BRANCH  80  82
ATOM     82  N   UNL     1       1.028   6.085   1.568  1.00  0.00    -0.380 N 
ATOM     83  H   UNL     1       0.335   5.820   2.215  1.00  0.00     0.160 HD
BRANCH  82  84
ATOM     84  C   UNL     1       1.520   7.440   1.756  1.00  0.00     0.079 C 
ATOM     85  C   UNL     1       2.939   7.872   1.593  1.00  0.00     0.027 C 
ATOM     86  C   UNL     1       1.881   8.387   0.653  1.00  0.00     0.027 C 
ENDBRANCH  82  84
ENDBRANCH  80  82
ENDBRANCH  72  74
ENDBRANCH  71  72
ENDBRANCH  70  71
ENDBRANCH   1  70
TORSDOF 13
