REMARK SMILES Cc1ccc(C)c(-c2cc(C(=O)OCCOC(=O)c3ccc(-c4c5nc(c(-c6c(F)c(F)c(F)c(F)c6F)c6ccc([nH]6)c(-c6c(F)c(F)c(F)c(F)c6F)c6nc(c(-c7c(F)c(F)c(F)c(F)c7F)c7ccc4[nH]7)C=C6)C=C5)cc3)c3cc(C)ccc3n2)c1
REMARK SMILES IDX 15 1 14 2 13 3 11 4 12 5 10 6 8 7 9 8 89 9 88 10 82 11 87 12
REMARK SMILES IDX 83 13 86 14 84 15 85 16 7 17 1 18 2 19 3 20 90 21 4 22 5 23
REMARK SMILES IDX 6 24 16 25 17 26 18 27 19 28 20 29 81 30 21 31 80 32 22 33
REMARK SMILES IDX 23 34 24 35 74 36 25 37 79 38 73 39 75 40 26 41 78 42 72 43
REMARK SMILES IDX 71 44 27 46 59 47 39 48 58 49 40 50 43 51 57 52 76 53 41 54
REMARK SMILES IDX 42 55 56 57 77 58 44 59 28 60 29 61 37 62 30 63 31 64 35 65
REMARK SMILES IDX 38 66 32 67 33 68 36 69 34 70 60 71 61 72 69 73 62 74 63 75
REMARK SMILES IDX 67 76 70 77 64 78 65 79 68 80 66 81 45 82 46 83 54 84 47 85
REMARK SMILES IDX 48 86 52 87 55 88 49 89 50 90 53 91 51 92
REMARK H PARENT 75 45 43 56
REMARK Flexibility Score: inf
ROOT
ATOM      1  C   UNL     1       0.259   8.600  -3.364  1.00  0.00     0.275 C 
ENDROOT
BRANCH   1   2
ATOM      2  C   UNL     1      -0.983   8.564  -4.252  1.00  0.00     0.275 C 
BRANCH   2   3
ATOM      3  O   UNL     1      -1.969   7.795  -3.560  1.00  0.00    -0.458 OA
BRANCH   3   4
ATOM      4  C   UNL     1      -1.813   6.299  -3.551  1.00  0.00     0.339 C 
ATOM      5  O   UNL     1      -1.244   6.161  -4.669  1.00  0.00    -0.246 OA
BRANCH   4   6
ATOM      6  C   UNL     1      -2.441   4.938  -1.982  1.00  0.00     0.071 A 
ATOM      7  C   UNL     1      -1.899   2.672  -0.594  1.00  0.00     0.072 A 
ATOM      8  C   UNL     1      -1.992   3.443  -1.783  1.00  0.00     0.045 A 
ATOM      9  N   UNL     1      -2.466   3.087   0.525  1.00  0.00    -0.248 NA
ATOM     10  C   UNL     1      -3.167   4.201   0.534  1.00  0.00     0.072 A 
ATOM     11  C   UNL     1      -3.261   5.187  -0.535  1.00  0.00     0.015 A 
ATOM     12  C   UNL     1      -3.782   4.290   1.788  1.00  0.00     0.029 A 
ATOM     13  C   UNL     1      -4.117   6.267   0.038  1.00  0.00     0.014 A 
ATOM     14  C   UNL     1      -4.586   5.341   2.187  1.00  0.00     0.005 A 
ATOM     15  C   UNL     1      -4.762   6.361   1.297  1.00  0.00    -0.050 A 
ATOM     16  C   UNL     1      -5.572   7.580   1.627  1.00  0.00     0.044 C 
BRANCH   7  17
ATOM     17  C   UNL     1      -1.107   1.402  -0.423  1.00  0.00     0.003 A 
ATOM     18  C   UNL     1       2.605   0.325  -0.032  1.00  0.00     0.044 C 
ATOM     19  C   UNL     1       1.104   0.287  -0.131  1.00  0.00    -0.050 A 
ATOM     20  C   UNL     1       0.476  -0.952  -0.027  1.00  0.00     0.004 A 
ATOM     21  C   UNL     1       0.313   1.446  -0.331  1.00  0.00     0.014 A 
ATOM     22  C   UNL     1      -0.911  -1.024  -0.054  1.00  0.00     0.004 A 
ATOM     23  C   UNL     1      -1.708   0.135  -0.214  1.00  0.00    -0.042 A 
ATOM     24  C   UNL     1      -3.193  -0.081  -0.119  1.00  0.00     0.045 C 
ENDBRANCH   7  17
ENDBRANCH   4   6
ENDBRANCH   3   4
ENDBRANCH   2   3
ENDBRANCH   1   2
BRANCH   1  25
ATOM     25  O   UNL     1       0.980   7.335  -3.279  1.00  0.00    -0.458 OA
BRANCH  25  26
ATOM     26  C   UNL     1       0.878   6.518  -2.188  1.00  0.00     0.338 C 
ATOM     27  O   UNL     1       1.812   6.171  -1.488  1.00  0.00    -0.246 OA
BRANCH  26  28
ATOM     28  C   UNL     1      -0.437   5.846  -2.109  1.00  0.00     0.060 A 
ATOM     29  C   UNL     1      -0.750   4.571  -3.368  1.00  0.00     0.016 A 
ATOM     30  C   UNL     1      -1.776   6.925  -1.577  1.00  0.00     0.016 A 
ATOM     31  C   UNL     1      -2.430   4.423  -4.139  1.00  0.00     0.010 A 
ATOM     32  C   UNL     1      -3.416   6.811  -2.421  1.00  0.00     0.010 A 
ATOM     33  C   UNL     1      -3.719   5.623  -3.742  1.00  0.00    -0.014 A 
BRANCH  33  34
ATOM     34  C   UNL     1      -4.739   6.218  -4.734  1.00  0.00     0.031 A 
ATOM     35  C   UNL     1      -6.074   6.081  -4.099  1.00  0.00     0.074 A 
ATOM     36  C   UNL     1      -4.669   7.048  -5.838  1.00  0.00     0.049 A 
ATOM     37  N   UNL     1      -6.853   5.060  -4.239  1.00  0.00    -0.248 NA
ATOM     38  C   UNL     1      -6.462   6.972  -2.990  1.00  0.00     0.031 C 
ATOM     39  C   UNL     1      -3.524   7.624  -6.563  1.00  0.00     0.029 A 
ATOM     40  N   UNL     1      -5.722   7.614  -6.575  1.00  0.00    -0.354 N 
ATOM     41  C   UNL     1      -7.915   5.312  -3.388  1.00  0.00     0.074 A 
ATOM     42  C   UNL     1      -7.429   6.251  -2.420  1.00  0.00     0.031 C 
ATOM     43  C   UNL     1      -3.920   8.579  -7.455  1.00  0.00     0.029 A 
ATOM     44  C   UNL     1      -5.371   8.625  -7.514  1.00  0.00     0.049 A 
ATOM     45  H   UNL     1      -6.655   7.326  -6.450  1.00  0.00     0.167 HD
ATOM     46  C   UNL     1      -9.195   5.043  -3.760  1.00  0.00     0.037 A 
ATOM     47  C   UNL     1      -6.189   9.367  -8.345  1.00  0.00     0.037 A 
ATOM     48  C   UNL     1      -9.215   4.257  -4.972  1.00  0.00     0.049 A 
ATOM     49  C   UNL     1      -7.454   8.610  -8.488  1.00  0.00     0.074 A 
ATOM     50  C   UNL     1      -8.678   3.039  -5.344  1.00  0.00     0.029 A 
ATOM     51  N   UNL     1      -9.473   4.923  -6.146  1.00  0.00    -0.354 N 
ATOM     52  N   UNL     1      -7.532   7.463  -9.098  1.00  0.00    -0.248 NA
ATOM     53  C   UNL     1      -8.483   8.894  -7.505  1.00  0.00     0.031 C 
ATOM     54  C   UNL     1      -8.190   3.236  -6.669  1.00  0.00     0.029 A 
ATOM     55  C   UNL     1      -8.559   4.514  -7.084  1.00  0.00     0.049 A 
ATOM     56  H   UNL     1     -10.191   5.582  -6.290  1.00  0.00     0.167 HD
ATOM     57  C   UNL     1      -8.290   6.691  -8.238  1.00  0.00     0.074 A 
ATOM     58  C   UNL     1      -8.864   7.636  -7.276  1.00  0.00     0.031 C 
ATOM     59  C   UNL     1      -8.124   5.340  -8.184  1.00  0.00     0.037 A 
BRANCH  46  60
ATOM     60  C   UNL     1     -10.399   5.815  -3.281  1.00  0.00     0.064 A 
ATOM     61  C   UNL     1     -11.677   5.288  -3.541  1.00  0.00     0.173 A 
ATOM     62  C   UNL     1     -10.379   7.147  -2.806  1.00  0.00     0.173 A 
ATOM     63  F   UNL     1     -11.814   4.041  -4.016  1.00  0.00    -0.203 F 
ATOM     64  C   UNL     1     -12.835   6.056  -3.397  1.00  0.00     0.198 A 
ATOM     65  C   UNL     1     -11.540   7.889  -2.606  1.00  0.00     0.198 A 
ATOM     66  F   UNL     1      -9.247   7.835  -2.622  1.00  0.00    -0.203 F 
ATOM     67  F   UNL     1     -14.017   5.549  -3.772  1.00  0.00    -0.200 F 
ATOM     68  C   UNL     1     -12.765   7.356  -2.931  1.00  0.00     0.200 A 
ATOM     69  F   UNL     1     -11.443   9.155  -2.172  1.00  0.00    -0.200 F 
ATOM     70  F   UNL     1     -13.867   8.111  -2.844  1.00  0.00    -0.200 F 
ENDBRANCH  46  60
BRANCH  47  71
ATOM     71  C   UNL     1      -6.161  10.800  -8.834  1.00  0.00     0.064 A 
ATOM     72  C   UNL     1      -7.000  11.290  -9.873  1.00  0.00     0.173 A 
ATOM     73  C   UNL     1      -5.563  11.795  -8.044  1.00  0.00     0.173 A 
ATOM     74  F   UNL     1      -7.686  10.438 -10.651  1.00  0.00    -0.203 F 
ATOM     75  C   UNL     1      -7.221  12.668 -10.087  1.00  0.00     0.198 A 
ATOM     76  C   UNL     1      -5.791  13.167  -8.251  1.00  0.00     0.198 A 
ATOM     77  F   UNL     1      -4.826  11.449  -6.980  1.00  0.00    -0.203 F 
ATOM     78  F   UNL     1      -8.064  13.082 -11.047  1.00  0.00    -0.200 F 
ATOM     79  C   UNL     1      -6.624  13.604  -9.265  1.00  0.00     0.200 A 
ATOM     80  F   UNL     1      -5.250  14.062  -7.412  1.00  0.00    -0.200 F 
ATOM     81  F   UNL     1      -6.881  14.913  -9.417  1.00  0.00    -0.200 F 
ENDBRANCH  47  71
BRANCH  59  82
ATOM     82  C   UNL     1      -7.270   4.686  -9.239  1.00  0.00     0.064 A 
ATOM     83  C   UNL     1      -5.887   4.901  -9.394  1.00  0.00     0.173 A 
ATOM     84  C   UNL     1      -7.850   3.676 -10.016  1.00  0.00     0.173 A 
ATOM     85  F   UNL     1      -5.239   5.792  -8.637  1.00  0.00    -0.203 F 
ATOM     86  C   UNL     1      -5.131   4.150 -10.296  1.00  0.00     0.198 A 
ATOM     87  C   UNL     1      -7.089   2.906 -10.891  1.00  0.00     0.198 A 
ATOM     88  F   UNL     1      -9.155   3.397  -9.882  1.00  0.00    -0.203 F 
ATOM     89  F   UNL     1      -3.814   4.371 -10.420  1.00  0.00    -0.200 F 
ATOM     90  C   UNL     1      -5.732   3.146 -11.036  1.00  0.00     0.200 A 
ATOM     91  F   UNL     1      -7.668   1.905 -11.568  1.00  0.00    -0.200 F 
ATOM     92  F   UNL     1      -5.001   2.390 -11.867  1.00  0.00    -0.200 F 
ENDBRANCH  59  82
ENDBRANCH  33  34
ENDBRANCH  26  28
ENDBRANCH  25  26
ENDBRANCH   1  25
TORSDOF 12
