REMARK SMILES CCN(C(=O)C[N@@H+]1CCC[C@@H]1C(=O)OCCOC(=O)c1ccc(-c2c3nc(c(-c4c(F)c(F)c(F)c(F)c4F)c4ccc([nH]4)c(-c4c(F)c(F)c(F)c(F)c4F)c4nc(c(-c5c(F)c(F)c(F)c(F)c5F)c5ccc2[nH]5)C=C4)C=C3)cc1)c1ccccc1C
REMARK SMILES IDX 15 1 14 2 12 3 13 4 11 5 7 6 8 7 9 9 10 10 6 11 4 12 5 13
REMARK SMILES IDX 3 14 2 15 1 16 83 17 84 18 88 19 85 20 87 21 89 22 86 23
REMARK SMILES IDX 16 24 17 25 18 26 19 27 20 28 21 29 82 30 22 31 81 32 23 33
REMARK SMILES IDX 24 34 25 35 75 36 26 37 80 38 74 39 76 40 27 41 79 42 73 43
REMARK SMILES IDX 72 44 28 46 60 47 40 48 59 49 41 50 44 51 58 52 77 53 42 54
REMARK SMILES IDX 43 55 57 57 78 58 45 59 29 60 30 61 38 62 31 63 32 64 36 65
REMARK SMILES IDX 39 66 33 67 34 68 37 69 35 70 61 71 62 72 70 73 63 74 64 75
REMARK SMILES IDX 68 76 71 77 65 78 66 79 69 80 67 81 46 82 47 83 55 84 48 85
REMARK SMILES IDX 49 86 53 87 56 88 50 89 51 90 54 91 52 92
REMARK H PARENT 7 8 76 45 44 56
REMARK Flexibility Score: inf
ROOT
ATOM      1  C   UNL     1       1.522  -4.693  -1.585  1.00  0.00     0.274 C 
ENDROOT
BRANCH   1   2
ATOM      2  O   UNL     1       0.542  -3.642  -1.498  1.00  0.00    -0.458 OA
BRANCH   2   3
ATOM      3  C   UNL     1      -0.315  -3.604  -0.468  1.00  0.00     0.365 C 
ATOM      4  O   UNL     1      -0.304  -4.421   0.453  1.00  0.00    -0.245 OA
BRANCH   3   5
ATOM      5  C   UNL     1      -1.307  -2.440  -0.499  1.00  0.00     0.295 C 
ATOM      6  N   UNL     1      -1.868  -1.937  -1.784  1.00  0.00    -0.315 N 
ATOM      7  C   UNL     1      -2.892  -0.992  -1.254  1.00  0.00     0.263 C 
ATOM      8  H   UNL     1      -2.109  -2.752  -2.348  1.00  0.00     0.349 HD
ATOM      9  C   UNL     1      -2.167  -0.233  -0.140  1.00  0.00     0.068 C 
ATOM     10  C   UNL     1      -1.079  -1.196   0.340  1.00  0.00     0.083 C 
BRANCH   6  11
ATOM     11  C   UNL     1      -1.043  -1.167  -2.772  1.00  0.00     0.364 C 
BRANCH  11  12
ATOM     12  C   UNL     1       0.484  -1.351  -2.898  1.00  0.00     0.282 C 
ATOM     13  O   UNL     1       0.855  -2.323  -3.576  1.00  0.00    -0.268 OA
BRANCH  12  14
ATOM     14  N   UNL     1       1.394  -0.384  -2.343  1.00  0.00    -0.308 N 
BRANCH  14  15
ATOM     15  C   UNL     1       0.978   1.029  -2.232  1.00  0.00     0.122 C 
ATOM     16  C   UNL     1       1.175   1.803  -0.943  1.00  0.00     0.028 C 
ENDBRANCH  14  15
BRANCH  14  17
ATOM     17  C   UNL     1       2.842  -0.643  -2.457  1.00  0.00     0.047 A 
ATOM     18  C   UNL     1       3.313  -1.268  -3.637  1.00  0.00     0.026 A 
ATOM     19  C   UNL     1       3.817  -0.404  -1.450  1.00  0.00    -0.027 A 
ATOM     20  C   UNL     1       4.627  -1.726  -3.796  1.00  0.00     0.002 A 
ATOM     21  C   UNL     1       5.158  -0.834  -1.654  1.00  0.00     0.005 A 
ATOM     22  C   UNL     1       3.612   0.203  -0.090  1.00  0.00     0.046 C 
ATOM     23  C   UNL     1       5.553  -1.516  -2.796  1.00  0.00     0.000 A 
ENDBRANCH  14  17
ENDBRANCH  12  14
ENDBRANCH  11  12
ENDBRANCH   6  11
ENDBRANCH   3   5
ENDBRANCH   2   3
ENDBRANCH   1   2
BRANCH   1  24
ATOM     24  C   UNL     1       2.913  -4.249  -1.118  1.00  0.00     0.275 C 
BRANCH  24  25
ATOM     25  O   UNL     1       3.020  -4.162   0.311  1.00  0.00    -0.458 OA
BRANCH  25  26
ATOM     26  C   UNL     1       2.492  -3.042   0.841  1.00  0.00     0.338 C 
ATOM     27  O   UNL     1       1.970  -2.104   0.262  1.00  0.00    -0.246 OA
BRANCH  26  28
ATOM     28  C   UNL     1       2.403  -3.170   2.286  1.00  0.00     0.060 A 
ATOM     29  C   UNL     1       1.145  -2.938   2.849  1.00  0.00     0.016 A 
ATOM     30  C   UNL     1       3.494  -3.559   3.059  1.00  0.00     0.016 A 
ATOM     31  C   UNL     1       0.936  -3.178   4.186  1.00  0.00     0.010 A 
ATOM     32  C   UNL     1       3.286  -3.817   4.405  1.00  0.00     0.010 A 
ATOM     33  C   UNL     1       1.998  -3.668   4.947  1.00  0.00    -0.014 A 
BRANCH  33  34
ATOM     34  C   UNL     1       1.706  -4.134   6.303  1.00  0.00     0.031 A 
ATOM     35  C   UNL     1       2.064  -3.278   7.460  1.00  0.00     0.074 A 
ATOM     36  C   UNL     1       1.096  -5.326   6.421  1.00  0.00     0.049 A 
ATOM     37  N   UNL     1       1.892  -3.504   8.732  1.00  0.00    -0.248 NA
ATOM     38  C   UNL     1       2.715  -1.996   7.147  1.00  0.00     0.031 C 
ATOM     39  C   UNL     1       0.716  -6.190   5.297  1.00  0.00     0.029 A 
ATOM     40  N   UNL     1       0.685  -6.014   7.525  1.00  0.00    -0.354 N 
ATOM     41  C   UNL     1       2.426  -2.401   9.377  1.00  0.00     0.074 A 
ATOM     42  C   UNL     1       2.949  -1.516   8.359  1.00  0.00     0.031 C 
ATOM     43  C   UNL     1       0.122  -7.294   5.773  1.00  0.00     0.029 A 
ATOM     44  C   UNL     1       0.116  -7.227   7.228  1.00  0.00     0.049 A 
ATOM     45  H   UNL     1       0.787  -5.675   8.444  1.00  0.00     0.167 HD
ATOM     46  C   UNL     1       2.469  -2.172  10.709  1.00  0.00     0.037 A 
ATOM     47  C   UNL     1      -0.341  -8.180   8.058  1.00  0.00     0.037 A 
ATOM     48  C   UNL     1       1.949  -3.101  11.678  1.00  0.00     0.049 A 
ATOM     49  C   UNL     1      -0.280  -7.896   9.531  1.00  0.00     0.074 A 
ATOM     50  C   UNL     1       1.924  -2.998  13.055  1.00  0.00     0.029 A 
ATOM     51  N   UNL     1       1.367  -4.325  11.355  1.00  0.00    -0.354 N 
ATOM     52  N   UNL     1       0.201  -6.840  10.147  1.00  0.00    -0.248 NA
ATOM     53  C   UNL     1      -0.829  -8.918  10.423  1.00  0.00     0.031 C 
ATOM     54  C   UNL     1       1.373  -4.180  13.566  1.00  0.00     0.029 A 
ATOM     55  C   UNL     1       0.999  -4.997  12.508  1.00  0.00     0.049 A 
ATOM     56  H   UNL     1       1.237  -4.663  10.440  1.00  0.00     0.167 HD
ATOM     57  C   UNL     1       0.003  -7.061  11.499  1.00  0.00     0.074 A 
ATOM     58  C   UNL     1      -0.669  -8.344  11.607  1.00  0.00     0.031 C 
ATOM     59  C   UNL     1       0.345  -6.284  12.559  1.00  0.00     0.037 A 
BRANCH  46  60
ATOM     60  C   UNL     1       3.148  -0.913  11.162  1.00  0.00     0.064 A 
ATOM     61  C   UNL     1       2.609   0.358  10.904  1.00  0.00     0.173 A 
ATOM     62  C   UNL     1       4.384  -0.975  11.822  1.00  0.00     0.173 A 
ATOM     63  F   UNL     1       1.442   0.477  10.251  1.00  0.00    -0.203 F 
ATOM     64  C   UNL     1       3.300   1.516  11.253  1.00  0.00     0.198 A 
ATOM     65  C   UNL     1       5.058   0.184  12.198  1.00  0.00     0.198 A 
ATOM     66  F   UNL     1       4.950  -2.162  12.087  1.00  0.00    -0.203 F 
ATOM     67  F   UNL     1       2.799   2.717  10.931  1.00  0.00    -0.200 F 
ATOM     68  C   UNL     1       4.522   1.428  11.902  1.00  0.00     0.200 A 
ATOM     69  F   UNL     1       6.237   0.097  12.828  1.00  0.00    -0.200 F 
ATOM     70  F   UNL     1       5.192   2.543  12.227  1.00  0.00    -0.200 F 
ENDBRANCH  46  60
BRANCH  47  71
ATOM     71  C   UNL     1      -0.884  -9.445   7.503  1.00  0.00     0.064 A 
ATOM     72  C   UNL     1      -2.248  -9.751   7.586  1.00  0.00     0.173 A 
ATOM     73  C   UNL     1      -0.053 -10.357   6.831  1.00  0.00     0.173 A 
ATOM     74  F   UNL     1      -3.083  -8.919   8.226  1.00  0.00    -0.203 F 
ATOM     75  C   UNL     1      -2.759 -10.924   7.031  1.00  0.00     0.198 A 
ATOM     76  C   UNL     1      -0.569 -11.514   6.252  1.00  0.00     0.198 A 
ATOM     77  F   UNL     1       1.260 -10.108   6.713  1.00  0.00    -0.203 F 
ATOM     78  F   UNL     1      -4.063 -11.208   7.154  1.00  0.00    -0.200 F 
ATOM     79  C   UNL     1      -1.921 -11.800   6.358  1.00  0.00     0.200 A 
ATOM     80  F   UNL     1       0.243 -12.348   5.586  1.00  0.00    -0.200 F 
ATOM     81  F   UNL     1      -2.415 -12.921   5.814  1.00  0.00    -0.200 F 
ENDBRANCH  47  71
BRANCH  59  82
ATOM     82  C   UNL     1      -0.021  -6.814  13.912  1.00  0.00     0.064 A 
ATOM     83  C   UNL     1       0.645  -7.912  14.476  1.00  0.00     0.173 A 
ATOM     84  C   UNL     1      -1.041  -6.205  14.657  1.00  0.00     0.173 A 
ATOM     85  F   UNL     1       1.616  -8.537  13.792  1.00  0.00    -0.203 F 
ATOM     86  C   UNL     1       0.278  -8.403  15.724  1.00  0.00     0.198 A 
ATOM     87  C   UNL     1      -1.381  -6.677  15.919  1.00  0.00     0.198 A 
ATOM     88  F   UNL     1      -1.702  -5.148  14.161  1.00  0.00    -0.203 F 
ATOM     89  F   UNL     1       0.885  -9.491  16.218  1.00  0.00    -0.200 F 
ATOM     90  C   UNL     1      -0.730  -7.782  16.447  1.00  0.00     0.200 A 
ATOM     91  F   UNL     1      -2.345  -6.067  16.623  1.00  0.00    -0.200 F 
ATOM     92  F   UNL     1      -1.081  -8.255  17.650  1.00  0.00    -0.200 F 
ENDBRANCH  59  82
ENDBRANCH  33  34
ENDBRANCH  26  28
ENDBRANCH  25  26
ENDBRANCH  24  25
ENDBRANCH   1  24
TORSDOF 16
