REMARK SMILES O=C(OCCOC(=O)c1c(-c2ccc(Cl)cc2)noc1CO[C@@H]1CCCCO1)c1ccc(-c2c3nc(c(-c4c(F)c(F)c(F)c(F)c4F)c4ccc([nH]4)c(-c4c(F)c(F)c(F)c(F)c4F)c4nc(c(-c5c(F)c(F)c(F)c(F)c5F)c5ccc2[nH]5)C=C4)C=C3)cc1
REMARK SMILES IDX 5 1 4 2 3 3 2 4 1 5 29 6 30 7 91 8 31 9 90 10 32 11 33 12
REMARK SMILES IDX 34 13 84 14 35 15 89 16 83 17 85 18 36 19 88 20 82 21 81 22
REMARK SMILES IDX 37 24 69 25 49 26 68 27 50 28 53 29 67 30 86 31 51 32 52 33
REMARK SMILES IDX 66 35 87 36 54 37 38 38 39 39 47 40 40 41 41 42 45 43 48 44
REMARK SMILES IDX 42 45 43 46 46 47 44 48 70 49 71 50 79 51 72 52 73 53 77 54
REMARK SMILES IDX 80 55 74 56 75 57 78 58 76 59 55 60 56 61 64 62 57 63 58 64
REMARK SMILES IDX 62 65 65 66 59 67 60 68 63 69 61 70 6 71 7 72 8 73 9 74
REMARK SMILES IDX 10 75 20 76 18 77 19 78 11 79 12 80 17 81 13 82 16 83 14 84
REMARK SMILES IDX 15 85 21 86 22 87 23 88 24 89 28 90 25 91 27 92 26 93
REMARK H PARENT 85 23 53 34
REMARK Flexibility Score: inf
ROOT
ATOM      1  C   UNL     1       3.797   1.367  -1.821  1.00  0.00     0.275 C 
ENDROOT
BRANCH   1   2
ATOM      2  C   UNL     1       5.061   0.494  -1.861  1.00  0.00     0.275 C 
BRANCH   2   3
ATOM      3  O   UNL     1       5.093  -0.763  -1.148  1.00  0.00    -0.458 OA
BRANCH   3   4
ATOM      4  C   UNL     1       4.142  -1.049  -0.237  1.00  0.00     0.338 C 
ATOM      5  O   UNL     1       3.080  -1.582  -0.511  1.00  0.00    -0.246 OA
BRANCH   4   6
ATOM      6  C   UNL     1       4.558  -0.713   1.155  1.00  0.00     0.060 A 
ATOM      7  C   UNL     1       5.646   0.124   1.423  1.00  0.00     0.016 A 
ATOM      8  C   UNL     1       3.783  -1.185   2.222  1.00  0.00     0.016 A 
ATOM      9  C   UNL     1       5.954   0.478   2.735  1.00  0.00     0.010 A 
ATOM     10  C   UNL     1       4.053  -0.785   3.531  1.00  0.00     0.010 A 
ATOM     11  C   UNL     1       5.168   0.015   3.798  1.00  0.00    -0.014 A 
BRANCH  11  12
ATOM     12  C   UNL     1       5.657   0.206   5.182  1.00  0.00     0.031 A 
ATOM     13  C   UNL     1       6.276  -0.968   5.875  1.00  0.00     0.074 A 
ATOM     14  C   UNL     1       5.620   1.416   5.767  1.00  0.00     0.049 A 
ATOM     15  N   UNL     1       6.888  -1.020   7.027  1.00  0.00    -0.248 NA
ATOM     16  C   UNL     1       6.171  -2.268   5.191  1.00  0.00     0.031 C 
ATOM     17  C   UNL     1       4.966   2.587   5.203  1.00  0.00     0.029 A 
ATOM     18  N   UNL     1       6.150   1.875   6.944  1.00  0.00    -0.354 N 
ATOM     19  C   UNL     1       7.222  -2.354   7.209  1.00  0.00     0.074 A 
ATOM     20  C   UNL     1       6.700  -3.089   6.082  1.00  0.00     0.031 C 
ATOM     21  C   UNL     1       5.176   3.651   5.992  1.00  0.00     0.029 A 
ATOM     22  C   UNL     1       5.965   3.225   7.140  1.00  0.00     0.049 A 
ATOM     23  H   UNL     1       6.619   1.296   7.587  1.00  0.00     0.167 HD
ATOM     24  C   UNL     1       7.927  -2.908   8.221  1.00  0.00     0.037 A 
ATOM     25  C   UNL     1       6.398   4.022   8.134  1.00  0.00     0.037 A 
ATOM     26  C   UNL     1       8.447  -2.150   9.323  1.00  0.00     0.049 A 
ATOM     27  C   UNL     1       7.236   3.396   9.215  1.00  0.00     0.074 A 
ATOM     28  C   UNL     1       9.190  -2.585  10.402  1.00  0.00     0.029 A 
ATOM     29  N   UNL     1       8.271  -0.779   9.477  1.00  0.00    -0.354 N 
ATOM     30  N   UNL     1       7.599   2.142   9.350  1.00  0.00    -0.248 NA
ATOM     31  C   UNL     1       7.730   4.284  10.273  1.00  0.00     0.031 C 
ATOM     32  C   UNL     1       9.441  -1.480  11.225  1.00  0.00     0.029 A 
ATOM     33  C   UNL     1       8.891  -0.350  10.636  1.00  0.00     0.049 A 
ATOM     34  H   UNL     1       7.779  -0.199   8.852  1.00  0.00     0.167 HD
ATOM     35  C   UNL     1       8.364   2.087  10.504  1.00  0.00     0.074 A 
ATOM     36  C   UNL     1       8.442   3.444  11.012  1.00  0.00     0.031 C 
ATOM     37  C   UNL     1       8.941   1.014  11.100  1.00  0.00     0.037 A 
BRANCH  24  38
ATOM     38  C   UNL     1       8.138  -4.392   8.162  1.00  0.00     0.064 A 
ATOM     39  C   UNL     1       8.960  -4.980   7.186  1.00  0.00     0.173 A 
ATOM     40  C   UNL     1       7.462  -5.242   9.048  1.00  0.00     0.173 A 
ATOM     41  F   UNL     1       9.605  -4.212   6.294  1.00  0.00    -0.203 F 
ATOM     42  C   UNL     1       9.057  -6.364   7.070  1.00  0.00     0.198 A 
ATOM     43  C   UNL     1       7.588  -6.626   8.949  1.00  0.00     0.198 A 
ATOM     44  F   UNL     1       6.660  -4.733   9.995  1.00  0.00    -0.203 F 
ATOM     45  F   UNL     1       9.784  -6.902   6.080  1.00  0.00    -0.200 F 
ATOM     46  C   UNL     1       8.373  -7.186   7.952  1.00  0.00     0.200 A 
ATOM     47  F   UNL     1       6.929  -7.419   9.804  1.00  0.00    -0.200 F 
ATOM     48  F   UNL     1       8.457  -8.518   7.831  1.00  0.00    -0.200 F 
ENDBRANCH  24  38
BRANCH  25  49
ATOM     49  C   UNL     1       6.084   5.477   8.122  1.00  0.00     0.064 A 
ATOM     50  C   UNL     1       7.086   6.436   7.914  1.00  0.00     0.173 A 
ATOM     51  C   UNL     1       4.770   5.942   8.290  1.00  0.00     0.173 A 
ATOM     52  F   UNL     1       8.361   6.050   7.760  1.00  0.00    -0.203 F 
ATOM     53  C   UNL     1       6.790   7.799   7.888  1.00  0.00     0.198 A 
ATOM     54  C   UNL     1       4.470   7.303   8.235  1.00  0.00     0.198 A 
ATOM     55  F   UNL     1       3.770   5.071   8.486  1.00  0.00    -0.203 F 
ATOM     56  F   UNL     1       7.773   8.694   7.722  1.00  0.00    -0.200 F 
ATOM     57  C   UNL     1       5.481   8.231   8.041  1.00  0.00     0.200 A 
ATOM     58  F   UNL     1       3.201   7.714   8.364  1.00  0.00    -0.200 F 
ATOM     59  F   UNL     1       5.195   9.540   8.003  1.00  0.00    -0.200 F 
ENDBRANCH  25  49
BRANCH  37  60
ATOM     60  C   UNL     1       9.709   1.278  12.357  1.00  0.00     0.064 A 
ATOM     61  C   UNL     1       9.056   1.550  13.567  1.00  0.00     0.173 A 
ATOM     62  C   UNL     1      11.109   1.206  12.357  1.00  0.00     0.173 A 
ATOM     63  F   UNL     1       7.718   1.643  13.606  1.00  0.00    -0.203 F 
ATOM     64  C   UNL     1       9.782   1.762  14.733  1.00  0.00     0.198 A 
ATOM     65  C   UNL     1      11.830   1.392  13.532  1.00  0.00     0.198 A 
ATOM     66  F   UNL     1      11.774   0.942  11.222  1.00  0.00    -0.203 F 
ATOM     67  F   UNL     1       9.143   2.062  15.872  1.00  0.00    -0.200 F 
ATOM     68  C   UNL     1      11.167   1.675  14.717  1.00  0.00     0.200 A 
ATOM     69  F   UNL     1      13.166   1.297  13.517  1.00  0.00    -0.200 F 
ATOM     70  F   UNL     1      11.864   1.871  15.844  1.00  0.00    -0.200 F 
ENDBRANCH  37  60
ENDBRANCH  11  12
ENDBRANCH   4   6
ENDBRANCH   3   4
ENDBRANCH   2   3
ENDBRANCH   1   2
BRANCH   1  71
ATOM     71  O   UNL     1       3.386   1.655  -0.476  1.00  0.00    -0.458 OA
BRANCH  71  72
ATOM     72  C   UNL     1       2.051   1.487  -0.199  1.00  0.00     0.344 C 
ATOM     73  O   UNL     1       1.187   1.276  -1.037  1.00  0.00    -0.246 OA
BRANCH  72  74
ATOM     74  C   UNL     1       1.813   1.512   1.218  1.00  0.00     0.133 A 
ATOM     75  C   UNL     1       0.890   0.776   2.014  1.00  0.00     0.128 A 
ATOM     76  C   UNL     1       2.457   2.329   2.125  1.00  0.00     0.177 A 
ATOM     77  N   UNL     1       1.099   1.016   3.319  1.00  0.00    -0.079 NA
ATOM     78  O   UNL     1       2.095   1.965   3.381  1.00  0.00    -0.357 OA
BRANCH  75  79
ATOM     79  C   UNL     1      -0.156  -0.159   1.629  1.00  0.00     0.005 A 
ATOM     80  C   UNL     1       0.146  -1.449   1.183  1.00  0.00     0.012 A 
ATOM     81  C   UNL     1      -1.498   0.203   1.803  1.00  0.00     0.012 A 
ATOM     82  C   UNL     1      -0.869  -2.380   0.949  1.00  0.00     0.021 A 
ATOM     83  C   UNL     1      -2.518  -0.720   1.548  1.00  0.00     0.021 A 
ATOM     84  C   UNL     1      -2.197  -2.011   1.135  1.00  0.00     0.041 A 
ATOM     85  Cl  UNL     1      -3.446  -3.162   0.863  1.00  0.00    -0.084 Cl
ENDBRANCH  75  79
BRANCH  76  86
ATOM     86  C   UNL     1       3.354   3.503   1.995  1.00  0.00     0.242 C 
BRANCH  86  87
ATOM     87  O   UNL     1       2.894   4.554   2.858  1.00  0.00    -0.345 OA
BRANCH  87  88
ATOM     88  C   UNL     1       1.849   5.333   2.267  1.00  0.00     0.250 C 
ATOM     89  C   UNL     1       1.633   6.630   3.057  1.00  0.00     0.062 C 
ATOM     90  O   UNL     1       0.629   4.610   2.127  1.00  0.00    -0.353 OA
ATOM     91  C   UNL     1       0.864   6.410   4.357  1.00  0.00     0.008 C 
ATOM     92  C   UNL     1       0.001   4.309   3.375  1.00  0.00     0.163 C 
ATOM     93  C   UNL     1      -0.386   5.578   4.105  1.00  0.00     0.029 C 
ENDBRANCH  87  88
ENDBRANCH  86  87
ENDBRANCH  76  86
ENDBRANCH  72  74
ENDBRANCH  71  72
ENDBRANCH   1  71
TORSDOF 15
