REMARK SMILES Nc1nnc(S[C@H](F)C(=O)OCCOC(=O)c2ccc(-c3c4nc(c(-c5c(F)c(F)c(F)c(F)c5F)c5ccc([nH]5)c(-c5c(F)c(F)c(F)c(F)c5F)c5nc(c(-c6c(F)c(F)c(F)c(F)c6F)c6ccc3[nH]6)C=C5)C=C4)cc2)s1
REMARK SMILES IDX 12 1 11 2 9 3 10 4 7 5 8 6 6 7 5 8 2 9 3 10 80 11 4 12 1 13
REMARK SMILES IDX 13 16 14 17 15 18 16 19 17 20 18 21 79 22 19 23 78 24 20 25
REMARK SMILES IDX 21 26 22 27 72 28 23 29 77 30 71 31 73 32 24 33 76 34 70 35
REMARK SMILES IDX 69 36 25 38 57 39 37 40 56 41 38 42 41 43 55 44 74 45 39 46
REMARK SMILES IDX 40 47 54 49 75 50 42 51 26 52 27 53 35 54 28 55 29 56 33 57
REMARK SMILES IDX 36 58 30 59 31 60 34 61 32 62 58 63 59 64 67 65 60 66 61 67
REMARK SMILES IDX 65 68 68 69 62 70 63 71 66 72 64 73 43 74 44 75 52 76 45 77
REMARK SMILES IDX 46 78 50 79 53 80 47 81 48 82 51 83 49 84
REMARK H PARENT 1 14 1 15 73 37 41 48
REMARK Flexibility Score: inf
ROOT
ATOM      1  C   UNL     1       2.890   2.719   2.704  1.00  0.00     0.274 C 
ENDROOT
BRANCH   1   2
ATOM      2  O   UNL     1       2.794   2.055   1.430  1.00  0.00    -0.459 OA
BRANCH   2   3
ATOM      3  C   UNL     1       3.956   1.926   0.729  1.00  0.00     0.351 C 
ATOM      4  O   UNL     1       5.064   2.272   1.135  1.00  0.00    -0.248 OA
BRANCH   3   5
ATOM      5  C   UNL     1       3.740   1.285  -0.624  1.00  0.00     0.340 C 
ATOM      6  F   UNL     1       2.792   0.298  -0.581  1.00  0.00    -0.222 F 
BRANCH   5   7
ATOM      7  S   UNL     1       3.303   2.401  -1.978  1.00  0.00    -0.044 SA
BRANCH   7   8
ATOM      8  C   UNL     1       3.869   3.979  -1.511  1.00  0.00     0.179 A 
ATOM      9  C   UNL     1       4.501   6.266  -1.348  1.00  0.00     0.203 A 
ATOM     10  N   UNL     1       4.284   5.721  -0.174  1.00  0.00    -0.120 NA
ATOM     11  S   UNL     1       4.302   5.177  -2.662  1.00  0.00    -0.069 S 
ATOM     12  N   UNL     1       3.880   4.409  -0.273  1.00  0.00    -0.130 NA
BRANCH   9  13
ATOM     13  N   UNL     1       4.832   7.551  -1.535  1.00  0.00    -0.374 N 
ATOM     14  H   UNL     1       4.939   8.149  -0.760  1.00  0.00     0.159 HD
ATOM     15  H   UNL     1       4.969   7.896  -2.446  1.00  0.00     0.159 HD
ENDBRANCH   9  13
ENDBRANCH   7   8
ENDBRANCH   5   7
ENDBRANCH   3   5
ENDBRANCH   2   3
ENDBRANCH   1   2
BRANCH   1  16
ATOM     16  C   UNL     1       3.074   1.733   3.863  1.00  0.00     0.275 C 
BRANCH  16  17
ATOM     17  O   UNL     1       4.418   1.217   3.930  1.00  0.00    -0.458 OA
BRANCH  17  18
ATOM     18  C   UNL     1       4.644   0.101   3.198  1.00  0.00     0.338 C 
ATOM     19  O   UNL     1       3.826  -0.535   2.554  1.00  0.00    -0.246 OA
BRANCH  18  20
ATOM     20  C   UNL     1       6.090  -0.175   3.132  1.00  0.00     0.060 A 
ATOM     21  C   UNL     1       6.645  -0.412   1.869  1.00  0.00     0.016 A 
ATOM     22  C   UNL     1       6.883  -0.248   4.279  1.00  0.00     0.016 A 
ATOM     23  C   UNL     1       7.995  -0.724   1.744  1.00  0.00     0.010 A 
ATOM     24  C   UNL     1       8.238  -0.572   4.154  1.00  0.00     0.010 A 
ATOM     25  C   UNL     1       8.796  -0.823   2.887  1.00  0.00    -0.014 A 
BRANCH  25  26
ATOM     26  C   UNL     1      10.200  -1.270   2.752  1.00  0.00     0.031 A 
ATOM     27  C   UNL     1      10.559  -2.686   3.091  1.00  0.00     0.074 A 
ATOM     28  C   UNL     1      11.139  -0.419   2.302  1.00  0.00     0.049 A 
ATOM     29  N   UNL     1      11.730  -3.270   3.087  1.00  0.00    -0.248 NA
ATOM     30  C   UNL     1       9.447  -3.563   3.489  1.00  0.00     0.031 C 
ATOM     31  C   UNL     1      10.897   0.968   1.909  1.00  0.00     0.029 A 
ATOM     32  N   UNL     1      12.485  -0.596   2.111  1.00  0.00    -0.354 N 
ATOM     33  C   UNL     1      11.499  -4.576   3.498  1.00  0.00     0.074 A 
ATOM     34  C   UNL     1      10.081  -4.694   3.762  1.00  0.00     0.031 C 
ATOM     35  C   UNL     1      12.061   1.523   1.536  1.00  0.00     0.029 A 
ATOM     36  C   UNL     1      13.132   0.543   1.700  1.00  0.00     0.049 A 
ATOM     37  H   UNL     1      12.943  -1.455   2.254  1.00  0.00     0.167 HD
ATOM     38  C   UNL     1      12.394  -5.584   3.638  1.00  0.00     0.037 A 
ATOM     39  C   UNL     1      14.445   0.774   1.509  1.00  0.00     0.037 A 
ATOM     40  C   UNL     1      13.802  -5.458   3.367  1.00  0.00     0.049 A 
ATOM     41  C   UNL     1      15.427  -0.348   1.719  1.00  0.00     0.074 A 
ATOM     42  C   UNL     1      14.787  -6.426   3.448  1.00  0.00     0.029 A 
ATOM     43  N   UNL     1      14.427  -4.284   2.970  1.00  0.00    -0.354 N 
ATOM     44  N   UNL     1      15.201  -1.587   2.083  1.00  0.00    -0.248 NA
ATOM     45  C   UNL     1      16.845  -0.040   1.488  1.00  0.00     0.031 C 
ATOM     46  C   UNL     1      16.016  -5.825   3.154  1.00  0.00     0.029 A 
ATOM     47  C   UNL     1      15.790  -4.495   2.833  1.00  0.00     0.049 A 
ATOM     48  H   UNL     1      13.970  -3.427   2.810  1.00  0.00     0.167 HD
ATOM     49  C   UNL     1      16.441  -2.212   2.107  1.00  0.00     0.074 A 
ATOM     50  C   UNL     1      17.415  -1.218   1.704  1.00  0.00     0.031 C 
ATOM     51  C   UNL     1      16.746  -3.493   2.433  1.00  0.00     0.037 A 
BRANCH  38  52
ATOM     52  C   UNL     1      11.877  -6.898   4.145  1.00  0.00     0.064 A 
ATOM     53  C   UNL     1      11.058  -7.726   3.363  1.00  0.00     0.173 A 
ATOM     54  C   UNL     1      12.218  -7.341   5.433  1.00  0.00     0.173 A 
ATOM     55  F   UNL     1      10.691  -7.344   2.131  1.00  0.00    -0.203 F 
ATOM     56  C   UNL     1      10.573  -8.933   3.863  1.00  0.00     0.198 A 
ATOM     57  C   UNL     1      11.756  -8.561   5.918  1.00  0.00     0.198 A 
ATOM     58  F   UNL     1      13.002  -6.590   6.221  1.00  0.00    -0.203 F 
ATOM     59  F   UNL     1       9.748  -9.682   3.119  1.00  0.00    -0.200 F 
ATOM     60  C   UNL     1      10.926  -9.351   5.138  1.00  0.00     0.200 A 
ATOM     61  F   UNL     1      12.108  -8.969   7.145  1.00  0.00    -0.200 F 
ATOM     62  F   UNL     1      10.460 -10.512   5.617  1.00  0.00    -0.200 F 
ENDBRANCH  38  52
BRANCH  39  63
ATOM     63  C   UNL     1      14.902   2.133   1.121  1.00  0.00     0.064 A 
ATOM     64  C   UNL     1      15.427   2.389  -0.152  1.00  0.00     0.173 A 
ATOM     65  C   UNL     1      14.814   3.208   2.019  1.00  0.00     0.173 A 
ATOM     66  F   UNL     1      15.556   1.389  -1.036  1.00  0.00    -0.203 F 
ATOM     67  C   UNL     1      15.856   3.666  -0.510  1.00  0.00     0.198 A 
ATOM     68  C   UNL     1      15.215   4.490   1.651  1.00  0.00     0.198 A 
ATOM     69  F   UNL     1      14.320   3.015   3.251  1.00  0.00    -0.203 F 
ATOM     70  F   UNL     1      16.390   3.876  -1.721  1.00  0.00    -0.200 F 
ATOM     71  C   UNL     1      15.742   4.717   0.389  1.00  0.00     0.200 A 
ATOM     72  F   UNL     1      15.091   5.504   2.518  1.00  0.00    -0.200 F 
ATOM     73  F   UNL     1      16.145   5.946   0.040  1.00  0.00    -0.200 F 
ENDBRANCH  39  63
BRANCH  51  74
ATOM     74  C   UNL     1      18.189  -3.900   2.344  1.00  0.00     0.064 A 
ATOM     75  C   UNL     1      19.139  -3.453   3.273  1.00  0.00     0.173 A 
ATOM     76  C   UNL     1      18.616  -4.784   1.341  1.00  0.00     0.173 A 
ATOM     77  F   UNL     1      18.784  -2.595   4.242  1.00  0.00    -0.203 F 
ATOM     78  C   UNL     1      20.469  -3.856   3.187  1.00  0.00     0.198 A 
ATOM     79  C   UNL     1      19.940  -5.209   1.276  1.00  0.00     0.198 A 
ATOM     80  F   UNL     1      17.745  -5.246   0.431  1.00  0.00    -0.203 F 
ATOM     81  F   UNL     1      21.369  -3.380   4.058  1.00  0.00    -0.200 F 
ATOM     82  C   UNL     1      20.866  -4.739   2.194  1.00  0.00     0.200 A 
ATOM     83  F   UNL     1      20.319  -6.073   0.324  1.00  0.00    -0.200 F 
ATOM     84  F   UNL     1      22.145  -5.133   2.118  1.00  0.00    -0.200 F 
ENDBRANCH  51  74
ENDBRANCH  25  26
ENDBRANCH  18  20
ENDBRANCH  17  18
ENDBRANCH  16  17
ENDBRANCH   1  16
TORSDOF 14
