REMARK SMILES CC1(C)O[C@](C)(C(C)(C)O)CC[C@H]1C(=O)OCCOC(=O)c1ccc(-c2c3nc(c(-c4c(F)c(F)c(F)c(F)c4F)c4ccc([nH]4)c(-c4c(F)c(F)c(F)c(F)c4F)c4nc(c(-c5c(F)c(F)c(F)c(F)c5F)c5ccc2[nH]5)C=C4)C=C3)cc1
REMARK SMILES IDX 17 1 16 2 14 3 15 4 13 5 1 6 2 7 3 8 4 9 5 10 12 11 6 12
REMARK SMILES IDX 11 13 7 14 8 15 9 16 10 17 18 19 19 20 20 21 21 22 22 23
REMARK SMILES IDX 23 24 84 25 24 26 83 27 25 28 26 29 27 30 77 31 28 32 82 33
REMARK SMILES IDX 76 34 78 35 29 36 81 37 75 38 74 39 30 41 62 42 42 43 61 44
REMARK SMILES IDX 43 45 46 46 60 47 79 48 44 49 45 50 59 52 80 53 47 54 31 55
REMARK SMILES IDX 32 56 40 57 33 58 34 59 38 60 41 61 35 62 36 63 39 64 37 65
REMARK SMILES IDX 63 66 64 67 72 68 65 69 66 70 70 71 73 72 67 73 68 74 71 75
REMARK SMILES IDX 69 76 48 77 49 78 57 79 50 80 51 81 55 82 58 83 52 84 53 85
REMARK SMILES IDX 56 86 54 87
REMARK H PARENT 10 18 78 40 46 51
REMARK Flexibility Score: inf
ROOT
ATOM      1  C   UNL     1      -1.496  -2.451  -0.070  1.00  0.00     0.274 C 
ENDROOT
BRANCH   1   2
ATOM      2  O   UNL     1      -0.697  -1.251  -0.109  1.00  0.00    -0.462 OA
BRANCH   2   3
ATOM      3  C   UNL     1      -1.365  -0.105  -0.371  1.00  0.00     0.311 C 
ATOM      4  O   UNL     1      -2.576  -0.039  -0.560  1.00  0.00    -0.252 OA
BRANCH   3   5
ATOM      5  C   UNL     1      -0.482   1.125  -0.487  1.00  0.00     0.131 C 
ATOM      6  C   UNL     1       1.836  -0.021  -0.067  1.00  0.00     0.043 C 
ATOM      7  C   UNL     1       0.893   1.157   0.219  1.00  0.00     0.077 C 
ATOM      8  C   UNL     1       0.697   1.217   1.748  1.00  0.00     0.043 C 
ATOM      9  O   UNL     1       1.575   2.399  -0.067  1.00  0.00    -0.366 OA
ATOM     10  C   UNL     1       1.671   2.893  -1.417  1.00  0.00     0.094 C 
ATOM     11  C   UNL     1      -0.393   1.504  -1.965  1.00  0.00     0.021 C 
ATOM     12  C   UNL     1       2.669   2.056  -2.248  1.00  0.00     0.045 C 
ATOM     13  C   UNL     1       0.289   2.858  -2.104  1.00  0.00     0.039 C 
BRANCH  10  14
ATOM     14  C   UNL     1       2.212   4.383  -1.311  1.00  0.00     0.088 C 
ATOM     15  C   UNL     1       1.286   5.300  -0.489  1.00  0.00     0.045 C 
ATOM     16  C   UNL     1       3.611   4.440  -0.671  1.00  0.00     0.045 C 
BRANCH  14  17
ATOM     17  O   UNL     1       2.310   4.952  -2.627  1.00  0.00    -0.387 OA
ATOM     18  H   UNL     1       1.440   4.929  -3.055  1.00  0.00     0.211 HD
ENDBRANCH  14  17
ENDBRANCH  10  14
ENDBRANCH   3   5
ENDBRANCH   2   3
ENDBRANCH   1   2
BRANCH   1  19
ATOM     19  C   UNL     1      -1.916  -2.792   1.358  1.00  0.00     0.275 C 
BRANCH  19  20
ATOM     20  O   UNL     1      -2.708  -1.725   1.906  1.00  0.00    -0.458 OA
BRANCH  20  21
ATOM     21  C   UNL     1      -2.233  -1.153   3.034  1.00  0.00     0.338 C 
ATOM     22  O   UNL     1      -1.260  -1.480   3.689  1.00  0.00    -0.246 OA
BRANCH  21  23
ATOM     23  C   UNL     1      -3.072   0.004   3.372  1.00  0.00     0.060 A 
ATOM     24  C   UNL     1      -2.920   1.194   2.658  1.00  0.00     0.016 A 
ATOM     25  C   UNL     1      -3.940  -0.062   4.461  1.00  0.00     0.016 A 
ATOM     26  C   UNL     1      -3.620   2.334   3.040  1.00  0.00     0.010 A 
ATOM     27  C   UNL     1      -4.675   1.071   4.820  1.00  0.00     0.010 A 
ATOM     28  C   UNL     1      -4.508   2.281   4.121  1.00  0.00    -0.014 A 
BRANCH  28  29
ATOM     29  C   UNL     1      -5.243   3.500   4.534  1.00  0.00     0.031 A 
ATOM     30  C   UNL     1      -4.896   4.188   5.822  1.00  0.00     0.074 A 
ATOM     31  C   UNL     1      -6.214   3.992   3.743  1.00  0.00     0.049 A 
ATOM     32  N   UNL     1      -5.485   5.202   6.404  1.00  0.00    -0.248 NA
ATOM     33  C   UNL     1      -3.735   3.663   6.556  1.00  0.00     0.031 C 
ATOM     34  C   UNL     1      -6.613   3.434   2.451  1.00  0.00     0.029 A 
ATOM     35  N   UNL     1      -7.041   5.074   3.912  1.00  0.00    -0.354 N 
ATOM     36  C   UNL     1      -4.784   5.420   7.582  1.00  0.00     0.074 A 
ATOM     37  C   UNL     1      -3.732   4.427   7.640  1.00  0.00     0.031 C 
ATOM     38  C   UNL     1      -7.603   4.183   1.939  1.00  0.00     0.029 A 
ATOM     39  C   UNL     1      -7.941   5.239   2.889  1.00  0.00     0.049 A 
ATOM     40  H   UNL     1      -6.994   5.673   4.692  1.00  0.00     0.167 HD
ATOM     41  C   UNL     1      -5.002   6.365   8.528  1.00  0.00     0.037 A 
ATOM     42  C   UNL     1      -8.943   6.126   2.746  1.00  0.00     0.037 A 
ATOM     43  C   UNL     1      -6.035   7.365   8.456  1.00  0.00     0.049 A 
ATOM     44  C   UNL     1      -9.187   7.138   3.830  1.00  0.00     0.074 A 
ATOM     45  C   UNL     1      -6.325   8.375   9.357  1.00  0.00     0.029 A 
ATOM     46  N   UNL     1      -6.946   7.483   7.416  1.00  0.00    -0.354 N 
ATOM     47  N   UNL     1      -8.533   7.325   4.950  1.00  0.00    -0.248 NA
ATOM     48  C   UNL     1     -10.317   8.057   3.633  1.00  0.00     0.031 C 
ATOM     49  C   UNL     1      -7.435   9.083   8.879  1.00  0.00     0.029 A 
ATOM     50  C   UNL     1      -7.811   8.538   7.662  1.00  0.00     0.049 A 
ATOM     51  H   UNL     1      -6.975   6.903   6.621  1.00  0.00     0.167 HD
ATOM     52  C   UNL     1      -9.163   8.384   5.588  1.00  0.00     0.074 A 
ATOM     53  C   UNL     1     -10.239   8.815   4.718  1.00  0.00     0.031 C 
ATOM     54  C   UNL     1      -8.881   8.945   6.789  1.00  0.00     0.037 A 
BRANCH  41  55
ATOM     55  C   UNL     1      -4.121   6.344   9.741  1.00  0.00     0.064 A 
ATOM     56  C   UNL     1      -2.788   6.778   9.693  1.00  0.00     0.173 A 
ATOM     57  C   UNL     1      -4.629   5.912  10.976  1.00  0.00     0.173 A 
ATOM     58  F   UNL     1      -2.253   7.186   8.533  1.00  0.00    -0.203 F 
ATOM     59  C   UNL     1      -1.990   6.764  10.834  1.00  0.00     0.198 A 
ATOM     60  C   UNL     1      -3.835   5.921  12.119  1.00  0.00     0.198 A 
ATOM     61  F   UNL     1      -5.898   5.489  11.074  1.00  0.00    -0.203 F 
ATOM     62  F   UNL     1      -0.709   7.148  10.759  1.00  0.00    -0.200 F 
ATOM     63  C   UNL     1      -2.516   6.341  12.047  1.00  0.00     0.200 A 
ATOM     64  F   UNL     1      -4.347   5.520  13.291  1.00  0.00    -0.200 F 
ATOM     65  F   UNL     1      -1.748   6.333  13.145  1.00  0.00    -0.200 F 
ENDBRANCH  41  55
BRANCH  42  66
ATOM     66  C   UNL     1      -9.804   6.077   1.538  1.00  0.00     0.064 A 
ATOM     67  C   UNL     1      -9.737   7.084   0.565  1.00  0.00     0.173 A 
ATOM     68  C   UNL     1     -10.705   5.023   1.329  1.00  0.00     0.173 A 
ATOM     69  F   UNL     1      -8.910   8.125   0.736  1.00  0.00    -0.203 F 
ATOM     70  C   UNL     1     -10.546   7.042  -0.568  1.00  0.00     0.198 A 
ATOM     71  C   UNL     1     -11.494   4.968   0.183  1.00  0.00     0.198 A 
ATOM     72  F   UNL     1     -10.807   4.037   2.233  1.00  0.00    -0.203 F 
ATOM     73  F   UNL     1     -10.491   8.035  -1.465  1.00  0.00    -0.200 F 
ATOM     74  C   UNL     1     -11.418   5.980  -0.762  1.00  0.00     0.200 A 
ATOM     75  F   UNL     1     -12.328   3.937  -0.005  1.00  0.00    -0.200 F 
ATOM     76  F   UNL     1     -12.192   5.937  -1.855  1.00  0.00    -0.200 F 
ENDBRANCH  42  66
BRANCH  54  77
ATOM     77  C   UNL     1      -9.745  10.091   7.221  1.00  0.00     0.064 A 
ATOM     78  C   UNL     1     -11.058   9.886   7.670  1.00  0.00     0.173 A 
ATOM     79  C   UNL     1      -9.251  11.403   7.205  1.00  0.00     0.173 A 
ATOM     80  F   UNL     1     -11.580   8.650   7.686  1.00  0.00    -0.203 F 
ATOM     81  C   UNL     1     -11.855  10.958   8.062  1.00  0.00     0.198 A 
ATOM     82  C   UNL     1     -10.042  12.470   7.621  1.00  0.00     0.198 A 
ATOM     83  F   UNL     1      -8.000  11.650   6.788  1.00  0.00    -0.203 F 
ATOM     84  F   UNL     1     -13.122  10.745   8.443  1.00  0.00    -0.200 F 
ATOM     85  C   UNL     1     -11.345  12.248   8.042  1.00  0.00     0.200 A 
ATOM     86  F   UNL     1      -9.546  13.715   7.608  1.00  0.00    -0.200 F 
ATOM     87  F   UNL     1     -12.113  13.279   8.419  1.00  0.00    -0.200 F 
ENDBRANCH  54  77
ENDBRANCH  28  29
ENDBRANCH  21  23
ENDBRANCH  20  21
ENDBRANCH  19  20
ENDBRANCH   1  19
TORSDOF 13
