REMARK SMILES CCC(CC)(Nc1ccc(Br)cc1[N+](=O)[O-])C(=O)OCCOC(=O)c1ccc(-c2c3nc(c(-c4c(F)c(F)c(F)c(F)c4F)c4ccc([nH]4)c(-c4c(F)c(F)c(F)c(F)c4F)c4nc(c(-c5c(F)c(F)c(F)c(F)c5F)c5ccc2[nH]5)C=C4)C=C3)cc1
REMARK SMILES IDX 20 1 19 2 17 3 18 4 3 5 2 6 1 7 4 8 5 9 6 10 7 12 8 13 13 14
REMARK SMILES IDX 9 15 12 16 10 17 11 18 14 19 15 20 16 21 21 22 22 23 23 24
REMARK SMILES IDX 24 25 25 26 26 27 87 28 27 29 86 30 28 31 29 32 30 33 80 34
REMARK SMILES IDX 31 35 85 36 79 37 81 38 32 39 84 40 78 41 77 42 33 44 65 45
REMARK SMILES IDX 45 46 64 47 46 48 49 49 63 50 82 51 47 52 48 53 62 55 83 56
REMARK SMILES IDX 50 57 34 58 35 59 43 60 36 61 37 62 41 63 44 64 38 65 39 66
REMARK SMILES IDX 42 67 40 68 66 69 67 70 75 71 68 72 69 73 73 74 76 75 70 76
REMARK SMILES IDX 71 77 74 78 72 79 51 80 52 81 60 82 53 83 54 84 58 85 61 86
REMARK SMILES IDX 55 87 56 88 59 89 57 90
REMARK H PARENT 6 11 81 43 49 54
REMARK Flexibility Score: inf
ROOT
ATOM      1  C   UNL     1       4.541   1.905  -2.455  1.00  0.00     0.274 C 
ENDROOT
BRANCH   1   2
ATOM      2  O   UNL     1       3.127   2.176  -2.557  1.00  0.00    -0.460 OA
BRANCH   2   3
ATOM      3  C   UNL     1       2.261   1.316  -1.969  1.00  0.00     0.331 C 
ATOM      4  O   UNL     1       2.640   0.290  -1.412  1.00  0.00    -0.249 OA
BRANCH   3   5
ATOM      5  C   UNL     1       0.749   1.681  -2.167  1.00  0.00     0.135 C 
BRANCH   5   6
ATOM      6  C   UNL     1      -0.058   1.234  -0.892  1.00  0.00     0.037 C 
ATOM      7  C   UNL     1      -0.030  -0.233  -0.483  1.00  0.00     0.007 C 
ENDBRANCH   5   6
BRANCH   5   8
ATOM      8  C   UNL     1       0.286   0.939  -3.444  1.00  0.00     0.037 C 
ATOM      9  C   UNL     1      -1.221   0.913  -3.680  1.00  0.00     0.007 C 
ENDBRANCH   5   8
BRANCH   5  10
ATOM     10  N   UNL     1       0.398   3.134  -2.300  1.00  0.00    -0.364 N 
ATOM     11  H   UNL     1      -0.562   3.322  -2.186  1.00  0.00     0.161 HD
BRANCH  10  12
ATOM     12  C   UNL     1       1.157   4.259  -2.550  1.00  0.00     0.114 A 
ATOM     13  C   UNL     1       1.978   4.331  -3.683  1.00  0.00     0.034 A 
ATOM     14  C   UNL     1       1.172   5.382  -1.683  1.00  0.00     0.293 A 
ATOM     15  C   UNL     1       2.831   5.419  -3.911  1.00  0.00     0.018 A 
ATOM     16  C   UNL     1       2.024   6.480  -1.904  1.00  0.00     0.103 A 
ATOM     17  C   UNL     1       2.860   6.479  -3.013  1.00  0.00     0.024 A 
ATOM     18  Br  UNL     1       4.033   7.930  -3.309  1.00  0.00    -0.051 Br
BRANCH  14  19
ATOM     19  N   UNL     1       0.276   5.452  -0.516  1.00  0.00     0.065 N 
ATOM     20  O   UNL     1       0.559   6.255   0.385  1.00  0.00    -0.258 OA
ATOM     21  O   UNL     1      -0.731   4.725  -0.505  1.00  0.00    -0.258 OA
ENDBRANCH  14  19
ENDBRANCH  10  12
ENDBRANCH   5  10
ENDBRANCH   3   5
ENDBRANCH   2   3
ENDBRANCH   1   2
BRANCH   1  22
ATOM     22  C   UNL     1       5.166   2.827  -1.413  1.00  0.00     0.275 C 
BRANCH  22  23
ATOM     23  O   UNL     1       4.658   2.450  -0.124  1.00  0.00    -0.458 OA
BRANCH  23  24
ATOM     24  C   UNL     1       4.319   3.460   0.706  1.00  0.00     0.338 C 
ATOM     25  O   UNL     1       4.484   4.654   0.536  1.00  0.00    -0.246 OA
BRANCH  24  26
ATOM     26  C   UNL     1       3.662   2.879   1.891  1.00  0.00     0.060 A 
ATOM     27  C   UNL     1       2.584   2.011   1.720  1.00  0.00     0.016 A 
ATOM     28  C   UNL     1       4.061   3.257   3.171  1.00  0.00     0.016 A 
ATOM     29  C   UNL     1       1.853   1.568   2.818  1.00  0.00     0.010 A 
ATOM     30  C   UNL     1       3.376   2.749   4.280  1.00  0.00     0.010 A 
ATOM     31  C   UNL     1       2.243   1.928   4.114  1.00  0.00    -0.014 A 
BRANCH  31  32
ATOM     32  C   UNL     1       1.428   1.520   5.290  1.00  0.00     0.031 A 
ATOM     33  C   UNL     1       0.781   2.576   6.144  1.00  0.00     0.074 A 
ATOM     34  C   UNL     1       1.240   0.220   5.589  1.00  0.00     0.049 A 
ATOM     35  N   UNL     1       0.205   2.461   7.314  1.00  0.00    -0.248 NA
ATOM     36  C   UNL     1       0.796   3.948   5.614  1.00  0.00     0.031 C 
ATOM     37  C   UNL     1       1.743  -0.913   4.814  1.00  0.00     0.029 A 
ATOM     38  N   UNL     1       0.561  -0.365   6.630  1.00  0.00    -0.354 N 
ATOM     39  C   UNL     1      -0.148   3.751   7.688  1.00  0.00     0.074 A 
ATOM     40  C   UNL     1       0.267   4.632   6.617  1.00  0.00     0.031 C 
ATOM     41  C   UNL     1       1.327  -2.055   5.384  1.00  0.00     0.029 A 
ATOM     42  C   UNL     1       0.595  -1.738   6.607  1.00  0.00     0.049 A 
ATOM     43  H   UNL     1       0.094   0.150   7.327  1.00  0.00     0.167 HD
ATOM     44  C   UNL     1      -0.758   4.162   8.825  1.00  0.00     0.037 A 
ATOM     45  C   UNL     1       0.121  -2.638   7.489  1.00  0.00     0.037 A 
ATOM     46  C   UNL     1      -1.232   3.281   9.858  1.00  0.00     0.049 A 
ATOM     47  C   UNL     1      -0.542  -2.159   8.750  1.00  0.00     0.074 A 
ATOM     48  C   UNL     1      -1.857   3.602  11.051  1.00  0.00     0.029 A 
ATOM     49  N   UNL     1      -1.157   1.897   9.806  1.00  0.00    -0.354 N 
ATOM     50  N   UNL     1      -0.789  -0.933   9.141  1.00  0.00    -0.248 NA
ATOM     51  C   UNL     1      -0.969  -3.191   9.707  1.00  0.00     0.031 C 
ATOM     52  C   UNL     1      -2.145   2.411  11.729  1.00  0.00     0.029 A 
ATOM     53  C   UNL     1      -1.724   1.349  10.944  1.00  0.00     0.049 A 
ATOM     54  H   UNL     1      -0.758   1.381   9.068  1.00  0.00     0.167 HD
ATOM     55  C   UNL     1      -1.403  -1.044  10.380  1.00  0.00     0.074 A 
ATOM     56  C   UNL     1      -1.511  -2.458  10.670  1.00  0.00     0.031 C 
ATOM     57  C   UNL     1      -1.829  -0.061  11.210  1.00  0.00     0.037 A 
BRANCH  44  58
ATOM     58  C   UNL     1      -0.909   5.639   9.028  1.00  0.00     0.064 A 
ATOM     59  C   UNL     1      -1.870   6.389   8.336  1.00  0.00     0.173 A 
ATOM     60  C   UNL     1      -0.085   6.308   9.945  1.00  0.00     0.173 A 
ATOM     61  F   UNL     1      -2.670   5.796   7.437  1.00  0.00    -0.203 F 
ATOM     62  C   UNL     1      -1.986   7.762   8.540  1.00  0.00     0.198 A 
ATOM     63  C   UNL     1      -0.218   7.676  10.163  1.00  0.00     0.198 A 
ATOM     64  F   UNL     1       0.849   5.633  10.633  1.00  0.00    -0.203 F 
ATOM     65  F   UNL     1      -2.884   8.468   7.840  1.00  0.00    -0.200 F 
ATOM     66  C   UNL     1      -1.164   8.403   9.456  1.00  0.00     0.200 A 
ATOM     67  F   UNL     1       0.570   8.292  11.055  1.00  0.00    -0.200 F 
ATOM     68  F   UNL     1      -1.280   9.724   9.652  1.00  0.00    -0.200 F 
ENDBRANCH  44  58
BRANCH  45  69
ATOM     69  C   UNL     1       0.284  -4.091   7.225  1.00  0.00     0.064 A 
ATOM     70  C   UNL     1      -0.824  -4.892   6.914  1.00  0.00     0.173 A 
ATOM     71  C   UNL     1       1.542  -4.708   7.283  1.00  0.00     0.173 A 
ATOM     72  F   UNL     1      -2.051  -4.352   6.878  1.00  0.00    -0.203 F 
ATOM     73  C   UNL     1      -0.679  -6.257   6.677  1.00  0.00     0.198 A 
ATOM     74  C   UNL     1       1.689  -6.067   7.020  1.00  0.00     0.198 A 
ATOM     75  F   UNL     1       2.631  -3.985   7.582  1.00  0.00    -0.203 F 
ATOM     76  F   UNL     1      -1.758  -7.008   6.417  1.00  0.00    -0.200 F 
ATOM     77  C   UNL     1       0.578  -6.842   6.722  1.00  0.00     0.200 A 
ATOM     78  F   UNL     1       2.905  -6.627   7.056  1.00  0.00    -0.200 F 
ATOM     79  F   UNL     1       0.717  -8.154   6.487  1.00  0.00    -0.200 F 
ENDBRANCH  45  69
BRANCH  57  80
ATOM     80  C   UNL     1      -2.472  -0.485  12.495  1.00  0.00     0.064 A 
ATOM     81  C   UNL     1      -1.708  -0.951  13.574  1.00  0.00     0.173 A 
ATOM     82  C   UNL     1      -3.862  -0.397  12.658  1.00  0.00     0.173 A 
ATOM     83  F   UNL     1      -0.377  -1.067  13.458  1.00  0.00    -0.203 F 
ATOM     84  C   UNL     1      -2.316  -1.333  14.766  1.00  0.00     0.198 A 
ATOM     85  C   UNL     1      -4.465  -0.761  13.858  1.00  0.00     0.198 A 
ATOM     86  F   UNL     1      -4.634   0.045  11.653  1.00  0.00    -0.203 F 
ATOM     87  F   UNL     1      -1.572  -1.811  15.773  1.00  0.00    -0.200 F 
ATOM     88  C   UNL     1      -3.693  -1.233  14.909  1.00  0.00     0.200 A 
ATOM     89  F   UNL     1      -5.794  -0.661  13.997  1.00  0.00    -0.200 F 
ATOM     90  F   UNL     1      -4.276  -1.602  16.058  1.00  0.00    -0.200 F 
ENDBRANCH  57  80
ENDBRANCH  31  32
ENDBRANCH  24  26
ENDBRANCH  23  24
ENDBRANCH  22  23
ENDBRANCH   1  22
TORSDOF 16
