REMARK SMILES CS(=O)(=O)c1ccc(/C=C(/C(=O)OCCOC(=O)c2ccc(-c3c4nc(c(-c5c(F)c(F)c(F)c(F)c5F)c5ccc([nH]5)c(-c5c(F)c(F)c(F)c(F)c5F)c5nc(c(-c6c(F)c(F)c(F)c(F)c6F)c6ccc3[nH]6)C=C5)C=C4)cc2)c2ccc(-c3ccc(F)cc3F)cc2)cc1
REMARK SMILES IDX 14 1 13 2 11 3 12 4 10 5 9 6 8 7 5 8 6 9 97 10 7 11 96 12
REMARK SMILES IDX 2 13 1 14 3 15 4 16 82 17 83 18 95 19 84 20 94 21 85 22
REMARK SMILES IDX 86 23 87 24 92 25 88 26 91 27 93 28 89 29 90 30 15 31 16 32
REMARK SMILES IDX 17 33 18 34 19 35 20 36 81 37 21 38 80 39 22 40 23 41 24 42
REMARK SMILES IDX 74 43 25 44 79 45 73 46 75 47 26 48 78 49 72 50 71 51 27 53
REMARK SMILES IDX 59 54 39 55 58 56 40 57 43 58 57 59 76 60 41 61 42 62 56 64
REMARK SMILES IDX 77 65 44 66 28 67 29 68 37 69 30 70 31 71 35 72 38 73 32 74
REMARK SMILES IDX 33 75 36 76 34 77 60 78 61 79 69 80 62 81 63 82 67 83 70 84
REMARK SMILES IDX 64 85 65 86 68 87 66 88 45 89 46 90 54 91 47 92 48 93 52 94
REMARK SMILES IDX 55 95 49 96 50 97 53 98 51 99
REMARK H PARENT 75 52 43 63
REMARK Flexibility Score: inf
ROOT
ATOM      1  C   UNL     1       2.620   6.127   8.695  1.00  0.00     0.275 C 
ENDROOT
BRANCH   1   2
ATOM      2  O   UNL     1       2.070   5.405   7.573  1.00  0.00    -0.458 OA
BRANCH   2   3
ATOM      3  C   UNL     1       2.793   4.331   7.162  1.00  0.00     0.338 C 
ATOM      4  O   UNL     1       3.861   3.967   7.635  1.00  0.00    -0.246 OA
BRANCH   3   5
ATOM      5  C   UNL     1       2.102   3.579   6.071  1.00  0.00     0.067 C 
ATOM      6  C   UNL     1       1.567   4.270   5.039  1.00  0.00     0.024 C 
BRANCH   6   7
ATOM      7  C   UNL     1       1.073   3.722   3.756  1.00  0.00    -0.025 A 
ATOM      8  C   UNL     1       0.468   2.637   1.239  1.00  0.00     0.067 A 
ATOM      9  C   UNL     1       0.069   1.967   2.392  1.00  0.00     0.021 A 
ATOM     10  C   UNL     1       1.083   3.886   1.323  1.00  0.00     0.021 A 
ATOM     11  C   UNL     1       0.349   2.527   3.639  1.00  0.00     0.009 A 
ATOM     12  C   UNL     1       1.384   4.422   2.580  1.00  0.00     0.009 A 
BRANCH   8  13
ATOM     13  S   UNL     1       0.211   1.873  -0.343  1.00  0.00     0.175 S 
ATOM     14  C   UNL     1       1.028   0.301  -0.209  1.00  0.00     0.163 C 
ATOM     15  O   UNL     1       0.931   2.651  -1.327  1.00  0.00    -0.224 OA
ATOM     16  O   UNL     1      -1.218   1.637  -0.467  1.00  0.00    -0.224 OA
ENDBRANCH   8  13
ENDBRANCH   6   7
BRANCH   5  17
ATOM     17  C   UNL     1       2.169   2.107   6.107  1.00  0.00    -0.011 A 
ATOM     18  C   UNL     1       1.145   1.389   6.733  1.00  0.00     0.009 A 
ATOM     19  C   UNL     1       3.205   1.403   5.492  1.00  0.00     0.009 A 
ATOM     20  C   UNL     1       1.157  -0.010   6.737  1.00  0.00     0.009 A 
ATOM     21  C   UNL     1       3.211  -0.000   5.504  1.00  0.00     0.009 A 
ATOM     22  C   UNL     1       2.197  -0.745   6.137  1.00  0.00    -0.015 A 
BRANCH  22  23
ATOM     23  C   UNL     1       2.225  -2.230   6.204  1.00  0.00     0.018 A 
ATOM     24  C   UNL     1       1.030  -2.980   6.240  1.00  0.00     0.015 A 
ATOM     25  C   UNL     1       3.428  -2.965   6.257  1.00  0.00     0.133 A 
ATOM     26  C   UNL     1       1.043  -4.377   6.335  1.00  0.00     0.040 A 
ATOM     27  C   UNL     1       3.451  -4.357   6.329  1.00  0.00     0.079 A 
ATOM     28  F   UNL     1       4.614  -2.336   6.254  1.00  0.00    -0.206 F 
ATOM     29  C   UNL     1       2.254  -5.051   6.373  1.00  0.00     0.126 A 
ATOM     30  F   UNL     1       2.266  -6.388   6.439  1.00  0.00    -0.207 F 
ENDBRANCH  22  23
ENDBRANCH   5  17
ENDBRANCH   3   5
ENDBRANCH   2   3
ENDBRANCH   1   2
BRANCH   1  31
ATOM     31  C   UNL     1       1.905   5.741   9.989  1.00  0.00     0.275 C 
BRANCH  31  32
ATOM     32  O   UNL     1       2.145   4.352  10.283  1.00  0.00    -0.458 OA
BRANCH  32  33
ATOM     33  C   UNL     1       1.049   3.572  10.404  1.00  0.00     0.338 C 
ATOM     34  O   UNL     1      -0.121   3.925  10.354  1.00  0.00    -0.246 OA
BRANCH  33  35
ATOM     35  C   UNL     1       1.435   2.158  10.575  1.00  0.00     0.060 A 
ATOM     36  C   UNL     1       2.392   1.589   9.744  1.00  0.00     0.016 A 
ATOM     37  C   UNL     1       0.714   1.346  11.453  1.00  0.00     0.016 A 
ATOM     38  C   UNL     1       2.518   0.200   9.685  1.00  0.00     0.010 A 
ATOM     39  C   UNL     1       0.931  -0.040  11.468  1.00  0.00     0.010 A 
ATOM     40  C   UNL     1       1.786  -0.647  10.532  1.00  0.00    -0.014 A 
BRANCH  40  41
ATOM     41  C   UNL     1       1.856  -2.139  10.385  1.00  0.00     0.031 A 
ATOM     42  C   UNL     1       0.594  -2.971  10.291  1.00  0.00     0.074 A 
ATOM     43  C   UNL     1       3.041  -2.780  10.293  1.00  0.00     0.049 A 
ATOM     44  N   UNL     1       0.445  -4.272  10.390  1.00  0.00    -0.248 NA
ATOM     45  C   UNL     1      -0.670  -2.250  10.075  1.00  0.00     0.031 C 
ATOM     46  C   UNL     1       4.357  -2.144  10.308  1.00  0.00     0.029 A 
ATOM     47  N   UNL     1       3.329  -4.119  10.147  1.00  0.00    -0.354 N 
ATOM     48  C   UNL     1      -0.925  -4.508  10.351  1.00  0.00     0.074 A 
ATOM     49  C   UNL     1      -1.566  -3.221  10.190  1.00  0.00     0.031 C 
ATOM     50  C   UNL     1       5.301  -3.070  10.097  1.00  0.00     0.029 A 
ATOM     51  C   UNL     1       4.674  -4.385  10.066  1.00  0.00     0.049 A 
ATOM     52  H   UNL     1       2.637  -4.818  10.105  1.00  0.00     0.167 HD
ATOM     53  C   UNL     1      -1.587  -5.687  10.453  1.00  0.00     0.037 A 
ATOM     54  C   UNL     1       5.348  -5.551  10.032  1.00  0.00     0.037 A 
ATOM     55  C   UNL     1      -0.954  -6.981  10.511  1.00  0.00     0.049 A 
ATOM     56  C   UNL     1       4.598  -6.846  10.135  1.00  0.00     0.074 A 
ATOM     57  C   UNL     1      -1.548  -8.230  10.590  1.00  0.00     0.029 A 
ATOM     58  N   UNL     1       0.414  -7.195  10.465  1.00  0.00    -0.354 N 
ATOM     59  N   UNL     1       3.307  -7.048  10.215  1.00  0.00    -0.248 NA
ATOM     60  C   UNL     1       5.404  -8.074  10.184  1.00  0.00     0.031 C 
ATOM     61  C   UNL     1      -0.539  -9.198  10.622  1.00  0.00     0.029 A 
ATOM     62  C   UNL     1       0.682  -8.554  10.522  1.00  0.00     0.049 A 
ATOM     63  H   UNL     1       1.096  -6.487  10.401  1.00  0.00     0.167 HD
ATOM     64  C   UNL     1       3.145  -8.421  10.330  1.00  0.00     0.074 A 
ATOM     65  C   UNL     1       4.468  -9.007  10.278  1.00  0.00     0.031 C 
ATOM     66  C   UNL     1       2.000  -9.130  10.480  1.00  0.00     0.037 A 
BRANCH  53  67
ATOM     67  C   UNL     1      -3.086  -5.649  10.547  1.00  0.00     0.064 A 
ATOM     68  C   UNL     1      -3.898  -5.374   9.439  1.00  0.00     0.173 A 
ATOM     69  C   UNL     1      -3.718  -5.969  11.761  1.00  0.00     0.173 A 
ATOM     70  F   UNL     1      -3.345  -5.052   8.260  1.00  0.00    -0.203 F 
ATOM     71  C   UNL     1      -5.288  -5.403   9.546  1.00  0.00     0.198 A 
ATOM     72  C   UNL     1      -5.106  -6.024  11.857  1.00  0.00     0.198 A 
ATOM     73  F   UNL     1      -2.987  -6.251  12.850  1.00  0.00    -0.203 F 
ATOM     74  F   UNL     1      -6.046  -5.102   8.483  1.00  0.00    -0.200 F 
ATOM     75  C   UNL     1      -5.890  -5.736  10.751  1.00  0.00     0.200 A 
ATOM     76  F   UNL     1      -5.684  -6.362  13.018  1.00  0.00    -0.200 F 
ATOM     77  F   UNL     1      -7.226  -5.777  10.847  1.00  0.00    -0.200 F 
ENDBRANCH  53  67
BRANCH  54  78
ATOM     78  C   UNL     1       6.832  -5.536   9.960  1.00  0.00     0.064 A 
ATOM     79  C   UNL     1       7.500  -5.963   8.806  1.00  0.00     0.173 A 
ATOM     80  C   UNL     1       7.608  -5.073  11.034  1.00  0.00     0.173 A 
ATOM     81  F   UNL     1       6.800  -6.439   7.765  1.00  0.00    -0.203 F 
ATOM     82  C   UNL     1       8.890  -5.928   8.728  1.00  0.00     0.198 A 
ATOM     83  C   UNL     1       8.995  -5.005  10.941  1.00  0.00     0.198 A 
ATOM     84  F   UNL     1       7.014  -4.656  12.162  1.00  0.00    -0.203 F 
ATOM     85  F   UNL     1       9.509  -6.376   7.627  1.00  0.00    -0.200 F 
ATOM     86  C   UNL     1       9.636  -5.438   9.791  1.00  0.00     0.200 A 
ATOM     87  F   UNL     1       9.709  -4.514  11.963  1.00  0.00    -0.200 F 
ATOM     88  F   UNL     1      10.972  -5.387   9.708  1.00  0.00    -0.200 F 
ENDBRANCH  54  78
BRANCH  66  89
ATOM     89  C   UNL     1       2.128 -10.619  10.591  1.00  0.00     0.064 A 
ATOM     90  C   UNL     1       2.606 -11.226  11.762  1.00  0.00     0.173 A 
ATOM     91  C   UNL     1       1.754 -11.449   9.524  1.00  0.00     0.173 A 
ATOM     92  F   UNL     1       2.991 -10.473  12.803  1.00  0.00    -0.203 F 
ATOM     93  C   UNL     1       2.727 -12.610  11.851  1.00  0.00     0.198 A 
ATOM     94  C   UNL     1       1.855 -12.833   9.625  1.00  0.00     0.198 A 
ATOM     95  F   UNL     1       1.287 -10.916   8.385  1.00  0.00    -0.203 F 
ATOM     96  F   UNL     1       3.227 -13.167  12.963  1.00  0.00    -0.200 F 
ATOM     97  C   UNL     1       2.347 -13.412  10.785  1.00  0.00     0.200 A 
ATOM     98  F   UNL     1       1.481 -13.608   8.598  1.00  0.00    -0.200 F 
ATOM     99  F   UNL     1       2.466 -14.744  10.873  1.00  0.00    -0.200 F 
ENDBRANCH  66  89
ENDBRANCH  40  41
ENDBRANCH  33  35
ENDBRANCH  32  33
ENDBRANCH  31  32
ENDBRANCH   1  31
TORSDOF 15
