REMARK SMILES C[C@@H](CC(=O)OCCOC(=O)c1ccc(-c2c3nc(c(-c4c(F)c(F)c(F)c(F)c4F)c4ccc([nH]4)c(-c4c(F)c(F)c(F)c(F)c4F)c4nc(c(-c5c(F)c(F)c(F)c(F)c5F)c5ccc2[nH]5)C=C4)C=C3)cc1)CC(=O)N1C[C@H](C)[C@@H](C)C1
REMARK SMILES IDX 7 1 6 2 4 3 5 4 3 5 2 6 1 7 75 8 76 9 77 10 78 11 79 12
REMARK SMILES IDX 84 13 80 14 82 15 81 16 83 17 8 18 9 19 10 20 11 21 12 22
REMARK SMILES IDX 13 23 74 24 14 25 73 26 15 27 16 28 17 29 67 30 18 31 72 32
REMARK SMILES IDX 66 33 68 34 19 35 71 36 65 37 64 38 20 40 52 41 32 42 51 43
REMARK SMILES IDX 33 44 36 45 50 46 69 47 34 48 35 49 49 51 70 52 37 53 21 54
REMARK SMILES IDX 22 55 30 56 23 57 24 58 28 59 31 60 25 61 26 62 29 63 27 64
REMARK SMILES IDX 53 65 54 66 62 67 55 68 56 69 60 70 63 71 57 72 58 73 61 74
REMARK SMILES IDX 59 75 38 76 39 77 47 78 40 79 41 80 45 81 48 82 42 83 43 84
REMARK SMILES IDX 46 85 44 86
REMARK H PARENT 68 39 36 50
REMARK Flexibility Score: inf
ROOT
ATOM      1  C   UNL     1       0.659   3.079   2.469  1.00  0.00     0.274 C 
ENDROOT
BRANCH   1   2
ATOM      2  O   UNL     1       0.924   1.760   1.948  1.00  0.00    -0.462 OA
BRANCH   2   3
ATOM      3  C   UNL     1       1.345   0.817   2.826  1.00  0.00     0.306 C 
ATOM      4  O   UNL     1       1.560   1.018   4.016  1.00  0.00    -0.252 OA
BRANCH   3   5
ATOM      5  C   UNL     1       1.502  -0.565   2.206  1.00  0.00     0.126 C 
BRANCH   5   6
ATOM      6  C   UNL     1       1.216  -0.739   0.696  1.00  0.00     0.006 C 
ATOM      7  C   UNL     1       2.298   0.012  -0.091  1.00  0.00     0.009 C 
BRANCH   6   8
ATOM      8  C   UNL     1      -0.226  -0.322   0.344  1.00  0.00     0.104 C 
BRANCH   8   9
ATOM      9  C   UNL     1      -1.006  -1.124  -0.693  1.00  0.00     0.222 C 
ATOM     10  O   UNL     1      -1.826  -1.970  -0.335  1.00  0.00    -0.275 OA
ATOM     11  N   UNL     1      -0.866  -0.748  -2.009  1.00  0.00    -0.342 N 
ATOM     12  C   UNL     1      -1.931  -0.914  -2.979  1.00  0.00     0.123 C 
ATOM     13  C   UNL     1       0.370  -0.349  -2.642  1.00  0.00     0.123 C 
ATOM     14  C   UNL     1      -1.222  -1.042  -4.329  1.00  0.00     0.010 C 
ATOM     15  C   UNL     1       0.067  -0.217  -4.134  1.00  0.00     0.010 C 
ATOM     16  C   UNL     1      -0.936  -2.513  -4.652  1.00  0.00     0.010 C 
ATOM     17  C   UNL     1      -0.103   1.251  -4.524  1.00  0.00     0.010 C 
ENDBRANCH   8   9
ENDBRANCH   6   8
ENDBRANCH   5   6
ENDBRANCH   3   5
ENDBRANCH   2   3
ENDBRANCH   1   2
BRANCH   1  18
ATOM     18  C   UNL     1      -0.843   3.292   2.638  1.00  0.00     0.275 C 
BRANCH  18  19
ATOM     19  O   UNL     1      -1.347   2.363   3.613  1.00  0.00    -0.458 OA
BRANCH  19  20
ATOM     20  C   UNL     1      -2.339   1.549   3.188  1.00  0.00     0.338 C 
ATOM     21  O   UNL     1      -2.909   1.564   2.113  1.00  0.00    -0.246 OA
BRANCH  20  22
ATOM     22  C   UNL     1      -2.629   0.561   4.236  1.00  0.00     0.060 A 
ATOM     23  C   UNL     1      -1.732  -0.485   4.448  1.00  0.00     0.016 A 
ATOM     24  C   UNL     1      -3.849   0.598   4.910  1.00  0.00     0.016 A 
ATOM     25  C   UNL     1      -2.075  -1.540   5.288  1.00  0.00     0.010 A 
ATOM     26  C   UNL     1      -4.173  -0.436   5.792  1.00  0.00     0.010 A 
ATOM     27  C   UNL     1      -3.306  -1.532   5.956  1.00  0.00    -0.014 A 
BRANCH  27  28
ATOM     28  C   UNL     1      -3.728  -2.720   6.739  1.00  0.00     0.031 A 
ATOM     29  C   UNL     1      -4.849  -3.581   6.227  1.00  0.00     0.074 A 
ATOM     30  C   UNL     1      -3.091  -3.048   7.877  1.00  0.00     0.049 A 
ATOM     31  N   UNL     1      -5.449  -4.593   6.803  1.00  0.00    -0.248 NA
ATOM     32  C   UNL     1      -5.370  -3.256   4.890  1.00  0.00     0.031 C 
ATOM     33  C   UNL     1      -1.956  -2.325   8.449  1.00  0.00     0.029 A 
ATOM     34  N   UNL     1      -3.307  -4.081   8.754  1.00  0.00    -0.354 N 
ATOM     35  C   UNL     1      -6.441  -4.995   5.919  1.00  0.00     0.074 A 
ATOM     36  C   UNL     1      -6.368  -4.119   4.770  1.00  0.00     0.031 C 
ATOM     37  C   UNL     1      -1.565  -2.944   9.575  1.00  0.00     0.029 A 
ATOM     38  C   UNL     1      -2.453  -4.076   9.828  1.00  0.00     0.049 A 
ATOM     39  H   UNL     1      -4.008  -4.760   8.625  1.00  0.00     0.167 HD
ATOM     40  C   UNL     1      -7.332  -6.006   6.055  1.00  0.00     0.037 A 
ATOM     41  C   UNL     1      -2.407  -4.882  10.906  1.00  0.00     0.037 A 
ATOM     42  C   UNL     1      -7.374  -6.904   7.179  1.00  0.00     0.049 A 
ATOM     43  C   UNL     1      -3.406  -5.999  11.033  1.00  0.00     0.074 A 
ATOM     44  C   UNL     1      -8.249  -7.949   7.421  1.00  0.00     0.029 A 
ATOM     45  N   UNL     1      -6.485  -6.872   8.243  1.00  0.00    -0.354 N 
ATOM     46  N   UNL     1      -4.375  -6.339  10.218  1.00  0.00    -0.248 NA
ATOM     47  C   UNL     1      -3.307  -6.842  12.232  1.00  0.00     0.031 C 
ATOM     48  C   UNL     1      -7.900  -8.539   8.642  1.00  0.00     0.029 A 
ATOM     49  C   UNL     1      -6.788  -7.882   9.143  1.00  0.00     0.049 A 
ATOM     50  H   UNL     1      -5.749  -6.227   8.345  1.00  0.00     0.167 HD
ATOM     51  C   UNL     1      -4.987  -7.444  10.792  1.00  0.00     0.074 A 
ATOM     52  C   UNL     1      -4.270  -7.728  12.019  1.00  0.00     0.031 C 
ATOM     53  C   UNL     1      -6.051  -8.156  10.348  1.00  0.00     0.037 A 
BRANCH  40  54
ATOM     54  C   UNL     1      -8.356  -6.174   4.973  1.00  0.00     0.064 A 
ATOM     55  C   UNL     1      -8.028  -6.716   3.722  1.00  0.00     0.173 A 
ATOM     56  C   UNL     1      -9.691  -5.809   5.203  1.00  0.00     0.173 A 
ATOM     57  F   UNL     1      -6.762  -7.066   3.450  1.00  0.00    -0.203 F 
ATOM     58  C   UNL     1      -8.996  -6.867   2.732  1.00  0.00     0.198 A 
ATOM     59  C   UNL     1     -10.661  -5.983   4.219  1.00  0.00     0.198 A 
ATOM     60  F   UNL     1     -10.056  -5.289   6.384  1.00  0.00    -0.203 F 
ATOM     61  F   UNL     1      -8.654  -7.351   1.530  1.00  0.00    -0.200 F 
ATOM     62  C   UNL     1     -10.312  -6.506   2.984  1.00  0.00     0.200 A 
ATOM     63  F   UNL     1     -11.934  -5.644   4.467  1.00  0.00    -0.200 F 
ATOM     64  F   UNL     1     -11.243  -6.658   2.032  1.00  0.00    -0.200 F 
ENDBRANCH  40  54
BRANCH  41  65
ATOM     65  C   UNL     1      -1.381  -4.654  11.954  1.00  0.00     0.064 A 
ATOM     66  C   UNL     1      -0.318  -5.550  12.129  1.00  0.00     0.173 A 
ATOM     67  C   UNL     1      -1.442  -3.538  12.801  1.00  0.00     0.173 A 
ATOM     68  F   UNL     1      -0.232  -6.646  11.361  1.00  0.00    -0.203 F 
ATOM     69  C   UNL     1       0.640  -5.343  13.120  1.00  0.00     0.198 A 
ATOM     70  C   UNL     1      -0.470  -3.318  13.774  1.00  0.00     0.198 A 
ATOM     71  F   UNL     1      -2.442  -2.652  12.674  1.00  0.00    -0.203 F 
ATOM     72  F   UNL     1       1.625  -6.236  13.293  1.00  0.00    -0.200 F 
ATOM     73  C   UNL     1       0.567  -4.225  13.937  1.00  0.00     0.200 A 
ATOM     74  F   UNL     1      -0.538  -2.231  14.554  1.00  0.00    -0.200 F 
ATOM     75  F   UNL     1       1.491  -4.024  14.886  1.00  0.00    -0.200 F 
ENDBRANCH  41  65
BRANCH  53  76
ATOM     76  C   UNL     1      -6.472  -9.335  11.171  1.00  0.00     0.064 A 
ATOM     77  C   UNL     1      -7.158  -9.176  12.384  1.00  0.00     0.173 A 
ATOM     78  C   UNL     1      -6.204 -10.639  10.729  1.00  0.00     0.173 A 
ATOM     79  F   UNL     1      -7.422  -7.948  12.853  1.00  0.00    -0.203 F 
ATOM     80  C   UNL     1      -7.538 -10.283  13.138  1.00  0.00     0.198 A 
ATOM     81  C   UNL     1      -6.606 -11.743  11.476  1.00  0.00     0.198 A 
ATOM     82  F   UNL     1      -5.554 -10.842   9.573  1.00  0.00    -0.203 F 
ATOM     83  F   UNL     1      -8.153 -10.108  14.316  1.00  0.00    -0.200 F 
ATOM     84  C   UNL     1      -7.265 -11.564  12.682  1.00  0.00     0.200 A 
ATOM     85  F   UNL     1      -6.348 -12.981  11.031  1.00  0.00    -0.200 F 
ATOM     86  F   UNL     1      -7.630 -12.627  13.412  1.00  0.00    -0.200 F 
ENDBRANCH  53  76
ENDBRANCH  27  28
ENDBRANCH  20  22
ENDBRANCH  19  20
ENDBRANCH  18  19
ENDBRANCH   1  18
TORSDOF 14
