REMARK SMILES CCC(=O)Nc1ccc(-c2ccc(C(=O)OCCOC(=O)c3ccc(-c4c5nc(c(-c6c(F)c(F)c(F)c(F)c6F)c6ccc([nH]6)c(-c6c(F)c(F)c(F)c(F)c6F)c6nc(c(-c7c(F)c(F)c(F)c(F)c7F)c7ccc4[nH]7)C=C6)C=C5)cc3)cc2)nc1
REMARK SMILES IDX 17 1 16 2 14 3 15 4 13 5 10 6 11 7 86 8 12 9 85 10 9 11 6 12
REMARK SMILES IDX 7 13 88 14 8 15 87 16 5 17 3 18 4 19 2 21 1 22 18 23 19 24
REMARK SMILES IDX 20 25 21 26 22 27 23 28 84 29 24 30 83 31 25 32 26 33 27 34
REMARK SMILES IDX 77 35 28 36 82 37 76 38 78 39 29 40 81 41 75 42 74 43 30 45
REMARK SMILES IDX 62 46 42 47 61 48 43 49 46 50 60 51 79 52 44 53 45 54 59 56
REMARK SMILES IDX 80 57 47 58 31 59 32 60 40 61 33 62 34 63 38 64 41 65 35 66
REMARK SMILES IDX 36 67 39 68 37 69 63 70 64 71 72 72 65 73 66 74 70 75 73 76
REMARK SMILES IDX 67 77 68 78 71 79 69 80 48 81 49 82 57 83 50 84 51 85 55 86
REMARK SMILES IDX 58 87 52 88 53 89 56 90 54 91
REMARK H PARENT 5 20 78 44 46 55
REMARK Flexibility Score: inf
ROOT
ATOM      1  C   UNL     1      10.796  -5.689  -2.499  1.00  0.00     0.275 C 
ENDROOT
BRANCH   1   2
ATOM      2  O   UNL     1       9.926  -4.615  -2.085  1.00  0.00    -0.458 OA
BRANCH   2   3
ATOM      3  C   UNL     1       8.754  -5.005  -1.530  1.00  0.00     0.338 C 
ATOM      4  O   UNL     1       8.354  -6.152  -1.397  1.00  0.00    -0.246 OA
BRANCH   3   5
ATOM      5  C   UNL     1       8.013  -3.842  -0.993  1.00  0.00     0.060 A 
ATOM      6  C   UNL     1       6.437  -1.744   0.035  1.00  0.00     0.000 A 
ATOM      7  C   UNL     1       6.470  -2.995   0.668  1.00  0.00     0.011 A 
ATOM      8  C   UNL     1       7.240  -1.551  -1.103  1.00  0.00     0.011 A 
ATOM      9  C   UNL     1       7.222  -4.041   0.143  1.00  0.00     0.016 A 
ATOM     10  C   UNL     1       8.038  -2.588  -1.608  1.00  0.00     0.016 A 
BRANCH   6  11
ATOM     11  C   UNL     1       5.479  -0.742   0.511  1.00  0.00     0.070 A 
ATOM     12  C   UNL     1       3.418   0.722   1.601  1.00  0.00     0.059 A 
ATOM     13  C   UNL     1       3.428   0.466   0.235  1.00  0.00     0.030 A 
ATOM     14  C   UNL     1       4.518   0.309   2.339  1.00  0.00     0.137 A 
ATOM     15  C   UNL     1       4.468  -0.272  -0.321  1.00  0.00     0.031 A 
ATOM     16  N   UNL     1       5.528  -0.441   1.833  1.00  0.00    -0.254 NA
BRANCH  12  17
ATOM     17  N   UNL     1       2.373   1.423   2.214  1.00  0.00    -0.325 N 
ATOM     18  C   UNL     1       1.026   1.321   1.983  1.00  0.00     0.224 C 
ATOM     19  O   UNL     1       0.278   2.219   2.371  1.00  0.00    -0.275 OA
ATOM     20  H   UNL     1       2.641   2.076   2.901  1.00  0.00     0.169 HD
BRANCH  18  21
ATOM     21  C   UNL     1       0.463   0.032   1.402  1.00  0.00     0.097 C 
ATOM     22  C   UNL     1       0.110   0.101  -0.070  1.00  0.00     0.014 C 
ENDBRANCH  18  21
ENDBRANCH  12  17
ENDBRANCH   6  11
ENDBRANCH   3   5
ENDBRANCH   2   3
ENDBRANCH   1   2
BRANCH   1  23
ATOM     23  C   UNL     1      11.816  -6.004  -1.406  1.00  0.00     0.275 C 
BRANCH  23  24
ATOM     24  O   UNL     1      11.133  -6.495  -0.238  1.00  0.00    -0.458 OA
BRANCH  24  25
ATOM     25  C   UNL     1      11.651  -6.113   0.950  1.00  0.00     0.338 C 
ATOM     26  O   UNL     1      12.669  -5.461   1.135  1.00  0.00    -0.246 OA
BRANCH  25  27
ATOM     27  C   UNL     1      10.803  -6.604   2.057  1.00  0.00     0.060 A 
ATOM     28  C   UNL     1       9.416  -6.484   1.998  1.00  0.00     0.016 A 
ATOM     29  C   UNL     1      11.404  -7.087   3.219  1.00  0.00     0.016 A 
ATOM     30  C   UNL     1       8.634  -6.748   3.125  1.00  0.00     0.010 A 
ATOM     31  C   UNL     1      10.612  -7.441   4.317  1.00  0.00     0.010 A 
ATOM     32  C   UNL     1       9.221  -7.228   4.304  1.00  0.00    -0.014 A 
BRANCH  32  33
ATOM     33  C   UNL     1       8.412  -7.426   5.545  1.00  0.00     0.031 A 
ATOM     34  C   UNL     1       8.782  -6.692   6.810  1.00  0.00     0.074 A 
ATOM     35  C   UNL     1       7.341  -8.245   5.562  1.00  0.00     0.049 A 
ATOM     36  N   UNL     1       8.347  -6.868   8.034  1.00  0.00    -0.248 NA
ATOM     37  C   UNL     1       9.796  -5.633   6.686  1.00  0.00     0.031 C 
ATOM     38  C   UNL     1       6.830  -9.002   4.420  1.00  0.00     0.029 A 
ATOM     39  N   UNL     1       6.481  -8.571   6.585  1.00  0.00    -0.354 N 
ATOM     40  C   UNL     1       9.094  -6.009   8.830  1.00  0.00     0.074 A 
ATOM     41  C   UNL     1       9.998  -5.299   7.952  1.00  0.00     0.031 C 
ATOM     42  C   UNL     1       5.725  -9.666   4.791  1.00  0.00     0.029 A 
ATOM     43  C   UNL     1       5.491  -9.447   6.215  1.00  0.00     0.049 A 
ATOM     44  H   UNL     1       6.568  -8.210   7.497  1.00  0.00     0.167 HD
ATOM     45  C   UNL     1       9.037  -5.833  10.172  1.00  0.00     0.037 A 
ATOM     46  C   UNL     1       4.521 -10.037   6.942  1.00  0.00     0.037 A 
ATOM     47  C   UNL     1       8.072  -6.457  11.039  1.00  0.00     0.049 A 
ATOM     48  C   UNL     1       4.436  -9.780   8.421  1.00  0.00     0.074 A 
ATOM     49  C   UNL     1       7.913  -6.306  12.406  1.00  0.00     0.029 A 
ATOM     50  N   UNL     1       7.080  -7.328  10.616  1.00  0.00    -0.354 N 
ATOM     51  N   UNL     1       5.196  -9.024   9.173  1.00  0.00    -0.248 NA
ATOM     52  C   UNL     1       3.370 -10.479   9.155  1.00  0.00     0.031 C 
ATOM     53  C   UNL     1       6.835  -7.099  12.814  1.00  0.00     0.029 A 
ATOM     54  C   UNL     1       6.305  -7.721  11.696  1.00  0.00     0.049 A 
ATOM     55  H   UNL     1       6.947  -7.624   9.687  1.00  0.00     0.167 HD
ATOM     56  C   UNL     1       4.708  -9.159  10.465  1.00  0.00     0.074 A 
ATOM     57  C   UNL     1       3.566 -10.046  10.393  1.00  0.00     0.031 C 
ATOM     58  C   UNL     1       5.175  -8.607  11.611  1.00  0.00     0.037 A 
BRANCH  45  59
ATOM     59  C   UNL     1      10.073  -4.948  10.800  1.00  0.00     0.064 A 
ATOM     60  C   UNL     1      10.027  -3.552  10.692  1.00  0.00     0.173 A 
ATOM     61  C   UNL     1      11.113  -5.517  11.552  1.00  0.00     0.173 A 
ATOM     62  F   UNL     1       9.061  -2.962   9.973  1.00  0.00    -0.203 F 
ATOM     63  C   UNL     1      10.999  -2.757  11.296  1.00  0.00     0.198 A 
ATOM     64  C   UNL     1      12.068  -4.719  12.175  1.00  0.00     0.198 A 
ATOM     65  F   UNL     1      11.197  -6.849  11.691  1.00  0.00    -0.203 F 
ATOM     66  F   UNL     1      10.960  -1.426  11.147  1.00  0.00    -0.200 F 
ATOM     67  C   UNL     1      12.014  -3.340  12.041  1.00  0.00     0.200 A 
ATOM     68  F   UNL     1      13.041  -5.284  12.903  1.00  0.00    -0.200 F 
ATOM     69  F   UNL     1      12.944  -2.573  12.626  1.00  0.00    -0.200 F 
ENDBRANCH  45  59
BRANCH  46  70
ATOM     70  C   UNL     1       3.564 -10.956   6.276  1.00  0.00     0.064 A 
ATOM     71  C   UNL     1       2.230 -10.579   6.071  1.00  0.00     0.173 A 
ATOM     72  C   UNL     1       3.968 -12.216   5.813  1.00  0.00     0.173 A 
ATOM     73  F   UNL     1       1.792  -9.395   6.522  1.00  0.00    -0.203 F 
ATOM     74  C   UNL     1       1.335 -11.430   5.427  1.00  0.00     0.198 A 
ATOM     75  C   UNL     1       3.079 -13.056   5.146  1.00  0.00     0.198 A 
ATOM     76  F   UNL     1       5.234 -12.622   5.989  1.00  0.00    -0.203 F 
ATOM     77  F   UNL     1       0.057 -11.059   5.268  1.00  0.00    -0.200 F 
ATOM     78  C   UNL     1       1.762 -12.663   4.956  1.00  0.00     0.200 A 
ATOM     79  F   UNL     1       3.498 -14.241   4.683  1.00  0.00    -0.200 F 
ATOM     80  F   UNL     1       0.904 -13.476   4.324  1.00  0.00    -0.200 F 
ENDBRANCH  46  70
BRANCH  58  81
ATOM     81  C   UNL     1       4.448  -8.943  12.878  1.00  0.00     0.064 A 
ATOM     82  C   UNL     1       4.611 -10.188  13.502  1.00  0.00     0.173 A 
ATOM     83  C   UNL     1       3.606  -8.003  13.489  1.00  0.00     0.173 A 
ATOM     84  F   UNL     1       5.395 -11.124  12.946  1.00  0.00    -0.203 F 
ATOM     85  C   UNL     1       3.941 -10.487  14.685  1.00  0.00     0.198 A 
ATOM     86  C   UNL     1       2.953  -8.298  14.681  1.00  0.00     0.198 A 
ATOM     87  F   UNL     1       3.421  -6.797  12.930  1.00  0.00    -0.203 F 
ATOM     88  F   UNL     1       4.082 -11.695  15.246  1.00  0.00    -0.200 F 
ATOM     89  C   UNL     1       3.116  -9.541  15.276  1.00  0.00     0.200 A 
ATOM     90  F   UNL     1       2.160  -7.382  15.255  1.00  0.00    -0.200 F 
ATOM     91  F   UNL     1       2.472  -9.830  16.415  1.00  0.00    -0.200 F 
ENDBRANCH  58  81
ENDBRANCH  32  33
ENDBRANCH  25  27
ENDBRANCH  24  25
ENDBRANCH  23  24
ENDBRANCH   1  23
TORSDOF 14
