REMARK SMILES Cc1ccc(N2C(=O)N[C@@H]3CCN(C(=O)CC4(CC(=O)OCCOC(=O)c5ccc(-c6c7nc(c(-c8c(F)c(F)c(F)c(F)c8F)c8ccc([nH]8)c(-c8c(F)c(F)c(F)c(F)c8F)c8nc(c(-c9c(F)c(F)c(F)c(F)c9F)c9ccc6[nH]9)C=C8)C=C7)cc5)CCCC4)[C@@H]3C2=O)cc1
REMARK SMILES IDX 21 1 19 2 20 3 18 4 17 5 90 6 93 7 91 8 92 9 16 10 14 11
REMARK SMILES IDX 15 12 13 13 6 14 7 15 95 16 8 17 9 18 94 19 96 20 10 21
REMARK SMILES IDX 11 23 12 24 5 25 1 26 2 27 3 28 98 29 4 30 97 31 22 32 23 33
REMARK SMILES IDX 24 34 25 35 26 36 27 37 28 38 89 39 29 40 88 41 30 42 31 43
REMARK SMILES IDX 32 44 82 45 33 46 87 47 81 48 83 49 34 50 86 51 80 52 79 53
REMARK SMILES IDX 35 55 67 56 47 57 66 58 48 59 51 60 65 61 84 62 49 63 50 64
REMARK SMILES IDX 64 66 85 67 52 68 36 69 37 70 45 71 38 72 39 73 43 74 46 75
REMARK SMILES IDX 40 76 41 77 44 78 42 79 68 80 69 81 77 82 70 83 71 84 75 85
REMARK SMILES IDX 78 86 72 87 73 88 76 89 74 90 53 91 54 92 62 93 55 94 56 95
REMARK SMILES IDX 60 96 63 97 57 98 58 99 61 100 59 101
REMARK H PARENT 9 22 83 54 51 65
REMARK Flexibility Score: inf
ROOT
ATOM      1  O   UNL     1      -9.566   1.216  -5.356  1.00  0.00    -0.462 OA
ENDROOT
BRANCH   1   2
ATOM      2  C   UNL     1      -9.109   0.117  -6.003  1.00  0.00     0.306 C 
ATOM      3  O   UNL     1      -9.812  -0.663  -6.631  1.00  0.00    -0.252 OA
BRANCH   2   4
ATOM      4  C   UNL     1      -7.617  -0.065  -5.778  1.00  0.00     0.130 C 
BRANCH   4   5
ATOM      5  C   UNL     1      -7.279  -0.212  -4.274  1.00  0.00    -0.011 C 
ATOM      6  C   UNL     1      -5.845  -0.754  -4.124  1.00  0.00     0.008 C 
ATOM      7  C   UNL     1      -8.177  -1.372  -3.760  1.00  0.00     0.008 C 
ATOM      8  C   UNL     1      -5.955  -2.254  -4.343  1.00  0.00     0.001 C 
ATOM      9  C   UNL     1      -7.334  -2.645  -3.831  1.00  0.00     0.001 C 
BRANCH   5  10
ATOM     10  C   UNL     1      -7.477   1.179  -3.578  1.00  0.00     0.107 C 
BRANCH  10  11
ATOM     11  C   UNL     1      -6.476   1.685  -2.538  1.00  0.00     0.223 C 
ATOM     12  O   UNL     1      -5.797   2.688  -2.756  1.00  0.00    -0.275 OA
BRANCH  11  13
ATOM     13  N   UNL     1      -6.407   1.018  -1.340  1.00  0.00    -0.328 N 
ATOM     14  N   UNL     1      -3.258   0.236   0.314  1.00  0.00    -0.230 N 
ATOM     15  C   UNL     1      -3.746  -0.200   1.539  1.00  0.00     0.329 C 
ATOM     16  C   UNL     1      -4.026   0.813  -0.700  1.00  0.00     0.260 C 
ATOM     17  O   UNL     1      -3.138  -0.868   2.373  1.00  0.00    -0.248 OA
ATOM     18  N   UNL     1      -5.008   0.184   1.867  1.00  0.00    -0.332 N 
ATOM     19  C   UNL     1      -5.414   1.342  -0.312  1.00  0.00     0.197 C 
ATOM     20  O   UNL     1      -3.615   0.906  -1.863  1.00  0.00    -0.271 OA
ATOM     21  C   UNL     1      -5.976   0.677   0.940  1.00  0.00     0.118 C 
ATOM     22  H   UNL     1      -5.275   0.117   2.812  1.00  0.00     0.165 HD
ATOM     23  C   UNL     1      -6.805  -0.489   0.426  1.00  0.00     0.049 C 
ATOM     24  C   UNL     1      -7.298  -0.025  -0.913  1.00  0.00     0.122 C 
BRANCH  14  25
ATOM     25  C   UNL     1      -1.857   0.096   0.075  1.00  0.00     0.054 A 
ATOM     26  C   UNL     1       2.443  -0.096  -0.082  1.00  0.00     0.044 C 
ATOM     27  C   UNL     1       0.946  -0.030  -0.071  1.00  0.00    -0.051 A 
ATOM     28  C   UNL     1       0.192  -1.193   0.134  1.00  0.00     0.005 A 
ATOM     29  C   UNL     1       0.285   1.187  -0.264  1.00  0.00     0.005 A 
ATOM     30  C   UNL     1      -1.200  -1.128   0.227  1.00  0.00     0.027 A 
ATOM     31  C   UNL     1      -1.107   1.247  -0.211  1.00  0.00     0.027 A 
ENDBRANCH  14  25
ENDBRANCH  11  13
ENDBRANCH  10  11
ENDBRANCH   5  10
ENDBRANCH   4   5
ENDBRANCH   2   4
ENDBRANCH   1   2
BRANCH   1  32
ATOM     32  C   UNL     1     -10.951   1.504  -5.502  1.00  0.00     0.274 C 
BRANCH  32  33
ATOM     33  C   UNL     1     -11.207   3.008  -5.329  1.00  0.00     0.275 C 
BRANCH  33  34
ATOM     34  O   UNL     1     -10.102   3.959  -5.478  1.00  0.00    -0.458 OA
BRANCH  34  35
ATOM     35  C   UNL     1      -8.992   4.000  -6.272  1.00  0.00     0.338 C 
ATOM     36  O   UNL     1      -8.042   4.694  -6.008  1.00  0.00    -0.246 OA
BRANCH  35  37
ATOM     37  C   UNL     1      -8.955   3.125  -7.464  1.00  0.00     0.060 A 
ATOM     38  C   UNL     1      -7.746   2.535  -7.882  1.00  0.00     0.016 A 
ATOM     39  C   UNL     1     -10.145   2.785  -8.073  1.00  0.00     0.016 A 
ATOM     40  C   UNL     1      -7.759   1.485  -8.813  1.00  0.00     0.010 A 
ATOM     41  C   UNL     1     -10.180   1.633  -8.817  1.00  0.00     0.010 A 
ATOM     42  C   UNL     1      -8.993   1.004  -9.242  1.00  0.00    -0.014 A 
BRANCH  42  43
ATOM     43  C   UNL     1      -9.218   0.078 -10.351  1.00  0.00     0.031 A 
ATOM     44  C   UNL     1      -8.995  -1.381 -10.332  1.00  0.00     0.074 A 
ATOM     45  C   UNL     1      -9.833   0.703 -11.383  1.00  0.00     0.049 A 
ATOM     46  N   UNL     1      -9.011  -2.099 -11.404  1.00  0.00    -0.248 NA
ATOM     47  C   UNL     1      -8.744  -2.183  -9.143  1.00  0.00     0.031 C 
ATOM     48  C   UNL     1     -10.502   0.198 -12.564  1.00  0.00     0.029 A 
ATOM     49  N   UNL     1      -9.839   2.099 -11.574  1.00  0.00    -0.354 N 
ATOM     50  C   UNL     1      -9.043  -3.432 -11.049  1.00  0.00     0.074 A 
ATOM     51  C   UNL     1      -8.818  -3.433  -9.624  1.00  0.00     0.031 C 
ATOM     52  C   UNL     1     -10.528   1.189 -13.480  1.00  0.00     0.029 A 
ATOM     53  C   UNL     1      -9.735   2.296 -12.950  1.00  0.00     0.049 A 
ATOM     54  H   UNL     1      -9.903   2.794 -10.879  1.00  0.00     0.167 HD
ATOM     55  C   UNL     1      -9.368  -4.347 -12.011  1.00  0.00     0.037 A 
ATOM     56  C   UNL     1      -8.528   2.747 -13.408  1.00  0.00     0.037 A 
ATOM     57  C   UNL     1      -9.459  -3.684 -13.312  1.00  0.00     0.049 A 
ATOM     58  C   UNL     1      -7.826   1.719 -14.264  1.00  0.00     0.074 A 
ATOM     59  C   UNL     1     -10.502  -3.139 -14.041  1.00  0.00     0.029 A 
ATOM     60  N   UNL     1      -8.298  -3.180 -13.864  1.00  0.00    -0.354 N 
ATOM     61  N   UNL     1      -8.171   0.463 -14.330  1.00  0.00    -0.248 NA
ATOM     62  C   UNL     1      -6.630   2.011 -15.047  1.00  0.00     0.031 C 
ATOM     63  C   UNL     1      -9.941  -2.233 -14.991  1.00  0.00     0.029 A 
ATOM     64  C   UNL     1      -8.563  -2.253 -14.851  1.00  0.00     0.049 A 
ATOM     65  H   UNL     1      -7.393  -3.449 -13.587  1.00  0.00     0.167 HD
ATOM     66  C   UNL     1      -7.309  -0.206 -15.144  1.00  0.00     0.074 A 
ATOM     67  C   UNL     1      -6.330   0.795 -15.533  1.00  0.00     0.031 C 
ATOM     68  C   UNL     1      -7.451  -1.528 -15.442  1.00  0.00     0.037 A 
BRANCH  55  69
ATOM     69  C   UNL     1      -9.785  -5.790 -11.810  1.00  0.00     0.064 A 
ATOM     70  C   UNL     1     -10.578  -6.436 -12.791  1.00  0.00     0.173 A 
ATOM     71  C   UNL     1      -9.480  -6.588 -10.693  1.00  0.00     0.173 A 
ATOM     72  F   UNL     1     -10.900  -5.832 -13.943  1.00  0.00    -0.203 F 
ATOM     73  C   UNL     1     -11.083  -7.730 -12.632  1.00  0.00     0.198 A 
ATOM     74  C   UNL     1     -10.009  -7.877 -10.520  1.00  0.00     0.198 A 
ATOM     75  F   UNL     1      -8.625  -6.177  -9.751  1.00  0.00    -0.203 F 
ATOM     76  F   UNL     1     -11.838  -8.273 -13.598  1.00  0.00    -0.200 F 
ATOM     77  C   UNL     1     -10.817  -8.444 -11.485  1.00  0.00     0.200 A 
ATOM     78  F   UNL     1      -9.723  -8.570  -9.407  1.00  0.00    -0.200 F 
ATOM     79  F   UNL     1     -11.321  -9.675 -11.319  1.00  0.00    -0.200 F 
ENDBRANCH  55  69
BRANCH  56  80
ATOM     80  C   UNL     1      -7.827   3.676 -12.446  1.00  0.00     0.064 A 
ATOM     81  C   UNL     1      -8.540   4.765 -11.890  1.00  0.00     0.173 A 
ATOM     82  C   UNL     1      -6.605   3.356 -11.836  1.00  0.00     0.173 A 
ATOM     83  F   UNL     1      -9.725   5.129 -12.409  1.00  0.00    -0.203 F 
ATOM     84  C   UNL     1      -8.111   5.415 -10.731  1.00  0.00     0.198 A 
ATOM     85  C   UNL     1      -6.159   4.037 -10.698  1.00  0.00     0.198 A 
ATOM     86  F   UNL     1      -5.867   2.329 -12.280  1.00  0.00    -0.203 F 
ATOM     87  F   UNL     1      -8.887   6.351 -10.163  1.00  0.00    -0.200 F 
ATOM     88  C   UNL     1      -6.923   5.044 -10.131  1.00  0.00     0.200 A 
ATOM     89  F   UNL     1      -5.018   3.658 -10.102  1.00  0.00    -0.200 F 
ATOM     90  F   UNL     1      -6.537   5.623  -8.986  1.00  0.00    -0.200 F 
ENDBRANCH  56  80
BRANCH  68  91
ATOM     91  C   UNL     1      -6.507  -2.233 -16.360  1.00  0.00     0.064 A 
ATOM     92  C   UNL     1      -6.140  -1.683 -17.596  1.00  0.00     0.173 A 
ATOM     93  C   UNL     1      -6.015  -3.521 -16.070  1.00  0.00     0.173 A 
ATOM     94  F   UNL     1      -6.624  -0.496 -17.991  1.00  0.00    -0.203 F 
ATOM     95  C   UNL     1      -5.268  -2.348 -18.455  1.00  0.00     0.198 A 
ATOM     96  C   UNL     1      -5.202  -4.211 -16.961  1.00  0.00     0.198 A 
ATOM     97  F   UNL     1      -6.281  -4.129 -14.905  1.00  0.00    -0.203 F 
ATOM     98  F   UNL     1      -4.873  -1.752 -19.588  1.00  0.00    -0.200 F 
ATOM     99  C   UNL     1      -4.809  -3.615 -18.143  1.00  0.00     0.200 A 
ATOM    100  F   UNL     1      -4.793  -5.452 -16.660  1.00  0.00    -0.200 F 
ATOM    101  F   UNL     1      -3.984  -4.260 -18.977  1.00  0.00    -0.200 F 
ENDBRANCH  68  91
ENDBRANCH  42  43
ENDBRANCH  35  37
ENDBRANCH  34  35
ENDBRANCH  33  34
ENDBRANCH  32  33
ENDBRANCH   1  32
TORSDOF 16
