REMARK SMILES CCN(C(=O)c1ccc(C)cc1F)[C@@H]1COC[C@@H]1C(=O)OCCOC(=O)c1ccc(-c2c3nc(c(-c4c(F)c(F)c(F)c(F)c4F)c4ccc([nH]4)c(-c4c(F)c(F)c(F)c(F)c4F)c4nc(c(-c5c(F)c(F)c(F)c(F)c5F)c5ccc2[nH]5)C=C4)C=C3)cc1
REMARK SMILES IDX 22 1 21 2 19 3 20 4 18 5 14 6 15 7 16 8 17 9 3 10 2 11 1 12
REMARK SMILES IDX 4 13 5 14 6 15 7 16 12 17 8 18 11 19 13 20 9 21 10 22 23 23
REMARK SMILES IDX 24 24 25 25 26 26 27 27 28 28 89 29 29 30 88 31 30 32 31 33
REMARK SMILES IDX 32 34 82 35 33 36 87 37 81 38 83 39 34 40 86 41 80 42 79 43
REMARK SMILES IDX 35 45 67 46 47 47 66 48 48 49 51 50 65 51 84 52 49 53 50 54
REMARK SMILES IDX 64 56 85 57 52 58 36 59 37 60 45 61 38 62 39 63 43 64 46 65
REMARK SMILES IDX 40 66 41 67 44 68 42 69 68 70 69 71 77 72 70 73 71 74 75 75
REMARK SMILES IDX 78 76 72 77 73 78 76 79 74 80 53 81 54 82 62 83 55 84 56 85
REMARK SMILES IDX 60 86 63 87 57 88 58 89 61 90 59 91
REMARK H PARENT 83 44 51 55
REMARK Flexibility Score: inf
ROOT
ATOM      1  C   UNL     1       0.358   1.038   5.313  1.00  0.00     0.274 C 
ENDROOT
BRANCH   1   2
ATOM      2  O   UNL     1       0.960   0.524   4.110  1.00  0.00    -0.462 OA
BRANCH   2   3
ATOM      3  C   UNL     1       2.235   0.877   3.865  1.00  0.00     0.313 C 
ATOM      4  O   UNL     1       2.843   1.750   4.479  1.00  0.00    -0.252 OA
BRANCH   3   5
ATOM      5  C   UNL     1       2.848   0.160   2.688  1.00  0.00     0.150 C 
ATOM      6  C   UNL     1       2.153  -0.952   1.897  1.00  0.00     0.127 C 
ATOM      7  C   UNL     1       2.819  -2.242   2.355  1.00  0.00     0.186 C 
ATOM      8  O   UNL     1       3.995  -1.917   3.098  1.00  0.00    -0.378 OA
ATOM      9  C   UNL     1       4.144  -0.496   3.159  1.00  0.00     0.177 C 
BRANCH   6  10
ATOM     10  N   UNL     1       0.680  -0.926   1.646  1.00  0.00    -0.333 N 
BRANCH  10  11
ATOM     11  C   UNL     1       0.216  -0.327   0.389  1.00  0.00     0.117 C 
ATOM     12  C   UNL     1       0.937   0.932  -0.059  1.00  0.00     0.027 C 
ENDBRANCH  10  11
BRANCH  10  13
ATOM     13  C   UNL     1      -0.230  -1.610   2.474  1.00  0.00     0.257 C 
ATOM     14  O   UNL     1       0.091  -2.313   3.424  1.00  0.00    -0.269 OA
BRANCH  13  15
ATOM     15  C   UNL     1      -1.685  -1.570   2.200  1.00  0.00     0.075 A 
ATOM     16  C   UNL     1      -2.263  -2.470   1.301  1.00  0.00     0.017 A 
ATOM     17  C   UNL     1      -2.511  -0.710   2.919  1.00  0.00     0.136 A 
ATOM     18  C   UNL     1      -3.648  -2.454   1.078  1.00  0.00     0.004 A 
ATOM     19  C   UNL     1      -3.892  -0.710   2.723  1.00  0.00     0.043 A 
ATOM     20  F   UNL     1      -2.010   0.157   3.805  1.00  0.00    -0.206 F 
ATOM     21  C   UNL     1      -4.471  -1.561   1.776  1.00  0.00    -0.048 A 
ATOM     22  C   UNL     1      -5.953  -1.510   1.538  1.00  0.00     0.044 C 
ENDBRANCH  13  15
ENDBRANCH  10  13
ENDBRANCH   6  10
ENDBRANCH   3   5
ENDBRANCH   2   3
ENDBRANCH   1   2
BRANCH   1  23
ATOM     23  C   UNL     1      -0.273  -0.142   6.047  1.00  0.00     0.275 C 
BRANCH  23  24
ATOM     24  O   UNL     1       0.628  -0.778   6.976  1.00  0.00    -0.458 OA
BRANCH  24  25
ATOM     25  C   UNL     1       1.704  -1.379   6.405  1.00  0.00     0.338 C 
ATOM     26  O   UNL     1       2.762  -0.825   6.203  1.00  0.00    -0.246 OA
BRANCH  25  27
ATOM     27  C   UNL     1       1.458  -2.803   6.083  1.00  0.00     0.060 A 
ATOM     28  C   UNL     1       2.474  -3.505   5.412  1.00  0.00     0.016 A 
ATOM     29  C   UNL     1       0.218  -3.397   6.322  1.00  0.00     0.016 A 
ATOM     30  C   UNL     1       2.208  -4.741   4.841  1.00  0.00     0.010 A 
ATOM     31  C   UNL     1      -0.048  -4.630   5.767  1.00  0.00     0.010 A 
ATOM     32  C   UNL     1       0.936  -5.276   5.004  1.00  0.00    -0.014 A 
BRANCH  32  33
ATOM     33  C   UNL     1       0.668  -6.671   4.735  1.00  0.00     0.031 A 
ATOM     34  C   UNL     1       1.279  -7.628   5.687  1.00  0.00     0.074 A 
ATOM     35  C   UNL     1      -0.291  -6.979   3.841  1.00  0.00     0.049 A 
ATOM     36  N   UNL     1       1.417  -8.889   5.478  1.00  0.00    -0.248 NA
ATOM     37  C   UNL     1       1.909  -7.196   6.943  1.00  0.00     0.031 C 
ATOM     38  C   UNL     1      -1.188  -8.123   3.892  1.00  0.00     0.029 A 
ATOM     39  N   UNL     1      -0.637  -6.306   2.658  1.00  0.00    -0.354 N 
ATOM     40  C   UNL     1       1.810  -9.454   6.679  1.00  0.00     0.074 A 
ATOM     41  C   UNL     1       2.284  -8.360   7.480  1.00  0.00     0.031 C 
ATOM     42  C   UNL     1      -1.863  -8.202   2.732  1.00  0.00     0.029 A 
ATOM     43  C   UNL     1      -1.251  -7.254   1.812  1.00  0.00     0.049 A 
ATOM     44  H   UNL     1      -0.481  -5.355   2.457  1.00  0.00     0.167 HD
ATOM     45  C   UNL     1       1.474 -10.752   6.927  1.00  0.00     0.037 A 
ATOM     46  C   UNL     1      -0.670  -7.642   0.635  1.00  0.00     0.037 A 
ATOM     47  C   UNL     1       0.742 -11.276   5.785  1.00  0.00     0.049 A 
ATOM     48  C   UNL     1      -0.261  -9.095   0.600  1.00  0.00     0.074 A 
ATOM     49  C   UNL     1      -0.616 -11.309   5.520  1.00  0.00     0.029 A 
ATOM     50  N   UNL     1       1.401 -11.496   4.590  1.00  0.00    -0.354 N 
ATOM     51  N   UNL     1       0.024  -9.785   1.665  1.00  0.00    -0.248 NA
ATOM     52  C   UNL     1      -0.072  -9.853  -0.633  1.00  0.00     0.031 C 
ATOM     53  C   UNL     1      -0.774 -11.537   4.136  1.00  0.00     0.029 A 
ATOM     54  C   UNL     1       0.485 -11.655   3.572  1.00  0.00     0.049 A 
ATOM     55  H   UNL     1       2.378 -11.533   4.481  1.00  0.00     0.167 HD
ATOM     56  C   UNL     1       0.476 -11.021   1.293  1.00  0.00     0.074 A 
ATOM     57  C   UNL     1       0.372 -11.026  -0.153  1.00  0.00     0.031 C 
ATOM     58  C   UNL     1       0.927 -11.918   2.217  1.00  0.00     0.037 A 
BRANCH  45  59
ATOM     59  C   UNL     1       1.463 -11.465   8.263  1.00  0.00     0.064 A 
ATOM     60  C   UNL     1       0.659 -12.621   8.423  1.00  0.00     0.173 A 
ATOM     61  C   UNL     1       2.158 -11.073   9.420  1.00  0.00     0.173 A 
ATOM     62  F   UNL     1       0.014 -13.180   7.391  1.00  0.00    -0.203 F 
ATOM     63  C   UNL     1       0.486 -13.261   9.650  1.00  0.00     0.198 A 
ATOM     64  C   UNL     1       1.972 -11.707  10.656  1.00  0.00     0.198 A 
ATOM     65  F   UNL     1       3.074 -10.102   9.399  1.00  0.00    -0.203 F 
ATOM     66  F   UNL     1      -0.315 -14.332   9.732  1.00  0.00    -0.200 F 
ATOM     67  C   UNL     1       1.126 -12.791  10.774  1.00  0.00     0.200 A 
ATOM     68  F   UNL     1       2.628 -11.259  11.737  1.00  0.00    -0.200 F 
ATOM     69  F   UNL     1       0.950 -13.395  11.957  1.00  0.00    -0.200 F 
ENDBRANCH  45  59
BRANCH  46  70
ATOM     70  C   UNL     1       0.160  -6.597  -0.009  1.00  0.00     0.064 A 
ATOM     71  C   UNL     1      -0.460  -5.551  -0.705  1.00  0.00     0.173 A 
ATOM     72  C   UNL     1       1.509  -6.447   0.343  1.00  0.00     0.173 A 
ATOM     73  F   UNL     1      -1.753  -5.643  -1.054  1.00  0.00    -0.203 F 
ATOM     74  C   UNL     1       0.220  -4.364  -0.963  1.00  0.00     0.198 A 
ATOM     75  C   UNL     1       2.177  -5.251   0.104  1.00  0.00     0.198 A 
ATOM     76  F   UNL     1       2.151  -7.423   1.001  1.00  0.00    -0.203 F 
ATOM     77  F   UNL     1      -0.419  -3.341  -1.548  1.00  0.00    -0.200 F 
ATOM     78  C   UNL     1       1.526  -4.204  -0.531  1.00  0.00     0.200 A 
ATOM     79  F   UNL     1       3.432  -5.088   0.545  1.00  0.00    -0.200 F 
ATOM     80  F   UNL     1       2.140  -3.024  -0.695  1.00  0.00    -0.200 F 
ENDBRANCH  46  70
BRANCH  58  81
ATOM     81  C   UNL     1       1.718 -13.167   1.929  1.00  0.00     0.064 A 
ATOM     82  C   UNL     1       2.490 -13.349   0.773  1.00  0.00     0.173 A 
ATOM     83  C   UNL     1       1.814 -14.201   2.894  1.00  0.00     0.173 A 
ATOM     84  F   UNL     1       2.636 -12.373  -0.132  1.00  0.00    -0.203 F 
ATOM     85  C   UNL     1       3.189 -14.533   0.534  1.00  0.00     0.198 A 
ATOM     86  C   UNL     1       2.577 -15.346   2.687  1.00  0.00     0.198 A 
ATOM     87  F   UNL     1       1.193 -14.125   4.080  1.00  0.00    -0.203 F 
ATOM     88  F   UNL     1       3.839 -14.692  -0.627  1.00  0.00    -0.200 F 
ATOM     89  C   UNL     1       3.232 -15.531   1.489  1.00  0.00     0.200 A 
ATOM     90  F   UNL     1       2.678 -16.263   3.659  1.00  0.00    -0.200 F 
ATOM     91  F   UNL     1       3.921 -16.656   1.264  1.00  0.00    -0.200 F 
ENDBRANCH  58  81
ENDBRANCH  32  33
ENDBRANCH  25  27
ENDBRANCH  24  25
ENDBRANCH  23  24
ENDBRANCH   1  23
TORSDOF 15
