REMARK SMILES COc1ccc(OCC(=O)N/N=C(/C)C(=O)OCCOC(=O)c2ccc(-c3c4nc(c(-c5c(F)c(F)c(F)c(F)c5F)c5ccc([nH]5)c(-c5c(F)c(F)c(F)c(F)c5F)c5nc(c(-c6c(F)c(F)c(F)c(F)c6F)c6ccc3[nH]6)C=C5)C=C4)cc2)cc1
REMARK SMILES IDX 17 1 15 2 16 3 13 4 12 5 14 6 11 7 9 8 10 9 8 11 7 12 6 13
REMARK SMILES IDX 3 14 4 15 87 16 5 17 86 18 2 19 1 20 18 21 19 22 20 23 21 24
REMARK SMILES IDX 22 25 23 26 24 27 85 28 25 29 84 30 26 31 27 32 28 33 78 34
REMARK SMILES IDX 29 35 83 36 77 37 79 38 30 39 82 40 76 41 75 42 31 44 63 45
REMARK SMILES IDX 43 46 62 47 44 48 47 49 61 50 80 51 45 52 46 53 60 55 81 56
REMARK SMILES IDX 48 57 32 58 33 59 41 60 34 61 35 62 39 63 42 64 36 65 37 66
REMARK SMILES IDX 40 67 38 68 64 69 65 70 73 71 66 72 67 73 71 74 74 75 68 76
REMARK SMILES IDX 69 77 72 78 70 79 49 80 50 81 58 82 51 83 52 84 56 85 59 86
REMARK SMILES IDX 53 87 54 88 57 89 55 90
REMARK H PARENT 11 10 79 43 47 54
REMARK Flexibility Score: inf
ROOT
ATOM      1  O   UNL     1       1.493  -4.841  -7.193  1.00  0.00    -0.458 OA
ENDROOT
BRANCH   1   2
ATOM      2  C   UNL     1       1.440  -3.728  -7.946  1.00  0.00     0.354 C 
ATOM      3  O   UNL     1       2.134  -3.377  -8.875  1.00  0.00    -0.245 OA
BRANCH   2   4
ATOM      4  C   UNL     1       0.258  -2.926  -7.461  1.00  0.00     0.142 C 
ATOM      5  N   UNL     1       0.287  -1.859  -6.715  1.00  0.00    -0.170 NA
ATOM      6  C   UNL     1      -1.077  -3.446  -7.920  1.00  0.00     0.077 C 
BRANCH   5   7
ATOM      7  N   UNL     1       1.453  -1.220  -6.412  1.00  0.00    -0.244 N 
ATOM      8  C   UNL     1       2.291  -1.468  -5.348  1.00  0.00     0.277 C 
ATOM      9  O   UNL     1       2.918  -0.524  -4.856  1.00  0.00    -0.269 OA
ATOM     10  H   UNL     1       1.727  -0.499  -7.023  1.00  0.00     0.193 HD
BRANCH   8  11
ATOM     11  C   UNL     1       2.533  -2.892  -4.866  1.00  0.00     0.331 C 
BRANCH  11  12
ATOM     12  O   UNL     1       1.486  -3.559  -4.188  1.00  0.00    -0.484 OA
BRANCH  12  13
ATOM     13  C   UNL     1       1.148  -2.946  -3.013  1.00  0.00     0.120 A 
ATOM     14  C   UNL     1       0.300  -1.566  -0.754  1.00  0.00     0.119 A 
ATOM     15  C   UNL     1      -0.638  -2.079  -1.649  1.00  0.00     0.050 A 
ATOM     16  C   UNL     1       1.658  -1.823  -0.938  1.00  0.00     0.050 A 
ATOM     17  C   UNL     1      -0.213  -2.769  -2.783  1.00  0.00     0.050 A 
ATOM     18  C   UNL     1       2.083  -2.520  -2.067  1.00  0.00     0.050 A 
BRANCH  14  19
ATOM     19  O   UNL     1      -0.186  -0.846   0.302  1.00  0.00    -0.497 OA
ATOM     20  C   UNL     1       0.515   0.382   0.493  1.00  0.00     0.278 C 
ENDBRANCH  14  19
ENDBRANCH  12  13
ENDBRANCH  11  12
ENDBRANCH   8  11
ENDBRANCH   5   7
ENDBRANCH   2   4
ENDBRANCH   1   2
BRANCH   1  21
ATOM     21  C   UNL     1       2.569  -5.809  -7.257  1.00  0.00     0.275 C 
BRANCH  21  22
ATOM     22  C   UNL     1       3.868  -5.409  -7.955  1.00  0.00     0.275 C 
BRANCH  22  23
ATOM     23  O   UNL     1       4.365  -4.192  -7.381  1.00  0.00    -0.458 OA
BRANCH  23  24
ATOM     24  C   UNL     1       5.292  -3.573  -8.147  1.00  0.00     0.338 C 
ATOM     25  O   UNL     1       5.874  -4.018  -9.119  1.00  0.00    -0.246 OA
BRANCH  24  26
ATOM     26  C   UNL     1       5.491  -2.216  -7.620  1.00  0.00     0.060 A 
ATOM     27  C   UNL     1       4.587  -1.205  -7.961  1.00  0.00     0.016 A 
ATOM     28  C   UNL     1       6.629  -1.934  -6.864  1.00  0.00     0.016 A 
ATOM     29  C   UNL     1       4.835   0.109  -7.561  1.00  0.00     0.010 A 
ATOM     30  C   UNL     1       6.879  -0.619  -6.471  1.00  0.00     0.010 A 
ATOM     31  C   UNL     1       6.000   0.413  -6.843  1.00  0.00    -0.014 A 
BRANCH  31  32
ATOM     32  C   UNL     1       6.410   1.823  -6.649  1.00  0.00     0.031 A 
ATOM     33  C   UNL     1       7.213   2.490  -7.729  1.00  0.00     0.074 A 
ATOM     34  C   UNL     1       6.098   2.496  -5.529  1.00  0.00     0.049 A 
ATOM     35  N   UNL     1       7.736   3.690  -7.757  1.00  0.00    -0.248 NA
ATOM     36  C   UNL     1       7.457   1.697  -8.944  1.00  0.00     0.031 C 
ATOM     37  C   UNL     1       5.292   1.978  -4.428  1.00  0.00     0.029 A 
ATOM     38  N   UNL     1       6.438   3.766  -5.131  1.00  0.00    -0.354 N 
ATOM     39  C   UNL     1       8.357   3.798  -8.992  1.00  0.00     0.074 A 
ATOM     40  C   UNL     1       8.166   2.539  -9.680  1.00  0.00     0.031 C 
ATOM     41  C   UNL     1       5.209   2.917  -3.469  1.00  0.00     0.029 A 
ATOM     42  C   UNL     1       5.983   4.088  -3.877  1.00  0.00     0.049 A 
ATOM     43  H   UNL     1       6.957   4.386  -5.692  1.00  0.00     0.167 HD
ATOM     44  C   UNL     1       9.030   4.852  -9.508  1.00  0.00     0.037 A 
ATOM     45  C   UNL     1       6.191   5.194  -3.137  1.00  0.00     0.037 A 
ATOM     46  C   UNL     1       9.262   6.089  -8.816  1.00  0.00     0.049 A 
ATOM     47  C   UNL     1       7.034   6.311  -3.692  1.00  0.00     0.074 A 
ATOM     48  C   UNL     1       9.950   7.208  -9.251  1.00  0.00     0.029 A 
ATOM     49  N   UNL     1       8.823   6.361  -7.529  1.00  0.00    -0.354 N 
ATOM     50  N   UNL     1       7.602   6.416  -4.868  1.00  0.00    -0.248 NA
ATOM     51  C   UNL     1       7.274   7.462  -2.808  1.00  0.00     0.031 C 
ATOM     52  C   UNL     1       9.959   8.145  -8.210  1.00  0.00     0.029 A 
ATOM     53  C   UNL     1       9.248   7.621  -7.143  1.00  0.00     0.049 A 
ATOM     54  H   UNL     1       8.289   5.749  -6.973  1.00  0.00     0.167 HD
ATOM     55  C   UNL     1       8.246   7.645  -4.874  1.00  0.00     0.074 A 
ATOM     56  C   UNL     1       7.994   8.258  -3.587  1.00  0.00     0.031 C 
ATOM     57  C   UNL     1       8.982   8.216  -5.859  1.00  0.00     0.037 A 
BRANCH  44  58
ATOM     58  C   UNL     1       9.590   4.686 -10.886  1.00  0.00     0.064 A 
ATOM     59  C   UNL     1       8.766   4.758 -12.019  1.00  0.00     0.173 A 
ATOM     60  C   UNL     1      10.958   4.449 -11.076  1.00  0.00     0.173 A 
ATOM     61  F   UNL     1       7.447   4.963 -11.883  1.00  0.00    -0.203 F 
ATOM     62  C   UNL     1       9.292   4.579 -13.295  1.00  0.00     0.198 A 
ATOM     63  C   UNL     1      11.483   4.287 -12.354  1.00  0.00     0.198 A 
ATOM     64  F   UNL     1      11.782   4.367 -10.021  1.00  0.00    -0.203 F 
ATOM     65  F   UNL     1       8.482   4.613 -14.363  1.00  0.00    -0.200 F 
ATOM     66  C   UNL     1      10.649   4.346 -13.462  1.00  0.00     0.200 A 
ATOM     67  F   UNL     1      12.794   4.063 -12.515  1.00  0.00    -0.200 F 
ATOM     68  F   UNL     1      11.153   4.169 -14.691  1.00  0.00    -0.200 F 
ENDBRANCH  44  58
BRANCH  45  69
ATOM     69  C   UNL     1       5.610   5.295  -1.775  1.00  0.00     0.064 A 
ATOM     70  C   UNL     1       4.557   6.179  -1.506  1.00  0.00     0.173 A 
ATOM     71  C   UNL     1       6.112   4.531  -0.712  1.00  0.00     0.173 A 
ATOM     72  F   UNL     1       4.066   6.953  -2.486  1.00  0.00    -0.203 F 
ATOM     73  C   UNL     1       4.034   6.304  -0.221  1.00  0.00     0.198 A 
ATOM     74  C   UNL     1       5.575   4.641   0.569  1.00  0.00     0.198 A 
ATOM     75  F   UNL     1       7.127   3.679  -0.917  1.00  0.00    -0.203 F 
ATOM     76  F   UNL     1       3.054   7.186   0.019  1.00  0.00    -0.200 F 
ATOM     77  C   UNL     1       4.540   5.532   0.814  1.00  0.00     0.200 A 
ATOM     78  F   UNL     1       6.063   3.891   1.565  1.00  0.00    -0.200 F 
ATOM     79  F   UNL     1       4.038   5.653   2.051  1.00  0.00    -0.200 F 
ENDBRANCH  45  69
BRANCH  57  80
ATOM     80  C   UNL     1       9.549   9.577  -5.594  1.00  0.00     0.064 A 
ATOM     81  C   UNL     1      10.672   9.753  -4.774  1.00  0.00     0.173 A 
ATOM     82  C   UNL     1       8.994  10.710  -6.207  1.00  0.00     0.173 A 
ATOM     83  F   UNL     1      11.227   8.701  -4.154  1.00  0.00    -0.203 F 
ATOM     84  C   UNL     1      11.213  11.019  -4.566  1.00  0.00     0.198 A 
ATOM     85  C   UNL     1       9.550  11.971  -6.014  1.00  0.00     0.198 A 
ATOM     86  F   UNL     1       7.921  10.590  -7.003  1.00  0.00    -0.203 F 
ATOM     87  F   UNL     1      12.268  11.171  -3.755  1.00  0.00    -0.200 F 
ATOM     88  C   UNL     1      10.656  12.126  -5.191  1.00  0.00     0.200 A 
ATOM     89  F   UNL     1       9.015  13.038  -6.624  1.00  0.00    -0.200 F 
ATOM     90  F   UNL     1      11.182  13.342  -4.996  1.00  0.00    -0.200 F 
ENDBRANCH  57  80
ENDBRANCH  31  32
ENDBRANCH  24  26
ENDBRANCH  23  24
ENDBRANCH  22  23
ENDBRANCH  21  22
ENDBRANCH   1  21
TORSDOF 16
