REMARK SMILES O=C(OCCOC(=O)[C@@]1(Cc2ccnc3ccccc23)C[C@H]2CC[C@@H]1O2)c1ccc(-c2c3nc(c(-c4c(F)c(F)c(F)c(F)c4F)c4ccc([nH]4)c(-c4c(F)c(F)c(F)c(F)c4F)c4nc(c(-c5c(F)c(F)c(F)c(F)c5F)c5ccc2[nH]5)C=C4)C=C3)cc1
REMARK SMILES IDX 4 1 3 2 2 3 1 4 27 5 28 6 89 7 29 8 88 9 30 10 31 11 32 12
REMARK SMILES IDX 82 13 33 14 87 15 81 16 83 17 34 18 86 19 80 20 79 21 35 23
REMARK SMILES IDX 67 24 47 25 66 26 48 27 51 28 65 29 84 30 49 31 50 32 64 34
REMARK SMILES IDX 85 35 52 36 36 37 37 38 45 39 38 40 39 41 43 42 46 43 40 44
REMARK SMILES IDX 41 45 44 46 42 47 68 48 69 49 77 50 70 51 71 52 75 53 78 54
REMARK SMILES IDX 72 55 73 56 76 57 74 58 53 59 54 60 62 61 55 62 56 63 60 64
REMARK SMILES IDX 63 65 57 66 58 67 61 68 59 69 5 70 6 71 7 72 8 73 9 74 21 75
REMARK SMILES IDX 25 76 22 77 24 78 26 79 23 80 10 81 11 82 12 83 20 84 13 85
REMARK SMILES IDX 15 86 19 87 14 88 16 89 18 90 17 91
REMARK H PARENT 83 22 51 33
REMARK Flexibility Score: inf
ROOT
ATOM      1  C   UNL     1       4.202   1.662   4.847  1.00  0.00     0.275 C 
ENDROOT
BRANCH   1   2
ATOM      2  O   UNL     1       3.422   0.587   4.273  1.00  0.00    -0.458 OA
BRANCH   2   3
ATOM      3  C   UNL     1       2.132   0.474   3.870  1.00  0.00     0.338 C 
ATOM      4  O   UNL     1       1.724  -0.648   3.565  1.00  0.00    -0.246 OA
BRANCH   3   5
ATOM      5  C   UNL     1       1.198   1.624   3.591  1.00  0.00     0.060 A 
ATOM      6  C   UNL     1       1.242   2.886   4.175  1.00  0.00     0.016 A 
ATOM      7  C   UNL     1       0.248   1.432   2.553  1.00  0.00     0.016 A 
ATOM      8  C   UNL     1       0.471   3.947   3.651  1.00  0.00     0.010 A 
ATOM      9  C   UNL     1      -0.515   2.495   2.019  1.00  0.00     0.010 A 
ATOM     10  C   UNL     1      -0.381   3.787   2.536  1.00  0.00    -0.014 A 
BRANCH  10  11
ATOM     11  C   UNL     1      -1.291   4.927   2.181  1.00  0.00     0.031 A 
ATOM     12  C   UNL     1      -2.507   5.024   3.044  1.00  0.00     0.074 A 
ATOM     13  C   UNL     1      -1.071   5.898   1.260  1.00  0.00     0.049 A 
ATOM     14  N   UNL     1      -3.369   5.993   3.162  1.00  0.00    -0.248 NA
ATOM     15  C   UNL     1      -2.822   3.822   3.836  1.00  0.00     0.031 C 
ATOM     16  C   UNL     1      -0.148   5.860   0.142  1.00  0.00     0.029 A 
ATOM     17  N   UNL     1      -1.575   7.181   1.158  1.00  0.00    -0.354 N 
ATOM     18  C   UNL     1      -4.345   5.505   4.010  1.00  0.00     0.074 A 
ATOM     19  C   UNL     1      -3.974   4.159   4.381  1.00  0.00     0.031 C 
ATOM     20  C   UNL     1       0.103   7.093  -0.317  1.00  0.00     0.029 A 
ATOM     21  C   UNL     1      -0.855   7.994   0.293  1.00  0.00     0.049 A 
ATOM     22  H   UNL     1      -2.369   7.489   1.651  1.00  0.00     0.167 HD
ATOM     23  C   UNL     1      -5.481   6.114   4.410  1.00  0.00     0.037 A 
ATOM     24  C   UNL     1      -0.998   9.295  -0.039  1.00  0.00     0.037 A 
ATOM     25  C   UNL     1      -5.884   7.409   3.949  1.00  0.00     0.049 A 
ATOM     26  C   UNL     1      -2.243   9.972   0.460  1.00  0.00     0.074 A 
ATOM     27  C   UNL     1      -7.048   8.098   4.222  1.00  0.00     0.029 A 
ATOM     28  N   UNL     1      -5.138   8.198   3.080  1.00  0.00    -0.354 N 
ATOM     29  N   UNL     1      -3.153   9.513   1.284  1.00  0.00    -0.248 NA
ATOM     30  C   UNL     1      -2.537  11.303  -0.084  1.00  0.00     0.031 C 
ATOM     31  C   UNL     1      -7.027   9.287   3.485  1.00  0.00     0.029 A 
ATOM     32  C   UNL     1      -5.817   9.373   2.811  1.00  0.00     0.049 A 
ATOM     33  H   UNL     1      -4.258   7.957   2.712  1.00  0.00     0.167 HD
ATOM     34  C   UNL     1      -4.138  10.483   1.341  1.00  0.00     0.074 A 
ATOM     35  C   UNL     1      -3.687  11.583   0.511  1.00  0.00     0.031 C 
ATOM     36  C   UNL     1      -5.324  10.454   1.995  1.00  0.00     0.037 A 
BRANCH  23  37
ATOM     37  C   UNL     1      -6.370   5.299   5.295  1.00  0.00     0.064 A 
ATOM     38  C   UNL     1      -5.988   4.957   6.603  1.00  0.00     0.173 A 
ATOM     39  C   UNL     1      -7.537   4.723   4.776  1.00  0.00     0.173 A 
ATOM     40  F   UNL     1      -4.846   5.438   7.120  1.00  0.00    -0.203 F 
ATOM     41  C   UNL     1      -6.714   4.024   7.337  1.00  0.00     0.198 A 
ATOM     42  C   UNL     1      -8.280   3.818   5.526  1.00  0.00     0.198 A 
ATOM     43  F   UNL     1      -7.926   4.995   3.521  1.00  0.00    -0.203 F 
ATOM     44  F   UNL     1      -6.271   3.629   8.538  1.00  0.00    -0.200 F 
ATOM     45  C   UNL     1      -7.859   3.456   6.798  1.00  0.00     0.200 A 
ATOM     46  F   UNL     1      -9.380   3.262   5.002  1.00  0.00    -0.200 F 
ATOM     47  F   UNL     1      -8.539   2.534   7.492  1.00  0.00    -0.200 F 
ENDBRANCH  23  37
BRANCH  24  48
ATOM     48  C   UNL     1      -0.044  10.020  -0.942  1.00  0.00     0.064 A 
ATOM     49  C   UNL     1       0.623  11.177  -0.498  1.00  0.00     0.173 A 
ATOM     50  C   UNL     1       0.188   9.632  -2.272  1.00  0.00     0.173 A 
ATOM     51  F   UNL     1       0.413  11.635   0.745  1.00  0.00    -0.203 F 
ATOM     52  C   UNL     1       1.462  11.910  -1.343  1.00  0.00     0.198 A 
ATOM     53  C   UNL     1       1.069  10.334  -3.098  1.00  0.00     0.198 A 
ATOM     54  F   UNL     1      -0.449   8.570  -2.786  1.00  0.00    -0.203 F 
ATOM     55  F   UNL     1       2.022  13.048  -0.908  1.00  0.00    -0.200 F 
ATOM     56  C   UNL     1       1.695  11.479  -2.638  1.00  0.00     0.200 A 
ATOM     57  F   UNL     1       1.297   9.904  -4.347  1.00  0.00    -0.200 F 
ATOM     58  F   UNL     1       2.504  12.178  -3.447  1.00  0.00    -0.200 F 
ENDBRANCH  24  48
BRANCH  36  59
ATOM     59  C   UNL     1      -6.172  11.682   1.896  1.00  0.00     0.064 A 
ATOM     60  C   UNL     1      -6.846  12.031   0.717  1.00  0.00     0.173 A 
ATOM     61  C   UNL     1      -6.329  12.503   3.021  1.00  0.00     0.173 A 
ATOM     62  F   UNL     1      -6.707  11.286  -0.389  1.00  0.00    -0.203 F 
ATOM     63  C   UNL     1      -7.627  13.181   0.662  1.00  0.00     0.198 A 
ATOM     64  C   UNL     1      -7.138  13.630   2.972  1.00  0.00     0.198 A 
ATOM     65  F   UNL     1      -5.703  12.204   4.169  1.00  0.00    -0.203 F 
ATOM     66  F   UNL     1      -8.218  13.532  -0.488  1.00  0.00    -0.200 F 
ATOM     67  C   UNL     1      -7.779  13.974   1.791  1.00  0.00     0.200 A 
ATOM     68  F   UNL     1      -7.295  14.386   4.067  1.00  0.00    -0.200 F 
ATOM     69  F   UNL     1      -8.538  15.076   1.738  1.00  0.00    -0.200 F 
ENDBRANCH  36  59
ENDBRANCH  10  11
ENDBRANCH   3   5
ENDBRANCH   2   3
ENDBRANCH   1   2
BRANCH   1  70
ATOM     70  C   UNL     1       5.160   2.330   3.853  1.00  0.00     0.274 C 
BRANCH  70  71
ATOM     71  O   UNL     1       4.493   2.626   2.624  1.00  0.00    -0.462 OA
BRANCH  71  72
ATOM     72  C   UNL     1       5.005   2.205   1.421  1.00  0.00     0.315 C 
ATOM     73  O   UNL     1       6.057   1.612   1.283  1.00  0.00    -0.251 OA
BRANCH  72  74
ATOM     74  C   UNL     1       4.080   2.644   0.274  1.00  0.00     0.101 C 
ATOM     75  C   UNL     1       2.654   2.637   0.792  1.00  0.00     0.054 C 
ATOM     76  C   UNL     1       4.282   4.151  -0.028  1.00  0.00     0.136 C 
ATOM     77  C   UNL     1       2.281   4.087   0.711  1.00  0.00     0.120 C 
ATOM     78  C   UNL     1       4.335   5.115   1.166  1.00  0.00     0.036 C 
ATOM     79  O   UNL     1       2.951   4.505  -0.481  1.00  0.00    -0.374 OA
ATOM     80  C   UNL     1       2.923   5.011   1.725  1.00  0.00     0.035 C 
BRANCH  74  81
ATOM     81  C   UNL     1       4.163   1.705  -0.990  1.00  0.00     0.058 C 
BRANCH  81  82
ATOM     82  C   UNL     1       3.022   1.766  -2.036  1.00  0.00    -0.036 A 
ATOM     83  C   UNL     1       2.048   0.752  -2.027  1.00  0.00     0.024 A 
ATOM     84  C   UNL     1       2.813   2.864  -2.918  1.00  0.00     0.003 A 
ATOM     85  C   UNL     1       0.902   0.905  -2.792  1.00  0.00     0.112 A 
ATOM     86  C   UNL     1       1.558   2.967  -3.571  1.00  0.00     0.070 A 
ATOM     87  C   UNL     1       3.758   3.885  -3.150  1.00  0.00     0.010 A 
ATOM     88  N   UNL     1       0.630   2.001  -3.524  1.00  0.00    -0.256 NA
ATOM     89  C   UNL     1       1.250   4.133  -4.264  1.00  0.00     0.029 A 
ATOM     90  C   UNL     1       3.418   5.059  -3.821  1.00  0.00     0.001 A 
ATOM     91  C   UNL     1       2.148   5.196  -4.357  1.00  0.00     0.002 A 
ENDBRANCH  81  82
ENDBRANCH  74  81
ENDBRANCH  72  74
ENDBRANCH  71  72
ENDBRANCH  70  71
ENDBRANCH   1  70
TORSDOF 13
