REMARK SMILES Cc1nc(-c2ccccc2Cl)nc2sc(C(=O)OCCOC(=O)c3ccc(-c4c5nc(c(-c6c(F)c(F)c(F)c(F)c6F)c6ccc([nH]6)c(-c6c(F)c(F)c(F)c(F)c6F)c6nc(c(-c7c(F)c(F)c(F)c(F)c7F)c7ccc4[nH]7)C=C6)C=C5)cc3)c(N)c12
REMARK SMILES IDX 20 1 19 2 18 3 16 4 17 5 15 6 1 7 2 8 3 9 89 10 4 11 13 12
REMARK SMILES IDX 87 13 12 14 14 15 5 16 6 17 10 18 7 19 9 20 11 21 8 22 88 23
REMARK SMILES IDX 21 26 22 27 23 28 24 29 25 30 86 31 26 32 85 33 27 34 28 35
REMARK SMILES IDX 29 36 79 37 30 38 84 39 78 40 80 41 31 42 83 43 77 44 76 45
REMARK SMILES IDX 32 47 64 48 44 49 63 50 45 51 48 52 62 53 81 54 46 55 47 56
REMARK SMILES IDX 61 58 82 59 49 60 33 61 34 62 42 63 35 64 36 65 40 66 43 67
REMARK SMILES IDX 37 68 38 69 41 70 39 71 65 72 66 73 74 74 67 75 68 76 72 77
REMARK SMILES IDX 75 78 69 79 70 80 73 81 71 82 50 83 51 84 59 85 52 86 53 87
REMARK SMILES IDX 57 88 60 89 54 90 55 91 58 92 56 93
REMARK H PARENT 88 24 88 25 80 46 48 57
REMARK Flexibility Score: inf
ROOT
ATOM      1  C   UNL     1      -6.965  -2.807  -3.009  1.00  0.00     0.275 C 
ENDROOT
BRANCH   1   2
ATOM      2  C   UNL     1      -5.868  -2.984  -4.050  1.00  0.00     0.275 C 
BRANCH   2   3
ATOM      3  O   UNL     1      -4.575  -3.092  -3.436  1.00  0.00    -0.458 OA
BRANCH   3   4
ATOM      4  C   UNL     1      -3.861  -1.940  -3.205  1.00  0.00     0.350 C 
ATOM      5  O   UNL     1      -4.189  -0.841  -3.607  1.00  0.00    -0.245 OA
BRANCH   4   6
ATOM      6  C   UNL     1      -2.700  -2.221  -2.365  1.00  0.00     0.138 A 
ATOM      7  C   UNL     1       0.827  -0.181  -0.071  1.00  0.00     0.067 C 
ATOM      8  C   UNL     1       0.393  -1.596  -0.312  1.00  0.00     0.052 A 
ATOM      9  N   UNL     1       1.213  -2.557   0.212  1.00  0.00    -0.233 NA
ATOM     10  C   UNL     1      -0.758  -2.000  -1.029  1.00  0.00     0.057 A 
ATOM     11  C   UNL     1       0.902  -3.854   0.051  1.00  0.00     0.162 A 
ATOM     12  C   UNL     1      -0.936  -3.371  -1.115  1.00  0.00     0.130 A 
ATOM     13  C   UNL     1      -1.831  -1.333  -1.740  1.00  0.00     0.069 A 
ATOM     14  N   UNL     1      -0.156  -4.325  -0.604  1.00  0.00    -0.217 NA
ATOM     15  S   UNL     1      -2.285  -3.839  -2.008  1.00  0.00    -0.106 S 
BRANCH  11  16
ATOM     16  C   UNL     1       1.843  -4.881   0.494  1.00  0.00     0.038 A 
ATOM     17  C   UNL     1       2.317  -5.811  -0.461  1.00  0.00     0.013 A 
ATOM     18  C   UNL     1       2.235  -5.058   1.828  1.00  0.00     0.052 A 
ATOM     19  C   UNL     1       3.138  -6.878  -0.102  1.00  0.00     0.001 A 
ATOM     20  C   UNL     1       3.061  -6.132   2.189  1.00  0.00     0.021 A 
ATOM     21  Cl  UNL     1       1.677  -4.028   3.101  1.00  0.00    -0.084 Cl
ATOM     22  C   UNL     1       3.507  -7.041   1.228  1.00  0.00     0.002 A 
ENDBRANCH  11  16
BRANCH  13  23
ATOM     23  N   UNL     1      -1.982   0.010  -1.814  1.00  0.00    -0.397 N 
ATOM     24  H   UNL     1      -2.737   0.393  -2.316  1.00  0.00     0.156 HD
ATOM     25  H   UNL     1      -1.337   0.603  -1.365  1.00  0.00     0.156 HD
ENDBRANCH  13  23
ENDBRANCH   4   6
ENDBRANCH   3   4
ENDBRANCH   2   3
ENDBRANCH   1   2
BRANCH   1  26
ATOM     26  O   UNL     1      -6.931  -1.485  -2.478  1.00  0.00    -0.458 OA
BRANCH  26  27
ATOM     27  C   UNL     1      -6.178  -1.334  -1.369  1.00  0.00     0.338 C 
ATOM     28  O   UNL     1      -5.444  -2.158  -0.848  1.00  0.00    -0.246 OA
BRANCH  27  29
ATOM     29  C   UNL     1      -6.467  -0.034  -0.773  1.00  0.00     0.060 A 
ATOM     30  C   UNL     1      -5.602   0.429   0.223  1.00  0.00     0.016 A 
ATOM     31  C   UNL     1      -7.716   0.553  -1.016  1.00  0.00     0.016 A 
ATOM     32  C   UNL     1      -6.071   1.376   1.105  1.00  0.00     0.010 A 
ATOM     33  C   UNL     1      -8.187   1.487  -0.131  1.00  0.00     0.010 A 
ATOM     34  C   UNL     1      -7.389   1.820   0.962  1.00  0.00    -0.014 A 
BRANCH  34  35
ATOM     35  C   UNL     1      -7.934   2.689   1.979  1.00  0.00     0.031 A 
ATOM     36  C   UNL     1      -7.438   4.082   1.892  1.00  0.00     0.074 A 
ATOM     37  C   UNL     1      -8.908   2.252   2.800  1.00  0.00     0.049 A 
ATOM     38  N   UNL     1      -6.790   4.758   2.781  1.00  0.00    -0.248 NA
ATOM     39  C   UNL     1      -7.553   4.759   0.587  1.00  0.00     0.031 C 
ATOM     40  C   UNL     1      -9.647   0.986   2.740  1.00  0.00     0.029 A 
ATOM     41  N   UNL     1      -9.526   2.914   3.809  1.00  0.00    -0.354 N 
ATOM     42  C   UNL     1      -6.575   6.010   2.212  1.00  0.00     0.074 A 
ATOM     43  C   UNL     1      -6.902   5.897   0.817  1.00  0.00     0.031 C 
ATOM     44  C   UNL     1     -10.753   1.079   3.514  1.00  0.00     0.029 A 
ATOM     45  C   UNL     1     -10.728   2.350   4.213  1.00  0.00     0.049 A 
ATOM     46  H   UNL     1      -9.153   3.727   4.222  1.00  0.00     0.167 HD
ATOM     47  C   UNL     1      -6.383   7.112   2.985  1.00  0.00     0.037 A 
ATOM     48  C   UNL     1     -11.661   2.967   4.981  1.00  0.00     0.037 A 
ATOM     49  C   UNL     1      -5.963   6.755   4.312  1.00  0.00     0.049 A 
ATOM     50  C   UNL     1     -10.980   4.107   5.657  1.00  0.00     0.074 A 
ATOM     51  C   UNL     1      -4.863   6.095   4.825  1.00  0.00     0.029 A 
ATOM     52  N   UNL     1      -6.906   6.744   5.310  1.00  0.00    -0.354 N 
ATOM     53  N   UNL     1     -10.048   3.966   6.560  1.00  0.00    -0.248 NA
ATOM     54  C   UNL     1     -11.005   5.397   4.979  1.00  0.00     0.031 C 
ATOM     55  C   UNL     1      -5.372   5.311   5.899  1.00  0.00     0.029 A 
ATOM     56  C   UNL     1      -6.736   5.582   6.018  1.00  0.00     0.049 A 
ATOM     57  H   UNL     1      -7.578   7.441   5.485  1.00  0.00     0.167 HD
ATOM     58  C   UNL     1      -9.134   4.975   6.290  1.00  0.00     0.074 A 
ATOM     59  C   UNL     1      -9.808   5.862   5.346  1.00  0.00     0.031 C 
ATOM     60  C   UNL     1      -7.818   4.844   6.625  1.00  0.00     0.037 A 
BRANCH  47  61
ATOM     61  C   UNL     1      -6.928   8.473   2.641  1.00  0.00     0.064 A 
ATOM     62  C   UNL     1      -6.545   9.583   3.417  1.00  0.00     0.173 A 
ATOM     63  C   UNL     1      -8.024   8.682   1.775  1.00  0.00     0.173 A 
ATOM     64  F   UNL     1      -5.535   9.487   4.295  1.00  0.00    -0.203 F 
ATOM     65  C   UNL     1      -7.250  10.788   3.374  1.00  0.00     0.198 A 
ATOM     66  C   UNL     1      -8.688   9.903   1.692  1.00  0.00     0.198 A 
ATOM     67  F   UNL     1      -8.573   7.691   1.061  1.00  0.00    -0.203 F 
ATOM     68  F   UNL     1      -6.928  11.775   4.220  1.00  0.00    -0.200 F 
ATOM     69  C   UNL     1      -8.322  10.946   2.514  1.00  0.00     0.200 A 
ATOM     70  F   UNL     1      -9.737  10.027   0.867  1.00  0.00    -0.200 F 
ATOM     71  F   UNL     1      -9.033  12.080   2.512  1.00  0.00    -0.200 F 
ENDBRANCH  47  61
BRANCH  48  72
ATOM     72  C   UNL     1     -13.138   2.889   4.849  1.00  0.00     0.064 A 
ATOM     73  C   UNL     1     -13.976   3.384   5.862  1.00  0.00     0.173 A 
ATOM     74  C   UNL     1     -13.758   2.588   3.619  1.00  0.00     0.173 A 
ATOM     75  F   UNL     1     -13.461   3.737   7.048  1.00  0.00    -0.203 F 
ATOM     76  C   UNL     1     -15.343   3.595   5.647  1.00  0.00     0.198 A 
ATOM     77  C   UNL     1     -15.124   2.790   3.410  1.00  0.00     0.198 A 
ATOM     78  F   UNL     1     -13.040   2.186   2.562  1.00  0.00    -0.203 F 
ATOM     79  F   UNL     1     -16.097   4.132   6.617  1.00  0.00    -0.200 F 
ATOM     80  C   UNL     1     -15.913   3.308   4.418  1.00  0.00     0.200 A 
ATOM     81  F   UNL     1     -15.654   2.542   2.204  1.00  0.00    -0.200 F 
ATOM     82  F   UNL     1     -17.208   3.569   4.192  1.00  0.00    -0.200 F 
ENDBRANCH  48  72
BRANCH  60  83
ATOM     83  C   UNL     1      -7.415   3.685   7.491  1.00  0.00     0.064 A 
ATOM     84  C   UNL     1      -7.465   2.346   7.067  1.00  0.00     0.173 A 
ATOM     85  C   UNL     1      -6.749   3.959   8.692  1.00  0.00     0.173 A 
ATOM     86  F   UNL     1      -8.005   2.018   5.887  1.00  0.00    -0.203 F 
ATOM     87  C   UNL     1      -6.880   1.328   7.819  1.00  0.00     0.198 A 
ATOM     88  C   UNL     1      -6.136   2.946   9.424  1.00  0.00     0.198 A 
ATOM     89  F   UNL     1      -6.626   5.227   9.116  1.00  0.00    -0.203 F 
ATOM     90  F   UNL     1      -6.926   0.059   7.386  1.00  0.00    -0.200 F 
ATOM     91  C   UNL     1      -6.203   1.632   8.989  1.00  0.00     0.200 A 
ATOM     92  F   UNL     1      -5.439   3.252  10.527  1.00  0.00    -0.200 F 
ATOM     93  F   UNL     1      -5.583   0.664   9.679  1.00  0.00    -0.200 F 
ENDBRANCH  60  83
ENDBRANCH  34  35
ENDBRANCH  27  29
ENDBRANCH  26  27
ENDBRANCH   1  26
TORSDOF 13
