REMARK SMILES O=C(NCc1ccsc1)NC[C@H]1CC[C@@H](C(=O)OCCOC(=O)c2ccc(-c3c4nc(c(-c5c(F)c(F)c(F)c(F)c5F)c5ccc([nH]5)c(-c5c(F)c(F)c(F)c(F)c5F)c5nc(c(-c6c(F)c(F)c(F)c(F)c6F)c6ccc3[nH]6)C=C5)C=C4)cc2)CC1
REMARK SMILES IDX 19 1 18 2 16 3 17 4 15 5 12 6 13 7 88 8 14 9 87 10 11 11
REMARK SMILES IDX 10 12 1 13 2 14 3 15 4 18 5 19 6 20 9 21 7 22 8 23 20 24
REMARK SMILES IDX 21 25 22 26 23 27 24 28 25 29 86 30 26 31 85 32 27 33 28 34
REMARK SMILES IDX 29 35 79 36 30 37 84 38 78 39 80 40 31 41 83 42 77 43 76 44
REMARK SMILES IDX 32 46 64 47 44 48 63 49 45 50 48 51 62 52 81 53 46 54 47 55
REMARK SMILES IDX 61 57 82 58 49 59 33 60 34 61 42 62 35 63 36 64 40 65 43 66
REMARK SMILES IDX 37 67 38 68 41 69 39 70 65 71 66 72 74 73 67 74 68 75 72 76
REMARK SMILES IDX 75 77 69 78 70 79 73 80 71 81 50 82 51 83 59 84 52 85 53 86
REMARK SMILES IDX 57 87 60 88 54 89 55 90 58 91 56 92
REMARK H PARENT 3 16 10 17 80 45 48 56
REMARK Flexibility Score: inf
ROOT
ATOM      1  C   UNL     1       1.061   4.339   1.352  1.00  0.00     0.274 C 
ENDROOT
BRANCH   1   2
ATOM      2  O   UNL     1       1.822   4.250   0.133  1.00  0.00    -0.462 OA
BRANCH   2   3
ATOM      3  C   UNL     1       1.792   5.313  -0.705  1.00  0.00     0.309 C 
ATOM      4  O   UNL     1       1.170   6.350  -0.499  1.00  0.00    -0.252 OA
BRANCH   3   5
ATOM      5  C   UNL     1       2.582   5.078  -1.990  1.00  0.00     0.099 C 
ATOM      6  C   UNL     1       2.699   2.174  -2.712  1.00  0.00     0.008 C 
ATOM      7  C   UNL     1       1.412   3.004  -2.852  1.00  0.00     0.006 C 
ATOM      8  C   UNL     1       3.665   2.774  -1.677  1.00  0.00     0.006 C 
ATOM      9  C   UNL     1       1.689   4.488  -3.075  1.00  0.00     0.015 C 
ATOM     10  C   UNL     1       3.877   4.277  -1.840  1.00  0.00     0.015 C 
BRANCH   6  11
ATOM     11  C   UNL     1       2.341   0.687  -2.461  1.00  0.00     0.121 C 
BRANCH  11  12
ATOM     12  N   UNL     1       2.990   0.105  -1.304  1.00  0.00    -0.338 N 
ATOM     13  O   UNL     1       1.171   0.181   0.071  1.00  0.00    -0.249 OA
ATOM     14  C   UNL     1       2.367  -0.033  -0.105  1.00  0.00     0.315 C 
ATOM     15  N   UNL     1       3.135  -0.405   0.946  1.00  0.00    -0.334 N 
ATOM     16  H   UNL     1       2.636  -0.646   1.759  1.00  0.00     0.165 HD
ATOM     17  H   UNL     1       3.922  -0.202  -1.391  1.00  0.00     0.165 HD
BRANCH  15  18
ATOM     18  C   UNL     1       4.572  -0.504   1.062  1.00  0.00     0.154 C 
BRANCH  18  19
ATOM     19  C   UNL     1       4.999   0.280   2.263  1.00  0.00    -0.018 A 
ATOM     20  C   UNL     1       5.488  -0.288   3.487  1.00  0.00     0.017 A 
ATOM     21  C   UNL     1       4.986   1.662   2.342  1.00  0.00     0.070 A 
ATOM     22  C   UNL     1       5.814   0.668   4.424  1.00  0.00     0.065 A 
ATOM     23  S   UNL     1       5.535   2.251   3.849  1.00  0.00    -0.152 S 
ENDBRANCH  18  19
ENDBRANCH  15  18
ENDBRANCH  11  12
ENDBRANCH   6  11
ENDBRANCH   3   5
ENDBRANCH   2   3
ENDBRANCH   1   2
BRANCH   1  24
ATOM     24  C   UNL     1       1.970   4.595   2.556  1.00  0.00     0.275 C 
BRANCH  24  25
ATOM     25  O   UNL     1       2.583   5.894   2.478  1.00  0.00    -0.458 OA
BRANCH  25  26
ATOM     26  C   UNL     1       3.804   5.915   1.897  1.00  0.00     0.338 C 
ATOM     27  O   UNL     1       4.465   4.970   1.506  1.00  0.00    -0.246 OA
BRANCH  26  28
ATOM     28  C   UNL     1       4.197   7.308   1.647  1.00  0.00     0.060 A 
ATOM     29  C   UNL     1       4.324   7.724   0.319  1.00  0.00     0.016 A 
ATOM     30  C   UNL     1       4.512   8.169   2.698  1.00  0.00     0.016 A 
ATOM     31  C   UNL     1       4.766   9.009   0.030  1.00  0.00     0.010 A 
ATOM     32  C   UNL     1       4.958   9.461   2.408  1.00  0.00     0.010 A 
ATOM     33  C   UNL     1       5.097   9.882   1.073  1.00  0.00    -0.014 A 
BRANCH  33  34
ATOM     34  C   UNL     1       5.645  11.220   0.759  1.00  0.00     0.031 A 
ATOM     35  C   UNL     1       7.114  11.474   0.917  1.00  0.00     0.074 A 
ATOM     36  C   UNL     1       4.828  12.190   0.314  1.00  0.00     0.049 A 
ATOM     37  N   UNL     1       7.781  12.591   0.785  1.00  0.00    -0.248 NA
ATOM     38  C   UNL     1       7.944  10.312   1.271  1.00  0.00     0.031 C 
ATOM     39  C   UNL     1       3.394  12.039   0.070  1.00  0.00     0.029 A 
ATOM     40  N   UNL     1       5.088  13.498  -0.007  1.00  0.00    -0.354 N 
ATOM     41  C   UNL     1       9.104  12.273   1.060  1.00  0.00     0.074 A 
ATOM     42  C   UNL     1       9.145  10.862   1.377  1.00  0.00     0.031 C 
ATOM     43  C   UNL     1       2.898  13.211  -0.359  1.00  0.00     0.029 A 
ATOM     44  C   UNL     1       3.970  14.203  -0.375  1.00  0.00     0.049 A 
ATOM     45  H   UNL     1       5.990  13.892   0.023  1.00  0.00     0.167 HD
ATOM     46  C   UNL     1      10.184  13.091   1.046  1.00  0.00     0.037 A 
ATOM     47  C   UNL     1       3.826  15.511  -0.661  1.00  0.00     0.037 A 
ATOM     48  C   UNL     1      10.134  14.491   0.718  1.00  0.00     0.049 A 
ATOM     49  C   UNL     1       5.031  16.409  -0.608  1.00  0.00     0.074 A 
ATOM     50  C   UNL     1      11.172  15.405   0.670  1.00  0.00     0.029 A 
ATOM     51  N   UNL     1       8.978  15.180   0.380  1.00  0.00    -0.354 N 
ATOM     52  N   UNL     1       6.277  16.108  -0.335  1.00  0.00    -0.248 NA
ATOM     53  C   UNL     1       4.808  17.833  -0.897  1.00  0.00     0.031 C 
ATOM     54  C   UNL     1      10.638  16.656   0.341  1.00  0.00     0.029 A 
ATOM     55  C   UNL     1       9.274  16.512   0.141  1.00  0.00     0.049 A 
ATOM     56  H   UNL     1       8.080  14.781   0.319  1.00  0.00     0.167 HD
ATOM     57  C   UNL     1       6.989  17.294  -0.437  1.00  0.00     0.074 A 
ATOM     58  C   UNL     1       6.038  18.320  -0.811  1.00  0.00     0.031 C 
ATOM     59  C   UNL     1       8.312  17.516  -0.237  1.00  0.00     0.037 A 
BRANCH  46  60
ATOM     60  C   UNL     1      11.505  12.494   1.429  1.00  0.00     0.064 A 
ATOM     61  C   UNL     1      12.198  11.625   0.574  1.00  0.00     0.173 A 
ATOM     62  C   UNL     1      12.096  12.817   2.659  1.00  0.00     0.173 A 
ATOM     63  F   UNL     1      11.667  11.274  -0.607  1.00  0.00    -0.203 F 
ATOM     64  C   UNL     1      13.426  11.084   0.947  1.00  0.00     0.198 A 
ATOM     65  C   UNL     1      13.335  12.293   3.019  1.00  0.00     0.198 A 
ATOM     66  F   UNL     1      11.474  13.645   3.512  1.00  0.00    -0.203 F 
ATOM     67  F   UNL     1      14.052  10.222   0.133  1.00  0.00    -0.200 F 
ATOM     68  C   UNL     1      13.995  11.422   2.166  1.00  0.00     0.200 A 
ATOM     69  F   UNL     1      13.888  12.628   4.192  1.00  0.00    -0.200 F 
ATOM     70  F   UNL     1      15.178  10.902   2.521  1.00  0.00    -0.200 F 
ENDBRANCH  46  60
BRANCH  47  71
ATOM     71  C   UNL     1       2.484  16.049  -1.000  1.00  0.00     0.064 A 
ATOM     72  C   UNL     1       2.189  16.488  -2.297  1.00  0.00     0.173 A 
ATOM     73  C   UNL     1       1.472  16.140  -0.032  1.00  0.00     0.173 A 
ATOM     74  F   UNL     1       3.133  16.447  -3.249  1.00  0.00    -0.203 F 
ATOM     75  C   UNL     1       0.935  17.008  -2.612  1.00  0.00     0.198 A 
ATOM     76  C   UNL     1       0.211  16.635  -0.354  1.00  0.00     0.198 A 
ATOM     77  F   UNL     1       1.707  15.737   1.225  1.00  0.00    -0.203 F 
ATOM     78  F   UNL     1       0.691  17.459  -3.850  1.00  0.00    -0.200 F 
ATOM     79  C   UNL     1      -0.055  17.074  -1.642  1.00  0.00     0.200 A 
ATOM     80  F   UNL     1      -0.745  16.689   0.583  1.00  0.00    -0.200 F 
ATOM     81  F   UNL     1      -1.262  17.571  -1.947  1.00  0.00    -0.200 F 
ENDBRANCH  47  71
BRANCH  59  82
ATOM     82  C   UNL     1       8.810  18.914  -0.449  1.00  0.00     0.064 A 
ATOM     83  C   UNL     1       8.547  19.935   0.475  1.00  0.00     0.173 A 
ATOM     84  C   UNL     1       9.593  19.225  -1.571  1.00  0.00     0.173 A 
ATOM     85  F   UNL     1       7.789  19.689   1.555  1.00  0.00    -0.203 F 
ATOM     86  C   UNL     1       9.031  21.224   0.272  1.00  0.00     0.198 A 
ATOM     87  C   UNL     1      10.097  20.509  -1.757  1.00  0.00     0.198 A 
ATOM     88  F   UNL     1       9.877  18.281  -2.481  1.00  0.00    -0.203 F 
ATOM     89  F   UNL     1       8.733  22.195   1.146  1.00  0.00    -0.200 F 
ATOM     90  C   UNL     1       9.811  21.508  -0.839  1.00  0.00     0.200 A 
ATOM     91  F   UNL     1      10.859  20.779  -2.826  1.00  0.00    -0.200 F 
ATOM     92  F   UNL     1      10.282  22.748  -1.030  1.00  0.00    -0.200 F 
ENDBRANCH  59  82
ENDBRANCH  33  34
ENDBRANCH  26  28
ENDBRANCH  25  26
ENDBRANCH  24  25
ENDBRANCH   1  24
TORSDOF 15
