REMARK SMILES CN(C(=O)C[C@@H]1SC(=O)N(c2ccccc2)C1=O)c1ccccc1C(=O)OCCOC(=O)c1ccc(-c2c3nc(c(-c4c(F)c(F)c(F)c(F)c4F)c4ccc([nH]4)c(-c4c(F)c(F)c(F)c(F)c4F)c4nc(c(-c5c(F)c(F)c(F)c(F)c5F)c5ccc2[nH]5)C=C4)C=C3)cc1
REMARK SMILES IDX 27 1 25 2 26 3 24 4 19 5 20 6 21 7 23 8 22 9 2 10 1 11 3 12
REMARK SMILES IDX 4 13 5 14 6 15 7 16 17 17 8 18 10 19 18 20 9 21 11 22 12 23
REMARK SMILES IDX 16 24 13 25 15 26 14 27 28 28 29 29 30 30 31 31 32 32 33 33
REMARK SMILES IDX 34 34 95 35 35 36 94 37 36 38 37 39 38 40 88 41 39 42 93 43
REMARK SMILES IDX 87 44 89 45 40 46 92 47 86 48 85 49 41 51 73 52 53 53 72 54
REMARK SMILES IDX 54 55 57 56 71 57 90 58 55 59 56 60 70 62 91 63 58 64 42 65
REMARK SMILES IDX 43 66 51 67 44 68 45 69 49 70 52 71 46 72 47 73 50 74 48 75
REMARK SMILES IDX 74 76 75 77 83 78 76 79 77 80 81 81 84 82 78 83 79 84 82 85
REMARK SMILES IDX 80 86 59 87 60 88 68 89 61 90 62 91 66 92 69 93 63 94 64 95
REMARK SMILES IDX 67 96 65 97
REMARK H PARENT 89 50 57 61
REMARK Flexibility Score: inf
ROOT
ATOM      1  O   UNL     1       2.651   0.019   0.883  1.00  0.00    -0.458 OA
ENDROOT
BRANCH   1   2
ATOM      2  C   UNL     1       2.353   0.618   2.062  1.00  0.00     0.340 C 
ATOM      3  O   UNL     1       2.825   0.283   3.142  1.00  0.00    -0.246 OA
BRANCH   2   4
ATOM      4  C   UNL     1       1.446   1.809   1.967  1.00  0.00     0.083 A 
ATOM      5  C   UNL     1       0.405   2.071   1.046  1.00  0.00     0.058 A 
ATOM      6  C   UNL     1      -0.318   3.280   1.228  1.00  0.00     0.027 A 
ATOM      7  C   UNL     1       0.010   4.237   2.190  1.00  0.00     0.002 A 
ATOM      8  C   UNL     1       1.728   2.780   2.968  1.00  0.00     0.018 A 
ATOM      9  C   UNL     1       1.053   3.994   3.056  1.00  0.00     0.001 A 
BRANCH   5  10
ATOM     10  N   UNL     1      -0.022   1.204  -0.036  1.00  0.00    -0.315 N 
ATOM     11  C   UNL     1      -0.051  -0.233   0.205  1.00  0.00     0.153 C 
BRANCH  10  12
ATOM     12  C   UNL     1      -0.498   1.760  -1.235  1.00  0.00     0.228 C 
ATOM     13  O   UNL     1      -0.648   2.967  -1.439  1.00  0.00    -0.274 OA
BRANCH  12  14
ATOM     14  C   UNL     1      -0.781   0.846  -2.410  1.00  0.00     0.125 C 
BRANCH  14  15
ATOM     15  C   UNL     1       0.356   0.782  -3.430  1.00  0.00     0.156 C 
ATOM     16  S   UNL     1       1.179  -0.821  -3.384  1.00  0.00    -0.050 SA
ATOM     17  C   UNL     1       1.464   1.817  -3.316  1.00  0.00     0.248 C 
ATOM     18  C   UNL     1       2.752  -0.126  -3.044  1.00  0.00     0.293 C 
ATOM     19  N   UNL     1       2.696   1.253  -3.016  1.00  0.00    -0.240 N 
ATOM     20  O   UNL     1       1.250   2.994  -3.600  1.00  0.00    -0.273 OA
ATOM     21  O   UNL     1       3.688  -0.876  -2.848  1.00  0.00    -0.261 OA
BRANCH  19  22
ATOM     22  C   UNL     1       3.859   2.062  -2.764  1.00  0.00     0.053 A 
ATOM     23  C   UNL     1       3.740   3.355  -2.222  1.00  0.00     0.027 A 
ATOM     24  C   UNL     1       5.160   1.581  -2.996  1.00  0.00     0.027 A 
ATOM     25  C   UNL     1       4.871   4.117  -1.895  1.00  0.00     0.002 A 
ATOM     26  C   UNL     1       6.291   2.346  -2.681  1.00  0.00     0.002 A 
ATOM     27  C   UNL     1       6.146   3.612  -2.124  1.00  0.00     0.000 A 
ENDBRANCH  19  22
ENDBRANCH  14  15
ENDBRANCH  12  14
ENDBRANCH  10  12
ENDBRANCH   5  10
ENDBRANCH   2   4
ENDBRANCH   1   2
BRANCH   1  28
ATOM     28  C   UNL     1       3.601  -1.076   0.945  1.00  0.00     0.275 C 
BRANCH  28  29
ATOM     29  C   UNL     1       4.952  -0.762   0.278  1.00  0.00     0.275 C 
BRANCH  29  30
ATOM     30  O   UNL     1       5.769   0.170   1.014  1.00  0.00    -0.458 OA
BRANCH  30  31
ATOM     31  C   UNL     1       5.374   1.447   0.844  1.00  0.00     0.338 C 
ATOM     32  O   UNL     1       4.394   1.833   0.230  1.00  0.00    -0.246 OA
BRANCH  31  33
ATOM     33  C   UNL     1       6.153   2.407   1.621  1.00  0.00     0.060 A 
ATOM     34  C   UNL     1       5.417   3.120   2.563  1.00  0.00     0.016 A 
ATOM     35  C   UNL     1       7.448   2.797   1.282  1.00  0.00     0.016 A 
ATOM     36  C   UNL     1       5.929   4.276   3.119  1.00  0.00     0.010 A 
ATOM     37  C   UNL     1       7.995   3.932   1.897  1.00  0.00     0.010 A 
ATOM     38  C   UNL     1       7.230   4.689   2.804  1.00  0.00    -0.014 A 
BRANCH  38  39
ATOM     39  C   UNL     1       7.762   5.901   3.472  1.00  0.00     0.031 A 
ATOM     40  C   UNL     1       8.068   7.147   2.693  1.00  0.00     0.074 A 
ATOM     41  C   UNL     1       7.902   5.879   4.812  1.00  0.00     0.049 A 
ATOM     42  N   UNL     1       8.596   8.270   3.111  1.00  0.00    -0.248 NA
ATOM     43  C   UNL     1       7.744   7.134   1.259  1.00  0.00     0.031 C 
ATOM     44  C   UNL     1       7.587   4.734   5.670  1.00  0.00     0.029 A 
ATOM     45  N   UNL     1       8.321   6.844   5.690  1.00  0.00    -0.354 N 
ATOM     46  C   UNL     1       8.709   9.079   1.988  1.00  0.00     0.074 A 
ATOM     47  C   UNL     1       8.189   8.322   0.869  1.00  0.00     0.031 C 
ATOM     48  C   UNL     1       7.783   5.075   6.951  1.00  0.00     0.029 A 
ATOM     49  C   UNL     1       8.319   6.428   6.998  1.00  0.00     0.049 A 
ATOM     50  H   UNL     1       8.596   7.747   5.410  1.00  0.00     0.167 HD
ATOM     51  C   UNL     1       9.212  10.336   1.909  1.00  0.00     0.037 A 
ATOM     52  C   UNL     1       8.740   7.054   8.112  1.00  0.00     0.037 A 
ATOM     53  C   UNL     1       9.689  11.088   3.044  1.00  0.00     0.049 A 
ATOM     54  C   UNL     1       9.309   8.436   7.986  1.00  0.00     0.074 A 
ATOM     55  C   UNL     1      10.209  12.370   3.075  1.00  0.00     0.029 A 
ATOM     56  N   UNL     1       9.695  10.625   4.353  1.00  0.00    -0.354 N 
ATOM     57  N   UNL     1       9.445   9.180   6.915  1.00  0.00    -0.248 NA
ATOM     58  C   UNL     1       9.791   9.063   9.222  1.00  0.00     0.031 C 
ATOM     59  C   UNL     1      10.567  12.668   4.395  1.00  0.00     0.029 A 
ATOM     60  C   UNL     1      10.222  11.592   5.196  1.00  0.00     0.049 A 
ATOM     61  H   UNL     1       9.373   9.740   4.641  1.00  0.00     0.167 HD
ATOM     62  C   UNL     1      10.006  10.371   7.348  1.00  0.00     0.074 A 
ATOM     63  C   UNL     1      10.167  10.256   8.784  1.00  0.00     0.031 C 
ATOM     64  C   UNL     1      10.359  11.460   6.624  1.00  0.00     0.037 A 
BRANCH  51  65
ATOM     65  C   UNL     1       9.316  10.971   0.552  1.00  0.00     0.064 A 
ATOM     66  C   UNL     1       8.191  11.438  -0.142  1.00  0.00     0.173 A 
ATOM     67  C   UNL     1      10.577  11.177  -0.032  1.00  0.00     0.173 A 
ATOM     68  F   UNL     1       6.962  11.259   0.365  1.00  0.00    -0.203 F 
ATOM     69  C   UNL     1       8.323  12.074  -1.376  1.00  0.00     0.198 A 
ATOM     70  C   UNL     1      10.707  11.835  -1.252  1.00  0.00     0.198 A 
ATOM     71  F   UNL     1      11.687  10.755   0.592  1.00  0.00    -0.203 F 
ATOM     72  F   UNL     1       7.231  12.485  -2.037  1.00  0.00    -0.200 F 
ATOM     73  C   UNL     1       9.580  12.280  -1.925  1.00  0.00     0.200 A 
ATOM     74  F   UNL     1      11.924  12.045  -1.773  1.00  0.00    -0.200 F 
ATOM     75  F   UNL     1       9.705  12.905  -3.104  1.00  0.00    -0.200 F 
ENDBRANCH  51  65
BRANCH  52  76
ATOM     76  C   UNL     1       8.664   6.362   9.424  1.00  0.00     0.064 A 
ATOM     77  C   UNL     1       7.802   6.815  10.431  1.00  0.00     0.173 A 
ATOM     78  C   UNL     1       9.445   5.228   9.695  1.00  0.00     0.173 A 
ATOM     79  F   UNL     1       7.050   7.907  10.229  1.00  0.00    -0.203 F 
ATOM     80  C   UNL     1       7.736   6.170  11.665  1.00  0.00     0.198 A 
ATOM     81  C   UNL     1       9.352   4.563  10.914  1.00  0.00     0.198 A 
ATOM     82  F   UNL     1      10.283   4.750   8.763  1.00  0.00    -0.203 F 
ATOM     83  F   UNL     1       6.937   6.650  12.627  1.00  0.00    -0.200 F 
ATOM     84  C   UNL     1       8.504   5.040  11.902  1.00  0.00     0.200 A 
ATOM     85  F   UNL     1      10.081   3.460  11.131  1.00  0.00    -0.200 F 
ATOM     86  F   UNL     1       8.433   4.414  13.085  1.00  0.00    -0.200 F 
ENDBRANCH  52  76
BRANCH  64  87
ATOM     87  C   UNL     1      10.899  12.631   7.390  1.00  0.00     0.064 A 
ATOM     88  C   UNL     1      12.175  12.607   7.973  1.00  0.00     0.173 A 
ATOM     89  C   UNL     1      10.124  13.789   7.546  1.00  0.00     0.173 A 
ATOM     90  F   UNL     1      12.945  11.514   7.867  1.00  0.00    -0.203 F 
ATOM     91  C   UNL     1      12.639  13.688   8.717  1.00  0.00     0.198 A 
ATOM     92  C   UNL     1      10.604  14.880   8.264  1.00  0.00     0.198 A 
ATOM     93  F   UNL     1       8.899  13.862   7.003  1.00  0.00    -0.203 F 
ATOM     94  F   UNL     1      13.835  13.620   9.319  1.00  0.00    -0.200 F 
ATOM     95  C   UNL     1      11.856  14.824   8.859  1.00  0.00     0.200 A 
ATOM     96  F   UNL     1       9.850  15.980   8.392  1.00  0.00    -0.200 F 
ATOM     97  F   UNL     1      12.302  15.861   9.580  1.00  0.00    -0.200 F 
ENDBRANCH  64  87
ENDBRANCH  38  39
ENDBRANCH  31  33
ENDBRANCH  30  31
ENDBRANCH  29  30
ENDBRANCH  28  29
ENDBRANCH   1  28
TORSDOF 16
