REMARK SMILES O=C(OCCOC(=O)c1[nH]ncc1C[NH+]1CCC([N@H+]2CCC[C@@H](C(=O)N3CCCC3)C2)CC1)c1ccc(-c2c3nc(c(-c4c(F)c(F)c(F)c(F)c4F)c4ccc([nH]4)c(-c4c(F)c(F)c(F)c(F)c4F)c4nc(c(-c5c(F)c(F)c(F)c(F)c5F)c5ccc2[nH]5)C=C4)C=C3)cc1
REMARK SMILES IDX 5 1 4 2 3 3 2 4 1 5 34 6 35 7 96 8 36 9 95 10 37 11 38 12
REMARK SMILES IDX 39 13 89 14 40 15 94 16 88 17 90 18 41 19 93 20 87 21 86 22
REMARK SMILES IDX 42 24 74 25 54 26 73 27 55 28 58 29 72 30 91 31 56 32 57 33
REMARK SMILES IDX 71 35 92 36 59 37 43 38 44 39 52 40 45 41 46 42 50 43 53 44
REMARK SMILES IDX 47 45 48 46 51 47 49 48 75 49 76 50 84 51 77 52 78 53 82 54
REMARK SMILES IDX 85 55 79 56 80 57 83 58 81 59 60 60 61 61 69 62 62 63 63 64
REMARK SMILES IDX 67 65 70 66 64 67 65 68 68 69 66 70 6 71 7 72 8 73 9 74
REMARK SMILES IDX 10 75 13 76 11 77 12 79 14 80 15 81 16 82 33 83 17 85 32 86
REMARK SMILES IDX 18 87 19 88 20 89 31 90 21 92 23 93 22 94 24 95 25 96 26 97
REMARK SMILES IDX 27 98 30 99 28 100 29 101
REMARK H PARENT 90 23 58 34 10 78 15 84 19 91
REMARK Flexibility Score: inf
ROOT
ATOM      1  C   UNL     1       4.065   1.621  -1.371  1.00  0.00     0.275 C 
ENDROOT
BRANCH   1   2
ATOM      2  C   UNL     1       4.414   0.135  -1.480  1.00  0.00     0.275 C 
BRANCH   2   3
ATOM      3  O   UNL     1       3.355  -0.730  -1.026  1.00  0.00    -0.458 OA
BRANCH   3   4
ATOM      4  C   UNL     1       3.003  -1.203   0.190  1.00  0.00     0.338 C 
ATOM      5  O   UNL     1       1.954  -1.846   0.258  1.00  0.00    -0.246 OA
BRANCH   4   6
ATOM      6  C   UNL     1       3.743  -0.974   1.483  1.00  0.00     0.060 A 
ATOM      7  C   UNL     1       4.990  -0.371   1.647  1.00  0.00     0.016 A 
ATOM      8  C   UNL     1       3.086  -1.410   2.656  1.00  0.00     0.016 A 
ATOM      9  C   UNL     1       5.566  -0.224   2.920  1.00  0.00     0.010 A 
ATOM     10  C   UNL     1       3.641  -1.239   3.931  1.00  0.00     0.010 A 
ATOM     11  C   UNL     1       4.901  -0.660   4.072  1.00  0.00    -0.014 A 
BRANCH  11  12
ATOM     12  C   UNL     1       5.567  -0.566   5.396  1.00  0.00     0.031 A 
ATOM     13  C   UNL     1       6.174  -1.784   6.002  1.00  0.00     0.074 A 
ATOM     14  C   UNL     1       5.695   0.616   6.026  1.00  0.00     0.049 A 
ATOM     15  N   UNL     1       6.862  -1.891   7.107  1.00  0.00    -0.248 NA
ATOM     16  C   UNL     1       5.991  -3.044   5.269  1.00  0.00     0.031 C 
ATOM     17  C   UNL     1       5.145   1.855   5.518  1.00  0.00     0.029 A 
ATOM     18  N   UNL     1       6.319   0.992   7.188  1.00  0.00    -0.354 N 
ATOM     19  C   UNL     1       7.216  -3.224   7.193  1.00  0.00     0.074 A 
ATOM     20  C   UNL     1       6.623  -3.900   6.058  1.00  0.00     0.031 C 
ATOM     21  C   UNL     1       5.497   2.873   6.312  1.00  0.00     0.029 A 
ATOM     22  C   UNL     1       6.214   2.338   7.455  1.00  0.00     0.049 A 
ATOM     23  H   UNL     1       6.796   0.361   7.773  1.00  0.00     0.167 HD
ATOM     24  C   UNL     1       7.987  -3.822   8.130  1.00  0.00     0.037 A 
ATOM     25  C   UNL     1       6.611   3.064   8.516  1.00  0.00     0.037 A 
ATOM     26  C   UNL     1       8.537  -3.147   9.274  1.00  0.00     0.049 A 
ATOM     27  C   UNL     1       7.364   2.357   9.599  1.00  0.00     0.074 A 
ATOM     28  C   UNL     1       9.314  -3.665  10.293  1.00  0.00     0.029 A 
ATOM     29  N   UNL     1       8.350  -1.799   9.559  1.00  0.00    -0.354 N 
ATOM     30  N   UNL     1       7.715   1.096   9.657  1.00  0.00    -0.248 NA
ATOM     31  C   UNL     1       7.783   3.159  10.753  1.00  0.00     0.031 C 
ATOM     32  C   UNL     1       9.568  -2.639  11.213  1.00  0.00     0.029 A 
ATOM     33  C   UNL     1       8.981  -1.472  10.749  1.00  0.00     0.049 A 
ATOM     34  H   UNL     1       7.843  -1.169   8.997  1.00  0.00     0.167 HD
ATOM     35  C   UNL     1       8.418   0.952  10.839  1.00  0.00     0.074 A 
ATOM     36  C   UNL     1       8.448   2.260  11.467  1.00  0.00     0.031 C 
ATOM     37  C   UNL     1       8.994  -0.162  11.351  1.00  0.00     0.037 A 
BRANCH  24  38
ATOM     38  C   UNL     1       8.238  -5.284   7.936  1.00  0.00     0.064 A 
ATOM     39  C   UNL     1       9.093  -5.746   6.923  1.00  0.00     0.173 A 
ATOM     40  C   UNL     1       7.563  -6.231   8.716  1.00  0.00     0.173 A 
ATOM     41  F   UNL     1       9.734  -4.874   6.130  1.00  0.00    -0.203 F 
ATOM     42  C   UNL     1       9.234  -7.108   6.675  1.00  0.00     0.198 A 
ATOM     43  C   UNL     1       7.724  -7.593   8.479  1.00  0.00     0.198 A 
ATOM     44  F   UNL     1       6.726  -5.836   9.686  1.00  0.00    -0.203 F 
ATOM     45  F   UNL     1      10.003  -7.527   5.660  1.00  0.00    -0.200 F 
ATOM     46  C   UNL     1       8.549  -8.030   7.452  1.00  0.00     0.200 A 
ATOM     47  F   UNL     1       7.059  -8.485   9.227  1.00  0.00    -0.200 F 
ATOM     48  F   UNL     1       8.669  -9.341   7.199  1.00  0.00    -0.200 F 
ENDBRANCH  24  38
BRANCH  25  49
ATOM     49  C   UNL     1       6.270   4.510   8.607  1.00  0.00     0.064 A 
ATOM     50  C   UNL     1       7.253   5.503   8.508  1.00  0.00     0.173 A 
ATOM     51  C   UNL     1       4.940   4.929   8.775  1.00  0.00     0.173 A 
ATOM     52  F   UNL     1       8.541   5.157   8.361  1.00  0.00    -0.203 F 
ATOM     53  C   UNL     1       6.922   6.856   8.586  1.00  0.00     0.198 A 
ATOM     54  C   UNL     1       4.607   6.282   8.829  1.00  0.00     0.198 A 
ATOM     55  F   UNL     1       3.957   4.022   8.866  1.00  0.00    -0.203 F 
ATOM     56  F   UNL     1       7.887   7.784   8.521  1.00  0.00    -0.200 F 
ATOM     57  C   UNL     1       5.599   7.245   8.741  1.00  0.00     0.200 A 
ATOM     58  F   UNL     1       3.326   6.650   8.966  1.00  0.00    -0.200 F 
ATOM     59  F   UNL     1       5.283   8.545   8.809  1.00  0.00    -0.200 F 
ENDBRANCH  25  49
BRANCH  37  60
ATOM     60  C   UNL     1       9.734   0.007  12.640  1.00  0.00     0.064 A 
ATOM     61  C   UNL     1       9.059   0.148  13.860  1.00  0.00     0.173 A 
ATOM     62  C   UNL     1      11.136   0.016  12.650  1.00  0.00     0.173 A 
ATOM     63  F   UNL     1       7.719   0.172  13.891  1.00  0.00    -0.203 F 
ATOM     64  C   UNL     1       9.766   0.310  15.047  1.00  0.00     0.198 A 
ATOM     65  C   UNL     1      11.838   0.155  13.841  1.00  0.00     0.198 A 
ATOM     66  F   UNL     1      11.821  -0.110  11.503  1.00  0.00    -0.203 F 
ATOM     67  F   UNL     1       9.104   0.487  16.199  1.00  0.00    -0.200 F 
ATOM     68  C   UNL     1      11.153   0.307  15.038  1.00  0.00     0.200 A 
ATOM     69  F   UNL     1      13.178   0.149  13.832  1.00  0.00    -0.200 F 
ATOM     70  F   UNL     1      11.832   0.463  16.183  1.00  0.00    -0.200 F 
ENDBRANCH  37  60
ENDBRANCH  11  12
ENDBRANCH   4   6
ENDBRANCH   3   4
ENDBRANCH   2   3
ENDBRANCH   1   2
BRANCH   1  71
ATOM     71  O   UNL     1       3.542   1.944  -0.077  1.00  0.00    -0.457 OA
BRANCH  71  72
ATOM     72  C   UNL     1       2.182   1.946   0.024  1.00  0.00     0.356 C 
ATOM     73  O   UNL     1       1.398   1.855  -0.910  1.00  0.00    -0.244 OA
BRANCH  72  74
ATOM     74  C   UNL     1       1.816   1.878   1.405  1.00  0.00     0.152 A 
ATOM     75  N   UNL     1       0.763   1.113   1.827  1.00  0.00    -0.271 N 
ATOM     76  C   UNL     1       2.379   2.423   2.551  1.00  0.00     0.059 A 
ATOM     77  N   UNL     1       0.688   0.996   3.162  1.00  0.00    -0.183 NA
ATOM     78  H   UNL     1       0.123   0.689   1.212  1.00  0.00     0.190 HD
ATOM     79  C   UNL     1       1.682   1.769   3.598  1.00  0.00     0.145 A 
BRANCH  76  80
ATOM     80  C   UNL     1       3.485   3.425   2.638  1.00  0.00     0.303 C 
BRANCH  80  81
ATOM     81  N   UNL     1       3.093   4.694   3.259  1.00  0.00    -0.331 N 
ATOM     82  C   UNL     1       2.153   5.423   2.411  1.00  0.00     0.268 C 
ATOM     83  C   UNL     1       2.624   4.623   4.647  1.00  0.00     0.268 C 
ATOM     84  H   UNL     1       3.967   5.214   3.332  1.00  0.00     0.348 HD
ATOM     85  C   UNL     1       1.973   6.835   2.940  1.00  0.00     0.126 C 
ATOM     86  C   UNL     1       2.463   6.020   5.255  1.00  0.00     0.126 C 
ATOM     87  C   UNL     1       1.464   6.804   4.398  1.00  0.00     0.195 C 
BRANCH  87  88
ATOM     88  N   UNL     1       1.085   8.118   4.974  1.00  0.00    -0.331 N 
ATOM     89  C   UNL     1       2.168   9.105   4.995  1.00  0.00     0.262 C 
ATOM     90  C   UNL     1      -0.093   8.606   4.245  1.00  0.00     0.275 C 
ATOM     91  H   UNL     1       0.867   7.982   5.961  1.00  0.00     0.348 HD
ATOM     92  C   UNL     1       1.678  10.470   5.487  1.00  0.00     0.062 C 
ATOM     93  C   UNL     1      -0.621  10.001   4.600  1.00  0.00     0.134 C 
ATOM     94  C   UNL     1       0.540  10.997   4.613  1.00  0.00     0.025 C 
BRANCH  93  95
ATOM     95  C   UNL     1      -1.641  10.275   3.490  1.00  0.00     0.231 C 
ATOM     96  O   UNL     1      -1.371  10.989   2.524  1.00  0.00    -0.274 OA
ATOM     97  N   UNL     1      -2.772   9.479   3.504  1.00  0.00    -0.342 N 
ATOM     98  C   UNL     1      -3.438   8.879   4.649  1.00  0.00     0.119 C 
ATOM     99  C   UNL     1      -3.321   8.976   2.256  1.00  0.00     0.119 C 
ATOM    100  C   UNL     1      -4.008   7.585   4.095  1.00  0.00     0.023 C 
ATOM    101  C   UNL     1      -4.381   7.959   2.664  1.00  0.00     0.023 C 
ENDBRANCH  93  95
ENDBRANCH  87  88
ENDBRANCH  80  81
ENDBRANCH  76  80
ENDBRANCH  72  74
ENDBRANCH  71  72
ENDBRANCH   1  71
TORSDOF 15
