REMARK SMILES O=C(OCCOC(=O)c1[nH]ncc1C[N@H+]1CCC[C@H](C(=O)c2ccc3ccccc3c2)C1)c1ccc(-c2c3nc(c(-c4c(F)c(F)c(F)c(F)c4F)c4ccc([nH]4)c(-c4c(F)c(F)c(F)c(F)c4F)c4nc(c(-c5c(F)c(F)c(F)c(F)c5F)c5ccc2[nH]5)C=C4)C=C3)cc1
REMARK SMILES IDX 5 1 4 2 3 3 2 4 1 5 33 6 34 7 95 8 35 9 94 10 36 11 37 12
REMARK SMILES IDX 38 13 88 14 39 15 93 16 87 17 89 18 40 19 92 20 86 21 85 22
REMARK SMILES IDX 41 24 73 25 53 26 72 27 54 28 57 29 71 30 90 31 55 32 56 33
REMARK SMILES IDX 70 35 91 36 58 37 42 38 43 39 51 40 44 41 45 42 49 43 52 44
REMARK SMILES IDX 46 45 47 46 50 47 48 48 74 49 75 50 83 51 76 52 77 53 81 54
REMARK SMILES IDX 84 55 78 56 79 57 82 58 80 59 59 60 60 61 68 62 61 63 62 64
REMARK SMILES IDX 66 65 69 66 63 67 64 68 67 69 65 70 6 71 7 72 8 73 9 74
REMARK SMILES IDX 10 75 13 76 11 77 12 79 14 80 15 81 16 82 32 83 17 85 19 86
REMARK SMILES IDX 18 87 20 88 21 89 22 90 23 91 31 92 24 93 30 94 25 95 29 96
REMARK SMILES IDX 26 97 28 98 27 99
REMARK H PARENT 89 23 57 34 10 78 15 84
REMARK Flexibility Score: inf
ROOT
ATOM      1  C   UNL     1       4.110  -2.095   0.161  1.00  0.00     0.275 C 
ENDROOT
BRANCH   1   2
ATOM      2  C   UNL     1       4.428  -0.964   1.141  1.00  0.00     0.275 C 
BRANCH   2   3
ATOM      3  O   UNL     1       3.310  -0.082   1.365  1.00  0.00    -0.458 OA
BRANCH   3   4
ATOM      4  C   UNL     1       2.852   1.005   0.706  1.00  0.00     0.338 C 
ATOM      5  O   UNL     1       1.804   1.507   1.116  1.00  0.00    -0.246 OA
BRANCH   4   6
ATOM      6  C   UNL     1       3.466   1.626  -0.522  1.00  0.00     0.060 A 
ATOM      7  C   UNL     1       4.679   1.289  -1.131  1.00  0.00     0.016 A 
ATOM      8  C   UNL     1       2.703   2.643  -1.136  1.00  0.00     0.016 A 
ATOM      9  C   UNL     1       5.121   1.943  -2.294  1.00  0.00     0.010 A 
ATOM     10  C   UNL     1       3.127   3.286  -2.303  1.00  0.00     0.010 A 
ATOM     11  C   UNL     1       4.354   2.954  -2.878  1.00  0.00    -0.014 A 
BRANCH  11  12
ATOM     12  C   UNL     1       4.898   3.781  -3.980  1.00  0.00     0.031 A 
ATOM     13  C   UNL     1       5.527   5.088  -3.630  1.00  0.00     0.074 A 
ATOM     14  C   UNL     1       4.806   3.400  -5.266  1.00  0.00     0.049 A 
ATOM     15  N   UNL     1       6.031   5.999  -4.417  1.00  0.00    -0.248 NA
ATOM     16  C   UNL     1       5.587   5.415  -2.197  1.00  0.00     0.031 C 
ATOM     17  C   UNL     1       4.208   2.153  -5.701  1.00  0.00     0.029 A 
ATOM     18  N   UNL     1       5.184   4.008  -6.436  1.00  0.00    -0.354 N 
ATOM     19  C   UNL     1       6.455   7.015  -3.579  1.00  0.00     0.074 A 
ATOM     20  C   UNL     1       6.128   6.621  -2.225  1.00  0.00     0.031 C 
ATOM     21  C   UNL     1       4.242   2.079  -7.038  1.00  0.00     0.029 A 
ATOM     22  C   UNL     1       4.848   3.292  -7.561  1.00  0.00     0.049 A 
ATOM     23  H   UNL     1       5.652   4.874  -6.467  1.00  0.00     0.167 HD
ATOM     24  C   UNL     1       7.060   8.176  -3.918  1.00  0.00     0.037 A 
ATOM     25  C   UNL     1       4.991   3.577  -8.869  1.00  0.00     0.037 A 
ATOM     26  C   UNL     1       7.330   8.565  -5.274  1.00  0.00     0.049 A 
ATOM     27  C   UNL     1       5.640   4.880  -9.229  1.00  0.00     0.074 A 
ATOM     28  C   UNL     1       7.928   9.720  -5.740  1.00  0.00     0.029 A 
ATOM     29  N   UNL     1       6.992   7.808  -6.391  1.00  0.00    -0.354 N 
ATOM     30  N   UNL     1       6.078   5.821  -8.426  1.00  0.00    -0.248 NA
ATOM     31  C   UNL     1       5.818   5.170 -10.655  1.00  0.00     0.031 C 
ATOM     32  C   UNL     1       7.909   9.683  -7.140  1.00  0.00     0.029 A 
ATOM     33  C   UNL     1       7.350   8.480  -7.548  1.00  0.00     0.049 A 
ATOM     34  H   UNL     1       6.562   6.923  -6.363  1.00  0.00     0.167 HD
ATOM     35  C   UNL     1       6.598   6.810  -9.243  1.00  0.00     0.074 A 
ATOM     36  C   UNL     1       6.429   6.348 -10.609  1.00  0.00     0.031 C 
ATOM     37  C   UNL     1       7.164   7.990  -8.893  1.00  0.00     0.037 A 
BRANCH  24  38
ATOM     38  C   UNL     1       7.388   9.103  -2.786  1.00  0.00     0.064 A 
ATOM     39  C   UNL     1       8.376   8.788  -1.839  1.00  0.00     0.173 A 
ATOM     40  C   UNL     1       6.635  10.268  -2.589  1.00  0.00     0.173 A 
ATOM     41  F   UNL     1       9.100   7.666  -1.966  1.00  0.00    -0.203 F 
ATOM     42  C   UNL     1       8.557   9.577  -0.706  1.00  0.00     0.198 A 
ATOM     43  C   UNL     1       6.841  11.072  -1.471  1.00  0.00     0.198 A 
ATOM     44  F   UNL     1       5.674  10.609  -3.460  1.00  0.00    -0.203 F 
ATOM     45  F   UNL     1       9.442   9.208   0.230  1.00  0.00    -0.200 F 
ATOM     46  C   UNL     1       7.789  10.717  -0.523  1.00  0.00     0.200 A 
ATOM     47  F   UNL     1       6.099  12.173  -1.294  1.00  0.00    -0.200 F 
ATOM     48  F   UNL     1       7.946  11.461   0.581  1.00  0.00    -0.200 F 
ENDBRANCH  24  38
BRANCH  25  49
ATOM     49  C   UNL     1       4.522   2.603  -9.895  1.00  0.00     0.064 A 
ATOM     50  C   UNL     1       5.429   1.870 -10.674  1.00  0.00     0.173 A 
ATOM     51  C   UNL     1       3.156   2.324 -10.065  1.00  0.00     0.173 A 
ATOM     52  F   UNL     1       6.744   2.108 -10.564  1.00  0.00    -0.203 F 
ATOM     53  C   UNL     1       4.990   0.903 -11.581  1.00  0.00     0.198 A 
ATOM     54  C   UNL     1       2.719   1.338 -10.949  1.00  0.00     0.198 A 
ATOM     55  F   UNL     1       2.242   2.986  -9.338  1.00  0.00    -0.203 F 
ATOM     56  F   UNL     1       5.880   0.249 -12.339  1.00  0.00    -0.200 F 
ATOM     57  C   UNL     1       3.636   0.630 -11.710  1.00  0.00     0.200 A 
ATOM     58  F   UNL     1       1.410   1.070 -11.055  1.00  0.00    -0.200 F 
ATOM     59  F   UNL     1       3.213  -0.299 -12.578  1.00  0.00    -0.200 F 
ENDBRANCH  25  49
BRANCH  37  60
ATOM     60  C   UNL     1       7.668   8.855 -10.006  1.00  0.00     0.064 A 
ATOM     61  C   UNL     1       6.794   9.598 -10.811  1.00  0.00     0.173 A 
ATOM     62  C   UNL     1       9.047   8.995 -10.217  1.00  0.00     0.173 A 
ATOM     63  F   UNL     1       5.467   9.481 -10.655  1.00  0.00    -0.203 F 
ATOM     64  C   UNL     1       7.285  10.450 -11.795  1.00  0.00     0.198 A 
ATOM     65  C   UNL     1       9.535   9.866 -11.185  1.00  0.00     0.198 A 
ATOM     66  F   UNL     1       9.919   8.304  -9.468  1.00  0.00    -0.203 F 
ATOM     67  F   UNL     1       6.435  11.133 -12.573  1.00  0.00    -0.200 F 
ATOM     68  C   UNL     1       8.654  10.591 -11.974  1.00  0.00     0.200 A 
ATOM     69  F   UNL     1      10.857  10.010 -11.349  1.00  0.00    -0.200 F 
ATOM     70  F   UNL     1       9.126  11.426 -12.910  1.00  0.00    -0.200 F 
ENDBRANCH  37  60
ENDBRANCH  11  12
ENDBRANCH   4   6
ENDBRANCH   3   4
ENDBRANCH   2   3
ENDBRANCH   1   2
BRANCH   1  71
ATOM     71  O   UNL     1       3.533  -1.593  -1.048  1.00  0.00    -0.457 OA
BRANCH  71  72
ATOM     72  C   UNL     1       2.166  -1.584  -1.091  1.00  0.00     0.356 C 
ATOM     73  O   UNL     1       1.427  -2.083  -0.269  1.00  0.00    -0.244 OA
BRANCH  72  74
ATOM     74  C   UNL     1       1.743  -0.737  -2.169  1.00  0.00     0.152 A 
ATOM     75  N   UNL     1       0.622   0.042  -2.066  1.00  0.00    -0.271 N 
ATOM     76  C   UNL     1       2.277  -0.479  -3.423  1.00  0.00     0.059 A 
ATOM     77  N   UNL     1       0.439   0.861  -3.111  1.00  0.00    -0.183 NA
ATOM     78  H   UNL     1       0.009   0.004  -1.297  1.00  0.00     0.190 HD
ATOM     79  C   UNL     1       1.440   0.546  -3.934  1.00  0.00     0.145 A 
BRANCH  76  80
ATOM     80  C   UNL     1       3.421  -1.191  -4.083  1.00  0.00     0.303 C 
BRANCH  80  81
ATOM     81  N   UNL     1       3.008  -1.981  -5.256  1.00  0.00    -0.330 N 
ATOM     82  C   UNL     1       1.762  -2.719  -5.039  1.00  0.00     0.262 C 
ATOM     83  C   UNL     1       2.998  -1.202  -6.490  1.00  0.00     0.274 C 
ATOM     84  H   UNL     1       3.731  -2.690  -5.379  1.00  0.00     0.348 HD
ATOM     85  C   UNL     1       1.445  -3.661  -6.186  1.00  0.00     0.062 C 
ATOM     86  C   UNL     1       2.695  -2.025  -7.743  1.00  0.00     0.116 C 
ATOM     87  C   UNL     1       1.524  -2.992  -7.557  1.00  0.00     0.023 C 
BRANCH  86  88
ATOM     88  C   UNL     1       3.981  -2.582  -8.366  1.00  0.00     0.171 C 
ATOM     89  O   UNL     1       4.391  -2.177  -9.454  1.00  0.00    -0.294 OA
BRANCH  88  90
ATOM     90  C   UNL     1       4.847  -3.478  -7.570  1.00  0.00     0.019 A 
ATOM     91  C   UNL     1       4.414  -4.745  -7.200  1.00  0.00     0.012 A 
ATOM     92  C   UNL     1       6.087  -2.998  -7.137  1.00  0.00     0.020 A 
ATOM     93  C   UNL     1       5.140  -5.475  -6.260  1.00  0.00     0.009 A 
ATOM     94  C   UNL     1       6.847  -3.741  -6.220  1.00  0.00    -0.018 A 
ATOM     95  C   UNL     1       6.342  -4.973  -5.740  1.00  0.00    -0.018 A 
ATOM     96  C   UNL     1       8.086  -3.279  -5.749  1.00  0.00     0.009 A 
ATOM     97  C   UNL     1       7.055  -5.673  -4.756  1.00  0.00     0.009 A 
ATOM     98  C   UNL     1       8.795  -4.001  -4.787  1.00  0.00     0.001 A 
ATOM     99  C   UNL     1       8.272  -5.186  -4.278  1.00  0.00     0.001 A 
ENDBRANCH  88  90
ENDBRANCH  86  88
ENDBRANCH  80  81
ENDBRANCH  76  80
ENDBRANCH  72  74
ENDBRANCH  71  72
ENDBRANCH   1  71
TORSDOF 15
