REMARK SMILES C[C@@H]1C[C@H](C)C[C@H]([N@H+]2[C@@H](C(=O)OCCOC(=O)c3ccc(-c4c5nc(c(-c6c(F)c(F)c(F)c(F)c6F)c6ccc([nH]6)c(-c6c(F)c(F)c(F)c(F)c6F)c6nc(c(-c7c(F)c(F)c(F)c(F)c7F)c7ccc4[nH]7)C=C6)C=C5)cc3)CC[C@@H]3CCCC[C@@H]32)C1
REMARK SMILES IDX 14 1 13 2 12 3 10 4 11 5 9 6 8 7 88 8 81 10 83 11 87 12
REMARK SMILES IDX 82 13 84 14 86 15 85 16 7 17 5 18 4 19 6 20 3 21 2 22 89 23
REMARK SMILES IDX 1 24 15 25 16 26 17 27 18 28 19 29 80 30 20 31 79 32 21 33
REMARK SMILES IDX 22 34 23 35 73 36 24 37 78 38 72 39 74 40 25 41 77 42 71 43
REMARK SMILES IDX 70 44 26 46 58 47 38 48 57 49 39 50 42 51 56 52 75 53 40 54
REMARK SMILES IDX 41 55 55 57 76 58 43 59 27 60 28 61 36 62 29 63 30 64 34 65
REMARK SMILES IDX 37 66 31 67 32 68 35 69 33 70 59 71 60 72 68 73 61 74 62 75
REMARK SMILES IDX 66 76 69 77 63 78 64 79 67 80 65 81 44 82 45 83 53 84 46 85
REMARK SMILES IDX 47 86 51 87 54 88 48 89 49 90 52 91 50 92
REMARK H PARENT 8 9 74 45 42 56
REMARK Flexibility Score: inf
ROOT
ATOM      1  C   UNL     1       4.447  -0.468  -5.529  1.00  0.00     0.275 C 
ENDROOT
BRANCH   1   2
ATOM      2  C   UNL     1       3.025  -0.427  -4.979  1.00  0.00     0.274 C 
BRANCH   2   3
ATOM      3  O   UNL     1       3.025  -0.670  -3.555  1.00  0.00    -0.458 OA
BRANCH   3   4
ATOM      4  C   UNL     1       2.487  -1.848  -3.138  1.00  0.00     0.365 C 
ATOM      5  O   UNL     1       2.043  -2.707  -3.897  1.00  0.00    -0.245 OA
BRANCH   4   6
ATOM      6  C   UNL     1       2.453  -2.016  -1.597  1.00  0.00     0.295 C 
ATOM      7  N   UNL     1       1.291  -1.309  -0.976  1.00  0.00    -0.318 N 
ATOM      8  C   UNL     1       1.505   0.155  -0.987  1.00  0.00     0.188 C 
ATOM      9  H   UNL     1       1.151  -1.305   0.034  1.00  0.00     0.349 HD
ATOM     10  C   UNL     1       3.743  -1.739  -0.831  1.00  0.00     0.078 C 
ATOM     11  C   UNL     1       2.763   0.477  -0.127  1.00  0.00     0.048 C 
ATOM     12  C   UNL     1       0.405   1.131  -0.551  1.00  0.00     0.065 C 
ATOM     13  C   UNL     1       4.009  -0.271  -0.591  1.00  0.00     0.016 C 
ATOM     14  C   UNL     1       2.442   0.191   1.348  1.00  0.00     0.010 C 
ATOM     15  C   UNL     1       0.521   1.819   0.819  1.00  0.00     0.006 C 
ATOM     16  C   UNL     1       1.422   1.187   1.878  1.00  0.00     0.001 C 
BRANCH   7  17
ATOM     17  C   UNL     1       0.042  -2.076  -1.183  1.00  0.00     0.185 C 
ATOM     18  C   UNL     1      -1.417  -0.981   1.626  1.00  0.00     0.008 C 
ATOM     19  C   UNL     1      -1.678  -2.213   0.781  1.00  0.00    -0.008 C 
ATOM     20  C   UNL     1      -0.419  -2.757   0.119  1.00  0.00     0.068 C 
ATOM     21  C   UNL     1      -2.817  -2.029  -0.225  1.00  0.00     0.007 C 
ATOM     22  C   UNL     1      -2.476  -1.345  -1.560  1.00  0.00    -0.008 C 
ATOM     23  C   UNL     1      -1.079  -1.638  -2.132  1.00  0.00     0.068 C 
ATOM     24  C   UNL     1      -2.828   0.144  -1.591  1.00  0.00     0.008 C 
ENDBRANCH   7  17
ENDBRANCH   4   6
ENDBRANCH   3   4
ENDBRANCH   2   3
ENDBRANCH   1   2
BRANCH   1  25
ATOM     25  O   UNL     1       5.054  -1.728  -5.200  1.00  0.00    -0.458 OA
BRANCH  25  26
ATOM     26  C   UNL     1       5.933  -1.673  -4.174  1.00  0.00     0.338 C 
ATOM     27  O   UNL     1       6.336  -0.687  -3.584  1.00  0.00    -0.246 OA
BRANCH  26  28
ATOM     28  C   UNL     1       6.325  -3.030  -3.777  1.00  0.00     0.060 A 
ATOM     29  C   UNL     1       5.393  -3.853  -3.147  1.00  0.00     0.016 A 
ATOM     30  C   UNL     1       7.667  -3.397  -3.836  1.00  0.00     0.016 A 
ATOM     31  C   UNL     1       5.821  -4.975  -2.449  1.00  0.00     0.010 A 
ATOM     32  C   UNL     1       8.073  -4.593  -3.244  1.00  0.00     0.010 A 
ATOM     33  C   UNL     1       7.163  -5.369  -2.503  1.00  0.00    -0.014 A 
BRANCH  33  34
ATOM     34  C   UNL     1       7.621  -6.576  -1.768  1.00  0.00     0.031 A 
ATOM     35  C   UNL     1       8.707  -6.461  -0.734  1.00  0.00     0.074 A 
ATOM     36  C   UNL     1       7.071  -7.775  -2.041  1.00  0.00     0.049 A 
ATOM     37  N   UNL     1       9.398  -7.407  -0.151  1.00  0.00    -0.248 NA
ATOM     38  C   UNL     1       9.078  -5.101  -0.308  1.00  0.00     0.031 C 
ATOM     39  C   UNL     1       5.980  -8.013  -2.988  1.00  0.00     0.029 A 
ATOM     40  N   UNL     1       7.361  -9.024  -1.551  1.00  0.00    -0.354 N 
ATOM     41  C   UNL     1      10.327  -6.758   0.652  1.00  0.00     0.074 A 
ATOM     42  C   UNL     1      10.105  -5.337   0.496  1.00  0.00     0.031 C 
ATOM     43  C   UNL     1       5.679  -9.319  -2.997  1.00  0.00     0.029 A 
ATOM     44  C   UNL     1       6.617 -10.022  -2.131  1.00  0.00     0.049 A 
ATOM     45  H   UNL     1       8.035  -9.188  -0.853  1.00  0.00     0.167 HD
ATOM     46  C   UNL     1      11.283  -7.308   1.437  1.00  0.00     0.037 A 
ATOM     47  C   UNL     1       6.717 -11.360  -2.026  1.00  0.00     0.037 A 
ATOM     48  C   UNL     1      11.446  -8.724   1.639  1.00  0.00     0.049 A 
ATOM     49  C   UNL     1       7.791 -11.941  -1.153  1.00  0.00     0.074 A 
ATOM     50  C   UNL     1      12.353  -9.382   2.452  1.00  0.00     0.029 A 
ATOM     51  N   UNL     1      10.670  -9.700   1.032  1.00  0.00    -0.354 N 
ATOM     52  N   UNL     1       8.690 -11.322  -0.427  1.00  0.00    -0.248 NA
ATOM     53  C   UNL     1       7.877 -13.406  -1.099  1.00  0.00     0.031 C 
ATOM     54  C   UNL     1      12.148 -10.758   2.310  1.00  0.00     0.029 A 
ATOM     55  C   UNL     1      11.089 -10.956   1.439  1.00  0.00     0.049 A 
ATOM     56  H   UNL     1       9.931  -9.527   0.405  1.00  0.00     0.167 HD
ATOM     57  C   UNL     1       9.441 -12.318   0.178  1.00  0.00     0.074 A 
ATOM     58  C   UNL     1       8.878 -13.583  -0.248  1.00  0.00     0.031 C 
ATOM     59  C   UNL     1      10.506 -12.199   1.007  1.00  0.00     0.037 A 
BRANCH  46  60
ATOM     60  C   UNL     1      12.257  -6.389   2.112  1.00  0.00     0.064 A 
ATOM     61  C   UNL     1      11.906  -5.623   3.232  1.00  0.00     0.173 A 
ATOM     62  C   UNL     1      13.587  -6.330   1.666  1.00  0.00     0.173 A 
ATOM     63  F   UNL     1      10.646  -5.634   3.690  1.00  0.00    -0.203 F 
ATOM     64  C   UNL     1      12.849  -4.823   3.875  1.00  0.00     0.198 A 
ATOM     65  C   UNL     1      14.532  -5.548   2.324  1.00  0.00     0.198 A 
ATOM     66  F   UNL     1      13.974  -7.048   0.600  1.00  0.00    -0.203 F 
ATOM     67  F   UNL     1      12.488  -4.078   4.928  1.00  0.00    -0.200 F 
ATOM     68  C   UNL     1      14.162  -4.793   3.426  1.00  0.00     0.200 A 
ATOM     69  F   UNL     1      15.801  -5.530   1.895  1.00  0.00    -0.200 F 
ATOM     70  F   UNL     1      15.071  -4.035   4.055  1.00  0.00    -0.200 F 
ENDBRANCH  46  60
BRANCH  47  71
ATOM     71  C   UNL     1       5.812 -12.234  -2.816  1.00  0.00     0.064 A 
ATOM     72  C   UNL     1       4.841 -13.024  -2.188  1.00  0.00     0.173 A 
ATOM     73  C   UNL     1       5.902 -12.297  -4.215  1.00  0.00     0.173 A 
ATOM     74  F   UNL     1       4.733 -13.016  -0.852  1.00  0.00    -0.203 F 
ATOM     75  C   UNL     1       4.004 -13.857  -2.929  1.00  0.00     0.198 A 
ATOM     76  C   UNL     1       5.043 -13.104  -4.957  1.00  0.00     0.198 A 
ATOM     77  F   UNL     1       6.814 -11.558  -4.865  1.00  0.00    -0.203 F 
ATOM     78  F   UNL     1       3.114 -14.637  -2.301  1.00  0.00    -0.200 F 
ATOM     79  C   UNL     1       4.101 -13.890  -4.312  1.00  0.00     0.200 A 
ATOM     80  F   UNL     1       5.130 -13.121  -6.293  1.00  0.00    -0.200 F 
ATOM     81  F   UNL     1       3.291 -14.687  -5.023  1.00  0.00    -0.200 F 
ENDBRANCH  47  71
BRANCH  59  82
ATOM     82  C   UNL     1      11.105 -13.469   1.527  1.00  0.00     0.064 A 
ATOM     83  C   UNL     1      11.895 -14.292   0.711  1.00  0.00     0.173 A 
ATOM     84  C   UNL     1      10.909 -13.852   2.862  1.00  0.00     0.173 A 
ATOM     85  F   UNL     1      12.093 -13.975  -0.577  1.00  0.00    -0.203 F 
ATOM     86  C   UNL     1      12.449 -15.468   1.210  1.00  0.00     0.198 A 
ATOM     87  C   UNL     1      11.486 -15.014   3.363  1.00  0.00     0.198 A 
ATOM     88  F   UNL     1      10.165 -13.093   3.680  1.00  0.00    -0.203 F 
ATOM     89  F   UNL     1      13.163 -16.264   0.402  1.00  0.00    -0.200 F 
ATOM     90  C   UNL     1      12.249 -15.824   2.535  1.00  0.00     0.200 A 
ATOM     91  F   UNL     1      11.300 -15.353   4.646  1.00  0.00    -0.200 F 
ATOM     92  F   UNL     1      12.786 -16.955   3.014  1.00  0.00    -0.200 F 
ENDBRANCH  59  82
ENDBRANCH  33  34
ENDBRANCH  26  28
ENDBRANCH  25  26
ENDBRANCH   1  25
TORSDOF 12
