REMARK SMILES CC[C@@H](Oc1ccc(/C=C2\SC(=S)N(NC(=O)c3ccccc3O)C2=O)cc1)C(=O)OCCOC(=O)c1ccc(-c2c3nc(c(-c4c(F)c(F)c(F)c(F)c4F)c4ccc([nH]4)c(-c4c(F)c(F)c(F)c(F)c4F)c4nc(c(-c5c(F)c(F)c(F)c(F)c5F)c5ccc2[nH]5)C=C4)C=C3)cc1
REMARK SMILES IDX 29 1 30 2 3 3 2 4 1 5 4 6 5 7 6 8 28 9 7 10 27 11 8 12 9 13
REMARK SMILES IDX 10 14 11 15 25 16 12 17 14 18 26 19 13 20 15 21 16 22 17 24
REMARK SMILES IDX 18 25 19 26 23 27 20 28 22 29 21 30 24 31 31 33 32 34 33 35
REMARK SMILES IDX 34 36 35 37 36 38 37 39 38 40 99 41 39 42 98 43 40 44 41 45
REMARK SMILES IDX 42 46 92 47 43 48 97 49 91 50 93 51 44 52 96 53 90 54 89 55
REMARK SMILES IDX 45 57 77 58 57 59 76 60 58 61 61 62 75 63 94 64 59 65 60 66
REMARK SMILES IDX 74 68 95 69 62 70 46 71 47 72 55 73 48 74 49 75 53 76 56 77
REMARK SMILES IDX 50 78 51 79 54 80 52 81 78 82 79 83 87 84 80 85 81 86 85 87
REMARK SMILES IDX 88 88 82 89 83 90 86 91 84 92 63 93 64 94 72 95 65 96 66 97
REMARK SMILES IDX 70 98 73 99 67 100 68 101 71 102 69 103
REMARK H PARENT 15 23 24 32 93 56 61 67
REMARK Flexibility Score: inf
ROOT
ATOM      1  C   UNL     1       0.252  -2.033  -3.078  1.00  0.00     0.347 C 
ATOM      2  O   UNL     1       0.975  -2.789  -3.718  1.00  0.00    -0.248 OA
ENDROOT
BRANCH   1   3
ATOM      3  C   UNL     1       0.538  -1.632  -1.632  1.00  0.00     0.282 C 
BRANCH   3   4
ATOM      4  C   UNL     1       0.309  -0.123  -1.412  1.00  0.00     0.054 C 
ATOM      5  C   UNL     1       1.427   0.535  -0.607  1.00  0.00     0.008 C 
ENDBRANCH   3   4
BRANCH   3   6
ATOM      6  O   UNL     1      -0.343  -2.449  -0.847  1.00  0.00    -0.479 OA
BRANCH   6   7
ATOM      7  C   UNL     1       0.133  -2.644   0.417  1.00  0.00     0.120 A 
ATOM      8  C   UNL     1       0.807  -3.817   0.741  1.00  0.00     0.047 A 
ATOM      9  C   UNL     1      -0.154  -1.706   1.397  1.00  0.00     0.047 A 
ATOM     10  C   UNL     1       1.150  -4.068   2.075  1.00  0.00     0.012 A 
ATOM     11  C   UNL     1       0.258  -1.923   2.704  1.00  0.00     0.012 A 
ATOM     12  C   UNL     1       0.822  -3.146   3.080  1.00  0.00    -0.024 A 
BRANCH  12  13
ATOM     13  C   UNL     1       1.038  -3.506   4.492  1.00  0.00     0.029 C 
ATOM     14  C   UNL     1       0.246  -3.196   5.532  1.00  0.00     0.082 C 
ATOM     15  S   UNL     1      -1.183  -2.227   5.564  1.00  0.00    -0.052 SA
ATOM     16  C   UNL     1       0.566  -3.623   6.922  1.00  0.00     0.285 C 
ATOM     17  C   UNL     1      -1.032  -1.917   7.279  1.00  0.00     0.168 C 
ATOM     18  N   UNL     1      -0.045  -2.734   7.797  1.00  0.00    -0.198 N 
ATOM     19  O   UNL     1       1.211  -4.625   7.191  1.00  0.00    -0.266 OA
ATOM     20  S   UNL     1      -1.980  -0.818   8.101  1.00  0.00    -0.050 S 
BRANCH  18  21
ATOM     21  N   UNL     1       0.184  -2.759   9.180  1.00  0.00    -0.254 N 
ATOM     22  C   UNL     1       1.406  -2.680   9.809  1.00  0.00     0.274 C 
ATOM     23  H   UNL     1      -0.608  -2.842   9.759  1.00  0.00     0.192 HD
ATOM     24  O   UNL     1       1.464  -2.499  11.024  1.00  0.00    -0.267 OA
BRANCH  22  25
ATOM     25  C   UNL     1       2.662  -2.871   9.065  1.00  0.00     0.083 A 
ATOM     26  C   UNL     1       3.408  -4.012   9.393  1.00  0.00     0.018 A 
ATOM     27  C   UNL     1       3.092  -2.026   8.039  1.00  0.00     0.128 A 
ATOM     28  C   UNL     1       4.549  -4.334   8.659  1.00  0.00     0.001 A 
ATOM     29  C   UNL     1       4.228  -2.355   7.300  1.00  0.00     0.047 A 
ATOM     30  C   UNL     1       4.952  -3.511   7.607  1.00  0.00     0.004 A 
BRANCH  27  31
ATOM     31  O   UNL     1       2.436  -0.879   7.689  1.00  0.00    -0.507 OA
ATOM     32  H   UNL     1       1.668  -0.618   8.157  1.00  0.00     0.293 HD
ENDBRANCH  27  31
ENDBRANCH  22  25
ENDBRANCH  18  21
ENDBRANCH  12  13
ENDBRANCH   6   7
ENDBRANCH   3   6
ENDBRANCH   1   3
BRANCH   1  33
ATOM     33  O   UNL     1      -0.880  -1.444  -3.558  1.00  0.00    -0.459 OA
BRANCH  33  34
ATOM     34  C   UNL     1      -1.182  -1.678  -4.944  1.00  0.00     0.274 C 
BRANCH  34  35
ATOM     35  C   UNL     1      -0.621  -0.558  -5.823  1.00  0.00     0.275 C 
BRANCH  35  36
ATOM     36  O   UNL     1       0.820  -0.576  -5.816  1.00  0.00    -0.458 OA
BRANCH  36  37
ATOM     37  C   UNL     1       1.418   0.428  -5.136  1.00  0.00     0.338 C 
ATOM     38  O   UNL     1       0.894   1.374  -4.578  1.00  0.00    -0.246 OA
BRANCH  37  39
ATOM     39  C   UNL     1       2.865   0.182  -5.083  1.00  0.00     0.060 A 
ATOM     40  C   UNL     1       3.409  -0.410  -3.941  1.00  0.00     0.016 A 
ATOM     41  C   UNL     1       3.690   0.637  -6.109  1.00  0.00     0.016 A 
ATOM     42  C   UNL     1       4.789  -0.535  -3.808  1.00  0.00     0.010 A 
ATOM     43  C   UNL     1       5.074   0.491  -5.986  1.00  0.00     0.010 A 
ATOM     44  C   UNL     1       5.632  -0.080  -4.828  1.00  0.00    -0.014 A 
BRANCH  44  45
ATOM     45  C   UNL     1       7.103  -0.156  -4.666  1.00  0.00     0.031 A 
ATOM     46  C   UNL     1       7.891   1.099  -4.430  1.00  0.00     0.074 A 
ATOM     47  C   UNL     1       7.725  -1.346  -4.736  1.00  0.00     0.049 A 
ATOM     48  N   UNL     1       9.188   1.268  -4.382  1.00  0.00    -0.248 NA
ATOM     49  C   UNL     1       7.115   2.331  -4.223  1.00  0.00     0.031 C 
ATOM     50  C   UNL     1       7.060  -2.636  -4.918  1.00  0.00     0.029 A 
ATOM     51  N   UNL     1       9.059  -1.661  -4.675  1.00  0.00    -0.354 N 
ATOM     52  C   UNL     1       9.384   2.625  -4.165  1.00  0.00     0.074 A 
ATOM     53  C   UNL     1       8.074   3.238  -4.105  1.00  0.00     0.031 C 
ATOM     54  C   UNL     1       7.990  -3.604  -4.963  1.00  0.00     0.029 A 
ATOM     55  C   UNL     1       9.314  -2.997  -4.863  1.00  0.00     0.049 A 
ATOM     56  H   UNL     1       9.765  -0.994  -4.513  1.00  0.00     0.167 HD
ATOM     57  C   UNL     1      10.554   3.294  -4.026  1.00  0.00     0.037 A 
ATOM     58  C   UNL     1      10.486  -3.650  -4.976  1.00  0.00     0.037 A 
ATOM     59  C   UNL     1      11.852   2.674  -4.074  1.00  0.00     0.049 A 
ATOM     60  C   UNL     1      11.771  -2.874  -4.877  1.00  0.00     0.074 A 
ATOM     61  C   UNL     1      13.097   3.262  -3.929  1.00  0.00     0.029 A 
ATOM     62  N   UNL     1      12.072   1.320  -4.284  1.00  0.00    -0.354 N 
ATOM     63  N   UNL     1      11.951  -1.591  -4.674  1.00  0.00    -0.248 NA
ATOM     64  C   UNL     1      13.018  -3.637  -5.027  1.00  0.00     0.031 C 
ATOM     65  C   UNL     1      14.071   2.271  -4.094  1.00  0.00     0.029 A 
ATOM     66  C   UNL     1      13.433   1.057  -4.293  1.00  0.00     0.049 A 
ATOM     67  H   UNL     1      11.366   0.646  -4.409  1.00  0.00     0.167 HD
ATOM     68  C   UNL     1      13.325  -1.396  -4.650  1.00  0.00     0.074 A 
ATOM     69  C   UNL     1      13.934  -2.696  -4.844  1.00  0.00     0.031 C 
ATOM     70  C   UNL     1      14.020  -0.245  -4.482  1.00  0.00     0.037 A 
BRANCH  57  71
ATOM     71  C   UNL     1      10.483   4.781  -3.839  1.00  0.00     0.064 A 
ATOM     72  C   UNL     1      10.037   5.354  -2.639  1.00  0.00     0.173 A 
ATOM     73  C   UNL     1      10.899   5.644  -4.864  1.00  0.00     0.173 A 
ATOM     74  F   UNL     1       9.615   4.573  -1.634  1.00  0.00    -0.203 F 
ATOM     75  C   UNL     1       9.988   6.738  -2.482  1.00  0.00     0.198 A 
ATOM     76  C   UNL     1      10.874   7.026  -4.694  1.00  0.00     0.198 A 
ATOM     77  F   UNL     1      11.338   5.147  -6.031  1.00  0.00    -0.203 F 
ATOM     78  F   UNL     1       9.517   7.264  -1.343  1.00  0.00    -0.200 F 
ATOM     79  C   UNL     1      10.413   7.571  -3.506  1.00  0.00     0.200 A 
ATOM     80  F   UNL     1      11.295   7.829  -5.680  1.00  0.00    -0.200 F 
ATOM     81  F   UNL     1      10.370   8.902  -3.350  1.00  0.00    -0.200 F 
ENDBRANCH  57  71
BRANCH  58  82
ATOM     82  C   UNL     1      10.495  -5.115  -5.218  1.00  0.00     0.064 A 
ATOM     83  C   UNL     1      10.941  -6.006  -4.234  1.00  0.00     0.173 A 
ATOM     84  C   UNL     1      10.061  -5.653  -6.439  1.00  0.00     0.173 A 
ATOM     85  F   UNL     1      11.389  -5.537  -3.060  1.00  0.00    -0.203 F 
ATOM     86  C   UNL     1      10.965  -7.380  -4.465  1.00  0.00     0.198 A 
ATOM     87  C   UNL     1      10.058  -7.029  -6.659  1.00  0.00     0.198 A 
ATOM     88  F   UNL     1       9.626  -4.842  -7.415  1.00  0.00    -0.203 F 
ATOM     89  F   UNL     1      11.435  -8.208  -3.522  1.00  0.00    -0.200 F 
ATOM     90  C   UNL     1      10.517  -7.891  -5.675  1.00  0.00     0.200 A 
ATOM     91  F   UNL     1       9.614  -7.518  -7.825  1.00  0.00    -0.200 F 
ATOM     92  F   UNL     1      10.535  -9.212  -5.894  1.00  0.00    -0.200 F 
ENDBRANCH  58  82
BRANCH  70  93
ATOM     93  C   UNL     1      15.517  -0.344  -4.467  1.00  0.00     0.064 A 
ATOM     94  C   UNL     1      16.251  -0.582  -5.638  1.00  0.00     0.173 A 
ATOM     95  C   UNL     1      16.227  -0.164  -3.270  1.00  0.00     0.173 A 
ATOM     96  F   UNL     1      15.617  -0.777  -6.804  1.00  0.00    -0.203 F 
ATOM     97  C   UNL     1      17.641  -0.658  -5.607  1.00  0.00     0.198 A 
ATOM     98  C   UNL     1      17.618  -0.214  -3.248  1.00  0.00     0.198 A 
ATOM     99  F   UNL     1      15.572   0.071  -2.123  1.00  0.00    -0.203 F 
ATOM    100  F   UNL     1      18.320  -0.931  -6.730  1.00  0.00    -0.200 F 
ATOM    101  C   UNL     1      18.323  -0.467  -4.415  1.00  0.00     0.200 A 
ATOM    102  F   UNL     1      18.276  -0.018  -2.097  1.00  0.00    -0.200 F 
ATOM    103  F   UNL     1      19.661  -0.536  -4.388  1.00  0.00    -0.200 F 
ENDBRANCH  70  93
ENDBRANCH  44  45
ENDBRANCH  37  39
ENDBRANCH  36  37
ENDBRANCH  35  36
ENDBRANCH  34  35
ENDBRANCH  33  34
ENDBRANCH   1  33
TORSDOF 18
