REMARK SMILES CCC(CC)[C@H](C(=O)OCCOC(=O)c1ccc(-c2c3nc(c(-c4c(F)c(F)c(F)c(F)c4F)c4ccc([nH]4)c(-c4c(F)c(F)c(F)c(F)c4F)c4nc(c(-c5c(F)c(F)c(F)c(F)c5F)c5ccc2[nH]5)C=C4)C=C3)cc1)c1ccc(OC(F)F)cc1
REMARK SMILES IDX 10 1 9 2 7 3 8 4 6 5 3 6 2 7 1 8 4 9 5 10 78 11 79 12 87 13
REMARK SMILES IDX 80 14 86 15 81 16 82 17 83 18 84 19 85 20 11 21 12 22 13 23
REMARK SMILES IDX 14 24 15 25 16 26 77 27 17 28 76 29 18 30 19 31 20 32 70 33
REMARK SMILES IDX 21 34 75 35 69 36 71 37 22 38 74 39 68 40 67 41 23 43 55 44
REMARK SMILES IDX 35 45 54 46 36 47 39 48 53 49 72 50 37 51 38 52 52 54 73 55
REMARK SMILES IDX 40 56 24 57 25 58 33 59 26 60 27 61 31 62 34 63 28 64 29 65
REMARK SMILES IDX 32 66 30 67 56 68 57 69 65 70 58 71 59 72 63 73 66 74 60 75
REMARK SMILES IDX 61 76 64 77 62 78 41 79 42 80 50 81 43 82 44 83 48 84 51 85
REMARK SMILES IDX 45 86 46 87 49 88 47 89
REMARK H PARENT 71 42 39 53
REMARK Flexibility Score: inf
ROOT
ATOM      1  C   UNL     1       0.490   0.799   0.474  1.00  0.00     0.274 C 
ENDROOT
BRANCH   1   2
ATOM      2  O   UNL     1       0.076   0.636   1.847  1.00  0.00    -0.462 OA
BRANCH   2   3
ATOM      3  C   UNL     1       1.093   0.415   2.732  1.00  0.00     0.313 C 
ATOM      4  O   UNL     1       2.280   0.511   2.444  1.00  0.00    -0.252 OA
BRANCH   3   5
ATOM      5  C   UNL     1       0.570  -0.043   4.103  1.00  0.00     0.132 C 
BRANCH   5   6
ATOM      6  C   UNL     1       1.303  -1.407   4.420  1.00  0.00     0.007 C 
BRANCH   6   7
ATOM      7  C   UNL     1       2.819  -1.292   4.750  1.00  0.00     0.001 C 
ATOM      8  C   UNL     1       3.479  -2.556   5.278  1.00  0.00     0.004 C 
ENDBRANCH   6   7
BRANCH   6   9
ATOM      9  C   UNL     1       0.465  -2.376   5.289  1.00  0.00     0.001 C 
ATOM     10  C   UNL     1       0.190  -1.996   6.730  1.00  0.00     0.004 C 
ENDBRANCH   6   9
ENDBRANCH   5   6
BRANCH   5  11
ATOM     11  C   UNL     1       0.515   1.100   5.127  1.00  0.00    -0.033 A 
ATOM     12  C   UNL     1       1.144   1.069   6.378  1.00  0.00     0.008 A 
ATOM     13  C   UNL     1      -0.251   2.251   4.838  1.00  0.00     0.008 A 
ATOM     14  C   UNL     1       1.031   2.121   7.294  1.00  0.00     0.047 A 
ATOM     15  C   UNL     1      -0.349   3.321   5.745  1.00  0.00     0.047 A 
ATOM     16  C   UNL     1       0.303   3.256   6.971  1.00  0.00     0.126 A 
BRANCH  16  17
ATOM     17  O   UNL     1       0.218   4.211   7.942  1.00  0.00    -0.435 OA
BRANCH  17  18
ATOM     18  C   UNL     1       0.574   5.520   7.511  1.00  0.00     0.542 C 
ATOM     19  F   UNL     1       1.567   5.462   6.593  1.00  0.00    -0.167 F 
ATOM     20  F   UNL     1      -0.498   6.107   6.927  1.00  0.00    -0.167 F 
ENDBRANCH  17  18
ENDBRANCH  16  17
ENDBRANCH   5  11
ENDBRANCH   3   5
ENDBRANCH   2   3
ENDBRANCH   1   2
BRANCH   1  21
ATOM     21  C   UNL     1       0.759   2.257   0.102  1.00  0.00     0.275 C 
BRANCH  21  22
ATOM     22  O   UNL     1       1.835   2.790   0.892  1.00  0.00    -0.458 OA
BRANCH  22  23
ATOM     23  C   UNL     1       1.563   3.930   1.557  1.00  0.00     0.338 C 
ATOM     24  O   UNL     1       0.549   4.610   1.482  1.00  0.00    -0.246 OA
BRANCH  23  25
ATOM     25  C   UNL     1       2.663   4.267   2.474  1.00  0.00     0.060 A 
ATOM     26  C   UNL     1       2.826   3.514   3.633  1.00  0.00     0.016 A 
ATOM     27  C   UNL     1       3.380   5.451   2.303  1.00  0.00     0.016 A 
ATOM     28  C   UNL     1       3.605   3.995   4.679  1.00  0.00     0.010 A 
ATOM     29  C   UNL     1       4.223   5.900   3.327  1.00  0.00     0.010 A 
ATOM     30  C   UNL     1       4.283   5.213   4.552  1.00  0.00    -0.014 A 
BRANCH  30  31
ATOM     31  C   UNL     1       4.910   5.813   5.760  1.00  0.00     0.031 A 
ATOM     32  C   UNL     1       4.300   7.040   6.387  1.00  0.00     0.074 A 
ATOM     33  C   UNL     1       5.938   5.196   6.373  1.00  0.00     0.049 A 
ATOM     34  N   UNL     1       4.636   7.661   7.492  1.00  0.00    -0.248 NA
ATOM     35  C   UNL     1       3.142   7.637   5.702  1.00  0.00     0.031 C 
ATOM     36  C   UNL     1       6.577   3.962   5.917  1.00  0.00     0.029 A 
ATOM     37  N   UNL     1       6.612   5.515   7.526  1.00  0.00    -0.354 N 
ATOM     38  C   UNL     1       3.716   8.688   7.646  1.00  0.00     0.074 A 
ATOM     39  C   UNL     1       2.833   8.646   6.502  1.00  0.00     0.031 C 
ATOM     40  C   UNL     1       7.537   3.617   6.790  1.00  0.00     0.029 A 
ATOM     41  C   UNL     1       7.612   4.630   7.841  1.00  0.00     0.049 A 
ATOM     42  H   UNL     1       6.398   6.303   8.075  1.00  0.00     0.167 HD
ATOM     43  C   UNL     1       3.591   9.571   8.664  1.00  0.00     0.037 A 
ATOM     44  C   UNL     1       8.505   4.644   8.849  1.00  0.00     0.037 A 
ATOM     45  C   UNL     1       4.477   9.653   9.791  1.00  0.00     0.049 A 
ATOM     46  C   UNL     1       8.464   5.756   9.860  1.00  0.00     0.074 A 
ATOM     47  C   UNL     1       4.445  10.540  10.853  1.00  0.00     0.029 A 
ATOM     48  N   UNL     1       5.567   8.823   9.994  1.00  0.00    -0.354 N 
ATOM     49  N   UNL     1       7.588   6.720   9.996  1.00  0.00    -0.248 NA
ATOM     50  C   UNL     1       9.550   5.788  10.852  1.00  0.00     0.031 C 
ATOM     51  C   UNL     1       5.543  10.271  11.680  1.00  0.00     0.029 A 
ATOM     52  C   UNL     1       6.237   9.197  11.148  1.00  0.00     0.049 A 
ATOM     53  H   UNL     1       5.828   8.078   9.405  1.00  0.00     0.167 HD
ATOM     54  C   UNL     1       8.002   7.460  11.094  1.00  0.00     0.074 A 
ATOM     55  C   UNL     1       9.204   6.829  11.597  1.00  0.00     0.031 C 
ATOM     56  C   UNL     1       7.433   8.564  11.637  1.00  0.00     0.037 A 
BRANCH  43  57
ATOM     57  C   UNL     1       2.443  10.528   8.593  1.00  0.00     0.064 A 
ATOM     58  C   UNL     1       1.144  10.120   8.930  1.00  0.00     0.173 A 
ATOM     59  C   UNL     1       2.641  11.860   8.204  1.00  0.00     0.173 A 
ATOM     60  F   UNL     1       0.906   8.847   9.283  1.00  0.00    -0.203 F 
ATOM     61  C   UNL     1       0.079  11.015   8.872  1.00  0.00     0.198 A 
ATOM     62  C   UNL     1       1.576  12.754   8.159  1.00  0.00     0.198 A 
ATOM     63  F   UNL     1       3.866  12.290   7.868  1.00  0.00    -0.203 F 
ATOM     64  F   UNL     1      -1.159  10.601   9.175  1.00  0.00    -0.200 F 
ATOM     65  C   UNL     1       0.297  12.331   8.490  1.00  0.00     0.200 A 
ATOM     66  F   UNL     1       1.786  14.025   7.790  1.00  0.00    -0.200 F 
ATOM     67  F   UNL     1      -0.729  13.192   8.434  1.00  0.00    -0.200 F 
ENDBRANCH  43  57
BRANCH  44  68
ATOM     68  C   UNL     1       9.545   3.587   8.930  1.00  0.00     0.064 A 
ATOM     69  C   UNL     1       9.538   2.638   9.960  1.00  0.00     0.173 A 
ATOM     70  C   UNL     1      10.580   3.520   7.985  1.00  0.00     0.173 A 
ATOM     71  F   UNL     1       8.586   2.682  10.904  1.00  0.00    -0.203 F 
ATOM     72  C   UNL     1      10.531   1.665  10.046  1.00  0.00     0.198 A 
ATOM     73  C   UNL     1      11.558   2.532   8.058  1.00  0.00     0.198 A 
ATOM     74  F   UNL     1      10.637   4.414   6.987  1.00  0.00    -0.203 F 
ATOM     75  F   UNL     1      10.525   0.792  11.063  1.00  0.00    -0.200 F 
ATOM     76  C   UNL     1      11.537   1.609   9.092  1.00  0.00     0.200 A 
ATOM     77  F   UNL     1      12.524   2.479   7.130  1.00  0.00    -0.200 F 
ATOM     78  F   UNL     1      12.491   0.672   9.175  1.00  0.00    -0.200 F 
ENDBRANCH  44  68
BRANCH  56  79
ATOM     79  C   UNL     1       8.093   9.150  12.848  1.00  0.00     0.064 A 
ATOM     80  C   UNL     1       9.278   9.892  12.744  1.00  0.00     0.173 A 
ATOM     81  C   UNL     1       7.519   8.996  14.118  1.00  0.00     0.173 A 
ATOM     82  F   UNL     1       9.873  10.051  11.552  1.00  0.00    -0.203 F 
ATOM     83  C   UNL     1       9.876  10.444  13.874  1.00  0.00     0.198 A 
ATOM     84  C   UNL     1       8.107   9.569  15.242  1.00  0.00     0.198 A 
ATOM     85  F   UNL     1       6.383   8.299  14.267  1.00  0.00    -0.203 F 
ATOM     86  F   UNL     1      11.029  11.118  13.759  1.00  0.00    -0.200 F 
ATOM     87  C   UNL     1       9.287  10.287  15.120  1.00  0.00     0.200 A 
ATOM     88  F   UNL     1       7.533   9.423  16.445  1.00  0.00    -0.200 F 
ATOM     89  F   UNL     1       9.862  10.822  16.206  1.00  0.00    -0.200 F 
ENDBRANCH  56  79
ENDBRANCH  30  31
ENDBRANCH  23  25
ENDBRANCH  22  23
ENDBRANCH  21  22
ENDBRANCH   1  21
TORSDOF 17
