REMARK SMILES O=Cc1cn(-c2ccc(Cl)cc2)nc1C(=O)OCCOC(=O)c1ccc(-c2c3nc(c(-c4c(F)c(F)c(F)c(F)c4F)c4ccc([nH]4)c(-c4c(F)c(F)c(F)c(F)c4F)c4nc(c(-c5c(F)c(F)c(F)c(F)c5F)c5ccc2[nH]5)C=C4)C=C3)cc1
REMARK SMILES IDX 19 1 18 2 17 3 15 4 16 5 14 6 3 7 4 8 5 9 13 10 2 11 1 12
REMARK SMILES IDX 6 13 7 14 12 15 8 16 11 17 9 18 10 19 20 20 21 21 22 22
REMARK SMILES IDX 23 23 24 24 85 25 25 26 84 27 26 28 27 29 28 30 78 31 29 32
REMARK SMILES IDX 83 33 77 34 79 35 30 36 82 37 76 38 75 39 31 41 63 42 43 43
REMARK SMILES IDX 62 44 44 45 47 46 61 47 80 48 45 49 46 50 60 52 81 53 48 54
REMARK SMILES IDX 32 55 33 56 41 57 34 58 35 59 39 60 42 61 36 62 37 63 40 64
REMARK SMILES IDX 38 65 64 66 65 67 73 68 66 69 67 70 71 71 74 72 68 73 69 74
REMARK SMILES IDX 72 75 70 76 49 77 50 78 58 79 51 80 52 81 56 82 59 83 53 84
REMARK SMILES IDX 54 85 57 86 55 87
REMARK H PARENT 79 40 47 51
REMARK Flexibility Score: inf
ROOT
ATOM      1  C   UNL     1       4.412  -3.970   0.040  1.00  0.00     0.275 C 
ENDROOT
BRANCH   1   2
ATOM      2  C   UNL     1       4.836  -2.752   0.848  1.00  0.00     0.275 C 
BRANCH   2   3
ATOM      3  O   UNL     1       4.244  -1.556   0.313  1.00  0.00    -0.457 OA
BRANCH   3   4
ATOM      4  C   UNL     1       4.939  -0.923  -0.681  1.00  0.00     0.359 C 
ATOM      5  O   UNL     1       6.101  -1.197  -0.973  1.00  0.00    -0.244 OA
BRANCH   4   6
ATOM      6  C   UNL     1       4.124   0.081  -1.388  1.00  0.00     0.181 A 
ATOM      7  C   UNL     1       2.885   0.667  -0.989  1.00  0.00     0.068 A 
ATOM      8  C   UNL     1       2.622   1.612  -1.959  1.00  0.00     0.127 A 
ATOM      9  N   UNL     1       3.591   1.484  -2.913  1.00  0.00    -0.239 N 
ATOM     10  N   UNL     1       4.492   0.532  -2.607  1.00  0.00    -0.160 NA
BRANCH   7  11
ATOM     11  C   UNL     1       2.041   0.407   0.157  1.00  0.00     0.264 C 
ATOM     12  O   UNL     1       0.947   0.942   0.318  1.00  0.00    -0.298 OA
ENDBRANCH   7  11
BRANCH   9  13
ATOM     13  C   UNL     1       3.725   2.270  -4.073  1.00  0.00     0.065 A 
ATOM     14  C   UNL     1       3.702   3.665  -3.959  1.00  0.00     0.030 A 
ATOM     15  C   UNL     1       3.875   1.651  -5.318  1.00  0.00     0.030 A 
ATOM     16  C   UNL     1       3.855   4.447  -5.104  1.00  0.00     0.023 A 
ATOM     17  C   UNL     1       3.964   2.442  -6.466  1.00  0.00     0.023 A 
ATOM     18  C   UNL     1       3.968   3.834  -6.353  1.00  0.00     0.041 A 
ATOM     19  Cl  UNL     1       4.117   4.806  -7.765  1.00  0.00    -0.084 Cl
ENDBRANCH   9  13
ENDBRANCH   4   6
ENDBRANCH   3   4
ENDBRANCH   2   3
ENDBRANCH   1   2
BRANCH   1  20
ATOM     20  O   UNL     1       5.057  -3.989  -1.232  1.00  0.00    -0.458 OA
BRANCH  20  21
ATOM     21  C   UNL     1       4.342  -3.470  -2.256  1.00  0.00     0.338 C 
ATOM     22  O   UNL     1       3.355  -2.759  -2.173  1.00  0.00    -0.246 OA
BRANCH  21  23
ATOM     23  C   UNL     1       4.796  -4.093  -3.506  1.00  0.00     0.060 A 
ATOM     24  C   UNL     1       4.211  -3.658  -4.697  1.00  0.00     0.016 A 
ATOM     25  C   UNL     1       5.573  -5.261  -3.451  1.00  0.00     0.016 A 
ATOM     26  C   UNL     1       4.270  -4.489  -5.798  1.00  0.00     0.010 A 
ATOM     27  C   UNL     1       5.618  -6.096  -4.543  1.00  0.00     0.010 A 
ATOM     28  C   UNL     1       4.908  -5.732  -5.681  1.00  0.00    -0.014 A 
BRANCH  28  29
ATOM     29  C   UNL     1       4.895  -6.611  -6.829  1.00  0.00     0.031 A 
ATOM     30  C   UNL     1       5.751  -6.138  -7.937  1.00  0.00     0.074 A 
ATOM     31  C   UNL     1       4.244  -7.788  -6.858  1.00  0.00     0.049 A 
ATOM     32  N   UNL     1       5.370  -5.683  -9.082  1.00  0.00    -0.248 NA
ATOM     33  C   UNL     1       7.194  -6.018  -7.684  1.00  0.00     0.031 C 
ATOM     34  C   UNL     1       3.626  -8.516  -5.748  1.00  0.00     0.029 A 
ATOM     35  N   UNL     1       4.074  -8.628  -7.914  1.00  0.00    -0.354 N 
ATOM     36  C   UNL     1       6.537  -5.377  -9.771  1.00  0.00     0.074 A 
ATOM     37  C   UNL     1       7.611  -5.449  -8.815  1.00  0.00     0.031 C 
ATOM     38  C   UNL     1       3.338  -9.777  -6.149  1.00  0.00     0.029 A 
ATOM     39  C   UNL     1       3.615  -9.890  -7.572  1.00  0.00     0.049 A 
ATOM     40  H   UNL     1       4.261  -8.362  -8.843  1.00  0.00     0.167 HD
ATOM     41  C   UNL     1       6.550  -5.329 -11.129  1.00  0.00     0.037 A 
ATOM     42  C   UNL     1       3.536 -10.958  -8.403  1.00  0.00     0.037 A 
ATOM     43  C   UNL     1       5.216  -5.224 -11.661  1.00  0.00     0.049 A 
ATOM     44  C   UNL     1       3.522 -10.439  -9.793  1.00  0.00     0.074 A 
ATOM     45  C   UNL     1       4.208  -4.283 -11.608  1.00  0.00     0.029 A 
ATOM     46  N   UNL     1       4.629  -6.388 -12.085  1.00  0.00    -0.354 N 
ATOM     47  N   UNL     1       2.543  -9.747 -10.306  1.00  0.00    -0.248 NA
ATOM     48  C   UNL     1       4.786 -10.348 -10.506  1.00  0.00     0.031 C 
ATOM     49  C   UNL     1       2.994  -5.033 -11.597  1.00  0.00     0.029 A 
ATOM     50  C   UNL     1       3.320  -6.388 -11.685  1.00  0.00     0.049 A 
ATOM     51  H   UNL     1       5.074  -7.105 -12.593  1.00  0.00     0.167 HD
ATOM     52  C   UNL     1       3.161  -8.813 -11.122  1.00  0.00     0.074 A 
ATOM     53  C   UNL     1       4.518  -9.315 -11.308  1.00  0.00     0.031 C 
ATOM     54  C   UNL     1       2.595  -7.588 -11.331  1.00  0.00     0.037 A 
BRANCH  41  55
ATOM     55  C   UNL     1       7.709  -5.794 -11.973  1.00  0.00     0.064 A 
ATOM     56  C   UNL     1       7.675  -5.570 -13.363  1.00  0.00     0.173 A 
ATOM     57  C   UNL     1       8.680  -6.718 -11.527  1.00  0.00     0.173 A 
ATOM     58  F   UNL     1       6.773  -4.733 -13.898  1.00  0.00    -0.203 F 
ATOM     59  C   UNL     1       8.499  -6.276 -14.243  1.00  0.00     0.198 A 
ATOM     60  C   UNL     1       9.538  -7.378 -12.403  1.00  0.00     0.198 A 
ATOM     61  F   UNL     1       8.759  -7.111 -10.251  1.00  0.00    -0.203 F 
ATOM     62  F   UNL     1       8.341  -6.129 -15.565  1.00  0.00    -0.200 F 
ATOM     63  C   UNL     1       9.426  -7.183 -13.763  1.00  0.00     0.200 A 
ATOM     64  F   UNL     1      10.412  -8.272 -11.919  1.00  0.00    -0.200 F 
ATOM     65  F   UNL     1      10.171  -7.908 -14.607  1.00  0.00    -0.200 F 
ENDBRANCH  41  55
BRANCH  42  66
ATOM     66  C   UNL     1       3.826 -12.378  -8.095  1.00  0.00     0.064 A 
ATOM     67  C   UNL     1       3.433 -13.402  -8.973  1.00  0.00     0.173 A 
ATOM     68  C   UNL     1       4.753 -12.732  -7.095  1.00  0.00     0.173 A 
ATOM     69  F   UNL     1       2.589 -13.137  -9.982  1.00  0.00    -0.203 F 
ATOM     70  C   UNL     1       3.961 -14.694  -8.877  1.00  0.00     0.198 A 
ATOM     71  C   UNL     1       5.274 -14.022  -6.997  1.00  0.00     0.198 A 
ATOM     72  F   UNL     1       5.247 -11.808  -6.259  1.00  0.00    -0.203 F 
ATOM     73  F   UNL     1       3.616 -15.626  -9.776  1.00  0.00    -0.200 F 
ATOM     74  C   UNL     1       4.891 -14.999  -7.897  1.00  0.00     0.200 A 
ATOM     75  F   UNL     1       6.202 -14.294  -6.069  1.00  0.00    -0.200 F 
ATOM     76  F   UNL     1       5.449 -16.216  -7.846  1.00  0.00    -0.200 F 
ENDBRANCH  42  66
BRANCH  54  77
ATOM     77  C   UNL     1       1.147  -7.425 -10.960  1.00  0.00     0.064 A 
ATOM     78  C   UNL     1       0.645  -7.530  -9.651  1.00  0.00     0.173 A 
ATOM     79  C   UNL     1       0.252  -7.035 -11.965  1.00  0.00     0.173 A 
ATOM     80  F   UNL     1       1.453  -7.805  -8.620  1.00  0.00    -0.203 F 
ATOM     81  C   UNL     1      -0.703  -7.301  -9.376  1.00  0.00     0.198 A 
ATOM     82  C   UNL     1      -1.084  -6.768 -11.680  1.00  0.00     0.198 A 
ATOM     83  F   UNL     1       0.686  -6.869 -13.224  1.00  0.00    -0.203 F 
ATOM     84  F   UNL     1      -1.165  -7.427  -8.122  1.00  0.00    -0.200 F 
ATOM     85  C   UNL     1      -1.564  -6.913 -10.389  1.00  0.00     0.200 A 
ATOM     86  F   UNL     1      -1.901  -6.347 -12.656  1.00  0.00    -0.200 F 
ATOM     87  F   UNL     1      -2.851  -6.656 -10.118  1.00  0.00    -0.200 F 
ENDBRANCH  54  77
ENDBRANCH  28  29
ENDBRANCH  21  23
ENDBRANCH  20  21
ENDBRANCH   1  20
TORSDOF 13
