REMARK SMILES C[C@]12C[C@@H](O)[C@@H]3[C@@H](CCC4=CC(=O)CC[C@]43C)[C@H]1CC[C@]2(O)C(=O)COC(=O)CCC(=O)OCCOC(=O)c1ccc(-c2c3nc(c(-c4c(F)c(F)c(F)c(F)c4F)c4ccc([nH]4)c(-c4c(F)c(F)c(F)c(F)c4F)c4nc(c(-c5c(F)c(F)c(F)c(F)c5F)c5ccc2[nH]5)C=C4)C=C3)cc1
REMARK SMILES IDX 31 1 32 2 30 3 29 4 27 5 28 6 26 7 25 8 23 9 24 10 21 11
REMARK SMILES IDX 17 12 16 13 15 14 10 15 6 16 14 17 11 18 9 19 7 20 4 21
REMARK SMILES IDX 12 22 8 23 18 24 3 25 13 26 2 27 19 28 1 29 20 30 5 31 22 33
REMARK SMILES IDX 33 35 34 36 35 37 36 38 37 39 38 40 39 41 40 42 101 43 41 44
REMARK SMILES IDX 100 45 42 46 43 47 44 48 94 49 45 50 99 51 93 52 95 53 46 54
REMARK SMILES IDX 98 55 92 56 91 57 47 59 79 60 59 61 78 62 60 63 63 64 77 65
REMARK SMILES IDX 96 66 61 67 62 68 76 70 97 71 64 72 48 73 49 74 57 75 50 76
REMARK SMILES IDX 51 77 55 78 58 79 52 80 53 81 56 82 54 83 80 84 81 85 89 86
REMARK SMILES IDX 82 87 83 88 87 89 90 90 84 91 85 92 88 93 86 94 65 95 66 96
REMARK SMILES IDX 74 97 67 98 68 99 72 100 75 101 69 102 70 103 73 104 71 105
REMARK H PARENT 5 32 22 34 95 58 63 69
REMARK Flexibility Score: inf
ROOT
ATOM      1  C   UNL     1      -0.045   7.652   2.607  1.00  0.00     0.306 C 
ATOM      2  O   UNL     1       1.180   7.673   2.637  1.00  0.00    -0.252 OA
ENDROOT
BRANCH   1   3
ATOM      3  C   UNL     1      -0.858   6.621   3.393  1.00  0.00     0.134 C 
BRANCH   3   4
ATOM      4  C   UNL     1      -2.375   6.756   3.416  1.00  0.00     0.134 C 
BRANCH   4   5
ATOM      5  C   UNL     1      -2.992   6.304   2.114  1.00  0.00     0.306 C 
ATOM      6  O   UNL     1      -3.561   5.248   1.899  1.00  0.00    -0.252 OA
BRANCH   5   7
ATOM      7  O   UNL     1      -2.778   7.265   1.199  1.00  0.00    -0.458 OA
BRANCH   7   8
ATOM      8  C   UNL     1      -3.426   7.209  -0.031  1.00  0.00     0.311 C 
BRANCH   8   9
ATOM      9  C   UNL     1      -3.284   6.154  -1.098  1.00  0.00     0.202 C 
ATOM     10  O   UNL     1      -4.220   6.141  -1.927  1.00  0.00    -0.293 OA
BRANCH   9  11
ATOM     11  C   UNL     1      -2.095   5.169  -1.307  1.00  0.00     0.132 C 
ATOM     12  C   UNL     1       1.337  -0.224   0.218  1.00  0.00     0.016 C 
ATOM     13  C   UNL     1       0.820   0.501  -1.052  1.00  0.00    -0.005 C 
ATOM     14  C   UNL     1       1.704  -0.042  -2.236  1.00  0.00     0.020 C 
ATOM     15  C   UNL     1      -0.591   0.059  -1.452  1.00  0.00    -0.060 C 
ATOM     16  C   UNL     1       0.956   2.083  -0.915  1.00  0.00     0.031 C 
ATOM     17  C   UNL     1       1.204  -1.379  -2.843  1.00  0.00     0.081 C 
ATOM     18  C   UNL     1      -0.927  -1.243  -1.343  1.00  0.00     0.047 C 
ATOM     19  C   UNL     1      -1.152   0.774  -2.663  1.00  0.00     0.032 C 
ATOM     20  C   UNL     1       0.274   2.841  -2.103  1.00  0.00    -0.000 C 
ATOM     21  C   UNL     1       0.643   2.851   0.432  1.00  0.00     0.119 C 
ATOM     22  C   UNL     1       0.131  -2.087  -2.019  1.00  0.00     0.155 C 
ATOM     23  C   UNL     1      -1.099   2.257  -2.439  1.00  0.00     0.009 C 
ATOM     24  C   UNL     1       0.237   4.360  -1.792  1.00  0.00     0.002 C 
ATOM     25  C   UNL     1      -0.689   3.647   0.450  1.00  0.00     0.042 C 
ATOM     26  O   UNL     1       0.100  -3.308  -1.893  1.00  0.00    -0.295 OA
ATOM     27  C   UNL     1      -0.707   4.801  -0.610  1.00  0.00     0.009 C 
ATOM     28  C   UNL     1      -0.184   5.261  -2.936  1.00  0.00     0.008 C 
ATOM     29  C   UNL     1      -0.022   6.034  -0.013  1.00  0.00     0.015 C 
ATOM     30  C   UNL     1      -1.683   5.457  -2.786  1.00  0.00     0.044 C 
BRANCH  21  31
ATOM     31  O   UNL     1       0.722   2.070   1.610  1.00  0.00    -0.393 OA
ATOM     32  H   UNL     1      -0.005   1.427   1.620  1.00  0.00     0.210 HD
ENDBRANCH  21  31
BRANCH  11  33
ATOM     33  O   UNL     1      -2.934   3.991  -1.264  1.00  0.00    -0.381 OA
ATOM     34  H   UNL     1      -2.385   3.200  -1.379  1.00  0.00     0.212 HD
ENDBRANCH  11  33
ENDBRANCH   9  11
ENDBRANCH   8   9
ENDBRANCH   7   8
ENDBRANCH   5   7
ENDBRANCH   4   5
ENDBRANCH   3   4
ENDBRANCH   1   3
BRANCH   1  35
ATOM     35  O   UNL     1      -0.796   8.461   1.832  1.00  0.00    -0.462 OA
BRANCH  35  36
ATOM     36  C   UNL     1      -0.182   9.294   0.821  1.00  0.00     0.274 C 
BRANCH  36  37
ATOM     37  C   UNL     1      -0.601  10.747   1.020  1.00  0.00     0.275 C 
BRANCH  37  38
ATOM     38  O   UNL     1      -0.046  11.233   2.245  1.00  0.00    -0.458 OA
BRANCH  38  39
ATOM     39  C   UNL     1      -0.736  10.872   3.357  1.00  0.00     0.338 C 
ATOM     40  O   UNL     1      -1.857  10.414   3.437  1.00  0.00    -0.246 OA
BRANCH  39  41
ATOM     41  C   UNL     1       0.231  10.875   4.459  1.00  0.00     0.060 A 
ATOM     42  C   UNL     1       0.456   9.678   5.147  1.00  0.00     0.016 A 
ATOM     43  C   UNL     1       0.943  12.029   4.767  1.00  0.00     0.016 A 
ATOM     44  C   UNL     1       1.436   9.607   6.123  1.00  0.00     0.010 A 
ATOM     45  C   UNL     1       1.896  11.974   5.774  1.00  0.00     0.010 A 
ATOM     46  C   UNL     1       2.145  10.763   6.445  1.00  0.00    -0.014 A 
BRANCH  46  47
ATOM     47  C   UNL     1       3.090  10.755   7.569  1.00  0.00     0.031 A 
ATOM     48  C   UNL     1       2.651  11.375   8.854  1.00  0.00     0.074 A 
ATOM     49  C   UNL     1       4.323  10.252   7.397  1.00  0.00     0.049 A 
ATOM     50  N   UNL     1       3.363  11.721   9.889  1.00  0.00    -0.248 NA
ATOM     51  C   UNL     1       1.211  11.663   8.983  1.00  0.00     0.031 C 
ATOM     52  C   UNL     1       4.797   9.569   6.193  1.00  0.00     0.029 A 
ATOM     53  N   UNL     1       5.412  10.275   8.225  1.00  0.00    -0.354 N 
ATOM     54  C   UNL     1       2.469  12.303  10.775  1.00  0.00     0.074 A 
ATOM     55  C   UNL     1       1.161  12.264  10.163  1.00  0.00     0.031 C 
ATOM     56  C   UNL     1       6.099   9.276   6.344  1.00  0.00     0.029 A 
ATOM     57  C   UNL     1       6.555   9.808   7.624  1.00  0.00     0.049 A 
ATOM     58  H   UNL     1       5.380  10.594   9.156  1.00  0.00     0.167 HD
ATOM     59  C   UNL     1       2.741  12.833  11.988  1.00  0.00     0.037 A 
ATOM     60  C   UNL     1       7.832   9.875   8.045  1.00  0.00     0.037 A 
ATOM     61  C   UNL     1       4.056  12.838  12.568  1.00  0.00     0.049 A 
ATOM     62  C   UNL     1       8.110  10.535   9.371  1.00  0.00     0.074 A 
ATOM     63  C   UNL     1       4.449  13.306  13.807  1.00  0.00     0.029 A 
ATOM     64  N   UNL     1       5.194  12.354  11.938  1.00  0.00    -0.354 N 
ATOM     65  N   UNL     1       7.269  11.073  10.222  1.00  0.00    -0.248 NA
ATOM     66  C   UNL     1       9.515  10.610   9.790  1.00  0.00     0.031 C 
ATOM     67  C   UNL     1       5.837  13.163  13.901  1.00  0.00     0.029 A 
ATOM     68  C   UNL     1       6.299  12.549  12.747  1.00  0.00     0.049 A 
ATOM     69  H   UNL     1       5.212  11.934  11.047  1.00  0.00     0.167 HD
ATOM     70  C   UNL     1       8.036  11.528  11.285  1.00  0.00     0.074 A 
ATOM     71  C   UNL     1       9.410  11.181  10.981  1.00  0.00     0.031 C 
ATOM     72  C   UNL     1       7.650  12.180  12.409  1.00  0.00     0.037 A 
BRANCH  59  73
ATOM     73  C   UNL     1       1.623  13.484  12.742  1.00  0.00     0.064 A 
ATOM     74  C   UNL     1       0.598  12.740  13.341  1.00  0.00     0.173 A 
ATOM     75  C   UNL     1       1.619  14.876  12.922  1.00  0.00     0.173 A 
ATOM     76  F   UNL     1       0.544  11.409  13.179  1.00  0.00    -0.203 F 
ATOM     77  C   UNL     1      -0.394  13.366  14.093  1.00  0.00     0.198 A 
ATOM     78  C   UNL     1       0.642  15.495  13.696  1.00  0.00     0.198 A 
ATOM     79  F   UNL     1       2.573  15.633  12.361  1.00  0.00    -0.203 F 
ATOM     80  F   UNL     1      -1.381  12.640  14.635  1.00  0.00    -0.200 F 
ATOM     81  C   UNL     1      -0.363  14.741  14.280  1.00  0.00     0.200 A 
ATOM     82  F   UNL     1       0.679  16.822  13.882  1.00  0.00    -0.200 F 
ATOM     83  F   UNL     1      -1.306  15.338  15.022  1.00  0.00    -0.200 F 
ENDBRANCH  59  73
BRANCH  60  84
ATOM     84  C   UNL     1       8.938   9.371   7.188  1.00  0.00     0.064 A 
ATOM     85  C   UNL     1       9.736   8.294   7.597  1.00  0.00     0.173 A 
ATOM     86  C   UNL     1       9.249   9.981   5.962  1.00  0.00     0.173 A 
ATOM     87  F   UNL     1       9.493   7.689   8.769  1.00  0.00    -0.203 F 
ATOM     88  C   UNL     1      10.822   7.870   6.833  1.00  0.00     0.198 A 
ATOM     89  C   UNL     1      10.312   9.532   5.181  1.00  0.00     0.198 A 
ATOM     90  F   UNL     1       8.519  11.015   5.519  1.00  0.00    -0.203 F 
ATOM     91  F   UNL     1      11.607   6.881   7.282  1.00  0.00    -0.200 F 
ATOM     92  C   UNL     1      11.107   8.486   5.624  1.00  0.00     0.200 A 
ATOM     93  F   UNL     1      10.573  10.121   4.006  1.00  0.00    -0.200 F 
ATOM     94  F   UNL     1      12.154   8.082   4.893  1.00  0.00    -0.200 F 
ENDBRANCH  60  84
BRANCH  72  95
ATOM     95  C   UNL     1       8.723  12.529  13.396  1.00  0.00     0.064 A 
ATOM     96  C   UNL     1       9.659  13.540  13.135  1.00  0.00     0.173 A 
ATOM     97  C   UNL     1       8.782  11.879  14.638  1.00  0.00     0.173 A 
ATOM     98  F   UNL     1       9.652  14.179  11.956  1.00  0.00    -0.203 F 
ATOM     99  C   UNL     1      10.632  13.870  14.074  1.00  0.00     0.198 A 
ATOM    100  C   UNL     1       9.733  12.237  15.588  1.00  0.00     0.198 A 
ATOM    101  F   UNL     1       7.902  10.911  14.938  1.00  0.00    -0.203 F 
ATOM    102  F   UNL     1      11.548  14.805  13.784  1.00  0.00    -0.200 F 
ATOM    103  C   UNL     1      10.662  13.226  15.302  1.00  0.00     0.200 A 
ATOM    104  F   UNL     1       9.748  11.626  16.780  1.00  0.00    -0.200 F 
ATOM    105  F   UNL     1      11.591  13.555  16.209  1.00  0.00    -0.200 F 
ENDBRANCH  72  95
ENDBRANCH  46  47
ENDBRANCH  39  41
ENDBRANCH  38  39
ENDBRANCH  37  38
ENDBRANCH  36  37
ENDBRANCH  35  36
ENDBRANCH   1  35
TORSDOF 19
