REMARK SMILES O=C(OCCOC(=O)[C@H]1Cc2c([nH]c3ccccc23)[C@@H](c2ccc(OC(F)(F)F)cc2)[NH2+]1)c1ccc(-c2c3nc(c(-c4c(F)c(F)c(F)c(F)c4F)c4ccc([nH]4)c(-c4c(F)c(F)c(F)c(F)c4F)c4nc(c(-c5c(F)c(F)c(F)c(F)c5F)c5ccc2[nH]5)C=C4)C=C3)cc1
REMARK SMILES IDX 5 1 4 2 3 3 2 4 1 5 33 6 34 7 95 8 35 9 94 10 36 11 37 12
REMARK SMILES IDX 38 13 88 14 39 15 93 16 87 17 89 18 40 19 92 20 86 21 85 22
REMARK SMILES IDX 41 24 73 25 53 26 72 27 54 28 57 29 71 30 90 31 55 32 56 33
REMARK SMILES IDX 70 35 91 36 58 37 42 38 43 39 51 40 44 41 45 42 49 43 52 44
REMARK SMILES IDX 46 45 47 46 50 47 48 48 74 49 75 50 83 51 76 52 77 53 81 54
REMARK SMILES IDX 84 55 78 56 79 57 82 58 80 59 59 60 60 61 68 62 61 63 62 64
REMARK SMILES IDX 66 65 69 66 63 67 64 68 67 69 65 70 6 71 7 72 8 73 9 74
REMARK SMILES IDX 10 75 32 76 11 77 20 78 12 81 19 82 13 83 14 84 18 85 15 87
REMARK SMILES IDX 17 88 16 89 21 90 22 91 31 92 23 93 30 94 24 95 25 96 26 97
REMARK SMILES IDX 27 98 28 99 29 100
REMARK H PARENT 89 23 57 34 32 79 32 80 13 86
REMARK Flexibility Score: inf
ROOT
ATOM      1  C   UNL     1       3.776  -0.659   1.939  1.00  0.00     0.274 C 
ENDROOT
BRANCH   1   2
ATOM      2  C   UNL     1       4.405   0.578   1.294  1.00  0.00     0.275 C 
BRANCH   2   3
ATOM      3  O   UNL     1       3.609   1.110   0.231  1.00  0.00    -0.458 OA
BRANCH   3   4
ATOM      4  C   UNL     1       3.503   0.697  -1.050  1.00  0.00     0.338 C 
ATOM      5  O   UNL     1       2.555   1.138  -1.704  1.00  0.00    -0.246 OA
BRANCH   4   6
ATOM      6  C   UNL     1       4.420  -0.277  -1.753  1.00  0.00     0.060 A 
ATOM      7  C   UNL     1       5.356  -1.152  -1.187  1.00  0.00     0.016 A 
ATOM      8  C   UNL     1       4.161  -0.439  -3.126  1.00  0.00     0.016 A 
ATOM      9  C   UNL     1       5.943  -2.196  -1.938  1.00  0.00     0.010 A 
ATOM     10  C   UNL     1       4.710  -1.500  -3.857  1.00  0.00     0.010 A 
ATOM     11  C   UNL     1       5.590  -2.418  -3.273  1.00  0.00    -0.014 A 
BRANCH  11  12
ATOM     12  C   UNL     1       6.109  -3.588  -4.060  1.00  0.00     0.031 A 
ATOM     13  C   UNL     1       6.832  -3.368  -5.331  1.00  0.00     0.074 A 
ATOM     14  C   UNL     1       5.818  -4.870  -3.753  1.00  0.00     0.049 A 
ATOM     15  N   UNL     1       7.239  -4.267  -6.183  1.00  0.00    -0.248 NA
ATOM     16  C   UNL     1       7.059  -1.978  -5.739  1.00  0.00     0.031 C 
ATOM     17  C   UNL     1       4.933  -5.191  -2.676  1.00  0.00     0.029 A 
ATOM     18  N   UNL     1       6.124  -6.113  -4.279  1.00  0.00    -0.354 N 
ATOM     19  C   UNL     1       7.727  -3.553  -7.250  1.00  0.00     0.074 A 
ATOM     20  C   UNL     1       7.498  -2.150  -6.974  1.00  0.00     0.031 C 
ATOM     21  C   UNL     1       4.767  -6.515  -2.596  1.00  0.00     0.029 A 
ATOM     22  C   UNL     1       5.530  -7.168  -3.608  1.00  0.00     0.049 A 
ATOM     23  H   UNL     1       6.710  -6.236  -5.060  1.00  0.00     0.167 HD
ATOM     24  C   UNL     1       8.346  -4.041  -8.344  1.00  0.00     0.037 A 
ATOM     25  C   UNL     1       5.540  -8.510  -3.735  1.00  0.00     0.037 A 
ATOM     26  C   UNL     1       8.590  -5.437  -8.581  1.00  0.00     0.049 A 
ATOM     27  C   UNL     1       6.338  -9.027  -4.876  1.00  0.00     0.074 A 
ATOM     28  C   UNL     1       9.325  -6.013  -9.598  1.00  0.00     0.029 A 
ATOM     29  N   UNL     1       8.101  -6.479  -7.799  1.00  0.00    -0.354 N 
ATOM     30  N   UNL     1       6.957  -8.323  -5.787  1.00  0.00    -0.248 NA
ATOM     31  C   UNL     1       6.451 -10.479  -5.032  1.00  0.00     0.031 C 
ATOM     32  C   UNL     1       9.259  -7.402  -9.450  1.00  0.00     0.029 A 
ATOM     33  C   UNL     1       8.513  -7.697  -8.321  1.00  0.00     0.049 A 
ATOM     34  H   UNL     1       7.545  -6.369  -6.994  1.00  0.00     0.167 HD
ATOM     35  C   UNL     1       7.532  -9.239  -6.633  1.00  0.00     0.074 A 
ATOM     36  C   UNL     1       7.244 -10.555  -6.091  1.00  0.00     0.031 C 
ATOM     37  C   UNL     1       8.206  -8.996  -7.777  1.00  0.00     0.037 A 
BRANCH  24  38
ATOM     38  C   UNL     1       8.801  -3.018  -9.329  1.00  0.00     0.064 A 
ATOM     39  C   UNL     1       9.827  -2.112  -9.017  1.00  0.00     0.173 A 
ATOM     40  C   UNL     1       8.142  -2.881 -10.556  1.00  0.00     0.173 A 
ATOM     41  F   UNL     1      10.452  -2.181  -7.830  1.00  0.00    -0.203 F 
ATOM     42  C   UNL     1      10.145  -1.073  -9.881  1.00  0.00     0.198 A 
ATOM     43  C   UNL     1       8.489  -1.861 -11.434  1.00  0.00     0.198 A 
ATOM     44  F   UNL     1       7.139  -3.710 -10.884  1.00  0.00    -0.203 F 
ATOM     45  F   UNL     1      11.061  -0.163  -9.522  1.00  0.00    -0.200 F 
ATOM     46  C   UNL     1       9.479  -0.951 -11.091  1.00  0.00     0.200 A 
ATOM     47  F   UNL     1       7.843  -1.739 -12.602  1.00  0.00    -0.200 F 
ATOM     48  F   UNL     1       9.776   0.060 -11.918  1.00  0.00    -0.200 F 
ENDBRANCH  24  38
BRANCH  25  49
ATOM     49  C   UNL     1       4.856  -9.443  -2.773  1.00  0.00     0.064 A 
ATOM     50  C   UNL     1       5.612 -10.320  -1.975  1.00  0.00     0.173 A 
ATOM     51  C   UNL     1       3.460  -9.505  -2.619  1.00  0.00     0.173 A 
ATOM     52  F   UNL     1       6.950 -10.318  -2.064  1.00  0.00    -0.203 F 
ATOM     53  C   UNL     1       5.010 -11.235  -1.107  1.00  0.00     0.198 A 
ATOM     54  C   UNL     1       2.859 -10.393  -1.719  1.00  0.00     0.198 A 
ATOM     55  F   UNL     1       2.664  -8.684  -3.320  1.00  0.00    -0.203 F 
ATOM     56  F   UNL     1       5.768 -12.086  -0.403  1.00  0.00    -0.200 F 
ATOM     57  C   UNL     1       3.632 -11.268  -0.975  1.00  0.00     0.200 A 
ATOM     58  F   UNL     1       1.527 -10.388  -1.565  1.00  0.00    -0.200 F 
ATOM     59  F   UNL     1       3.054 -12.130  -0.128  1.00  0.00    -0.200 F 
ENDBRANCH  25  49
BRANCH  37  60
ATOM     60  C   UNL     1       8.661 -10.205  -8.518  1.00  0.00     0.064 A 
ATOM     61  C   UNL     1       7.744 -11.024  -9.193  1.00  0.00     0.173 A 
ATOM     62  C   UNL     1      10.017 -10.548  -8.549  1.00  0.00     0.173 A 
ATOM     63  F   UNL     1       6.431 -10.752  -9.146  1.00  0.00    -0.203 F 
ATOM     64  C   UNL     1       8.174 -12.159  -9.868  1.00  0.00     0.198 A 
ATOM     65  C   UNL     1      10.446 -11.664  -9.254  1.00  0.00     0.198 A 
ATOM     66  F   UNL     1      10.919  -9.800  -7.897  1.00  0.00    -0.203 F 
ATOM     67  F   UNL     1       7.279 -12.960 -10.461  1.00  0.00    -0.200 F 
ATOM     68  C   UNL     1       9.525 -12.470  -9.908  1.00  0.00     0.200 A 
ATOM     69  F   UNL     1      11.751 -11.964  -9.295  1.00  0.00    -0.200 F 
ATOM     70  F   UNL     1       9.940 -13.558 -10.570  1.00  0.00    -0.200 F 
ENDBRANCH  37  60
ENDBRANCH  11  12
ENDBRANCH   4   6
ENDBRANCH   3   4
ENDBRANCH   2   3
ENDBRANCH   1   2
BRANCH   1  71
ATOM     71  O   UNL     1       3.256  -1.592   0.978  1.00  0.00    -0.458 OA
BRANCH  71  72
ATOM     72  C   UNL     1       1.894  -1.697   0.883  1.00  0.00     0.365 C 
ATOM     73  O   UNL     1       1.092  -0.973   1.477  1.00  0.00    -0.245 OA
BRANCH  72  74
ATOM     74  C   UNL     1       1.474  -2.893   0.019  1.00  0.00     0.298 C 
ATOM     75  C   UNL     1       1.744  -2.550  -1.453  1.00  0.00     0.115 C 
ATOM     76  N   UNL     1       2.203  -4.071   0.530  1.00  0.00    -0.323 N 
ATOM     77  C   UNL     1       1.746  -3.768  -2.295  1.00  0.00    -0.006 A 
ATOM     78  C   UNL     1       2.110  -5.323  -0.224  1.00  0.00     0.262 C 
ATOM     79  H   UNL     1       1.853  -4.258   1.470  1.00  0.00     0.347 HD
ATOM     80  H   UNL     1       3.186  -3.809   0.464  1.00  0.00     0.347 HD
ATOM     81  C   UNL     1       1.920  -5.026  -1.726  1.00  0.00     0.083 A 
ATOM     82  C   UNL     1       1.833  -3.871  -3.717  1.00  0.00     0.003 A 
ATOM     83  N   UNL     1       1.828  -5.908  -2.791  1.00  0.00    -0.353 N 
ATOM     84  C   UNL     1       1.988  -5.225  -3.997  1.00  0.00     0.046 A 
ATOM     85  C   UNL     1       1.915  -2.944  -4.783  1.00  0.00     0.010 A 
ATOM     86  H   UNL     1       1.672  -6.877  -2.708  1.00  0.00     0.166 HD
ATOM     87  C   UNL     1       2.327  -5.683  -5.286  1.00  0.00     0.026 A 
ATOM     88  C   UNL     1       2.300  -3.380  -6.059  1.00  0.00     0.001 A 
ATOM     89  C   UNL     1       2.527  -4.731  -6.298  1.00  0.00     0.002 A 
BRANCH  78  90
ATOM     90  C   UNL     1       3.350  -6.136   0.247  1.00  0.00     0.016 A 
ATOM     91  C   UNL     1       4.655  -5.592   0.253  1.00  0.00     0.014 A 
ATOM     92  C   UNL     1       3.236  -7.441   0.749  1.00  0.00     0.014 A 
ATOM     93  C   UNL     1       5.795  -6.395   0.441  1.00  0.00     0.047 A 
ATOM     94  C   UNL     1       4.378  -8.221   1.052  1.00  0.00     0.047 A 
ATOM     95  C   UNL     1       5.659  -7.727   0.812  1.00  0.00     0.129 A 
BRANCH  95  96
ATOM     96  O   UNL     1       6.795  -8.480   0.737  1.00  0.00    -0.406 OA
BRANCH  96  97
ATOM     97  C   UNL     1       7.071  -9.361   1.813  1.00  0.00     0.573 C 
ATOM     98  F   UNL     1       7.236  -8.672   2.960  1.00  0.00    -0.132 F 
ATOM     99  F   UNL     1       6.097 -10.280   1.969  1.00  0.00    -0.132 F 
ATOM    100  F   UNL     1       8.222 -10.019   1.544  1.00  0.00    -0.132 F 
ENDBRANCH  96  97
ENDBRANCH  95  96
ENDBRANCH  78  90
ENDBRANCH  72  74
ENDBRANCH  71  72
ENDBRANCH   1  71
TORSDOF 14
