REMARK SMILES CCCCCN(C(=O)N1CCC(CC(=O)OCCOC(=O)c2ccc(-c3c4nc(c(-c5c(F)c(F)c(F)c(F)c5F)c5ccc([nH]5)c(-c5c(F)c(F)c(F)c(F)c5F)c5nc(c(-c6c(F)c(F)c(F)c(F)c6F)c6ccc3[nH]6)C=C5)C=C4)cc2)CC1)C(C)C
REMARK SMILES IDX 14 1 15 2 13 3 12 4 7 5 8 6 9 7 10 8 86 9 11 10 85 11 6 12
REMARK SMILES IDX 5 13 4 14 3 15 2 16 1 17 87 18 88 19 89 20 16 21 17 22 18 23
REMARK SMILES IDX 19 24 20 25 21 26 22 27 23 28 84 29 24 30 83 31 25 32 26 33
REMARK SMILES IDX 27 34 77 35 28 36 82 37 76 38 78 39 29 40 81 41 75 42 74 43
REMARK SMILES IDX 30 45 62 46 42 47 61 48 43 49 46 50 60 51 79 52 44 53 45 54
REMARK SMILES IDX 59 56 80 57 47 58 31 59 32 60 40 61 33 62 34 63 38 64 41 65
REMARK SMILES IDX 35 66 36 67 39 68 37 69 63 70 64 71 72 72 65 73 66 74 70 75
REMARK SMILES IDX 73 76 67 77 68 78 71 79 69 80 48 81 49 82 57 83 50 84 51 85
REMARK SMILES IDX 55 86 58 87 52 88 53 89 56 90 54 91
REMARK H PARENT 78 44 46 55
REMARK Flexibility Score: inf
ROOT
ATOM      1  C   UNL     1      -6.782   7.191   3.949  1.00  0.00     0.306 C 
ATOM      2  O   UNL     1      -7.780   7.716   3.469  1.00  0.00    -0.252 OA
ENDROOT
BRANCH   1   3
ATOM      3  C   UNL     1      -6.404   5.751   3.670  1.00  0.00     0.126 C 
BRANCH   3   4
ATOM      4  C   UNL     1      -4.937   5.501   3.280  1.00  0.00     0.003 C 
ATOM      5  C   UNL     1      -2.022   2.748   4.059  1.00  0.00     0.320 C 
ATOM      6  O   UNL     1      -1.936   2.762   5.290  1.00  0.00    -0.248 OA
ATOM      7  N   UNL     1      -2.528   3.841   3.379  1.00  0.00    -0.325 N 
ATOM      8  C   UNL     1      -2.573   5.121   4.078  1.00  0.00     0.121 C 
ATOM      9  C   UNL     1      -3.383   3.769   2.196  1.00  0.00     0.121 C 
ATOM     10  C   UNL     1      -4.001   5.461   4.500  1.00  0.00     0.026 C 
ATOM     11  C   UNL     1      -4.827   4.169   2.511  1.00  0.00     0.026 C 
BRANCH   5  12
ATOM     12  N   UNL     1      -1.645   1.623   3.328  1.00  0.00    -0.322 N 
BRANCH  12  13
ATOM     13  C   UNL     1      -0.990   1.707   2.005  1.00  0.00     0.121 C 
BRANCH  13  14
ATOM     14  C   UNL     1       0.520   2.003   2.000  1.00  0.00     0.022 C 
BRANCH  14  15
ATOM     15  C   UNL     1       1.511   0.831   1.968  1.00  0.00     0.002 C 
BRANCH  15  16
ATOM     16  C   UNL     1       1.174  -0.342   1.046  1.00  0.00    -0.003 C 
ATOM     17  C   UNL     1       1.267   0.004  -0.431  1.00  0.00     0.004 C 
ENDBRANCH  15  16
ENDBRANCH  14  15
ENDBRANCH  13  14
ENDBRANCH  12  13
BRANCH  12  18
ATOM     18  C   UNL     1      -1.679   0.344   4.072  1.00  0.00     0.080 C 
ATOM     19  C   UNL     1      -2.300  -0.804   3.278  1.00  0.00     0.031 C 
ATOM     20  C   UNL     1      -0.340  -0.057   4.684  1.00  0.00     0.031 C 
ENDBRANCH  12  18
ENDBRANCH   5  12
ENDBRANCH   3   4
ENDBRANCH   1   3
BRANCH   1  21
ATOM     21  O   UNL     1      -5.936   7.788   4.822  1.00  0.00    -0.462 OA
BRANCH  21  22
ATOM     22  C   UNL     1      -6.233   9.148   5.192  1.00  0.00     0.274 C 
BRANCH  22  23
ATOM     23  C   UNL     1      -5.423  10.148   4.364  1.00  0.00     0.275 C 
BRANCH  23  24
ATOM     24  O   UNL     1      -5.904  10.217   3.010  1.00  0.00    -0.458 OA
BRANCH  24  25
ATOM     25  C   UNL     1      -5.246   9.438   2.121  1.00  0.00     0.338 C 
ATOM     26  O   UNL     1      -4.265   8.744   2.324  1.00  0.00    -0.246 OA
BRANCH  25  27
ATOM     27  C   UNL     1      -5.968   9.445   0.840  1.00  0.00     0.060 A 
ATOM     28  C   UNL     1      -6.507   8.242   0.374  1.00  0.00     0.016 A 
ATOM     29  C   UNL     1      -6.055  10.609   0.074  1.00  0.00     0.016 A 
ATOM     30  C   UNL     1      -7.136   8.197  -0.869  1.00  0.00     0.010 A 
ATOM     31  C   UNL     1      -6.688  10.563  -1.171  1.00  0.00     0.010 A 
ATOM     32  C   UNL     1      -7.221   9.355  -1.655  1.00  0.00    -0.014 A 
BRANCH  32  33
ATOM     33  C   UNL     1      -7.834   9.293  -3.004  1.00  0.00     0.031 A 
ATOM     34  C   UNL     1      -6.960   9.325  -4.224  1.00  0.00     0.074 A 
ATOM     35  C   UNL     1      -9.170   9.209  -3.131  1.00  0.00     0.049 A 
ATOM     36  N   UNL     1      -7.300   9.357  -5.487  1.00  0.00    -0.248 NA
ATOM     37  C   UNL     1      -5.508   9.321  -3.990  1.00  0.00     0.031 C 
ATOM     38  C   UNL     1     -10.120   9.140  -2.021  1.00  0.00     0.029 A 
ATOM     39  N   UNL     1      -9.960   9.175  -4.253  1.00  0.00    -0.354 N 
ATOM     40  C   UNL     1      -6.109   9.393  -6.199  1.00  0.00     0.074 A 
ATOM     41  C   UNL     1      -5.036   9.398  -5.226  1.00  0.00     0.031 C 
ATOM     42  C   UNL     1     -11.366   9.076  -2.517  1.00  0.00     0.029 A 
ATOM     43  C   UNL     1     -11.304   9.141  -3.975  1.00  0.00     0.049 A 
ATOM     44  H   UNL     1      -9.598   9.176  -5.168  1.00  0.00     0.167 HD
ATOM     45  C   UNL     1      -5.929   9.415  -7.541  1.00  0.00     0.037 A 
ATOM     46  C   UNL     1     -12.365   9.184  -4.804  1.00  0.00     0.037 A 
ATOM     47  C   UNL     1      -6.998   9.400  -8.505  1.00  0.00     0.049 A 
ATOM     48  C   UNL     1     -12.137   9.264  -6.290  1.00  0.00     0.074 A 
ATOM     49  C   UNL     1      -6.916   9.399  -9.887  1.00  0.00     0.029 A 
ATOM     50  N   UNL     1      -8.348   9.388  -8.186  1.00  0.00    -0.354 N 
ATOM     51  N   UNL     1     -11.008   9.284  -6.954  1.00  0.00    -0.248 NA
ATOM     52  C   UNL     1     -13.335   9.329  -7.140  1.00  0.00     0.031 C 
ATOM     53  C   UNL     1      -8.216   9.429 -10.404  1.00  0.00     0.029 A 
ATOM     54  C   UNL     1      -9.109   9.402  -9.345  1.00  0.00     0.049 A 
ATOM     55  H   UNL     1      -8.713   9.373  -7.272  1.00  0.00     0.167 HD
ATOM     56  C   UNL     1     -11.356   9.342  -8.297  1.00  0.00     0.074 A 
ATOM     57  C   UNL     1     -12.803   9.339  -8.354  1.00  0.00     0.031 C 
ATOM     58  C   UNL     1     -10.549   9.394  -9.385  1.00  0.00     0.037 A 
BRANCH  45  59
ATOM     59  C   UNL     1      -4.519   9.481  -8.050  1.00  0.00     0.064 A 
ATOM     60  C   UNL     1      -3.660   8.374  -7.984  1.00  0.00     0.173 A 
ATOM     61  C   UNL     1      -4.035  10.655  -8.645  1.00  0.00     0.173 A 
ATOM     62  F   UNL     1      -4.072   7.233  -7.412  1.00  0.00    -0.203 F 
ATOM     63  C   UNL     1      -2.359   8.449  -8.475  1.00  0.00     0.198 A 
ATOM     64  C   UNL     1      -2.742  10.718  -9.158  1.00  0.00     0.198 A 
ATOM     65  F   UNL     1      -4.819  11.740  -8.736  1.00  0.00    -0.203 F 
ATOM     66  F   UNL     1      -1.541   7.393  -8.365  1.00  0.00    -0.200 F 
ATOM     67  C   UNL     1      -1.904   9.618  -9.067  1.00  0.00     0.200 A 
ATOM     68  F   UNL     1      -2.307  11.845  -9.739  1.00  0.00    -0.200 F 
ATOM     69  F   UNL     1      -0.653   9.686  -9.545  1.00  0.00    -0.200 F 
ENDBRANCH  45  59
BRANCH  46  70
ATOM     70  C   UNL     1     -13.740   9.167  -4.245  1.00  0.00     0.064 A 
ATOM     71  C   UNL     1     -14.576   8.056  -4.418  1.00  0.00     0.173 A 
ATOM     72  C   UNL     1     -14.249  10.264  -3.533  1.00  0.00     0.173 A 
ATOM     73  F   UNL     1     -14.143   6.995  -5.115  1.00  0.00    -0.203 F 
ATOM     74  C   UNL     1     -15.874   8.047  -3.910  1.00  0.00     0.198 A 
ATOM     75  C   UNL     1     -15.537  10.243  -3.003  1.00  0.00     0.198 A 
ATOM     76  F   UNL     1     -13.489  11.353  -3.344  1.00  0.00    -0.203 F 
ATOM     77  F   UNL     1     -16.667   6.989  -4.126  1.00  0.00    -0.200 F 
ATOM     78  C   UNL     1     -16.351   9.137  -3.198  1.00  0.00     0.200 A 
ATOM     79  F   UNL     1     -15.990  11.294  -2.307  1.00  0.00    -0.200 F 
ATOM     80  F   UNL     1     -17.597   9.126  -2.707  1.00  0.00    -0.200 F 
ENDBRANCH  46  70
BRANCH  58  81
ATOM     81  C   UNL     1     -11.211   9.420 -10.731  1.00  0.00     0.064 A 
ATOM     82  C   UNL     1     -11.863  10.567 -11.207  1.00  0.00     0.173 A 
ATOM     83  C   UNL     1     -11.161   8.295 -11.569  1.00  0.00     0.173 A 
ATOM     84  F   UNL     1     -11.951  11.661 -10.436  1.00  0.00    -0.203 F 
ATOM     85  C   UNL     1     -12.459  10.579 -12.465  1.00  0.00     0.198 A 
ATOM     86  C   UNL     1     -11.735   8.321 -12.836  1.00  0.00     0.198 A 
ATOM     87  F   UNL     1     -10.544   7.176 -11.162  1.00  0.00    -0.203 F 
ATOM     88  F   UNL     1     -13.113  11.672 -12.883  1.00  0.00    -0.200 F 
ATOM     89  C   UNL     1     -12.389   9.460 -13.281  1.00  0.00     0.200 A 
ATOM     90  F   UNL     1     -11.657   7.242 -13.628  1.00  0.00    -0.200 F 
ATOM     91  F   UNL     1     -12.959   9.476 -14.494  1.00  0.00    -0.200 F 
ENDBRANCH  58  81
ENDBRANCH  32  33
ENDBRANCH  25  27
ENDBRANCH  24  25
ENDBRANCH  23  24
ENDBRANCH  22  23
ENDBRANCH  21  22
ENDBRANCH   1  21
TORSDOF 18
