REMARK SMILES COc1ccc2[nH]c(C(=O)c3cc(C)ccn3)c(CC(=O)OCCOC(=O)c3ccc(-c4c5nc(c(-c6c(F)c(F)c(F)c(F)c6F)c6ccc([nH]6)c(-c6c(F)c(F)c(F)c(F)c6F)c6nc(c(-c7c(F)c(F)c(F)c(F)c7F)c7ccc4[nH]7)C=C6)C=C5)cc3)c2c1
REMARK SMILES IDX 23 1 22 2 20 3 21 4 19 5 18 6 3 7 4 8 92 9 5 10 91 11 6 12
REMARK SMILES IDX 7 13 8 14 2 16 1 17 9 18 10 19 11 20 12 21 17 22 13 23 16 24
REMARK SMILES IDX 14 25 15 26 24 27 25 28 26 29 27 30 28 31 29 32 90 33 30 34
REMARK SMILES IDX 89 35 31 36 32 37 33 38 83 39 34 40 88 41 82 42 84 43 35 44
REMARK SMILES IDX 87 45 81 46 80 47 36 49 68 50 48 51 67 52 49 53 52 54 66 55
REMARK SMILES IDX 85 56 50 57 51 58 65 60 86 61 53 62 37 63 38 64 46 65 39 66
REMARK SMILES IDX 40 67 44 68 47 69 41 70 42 71 45 72 43 73 69 74 70 75 78 76
REMARK SMILES IDX 71 77 72 78 76 79 79 80 73 81 74 82 77 83 75 84 54 85 55 86
REMARK SMILES IDX 63 87 56 88 57 89 61 90 64 91 58 92 59 93 62 94 60 95
REMARK H PARENT 7 15 84 48 52 59
REMARK Flexibility Score: inf
ROOT
ATOM      1  C   UNL     1      -3.213  -6.844   0.222  1.00  0.00     0.274 C 
ENDROOT
BRANCH   1   2
ATOM      2  O   UNL     1      -2.217  -6.188   1.034  1.00  0.00    -0.462 OA
BRANCH   2   3
ATOM      3  C   UNL     1      -2.692  -5.526   2.124  1.00  0.00     0.310 C 
ATOM      4  O   UNL     1      -3.886  -5.423   2.400  1.00  0.00    -0.252 OA
BRANCH   3   5
ATOM      5  C   UNL     1      -1.630  -4.943   3.032  1.00  0.00     0.161 C 
BRANCH   5   6
ATOM      6  C   UNL     1      -0.215  -4.996   2.538  1.00  0.00     0.000 A 
ATOM      7  C   UNL     1       1.005  -1.732   0.979  1.00  0.00     0.119 A 
ATOM      8  C   UNL     1       2.312  -2.157   0.750  1.00  0.00     0.048 A 
ATOM      9  C   UNL     1       0.065  -2.608   1.527  1.00  0.00     0.057 A 
ATOM     10  C   UNL     1       2.705  -3.472   1.039  1.00  0.00     0.030 A 
ATOM     11  C   UNL     1       0.447  -3.920   1.867  1.00  0.00     0.008 A 
ATOM     12  C   UNL     1       1.751  -4.323   1.608  1.00  0.00     0.046 A 
ATOM     13  N   UNL     1       1.858  -5.624   2.039  1.00  0.00    -0.352 N 
ATOM     14  C   UNL     1       0.751  -5.973   2.785  1.00  0.00     0.093 A 
ATOM     15  H   UNL     1       2.615  -6.222   1.843  1.00  0.00     0.167 HD
BRANCH   7  16
ATOM     16  O   UNL     1       0.550  -0.455   0.784  1.00  0.00    -0.497 OA
ATOM     17  C   UNL     1       1.107   0.217  -0.338  1.00  0.00     0.278 C 
ENDBRANCH   7  16
BRANCH  14  18
ATOM     18  C   UNL     1       0.701  -7.094   3.711  1.00  0.00     0.227 C 
ATOM     19  O   UNL     1      -0.076  -7.150   4.660  1.00  0.00    -0.285 OA
BRANCH  18  20
ATOM     20  C   UNL     1       1.722  -8.163   3.611  1.00  0.00     0.113 A 
ATOM     21  C   UNL     1       2.799  -8.157   4.491  1.00  0.00     0.036 A 
ATOM     22  N   UNL     1       1.509  -9.114   2.674  1.00  0.00    -0.253 NA
ATOM     23  C   UNL     1       3.722  -9.201   4.409  1.00  0.00    -0.047 A 
ATOM     24  C   UNL     1       2.378 -10.144   2.659  1.00  0.00     0.112 A 
ATOM     25  C   UNL     1       4.928  -9.245   5.298  1.00  0.00     0.044 C 
ATOM     26  C   UNL     1       3.486 -10.228   3.490  1.00  0.00     0.023 A 
ENDBRANCH  18  20
ENDBRANCH  14  18
ENDBRANCH   5   6
ENDBRANCH   3   5
ENDBRANCH   2   3
ENDBRANCH   1   2
BRANCH   1  27
ATOM     27  C   UNL     1      -3.261  -8.338   0.530  1.00  0.00     0.275 C 
BRANCH  27  28
ATOM     28  O   UNL     1      -3.385  -8.534   1.948  1.00  0.00    -0.458 OA
BRANCH  28  29
ATOM     29  C   UNL     1      -2.463  -9.349   2.505  1.00  0.00     0.338 C 
ATOM     30  O   UNL     1      -1.633 -10.031   1.911  1.00  0.00    -0.246 OA
BRANCH  29  31
ATOM     31  C   UNL     1      -2.611  -9.370   3.973  1.00  0.00     0.060 A 
ATOM     32  C   UNL     1      -2.887  -8.209   4.698  1.00  0.00     0.016 A 
ATOM     33  C   UNL     1      -2.376 -10.569   4.647  1.00  0.00     0.016 A 
ATOM     34  C   UNL     1      -2.833  -8.228   6.092  1.00  0.00     0.010 A 
ATOM     35  C   UNL     1      -2.422 -10.606   6.043  1.00  0.00     0.010 A 
ATOM     36  C   UNL     1      -2.617  -9.429   6.783  1.00  0.00    -0.014 A 
BRANCH  36  37
ATOM     37  C   UNL     1      -2.591  -9.464   8.271  1.00  0.00     0.031 A 
ATOM     38  C   UNL     1      -1.368  -9.945   9.005  1.00  0.00     0.074 A 
ATOM     39  C   UNL     1      -3.678  -9.086   8.971  1.00  0.00     0.049 A 
ATOM     40  N   UNL     1      -1.222 -10.224  10.277  1.00  0.00    -0.248 NA
ATOM     41  C   UNL     1      -0.153 -10.156   8.203  1.00  0.00     0.031 C 
ATOM     42  C   UNL     1      -4.922  -8.577   8.393  1.00  0.00     0.029 A 
ATOM     43  N   UNL     1      -3.912  -9.074  10.324  1.00  0.00    -0.354 N 
ATOM     44  C   UNL     1       0.077 -10.694  10.418  1.00  0.00     0.074 A 
ATOM     45  C   UNL     1       0.681 -10.662   9.102  1.00  0.00     0.031 C 
ATOM     46  C   UNL     1      -5.774  -8.270   9.383  1.00  0.00     0.029 A 
ATOM     47  C   UNL     1      -5.168  -8.633  10.659  1.00  0.00     0.049 A 
ATOM     48  H   UNL     1      -3.243  -9.355  10.990  1.00  0.00     0.167 HD
ATOM     49  C   UNL     1       0.706 -11.112  11.543  1.00  0.00     0.037 A 
ATOM     50  C   UNL     1      -5.782  -8.561  11.854  1.00  0.00     0.037 A 
ATOM     51  C   UNL     1       0.127 -11.085  12.863  1.00  0.00     0.049 A 
ATOM     52  C   UNL     1      -5.065  -9.032  13.084  1.00  0.00     0.074 A 
ATOM     53  C   UNL     1       0.701 -11.459  14.066  1.00  0.00     0.029 A 
ATOM     54  N   UNL     1      -1.154 -10.642  13.154  1.00  0.00    -0.354 N 
ATOM     55  N   UNL     1      -3.855  -9.520  13.198  1.00  0.00    -0.248 NA
ATOM     56  C   UNL     1      -5.807  -8.960  14.350  1.00  0.00     0.031 C 
ATOM     57  C   UNL     1      -0.241 -11.267  15.083  1.00  0.00     0.029 A 
ATOM     58  C   UNL     1      -1.391 -10.742  14.517  1.00  0.00     0.049 A 
ATOM     59  H   UNL     1      -1.800 -10.306  12.492  1.00  0.00     0.167 HD
ATOM     60  C   UNL     1      -3.688  -9.812  14.543  1.00  0.00     0.074 A 
ATOM     61  C   UNL     1      -4.913  -9.425  15.212  1.00  0.00     0.031 C 
ATOM     62  C   UNL     1      -2.617 -10.361  15.166  1.00  0.00     0.037 A 
BRANCH  49  63
ATOM     63  C   UNL     1       2.094 -11.662  11.403  1.00  0.00     0.064 A 
ATOM     64  C   UNL     1       3.202 -10.829  11.194  1.00  0.00     0.173 A 
ATOM     65  C   UNL     1       2.323 -13.040  11.542  1.00  0.00     0.173 A 
ATOM     66  F   UNL     1       3.035  -9.507  11.043  1.00  0.00    -0.203 F 
ATOM     67  C   UNL     1       4.488 -11.358  11.112  1.00  0.00     0.198 A 
ATOM     68  C   UNL     1       3.612 -13.562  11.483  1.00  0.00     0.198 A 
ATOM     69  F   UNL     1       1.297 -13.878  11.751  1.00  0.00    -0.203 F 
ATOM     70  F   UNL     1       5.530 -10.549  10.877  1.00  0.00    -0.200 F 
ATOM     71  C   UNL     1       4.693 -12.722  11.264  1.00  0.00     0.200 A 
ATOM     72  F   UNL     1       3.809 -14.879  11.639  1.00  0.00    -0.200 F 
ATOM     73  F   UNL     1       5.933 -13.226  11.194  1.00  0.00    -0.200 F 
ENDBRANCH  49  63
BRANCH  50  74
ATOM     74  C   UNL     1      -7.171  -8.044  11.930  1.00  0.00     0.064 A 
ATOM     75  C   UNL     1      -7.438  -6.786  12.486  1.00  0.00     0.173 A 
ATOM     76  C   UNL     1      -8.251  -8.783  11.426  1.00  0.00     0.173 A 
ATOM     77  F   UNL     1      -6.439  -6.057  13.004  1.00  0.00    -0.203 F 
ATOM     78  C   UNL     1      -8.737  -6.287  12.537  1.00  0.00     0.198 A 
ATOM     79  C   UNL     1      -9.546  -8.271  11.455  1.00  0.00     0.198 A 
ATOM     80  F   UNL     1      -8.044  -9.992  10.886  1.00  0.00    -0.203 F 
ATOM     81  F   UNL     1      -8.972  -5.095  13.102  1.00  0.00    -0.200 F 
ATOM     82  C   UNL     1      -9.788  -7.026  12.014  1.00  0.00     0.200 A 
ATOM     83  F   UNL     1     -10.557  -8.983  10.939  1.00  0.00    -0.200 F 
ATOM     84  F   UNL     1     -11.036  -6.540  12.054  1.00  0.00    -0.200 F 
ENDBRANCH  50  74
BRANCH  62  85
ATOM     85  C   UNL     1      -2.725 -10.563  16.647  1.00  0.00     0.064 A 
ATOM     86  C   UNL     1      -3.489 -11.608  17.186  1.00  0.00     0.173 A 
ATOM     87  C   UNL     1      -2.047  -9.714  17.533  1.00  0.00     0.173 A 
ATOM     88  F   UNL     1      -4.169 -12.433  16.376  1.00  0.00    -0.203 F 
ATOM     89  C   UNL     1      -3.588 -11.783  18.563  1.00  0.00     0.198 A 
ATOM     90  C   UNL     1      -2.132  -9.904  18.910  1.00  0.00     0.198 A 
ATOM     91  F   UNL     1      -1.302  -8.702  17.065  1.00  0.00    -0.203 F 
ATOM     92  F   UNL     1      -4.357 -12.762  19.059  1.00  0.00    -0.200 F 
ATOM     93  C   UNL     1      -2.907 -10.934  19.423  1.00  0.00     0.200 A 
ATOM     94  F   UNL     1      -1.469  -9.088  19.740  1.00  0.00    -0.200 F 
ATOM     95  F   UNL     1      -3.005 -11.102  20.749  1.00  0.00    -0.200 F 
ENDBRANCH  62  85
ENDBRANCH  36  37
ENDBRANCH  29  31
ENDBRANCH  28  29
ENDBRANCH  27  28
ENDBRANCH   1  27
TORSDOF 15
