REMARK SMILES O=C(OCCOC(=O)[C@@H]1[C@H](C(=O)Nc2ccc(Cn3cncn3)cc2)[C@@H]2C=C[C@H]1CC2)c1ccc(-c2c3nc(c(-c4c(F)c(F)c(F)c(F)c4F)c4ccc([nH]4)c(-c4c(F)c(F)c(F)c(F)c4F)c4nc(c(-c5c(F)c(F)c(F)c(F)c5F)c5ccc2[nH]5)C=C4)C=C3)cc1
REMARK SMILES IDX 5 1 4 2 3 3 2 4 1 5 32 6 33 7 94 8 34 9 93 10 35 11 36 12
REMARK SMILES IDX 37 13 87 14 38 15 92 16 86 17 88 18 39 19 91 20 85 21 84 22
REMARK SMILES IDX 40 24 72 25 52 26 71 27 53 28 56 29 70 30 89 31 54 32 55 33
REMARK SMILES IDX 69 35 90 36 57 37 41 38 42 39 50 40 43 41 44 42 48 43 51 44
REMARK SMILES IDX 45 45 46 46 49 47 47 48 73 49 74 50 82 51 75 52 76 53 80 54
REMARK SMILES IDX 83 55 77 56 78 57 81 58 79 59 58 60 59 61 67 62 60 63 61 64
REMARK SMILES IDX 65 65 68 66 62 67 63 68 66 69 64 70 6 71 7 72 8 73 9 74
REMARK SMILES IDX 10 75 29 76 26 77 28 78 30 79 27 80 31 81 11 82 12 83 13 84
REMARK SMILES IDX 14 86 15 87 25 88 16 89 24 90 17 91 18 92 19 93 20 94 23 95
REMARK SMILES IDX 21 96 22 97
REMARK H PARENT 88 23 56 34 13 85
REMARK Flexibility Score: inf
ROOT
ATOM      1  C   UNL     1       4.490  -1.866  -1.763  1.00  0.00     0.274 C 
ENDROOT
BRANCH   1   2
ATOM      2  C   UNL     1       3.559  -1.455  -0.601  1.00  0.00     0.275 C 
BRANCH   2   3
ATOM      3  O   UNL     1       2.520  -0.348  -0.905  1.00  0.00    -0.458 OA
BRANCH   3   4
ATOM      4  C   UNL     1       1.293   0.097  -0.437  1.00  0.00     0.338 C 
ATOM      5  O   UNL     1       0.232  -0.463  -0.690  1.00  0.00    -0.246 OA
BRANCH   4   6
ATOM      6  C   UNL     1       1.185   1.542   0.154  1.00  0.00     0.060 A 
ATOM      7  C   UNL     1       2.229   2.445   0.252  1.00  0.00     0.016 A 
ATOM      8  C   UNL     1      -0.020   2.125   0.538  1.00  0.00     0.016 A 
ATOM      9  C   UNL     1       2.252   3.706   0.821  1.00  0.00     0.010 A 
ATOM     10  C   UNL     1      -0.086   3.449   1.078  1.00  0.00     0.010 A 
ATOM     11  C   UNL     1       1.069   4.222   1.250  1.00  0.00    -0.014 A 
BRANCH  11  12
ATOM     12  C   UNL     1       1.187   5.614   1.672  1.00  0.00     0.031 A 
ATOM     13  C   UNL     1       1.798   6.534   0.647  1.00  0.00     0.074 A 
ATOM     14  C   UNL     1       0.794   6.004   2.891  1.00  0.00     0.049 A 
ATOM     15  N   UNL     1       2.888   7.239   0.716  1.00  0.00    -0.248 NA
ATOM     16  C   UNL     1       1.224   6.476  -0.707  1.00  0.00     0.031 C 
ATOM     17  C   UNL     1       0.111   5.209   3.900  1.00  0.00     0.029 A 
ATOM     18  N   UNL     1       0.787   7.254   3.418  1.00  0.00    -0.354 N 
ATOM     19  C   UNL     1       3.025   7.843  -0.540  1.00  0.00     0.074 A 
ATOM     20  C   UNL     1       2.133   7.141  -1.418  1.00  0.00     0.031 C 
ATOM     21  C   UNL     1      -0.504   6.029   4.773  1.00  0.00     0.029 A 
ATOM     22  C   UNL     1      -0.147   7.391   4.438  1.00  0.00     0.049 A 
ATOM     23  H   UNL     1       1.376   7.981   3.113  1.00  0.00     0.167 HD
ATOM     24  C   UNL     1       3.627   9.054  -0.714  1.00  0.00     0.037 A 
ATOM     25  C   UNL     1      -0.714   8.569   4.783  1.00  0.00     0.037 A 
ATOM     26  C   UNL     1       4.503   9.366   0.381  1.00  0.00     0.049 A 
ATOM     27  C   UNL     1       0.212   9.643   4.324  1.00  0.00     0.074 A 
ATOM     28  C   UNL     1       5.674   8.839   0.885  1.00  0.00     0.029 A 
ATOM     29  N   UNL     1       4.028  10.209   1.353  1.00  0.00    -0.354 N 
ATOM     30  N   UNL     1       1.410   9.804   4.823  1.00  0.00    -0.248 NA
ATOM     31  C   UNL     1       0.016  10.190   2.986  1.00  0.00     0.031 C 
ATOM     32  C   UNL     1       5.566   8.994   2.299  1.00  0.00     0.029 A 
ATOM     33  C   UNL     1       4.370   9.663   2.560  1.00  0.00     0.049 A 
ATOM     34  H   UNL     1       3.535  11.049   1.210  1.00  0.00     0.167 HD
ATOM     35  C   UNL     1       2.217  10.091   3.730  1.00  0.00     0.074 A 
ATOM     36  C   UNL     1       1.293  10.377   2.635  1.00  0.00     0.031 C 
ATOM     37  C   UNL     1       3.548   9.786   3.737  1.00  0.00     0.037 A 
BRANCH  24  38
ATOM     38  C   UNL     1       3.092  10.136  -1.643  1.00  0.00     0.064 A 
ATOM     39  C   UNL     1       3.795  11.355  -1.751  1.00  0.00     0.173 A 
ATOM     40  C   UNL     1       1.780  10.158  -2.168  1.00  0.00     0.173 A 
ATOM     41  F   UNL     1       5.050  11.467  -1.290  1.00  0.00    -0.203 F 
ATOM     42  C   UNL     1       3.190  12.520  -2.239  1.00  0.00     0.198 A 
ATOM     43  C   UNL     1       1.199  11.306  -2.701  1.00  0.00     0.198 A 
ATOM     44  F   UNL     1       0.950   9.113  -2.094  1.00  0.00    -0.203 F 
ATOM     45  F   UNL     1       3.850  13.684  -2.187  1.00  0.00    -0.200 F 
ATOM     46  C   UNL     1       1.888  12.496  -2.700  1.00  0.00     0.200 A 
ATOM     47  F   UNL     1      -0.070  11.258  -3.129  1.00  0.00    -0.200 F 
ATOM     48  F   UNL     1       1.280  13.621  -3.097  1.00  0.00    -0.200 F 
ENDBRANCH  24  38
BRANCH  25  49
ATOM     49  C   UNL     1      -2.157   8.765   5.049  1.00  0.00     0.064 A 
ATOM     50  C   UNL     1      -2.614   9.900   5.727  1.00  0.00     0.173 A 
ATOM     51  C   UNL     1      -3.143   7.945   4.456  1.00  0.00     0.173 A 
ATOM     52  F   UNL     1      -1.736  10.755   6.270  1.00  0.00    -0.203 F 
ATOM     53  C   UNL     1      -3.978  10.199   5.811  1.00  0.00     0.198 A 
ATOM     54  C   UNL     1      -4.502   8.236   4.552  1.00  0.00     0.198 A 
ATOM     55  F   UNL     1      -2.807   6.889   3.701  1.00  0.00    -0.203 F 
ATOM     56  F   UNL     1      -4.378  11.318   6.429  1.00  0.00    -0.200 F 
ATOM     57  C   UNL     1      -4.920   9.368   5.221  1.00  0.00     0.200 A 
ATOM     58  F   UNL     1      -5.396   7.439   3.948  1.00  0.00    -0.200 F 
ATOM     59  F   UNL     1      -6.222   9.679   5.265  1.00  0.00    -0.200 F 
ENDBRANCH  25  49
BRANCH  37  60
ATOM     60  C   UNL     1       4.153   9.312   5.025  1.00  0.00     0.064 A 
ATOM     61  C   UNL     1       3.811   8.096   5.641  1.00  0.00     0.173 A 
ATOM     62  C   UNL     1       5.233  10.026   5.557  1.00  0.00     0.173 A 
ATOM     63  F   UNL     1       2.870   7.301   5.116  1.00  0.00    -0.203 F 
ATOM     64  C   UNL     1       4.491   7.642   6.769  1.00  0.00     0.198 A 
ATOM     65  C   UNL     1       5.934   9.552   6.662  1.00  0.00     0.198 A 
ATOM     66  F   UNL     1       5.647  11.156   4.964  1.00  0.00    -0.203 F 
ATOM     67  F   UNL     1       4.142   6.478   7.340  1.00  0.00    -0.200 F 
ATOM     68  C   UNL     1       5.556   8.367   7.274  1.00  0.00     0.200 A 
ATOM     69  F   UNL     1       7.002  10.226   7.109  1.00  0.00    -0.200 F 
ATOM     70  F   UNL     1       6.242   7.908   8.331  1.00  0.00    -0.200 F 
ENDBRANCH  37  60
ENDBRANCH  11  12
ENDBRANCH   4   6
ENDBRANCH   3   4
ENDBRANCH   2   3
ENDBRANCH   1   2
BRANCH   1  71
ATOM     71  O   UNL     1       4.607  -0.790  -2.664  1.00  0.00    -0.462 OA
BRANCH  71  72
ATOM     72  C   UNL     1       3.386  -0.571  -3.228  1.00  0.00     0.310 C 
ATOM     73  O   UNL     1       2.611  -1.418  -3.570  1.00  0.00    -0.252 OA
BRANCH  72  74
ATOM     74  C   UNL     1       3.201   0.908  -3.319  1.00  0.00     0.119 C 
ATOM     75  C   UNL     1       3.862   1.873  -2.248  1.00  0.00     0.100 C 
ATOM     76  C   UNL     1       1.746   1.329  -3.744  1.00  0.00     0.026 C 
ATOM     77  C   UNL     1       3.070   3.275  -2.579  1.00  0.00     0.025 C 
ATOM     78  C   UNL     1       0.954   2.118  -2.734  1.00  0.00    -0.027 C 
ATOM     79  C   UNL     1       1.959   2.434  -4.802  1.00  0.00     0.009 C 
ATOM     80  C   UNL     1       1.597   3.190  -2.253  1.00  0.00    -0.027 C 
ATOM     81  C   UNL     1       2.912   3.511  -4.152  1.00  0.00     0.009 C 
BRANCH  75  82
ATOM     82  C   UNL     1       4.883   1.414  -0.795  1.00  0.00     0.228 C 
ATOM     83  O   UNL     1       6.107   1.395  -1.081  1.00  0.00    -0.274 OA
ATOM     84  N   UNL     1       4.748   1.196   0.640  1.00  0.00    -0.326 N 
ATOM     85  H   UNL     1       5.651   1.258   1.025  1.00  0.00     0.169 HD
BRANCH  84  86
ATOM     86  C   UNL     1       3.800   0.916   1.785  1.00  0.00     0.041 A 
ATOM     87  C   UNL     1       3.610   1.868   2.799  1.00  0.00     0.026 A 
ATOM     88  C   UNL     1       2.988  -0.215   1.988  1.00  0.00     0.026 A 
ATOM     89  C   UNL     1       2.390   1.905   3.561  1.00  0.00     0.008 A 
ATOM     90  C   UNL     1       1.772  -0.202   2.715  1.00  0.00     0.008 A 
ATOM     91  C   UNL     1       1.384   0.939   3.390  1.00  0.00    -0.026 A 
BRANCH  91  92
ATOM     92  C   UNL     1      -0.090   1.194   3.655  1.00  0.00     0.181 C 
BRANCH  92  93
ATOM     93  N   UNL     1      -0.759   0.211   4.480  1.00  0.00    -0.249 N 
ATOM     94  C   UNL     1      -0.789   0.173   5.835  1.00  0.00     0.220 A 
ATOM     95  N   UNL     1      -1.632  -0.669   3.948  1.00  0.00    -0.160 NA
ATOM     96  N   UNL     1      -1.602  -0.781   6.225  1.00  0.00    -0.224 NA
ATOM     97  C   UNL     1      -2.090  -1.274   5.047  1.00  0.00     0.246 A 
ENDBRANCH  92  93
ENDBRANCH  91  92
ENDBRANCH  84  86
ENDBRANCH  75  82
ENDBRANCH  72  74
ENDBRANCH  71  72
ENDBRANCH   1  71
TORSDOF 15
