REMARK SMILES O=C(OCCOC(=O)c1cc(F)c(O[C@H]2CCCCNC2=O)c(F)c1)c1ccc(-c2c3nc(c(-c4c(F)c(F)c(F)c(F)c4F)c4ccc([nH]4)c(-c4c(F)c(F)c(F)c(F)c4F)c4nc(c(-c5c(F)c(F)c(F)c(F)c5F)c5ccc2[nH]5)C=C4)C=C3)cc1
REMARK SMILES IDX 6 1 5 2 4 3 3 4 2 5 1 6 26 7 27 8 88 9 28 10 87 11 29 12
REMARK SMILES IDX 30 13 31 14 81 15 32 16 86 17 80 18 82 19 33 20 85 21 79 22
REMARK SMILES IDX 78 23 34 25 66 26 46 27 65 28 47 29 50 30 64 31 83 32 48 33
REMARK SMILES IDX 49 34 63 36 84 37 51 38 35 39 36 40 44 41 37 42 38 43 42 44
REMARK SMILES IDX 45 45 39 46 40 47 43 48 41 49 67 50 68 51 76 52 69 53 70 54
REMARK SMILES IDX 74 55 77 56 71 57 72 58 75 59 73 60 52 61 53 62 61 63 54 64
REMARK SMILES IDX 55 65 59 66 62 67 56 68 57 69 60 70 58 71 7 72 8 73 9 74
REMARK SMILES IDX 10 75 25 76 11 77 23 78 12 79 13 80 24 81 14 82 15 83 16 84
REMARK SMILES IDX 17 85 18 86 21 88 20 89 22 90 19 92
REMARK H PARENT 82 24 50 35 20 91
REMARK Flexibility Score: 90.00
ROOT
ATOM      1  O   UNL     1       3.368   0.543  -2.135  1.00  0.00    -0.458 OA
ENDROOT
BRANCH   1   2
ATOM      2  C   UNL     1       3.772  -0.833  -2.198  1.00  0.00     0.275 C 
BRANCH   2   3
ATOM      3  C   UNL     1       3.965  -1.479  -0.824  1.00  0.00     0.275 C 
BRANCH   3   4
ATOM      4  O   UNL     1       2.941  -1.177   0.142  1.00  0.00    -0.458 OA
BRANCH   4   5
ATOM      5  C   UNL     1       2.885  -0.180   1.056  1.00  0.00     0.338 C 
ATOM      6  O   UNL     1       2.070  -0.247   1.974  1.00  0.00    -0.246 OA
BRANCH   5   7
ATOM      7  C   UNL     1       3.656   1.090   0.916  1.00  0.00     0.060 A 
ATOM      8  C   UNL     1       4.977   1.192   0.476  1.00  0.00     0.016 A 
ATOM      9  C   UNL     1       2.993   2.268   1.304  1.00  0.00     0.016 A 
ATOM     10  C   UNL     1       5.590   2.439   0.334  1.00  0.00     0.010 A 
ATOM     11  C   UNL     1       3.599   3.520   1.159  1.00  0.00     0.010 A 
ATOM     12  C   UNL     1       4.905   3.610   0.666  1.00  0.00    -0.014 A 
BRANCH  12  13
ATOM     13  C   UNL     1       5.617   4.907   0.652  1.00  0.00     0.031 A 
ATOM     14  C   UNL     1       6.073   5.472   1.963  1.00  0.00     0.074 A 
ATOM     15  C   UNL     1       5.918   5.515  -0.512  1.00  0.00     0.049 A 
ATOM     16  N   UNL     1       6.705   6.588   2.207  1.00  0.00    -0.248 NA
ATOM     17  C   UNL     1       5.829   4.644   3.159  1.00  0.00     0.031 C 
ATOM     18  C   UNL     1       5.655   4.960  -1.837  1.00  0.00     0.029 A 
ATOM     19  N   UNL     1       6.495   6.732  -0.776  1.00  0.00    -0.354 N 
ATOM     20  C   UNL     1       7.000   6.556   3.563  1.00  0.00     0.074 A 
ATOM     21  C   UNL     1       6.395   5.366   4.113  1.00  0.00     0.031 C 
ATOM     22  C   UNL     1       6.017   5.853  -2.773  1.00  0.00     0.029 A 
ATOM     23  C   UNL     1       6.499   7.061  -2.115  1.00  0.00     0.049 A 
ATOM     24  H   UNL     1       6.871   7.314  -0.077  1.00  0.00     0.167 HD
ATOM     25  C   UNL     1       7.767   7.418   4.266  1.00  0.00     0.037 A 
ATOM     26  C   UNL     1       6.809   8.228  -2.720  1.00  0.00     0.037 A 
ATOM     27  C   UNL     1       8.334   8.608   3.700  1.00  0.00     0.049 A 
ATOM     28  C   UNL     1       7.324   9.341  -1.825  1.00  0.00     0.074 A 
ATOM     29  C   UNL     1       9.114   9.571   4.309  1.00  0.00     0.029 A 
ATOM     30  N   UNL     1       8.158   8.999   2.380  1.00  0.00    -0.354 N 
ATOM     31  N   UNL     1       7.649   9.289  -0.553  1.00  0.00    -0.248 NA
ATOM     32  C   UNL     1       7.522  10.667  -2.427  1.00  0.00     0.031 C 
ATOM     33  C   UNL     1       9.370  10.572   3.367  1.00  0.00     0.029 A 
ATOM     34  C   UNL     1       8.783  10.211   2.162  1.00  0.00     0.049 A 
ATOM     35  H   UNL     1       7.662   8.488   1.700  1.00  0.00     0.167 HD
ATOM     36  C   UNL     1       8.201  10.525  -0.241  1.00  0.00     0.074 A 
ATOM     37  C   UNL     1       8.113  11.330  -1.441  1.00  0.00     0.031 C 
ATOM     38  C   UNL     1       8.761  10.945   0.921  1.00  0.00     0.037 A 
BRANCH  25  39
ATOM     39  C   UNL     1       8.051   7.081   5.697  1.00  0.00     0.064 A 
ATOM     40  C   UNL     1       7.471   7.812   6.742  1.00  0.00     0.173 A 
ATOM     41  C   UNL     1       8.926   6.035   6.032  1.00  0.00     0.173 A 
ATOM     42  F   UNL     1       6.626   8.819   6.475  1.00  0.00    -0.203 F 
ATOM     43  C   UNL     1       7.758   7.510   8.071  1.00  0.00     0.198 A 
ATOM     44  C   UNL     1       9.196   5.723   7.361  1.00  0.00     0.198 A 
ATOM     45  F   UNL     1       9.494   5.296   5.067  1.00  0.00    -0.203 F 
ATOM     46  F   UNL     1       7.202   8.230   9.056  1.00  0.00    -0.200 F 
ATOM     47  C   UNL     1       8.616   6.464   8.380  1.00  0.00     0.200 A 
ATOM     48  F   UNL     1      10.006   4.697   7.656  1.00  0.00    -0.200 F 
ATOM     49  F   UNL     1       8.879   6.166   9.659  1.00  0.00    -0.200 F 
ENDBRANCH  25  39
BRANCH  26  50
ATOM     50  C   UNL     1       6.601   8.441  -4.194  1.00  0.00     0.064 A 
ATOM     51  C   UNL     1       5.348   8.244  -4.805  1.00  0.00     0.173 A 
ATOM     52  C   UNL     1       7.618   8.946  -5.017  1.00  0.00     0.173 A 
ATOM     53  F   UNL     1       4.333   7.707  -4.115  1.00  0.00    -0.203 F 
ATOM     54  C   UNL     1       5.102   8.606  -6.130  1.00  0.00     0.198 A 
ATOM     55  C   UNL     1       7.371   9.323  -6.341  1.00  0.00     0.198 A 
ATOM     56  F   UNL     1       8.849   9.138  -4.519  1.00  0.00    -0.203 F 
ATOM     57  F   UNL     1       3.878   8.442  -6.650  1.00  0.00    -0.200 F 
ATOM     58  C   UNL     1       6.110   9.166  -6.891  1.00  0.00     0.200 A 
ATOM     59  F   UNL     1       8.349   9.883  -7.067  1.00  0.00    -0.200 F 
ATOM     60  F   UNL     1       5.863   9.568  -8.146  1.00  0.00    -0.200 F 
ENDBRANCH  26  50
BRANCH  38  61
ATOM     61  C   UNL     1       9.464  12.269   0.920  1.00  0.00     0.064 A 
ATOM     62  C   UNL     1      10.867  12.305   0.999  1.00  0.00     0.173 A 
ATOM     63  C   UNL     1       8.768  13.482   0.964  1.00  0.00     0.173 A 
ATOM     64  F   UNL     1      11.575  11.165   0.972  1.00  0.00    -0.203 F 
ATOM     65  C   UNL     1      11.544  13.509   1.156  1.00  0.00     0.198 A 
ATOM     66  C   UNL     1       9.452  14.688   1.090  1.00  0.00     0.198 A 
ATOM     67  F   UNL     1       7.430  13.496   0.875  1.00  0.00    -0.203 F 
ATOM     68  F   UNL     1      12.878  13.514   1.284  1.00  0.00    -0.200 F 
ATOM     69  C   UNL     1      10.836  14.700   1.201  1.00  0.00     0.200 A 
ATOM     70  F   UNL     1       8.771  15.842   1.111  1.00  0.00    -0.200 F 
ATOM     71  F   UNL     1      11.488  15.860   1.355  1.00  0.00    -0.200 F 
ENDBRANCH  38  61
ENDBRANCH  12  13
ENDBRANCH   5   7
ENDBRANCH   4   5
ENDBRANCH   3   4
ENDBRANCH   2   3
ENDBRANCH   1   2
BRANCH   1  72
ATOM     72  C   UNL     1       2.027   0.747  -2.230  1.00  0.00     0.338 C 
ATOM     73  O   UNL     1       1.166  -0.103  -2.381  1.00  0.00    -0.246 OA
BRANCH  72  74
ATOM     74  C   UNL     1       1.727   2.168  -1.980  1.00  0.00     0.066 A 
ATOM     75  C   UNL     1       2.439   3.190  -2.604  1.00  0.00     0.059 A 
ATOM     76  C   UNL     1       0.726   2.480  -1.062  1.00  0.00     0.059 A 
ATOM     77  C   UNL     1       2.167   4.524  -2.278  1.00  0.00     0.169 A 
ATOM     78  C   UNL     1       0.493   3.814  -0.734  1.00  0.00     0.169 A 
ATOM     79  F   UNL     1       2.894   5.455  -2.905  1.00  0.00    -0.203 F 
ATOM     80  C   UNL     1       1.204   4.865  -1.329  1.00  0.00     0.191 A 
ATOM     81  F   UNL     1      -0.415   4.078   0.218  1.00  0.00    -0.203 F 
BRANCH  80  82
ATOM     82  O   UNL     1       0.865   6.107  -0.874  1.00  0.00    -0.474 OA
BRANCH  82  83
ATOM     83  C   UNL     1       1.315   7.324  -1.480  1.00  0.00     0.262 C 
BRANCH  83  84
ATOM     84  C   UNL     1       2.728   7.665  -0.986  1.00  0.00     0.055 C 
BRANCH  84  85
ATOM     85  C   UNL     1       3.018   9.163  -0.888  1.00  0.00     0.006 C 
BRANCH  85  86
ATOM     86  C   UNL     1       3.139   9.874  -2.229  1.00  0.00     0.021 CG0
ATOM     87  G   UNL     1       1.868   9.864  -3.062  1.00  0.00     0.000 G0
ENDBRANCH  85  86
ENDBRANCH  84  85
ENDBRANCH  83  84
BRANCH  83  88
ATOM     88  C   UNL     1       1.094   7.462  -3.003  1.00  0.00     0.261 C 
ATOM     89  N   UNL     1       1.523   8.588  -3.642  1.00  0.00    -0.353 N 
ATOM     90  O   UNL     1       0.496   6.619  -3.676  1.00  0.00    -0.271 OA
ATOM     91  H   UNL     1       1.608   8.523  -4.620  1.00  0.00     0.163 HD
BRANCH  89  92
ATOM     92  C   UNL     1       1.868   9.864  -3.062  1.00  0.00     0.116 CG0
ATOM     93  G   UNL     1       3.139   9.874  -2.229  1.00  0.00     0.000 G0
ENDBRANCH  89  92
ENDBRANCH  83  88
ENDBRANCH  82  83
ENDBRANCH  80  82
ENDBRANCH  72  74
ENDBRANCH   1  72
TORSDOF 13
