REMARK SMILES O=C(OCCOC(=O)c1ccccc1Nc1cccc(C(F)(F)F)c1)c1ccc(-c2c3nc(c(-c4c(F)c(F)c(F)c(F)c4F)c4ccc([nH]4)c(-c4c(F)c(F)c(F)c(F)c4F)c4nc(c(-c5c(F)c(F)c(F)c(F)c5F)c5ccc2[nH]5)C=C4)C=C3)cc1
REMARK SMILES IDX 5 1 4 2 3 3 2 4 1 5 26 6 27 7 88 8 28 9 87 10 29 11 30 12
REMARK SMILES IDX 31 13 81 14 32 15 86 16 80 17 82 18 33 19 85 20 79 21 78 22
REMARK SMILES IDX 34 24 66 25 46 26 65 27 47 28 50 29 64 30 83 31 48 32 49 33
REMARK SMILES IDX 63 35 84 36 51 37 35 38 36 39 44 40 37 41 38 42 42 43 45 44
REMARK SMILES IDX 39 45 40 46 43 47 41 48 67 49 68 50 76 51 69 52 70 53 74 54
REMARK SMILES IDX 77 55 71 56 72 57 75 58 73 59 52 60 53 61 61 62 54 63 55 64
REMARK SMILES IDX 59 65 62 66 56 67 57 68 60 69 58 70 6 71 7 72 8 73 9 74
REMARK SMILES IDX 10 75 14 76 11 77 13 78 12 79 15 80 16 82 17 83 25 84 18 85
REMARK SMILES IDX 20 86 19 87 21 88 22 89 23 90 24 91
REMARK H PARENT 82 23 50 34 15 81
REMARK Flexibility Score: inf
ROOT
ATOM      1  C   UNL     1       4.309  -1.702  -1.262  1.00  0.00     0.275 C 
ENDROOT
BRANCH   1   2
ATOM      2  C   UNL     1       4.425  -1.228   0.190  1.00  0.00     0.275 C 
BRANCH   2   3
ATOM      3  O   UNL     1       3.218  -0.626   0.692  1.00  0.00    -0.458 OA
BRANCH   3   4
ATOM      4  C   UNL     1       2.866   0.674   0.801  1.00  0.00     0.338 C 
ATOM      5  O   UNL     1       1.956   0.967   1.577  1.00  0.00    -0.246 OA
BRANCH   4   6
ATOM      6  C   UNL     1       3.418   1.782  -0.051  1.00  0.00     0.060 A 
ATOM      7  C   UNL     1       4.638   1.787  -0.732  1.00  0.00     0.016 A 
ATOM      8  C   UNL     1       2.608   2.932  -0.165  1.00  0.00     0.016 A 
ATOM      9  C   UNL     1       5.032   2.883  -1.510  1.00  0.00     0.010 A 
ATOM     10  C   UNL     1       2.991   4.029  -0.943  1.00  0.00     0.010 A 
ATOM     11  C   UNL     1       4.217   4.013  -1.609  1.00  0.00    -0.014 A 
BRANCH  11  12
ATOM     12  C   UNL     1       4.744   5.237  -2.255  1.00  0.00     0.031 A 
ATOM     13  C   UNL     1       5.478   6.205  -1.398  1.00  0.00     0.074 A 
ATOM     14  C   UNL     1       4.588   5.458  -3.571  1.00  0.00     0.049 A 
ATOM     15  N   UNL     1       6.083   7.308  -1.737  1.00  0.00    -0.248 NA
ATOM     16  C   UNL     1       5.524   5.895   0.039  1.00  0.00     0.031 C 
ATOM     17  C   UNL     1       3.895   4.537  -4.444  1.00  0.00     0.029 A 
ATOM     18  N   UNL     1       4.998   6.457  -4.413  1.00  0.00    -0.354 N 
ATOM     19  C   UNL     1       6.545   7.849  -0.550  1.00  0.00     0.074 A 
ATOM     20  C   UNL     1       6.163   6.949   0.515  1.00  0.00     0.031 C 
ATOM     21  C   UNL     1       3.964   4.964  -5.712  1.00  0.00     0.029 A 
ATOM     22  C   UNL     1       4.699   6.219  -5.739  1.00  0.00     0.049 A 
ATOM     23  H   UNL     1       5.463   7.268  -4.102  1.00  0.00     0.167 HD
ATOM     24  C   UNL     1       7.198   9.019  -0.380  1.00  0.00     0.037 A 
ATOM     25  C   UNL     1       5.024   6.919  -6.846  1.00  0.00     0.037 A 
ATOM     26  C   UNL     1       7.521   9.901  -1.468  1.00  0.00     0.049 A 
ATOM     27  C   UNL     1       5.829   8.175  -6.633  1.00  0.00     0.074 A 
ATOM     28  C   UNL     1       8.115  11.147  -1.427  1.00  0.00     0.029 A 
ATOM     29  N   UNL     1       7.258   9.621  -2.807  1.00  0.00    -0.354 N 
ATOM     30  N   UNL     1       6.292   8.671  -5.508  1.00  0.00    -0.248 NA
ATOM     31  C   UNL     1       6.156   8.973  -7.820  1.00  0.00     0.031 C 
ATOM     32  C   UNL     1       8.165  11.643  -2.735  1.00  0.00     0.029 A 
ATOM     33  C   UNL     1       7.661  10.681  -3.600  1.00  0.00     0.049 A 
ATOM     34  H   UNL     1       6.846   8.791  -3.140  1.00  0.00     0.167 HD
ATOM     35  C   UNL     1       6.975   9.826  -5.848  1.00  0.00     0.074 A 
ATOM     36  C   UNL     1       6.905   9.933  -7.294  1.00  0.00     0.031 C 
ATOM     37  C   UNL     1       7.581  10.732  -5.041  1.00  0.00     0.037 A 
BRANCH  24  38
ATOM     38  C   UNL     1       7.469   9.424   1.038  1.00  0.00     0.064 A 
ATOM     39  C   UNL     1       8.379   8.730   1.851  1.00  0.00     0.173 A 
ATOM     40  C   UNL     1       6.717  10.453   1.624  1.00  0.00     0.173 A 
ATOM     41  F   UNL     1       9.091   7.710   1.350  1.00  0.00    -0.203 F 
ATOM     42  C   UNL     1       8.485   9.017   3.210  1.00  0.00     0.198 A 
ATOM     43  C   UNL     1       6.852  10.760   2.974  1.00  0.00     0.198 A 
ATOM     44  F   UNL     1       5.822  11.137   0.895  1.00  0.00    -0.203 F 
ATOM     45  F   UNL     1       9.289   8.278   3.988  1.00  0.00    -0.200 F 
ATOM     46  C   UNL     1       7.722  10.031   3.770  1.00  0.00     0.200 A 
ATOM     47  F   UNL     1       6.112  11.739   3.513  1.00  0.00    -0.200 F 
ATOM     48  F   UNL     1       7.806  10.288   5.082  1.00  0.00    -0.200 F 
ENDBRANCH  24  38
BRANCH  25  49
ATOM     49  C   UNL     1       4.694   6.398  -8.210  1.00  0.00     0.064 A 
ATOM     50  C   UNL     1       5.708   6.085  -9.130  1.00  0.00     0.173 A 
ATOM     51  C   UNL     1       3.374   6.135  -8.614  1.00  0.00     0.173 A 
ATOM     52  F   UNL     1       6.991   6.340  -8.832  1.00  0.00    -0.203 F 
ATOM     53  C   UNL     1       5.423   5.523 -10.375  1.00  0.00     0.198 A 
ATOM     54  C   UNL     1       3.091   5.541  -9.847  1.00  0.00     0.198 A 
ATOM     55  F   UNL     1       2.349   6.418  -7.796  1.00  0.00    -0.203 F 
ATOM     56  F   UNL     1       6.420   5.253 -11.230  1.00  0.00    -0.200 F 
ATOM     57  C   UNL     1       4.116   5.236 -10.726  1.00  0.00     0.200 A 
ATOM     58  F   UNL     1       1.824   5.248 -10.172  1.00  0.00    -0.200 F 
ATOM     59  F   UNL     1       3.845   4.664 -11.908  1.00  0.00    -0.200 F 
ENDBRANCH  25  49
BRANCH  37  60
ATOM     60  C   UNL     1       8.212  11.916  -5.710  1.00  0.00     0.064 A 
ATOM     61  C   UNL     1       7.433  12.932  -6.280  1.00  0.00     0.173 A 
ATOM     62  C   UNL     1       9.606  12.072  -5.705  1.00  0.00     0.173 A 
ATOM     63  F   UNL     1       6.096  12.820  -6.315  1.00  0.00    -0.203 F 
ATOM     64  C   UNL     1       8.028  14.057  -6.841  1.00  0.00     0.198 A 
ATOM     65  C   UNL     1      10.195  13.213  -6.239  1.00  0.00     0.198 A 
ATOM     66  F   UNL     1      10.391  11.130  -5.162  1.00  0.00    -0.203 F 
ATOM     67  F   UNL     1       7.267  14.998  -7.415  1.00  0.00    -0.200 F 
ATOM     68  C   UNL     1       9.407  14.201  -6.810  1.00  0.00     0.200 A 
ATOM     69  F   UNL     1      11.527  13.361  -6.193  1.00  0.00    -0.200 F 
ATOM     70  F   UNL     1       9.978  15.295  -7.334  1.00  0.00    -0.200 F 
ENDBRANCH  37  60
ENDBRANCH  11  12
ENDBRANCH   4   6
ENDBRANCH   3   4
ENDBRANCH   2   3
ENDBRANCH   1   2
BRANCH   1  71
ATOM     71  O   UNL     1       3.799  -0.685  -2.142  1.00  0.00    -0.458 OA
BRANCH  71  72
ATOM     72  C   UNL     1       2.446  -0.729  -2.311  1.00  0.00     0.340 C 
ATOM     73  O   UNL     1       1.694  -1.565  -1.856  1.00  0.00    -0.246 OA
BRANCH  72  74
ATOM     74  C   UNL     1       1.960   0.475  -3.022  1.00  0.00     0.083 A 
ATOM     75  C   UNL     1       0.823   1.084  -2.455  1.00  0.00     0.018 A 
ATOM     76  C   UNL     1       2.545   0.987  -4.196  1.00  0.00     0.053 A 
ATOM     77  C   UNL     1       0.241   2.194  -3.056  1.00  0.00     0.001 A 
ATOM     78  C   UNL     1       1.831   1.996  -4.866  1.00  0.00     0.027 A 
ATOM     79  C   UNL     1       0.724   2.627  -4.282  1.00  0.00     0.002 A 
BRANCH  76  80
ATOM     80  N   UNL     1       3.787   0.515  -4.692  1.00  0.00    -0.355 N 
ATOM     81  H   UNL     1       4.142  -0.297  -4.263  1.00  0.00     0.167 HD
BRANCH  80  82
ATOM     82  C   UNL     1       4.577   1.064  -5.722  1.00  0.00     0.039 A 
ATOM     83  C   UNL     1       4.292   0.785  -7.060  1.00  0.00     0.026 A 
ATOM     84  C   UNL     1       5.644   1.927  -5.429  1.00  0.00     0.039 A 
ATOM     85  C   UNL     1       5.053   1.351  -8.086  1.00  0.00     0.003 A 
ATOM     86  C   UNL     1       6.388   2.546  -6.451  1.00  0.00     0.058 A 
ATOM     87  C   UNL     1       6.091   2.233  -7.785  1.00  0.00     0.013 A 
BRANCH  86  88
ATOM     88  C   UNL     1       7.473   3.550  -6.136  1.00  0.00     0.416 C 
ATOM     89  F   UNL     1       8.716   3.076  -6.425  1.00  0.00    -0.166 F 
ATOM     90  F   UNL     1       7.339   4.696  -6.859  1.00  0.00    -0.166 F 
ATOM     91  F   UNL     1       7.510   3.927  -4.829  1.00  0.00    -0.166 F 
ENDBRANCH  86  88
ENDBRANCH  80  82
ENDBRANCH  76  80
ENDBRANCH  72  74
ENDBRANCH  71  72
ENDBRANCH   1  71
TORSDOF 14
