REMARK SMILES Cc1cc(N[C@@H]2C=C[C@@H](C(=O)OCCOC(=O)c3ccc(-c4c5nc(c(-c6c(F)c(F)c(F)c(F)c6F)c6ccc([nH]6)c(-c6c(F)c(F)c(F)c(F)c6F)c6nc(c(-c7c(F)c(F)c(F)c(F)c7F)c7ccc4[nH]7)C=C6)C=C5)cc3)C2)nc(C)n1
REMARK SMILES IDX 13 1 12 2 10 3 11 4 9 5 6 6 7 7 81 8 8 9 5 10 4 12 1 13 2 14
REMARK SMILES IDX 3 15 85 16 83 17 82 18 84 19 14 20 15 21 16 22 17 23 18 24
REMARK SMILES IDX 19 25 80 26 20 27 79 28 21 29 22 30 23 31 73 32 24 33 78 34
REMARK SMILES IDX 72 35 74 36 25 37 77 38 71 39 70 40 26 42 58 43 38 44 57 45
REMARK SMILES IDX 39 46 42 47 56 48 75 49 40 50 41 51 55 53 76 54 43 55 27 56
REMARK SMILES IDX 28 57 36 58 29 59 30 60 34 61 37 62 31 63 32 64 35 65 33 66
REMARK SMILES IDX 59 67 60 68 68 69 61 70 62 71 66 72 69 73 63 74 64 75 67 76
REMARK SMILES IDX 65 77 44 78 45 79 53 80 46 81 47 82 51 83 54 84 48 85 49 86
REMARK SMILES IDX 52 87 50 88
REMARK H PARENT 5 11 74 41 42 52
REMARK Flexibility Score: inf
ROOT
ATOM      1  C   UNL     1       1.039  -2.388   2.375  1.00  0.00     0.274 C 
ENDROOT
BRANCH   1   2
ATOM      2  O   UNL     1       0.085  -1.361   2.703  1.00  0.00    -0.462 OA
BRANCH   2   3
ATOM      3  C   UNL     1      -1.216  -1.659   2.476  1.00  0.00     0.312 C 
ATOM      4  O   UNL     1      -1.610  -2.671   1.902  1.00  0.00    -0.252 OA
BRANCH   3   5
ATOM      5  C   UNL     1      -2.179  -0.676   3.121  1.00  0.00     0.124 C 
ATOM      6  C   UNL     1      -2.651   1.709   3.415  1.00  0.00     0.104 C 
ATOM      7  C   UNL     1      -3.466   1.119   2.317  1.00  0.00    -0.006 C 
ATOM      8  C   UNL     1      -1.637   0.610   3.757  1.00  0.00     0.048 C 
ATOM      9  C   UNL     1      -3.193  -0.178   2.131  1.00  0.00    -0.014 C 
BRANCH   6  10
ATOM     10  N   UNL     1      -3.473   2.162   4.514  1.00  0.00    -0.364 N 
ATOM     11  H   UNL     1      -3.345   3.118   4.710  1.00  0.00     0.162 HD
BRANCH  10  12
ATOM     12  C   UNL     1      -4.382   1.577   5.342  1.00  0.00     0.130 A 
ATOM     13  C   UNL     1      -6.099  -1.615   6.313  1.00  0.00     0.067 C 
ATOM     14  C   UNL     1      -5.684  -0.177   6.250  1.00  0.00     0.043 A 
ATOM     15  C   UNL     1      -4.784   0.263   5.298  1.00  0.00     0.070 A 
ATOM     16  N   UNL     1      -6.201   0.642   7.179  1.00  0.00    -0.238 NA
ATOM     17  C   UNL     1      -5.794   1.920   7.134  1.00  0.00     0.127 A 
ATOM     18  N   UNL     1      -4.895   2.413   6.259  1.00  0.00    -0.216 NA
ATOM     19  C   UNL     1      -6.417   2.876   8.101  1.00  0.00     0.090 C 
ENDBRANCH  10  12
ENDBRANCH   6  10
ENDBRANCH   3   5
ENDBRANCH   2   3
ENDBRANCH   1   2
BRANCH   1  20
ATOM     20  C   UNL     1       1.690  -2.914   3.654  1.00  0.00     0.275 C 
BRANCH  20  21
ATOM     21  O   UNL     1       0.718  -3.537   4.518  1.00  0.00    -0.458 OA
BRANCH  21  22
ATOM     22  C   UNL     1       0.214  -2.733   5.482  1.00  0.00     0.338 C 
ATOM     23  O   UNL     1       0.463  -1.557   5.681  1.00  0.00    -0.246 OA
BRANCH  22  24
ATOM     24  C   UNL     1      -0.745  -3.480   6.305  1.00  0.00     0.060 A 
ATOM     25  C   UNL     1      -2.090  -3.508   5.934  1.00  0.00     0.016 A 
ATOM     26  C   UNL     1      -0.332  -4.020   7.524  1.00  0.00     0.016 A 
ATOM     27  C   UNL     1      -3.038  -4.021   6.818  1.00  0.00     0.010 A 
ATOM     28  C   UNL     1      -1.281  -4.576   8.388  1.00  0.00     0.010 A 
ATOM     29  C   UNL     1      -2.647  -4.548   8.059  1.00  0.00    -0.014 A 
BRANCH  29  30
ATOM     30  C   UNL     1      -3.670  -5.014   9.031  1.00  0.00     0.031 A 
ATOM     31  C   UNL     1      -3.909  -4.245  10.305  1.00  0.00     0.074 A 
ATOM     32  C   UNL     1      -4.417  -6.101   8.760  1.00  0.00     0.049 A 
ATOM     33  N   UNL     1      -4.699  -4.534  11.310  1.00  0.00    -0.248 NA
ATOM     34  C   UNL     1      -3.165  -2.986  10.470  1.00  0.00     0.031 C 
ATOM     35  C   UNL     1      -4.326  -6.905   7.542  1.00  0.00     0.029 A 
ATOM     36  N   UNL     1      -5.411  -6.709   9.487  1.00  0.00    -0.354 N 
ATOM     37  C   UNL     1      -4.539  -3.502  12.226  1.00  0.00     0.074 A 
ATOM     38  C   UNL     1      -3.559  -2.592  11.673  1.00  0.00     0.031 C 
ATOM     39  C   UNL     1      -5.249  -7.880   7.590  1.00  0.00     0.029 A 
ATOM     40  C   UNL     1      -5.957  -7.804   8.865  1.00  0.00     0.049 A 
ATOM     41  H   UNL     1      -5.704  -6.389  10.371  1.00  0.00     0.167 HD
ATOM     42  C   UNL     1      -5.162  -3.324  13.415  1.00  0.00     0.037 A 
ATOM     43  C   UNL     1      -6.908  -8.662   9.283  1.00  0.00     0.037 A 
ATOM     44  C   UNL     1      -6.158  -4.208  13.959  1.00  0.00     0.049 A 
ATOM     45  C   UNL     1      -7.524  -8.483  10.643  1.00  0.00     0.074 A 
ATOM     46  C   UNL     1      -6.831  -4.112  15.166  1.00  0.00     0.029 A 
ATOM     47  N   UNL     1      -6.636  -5.343  13.324  1.00  0.00    -0.354 N 
ATOM     48  N   UNL     1      -7.329  -7.531  11.521  1.00  0.00    -0.248 NA
ATOM     49  C   UNL     1      -8.480  -9.513  11.079  1.00  0.00     0.031 C 
ATOM     50  C   UNL     1      -7.700  -5.201  15.271  1.00  0.00     0.029 A 
ATOM     51  C   UNL     1      -7.589  -5.960  14.118  1.00  0.00     0.049 A 
ATOM     52  H   UNL     1      -6.343  -5.663  12.441  1.00  0.00     0.167 HD
ATOM     53  C   UNL     1      -8.146  -7.835  12.601  1.00  0.00     0.074 A 
ATOM     54  C   UNL     1      -8.851  -9.053  12.266  1.00  0.00     0.031 C 
ATOM     55  C   UNL     1      -8.292  -7.165  13.768  1.00  0.00     0.037 A 
BRANCH  42  56
ATOM     56  C   UNL     1      -4.796  -2.118  14.225  1.00  0.00     0.064 A 
ATOM     57  C   UNL     1      -5.294  -0.847  13.904  1.00  0.00     0.173 A 
ATOM     58  C   UNL     1      -4.018  -2.249  15.385  1.00  0.00     0.173 A 
ATOM     59  F   UNL     1      -6.037  -0.673  12.801  1.00  0.00    -0.203 F 
ATOM     60  C   UNL     1      -5.024   0.251  14.715  1.00  0.00     0.198 A 
ATOM     61  C   UNL     1      -3.766  -1.152  16.204  1.00  0.00     0.198 A 
ATOM     62  F   UNL     1      -3.526  -3.446  15.738  1.00  0.00    -0.203 F 
ATOM     63  F   UNL     1      -5.498   1.460  14.384  1.00  0.00    -0.200 F 
ATOM     64  C   UNL     1      -4.269   0.097  15.869  1.00  0.00     0.200 A 
ATOM     65  F   UNL     1      -3.047  -1.305  17.325  1.00  0.00    -0.200 F 
ATOM     66  F   UNL     1      -4.027   1.151  16.659  1.00  0.00    -0.200 F 
ENDBRANCH  42  56
BRANCH  43  67
ATOM     67  C   UNL     1      -7.337  -9.782   8.406  1.00  0.00     0.064 A 
ATOM     68  C   UNL     1      -8.614  -9.790   7.830  1.00  0.00     0.173 A 
ATOM     69  C   UNL     1      -6.492 -10.870   8.144  1.00  0.00     0.173 A 
ATOM     70  F   UNL     1      -9.465  -8.783   8.075  1.00  0.00    -0.203 F 
ATOM     71  C   UNL     1      -9.035 -10.851   7.031  1.00  0.00     0.198 A 
ATOM     72  C   UNL     1      -6.905 -11.918   7.326  1.00  0.00     0.198 A 
ATOM     73  F   UNL     1      -5.263 -10.910   8.678  1.00  0.00    -0.203 F 
ATOM     74  F   UNL     1     -10.275 -10.854   6.524  1.00  0.00    -0.200 F 
ATOM     75  C   UNL     1      -8.178 -11.912   6.776  1.00  0.00     0.200 A 
ATOM     76  F   UNL     1      -6.072 -12.938   7.076  1.00  0.00    -0.200 F 
ATOM     77  F   UNL     1      -8.583 -12.932   6.008  1.00  0.00    -0.200 F 
ENDBRANCH  43  67
BRANCH  55  78
ATOM     78  C   UNL     1      -9.263  -7.716  14.767  1.00  0.00     0.064 A 
ATOM     79  C   UNL     1      -8.940  -8.829  15.556  1.00  0.00     0.173 A 
ATOM     80  C   UNL     1     -10.496  -7.086  14.985  1.00  0.00     0.173 A 
ATOM     81  F   UNL     1      -7.777  -9.472  15.373  1.00  0.00    -0.203 F 
ATOM     82  C   UNL     1      -9.824  -9.296  16.525  1.00  0.00     0.198 A 
ATOM     83  C   UNL     1     -11.368  -7.543  15.969  1.00  0.00     0.198 A 
ATOM     84  F   UNL     1     -10.846  -6.014  14.258  1.00  0.00    -0.203 F 
ATOM     85  F   UNL     1      -9.507 -10.376  17.253  1.00  0.00    -0.200 F 
ATOM     86  C   UNL     1     -11.033  -8.649  16.736  1.00  0.00     0.200 A 
ATOM     87  F   UNL     1     -12.532  -6.912  16.178  1.00  0.00    -0.200 F 
ATOM     88  F   UNL     1     -11.876  -9.093  17.678  1.00  0.00    -0.200 F 
ENDBRANCH  55  78
ENDBRANCH  29  30
ENDBRANCH  22  24
ENDBRANCH  21  22
ENDBRANCH  20  21
ENDBRANCH   1  20
TORSDOF 13
