REMARK SMILES CC1=C(C)C[C@@H](C(=O)OCCOC(=O)c2ccc(-c3c4nc(c(-c5c(F)c(F)c(F)c(F)c5F)c5ccc([nH]5)c(-c5c(F)c(F)c(F)c(F)c5F)c5nc(c(-c6c(F)c(F)c(F)c(F)c6F)c6ccc3[nH]6)C=C5)C=C4)cc2)[C@@H](C(=O)NCC[NH+]2CCOCC2)C1
REMARK SMILES IDX 10 1 9 2 7 3 8 4 6 5 1 6 2 7 3 8 90 9 4 10 5 11 78 12 79 13
REMARK SMILES IDX 80 14 81 15 82 17 83 18 84 19 85 20 89 21 86 23 88 24 87 25
REMARK SMILES IDX 11 26 12 27 13 28 14 29 15 30 16 31 77 32 17 33 76 34 18 35
REMARK SMILES IDX 19 36 20 37 70 38 21 39 75 40 69 41 71 42 22 43 74 44 68 45
REMARK SMILES IDX 67 46 23 48 55 49 35 50 54 51 36 52 39 53 53 54 72 55 37 56
REMARK SMILES IDX 38 57 52 59 73 60 40 61 24 62 25 63 33 64 26 65 27 66 31 67
REMARK SMILES IDX 34 68 28 69 29 70 32 71 30 72 56 73 57 74 65 75 58 76 59 77
REMARK SMILES IDX 63 78 66 79 60 80 61 81 64 82 62 83 41 84 42 85 50 86 43 87
REMARK SMILES IDX 44 88 48 89 51 90 45 91 46 92 49 93 47 94
REMARK H PARENT 81 16 84 22 71 47 39 58
REMARK Flexibility Score: inf
ROOT
ATOM      1  C   UNL     1      -4.284  -0.918  -3.733  1.00  0.00     0.274 C 
ENDROOT
BRANCH   1   2
ATOM      2  O   UNL     1      -2.981  -0.595  -3.212  1.00  0.00    -0.462 OA
BRANCH   2   3
ATOM      3  C   UNL     1      -1.914  -1.036  -3.897  1.00  0.00     0.310 C 
ATOM      4  O   UNL     1      -1.992  -1.798  -4.861  1.00  0.00    -0.252 OA
BRANCH   3   5
ATOM      5  C   UNL     1      -0.560  -0.541  -3.406  1.00  0.00     0.116 C 
ATOM      6  C   UNL     1       1.274  -0.125   0.580  1.00  0.00     0.039 C 
ATOM      7  C   UNL     1       0.869  -0.390  -0.842  1.00  0.00    -0.074 C 
ATOM      8  C   UNL     1       0.599  -1.605  -1.357  1.00  0.00    -0.073 C 
ATOM      9  C   UNL     1       0.818   0.830  -1.735  1.00  0.00     0.045 C 
ATOM     10  C   UNL     1       0.752  -2.923  -0.647  1.00  0.00     0.039 C 
ATOM     11  C   UNL     1       0.180  -1.742  -2.793  1.00  0.00     0.046 C 
ATOM     12  C   UNL     1      -0.359   0.837  -2.727  1.00  0.00     0.097 C 
BRANCH  12  13
ATOM     13  C   UNL     1      -1.520   1.548  -2.029  1.00  0.00     0.224 C 
ATOM     14  O   UNL     1      -2.329   0.975  -1.300  1.00  0.00    -0.275 OA
ATOM     15  N   UNL     1      -1.591   2.919  -2.086  1.00  0.00    -0.350 N 
ATOM     16  H   UNL     1      -2.395   3.305  -1.668  1.00  0.00     0.163 HD
BRANCH  15  17
ATOM     17  C   UNL     1      -0.673   3.903  -2.660  1.00  0.00     0.177 C 
BRANCH  17  18
ATOM     18  C   UNL     1      -1.065   4.428  -4.061  1.00  0.00     0.283 C 
BRANCH  18  19
ATOM     19  N   UNL     1      -2.008   5.567  -4.113  1.00  0.00    -0.330 N 
ATOM     20  C   UNL     1      -3.312   5.321  -3.465  1.00  0.00     0.291 C 
ATOM     21  C   UNL     1      -2.289   5.945  -5.523  1.00  0.00     0.291 C 
ATOM     22  H   UNL     1      -1.535   6.310  -3.598  1.00  0.00     0.348 HD
ATOM     23  C   UNL     1      -4.200   4.321  -4.217  1.00  0.00     0.221 C 
ATOM     24  C   UNL     1      -3.208   4.956  -6.266  1.00  0.00     0.221 C 
ATOM     25  O   UNL     1      -4.440   4.743  -5.566  1.00  0.00    -0.370 OA
ENDBRANCH  18  19
ENDBRANCH  17  18
ENDBRANCH  15  17
ENDBRANCH  12  13
ENDBRANCH   3   5
ENDBRANCH   2   3
ENDBRANCH   1   2
BRANCH   1  26
ATOM     26  C   UNL     1      -4.828   0.223  -4.601  1.00  0.00     0.275 C 
BRANCH  26  27
ATOM     27  O   UNL     1      -4.215   0.265  -5.908  1.00  0.00    -0.458 OA
BRANCH  27  28
ATOM     28  C   UNL     1      -3.039   0.921  -5.971  1.00  0.00     0.338 C 
ATOM     29  O   UNL     1      -2.457   1.496  -5.061  1.00  0.00    -0.246 OA
BRANCH  28  30
ATOM     30  C   UNL     1      -2.403   0.763  -7.280  1.00  0.00     0.060 A 
ATOM     31  C   UNL     1      -1.083   0.299  -7.297  1.00  0.00     0.016 A 
ATOM     32  C   UNL     1      -3.034   1.161  -8.457  1.00  0.00     0.016 A 
ATOM     33  C   UNL     1      -0.382   0.230  -8.489  1.00  0.00     0.010 A 
ATOM     34  C   UNL     1      -2.331   1.084  -9.662  1.00  0.00     0.010 A 
ATOM     35  C   UNL     1      -1.003   0.622  -9.679  1.00  0.00    -0.014 A 
BRANCH  35  36
ATOM     36  C   UNL     1      -0.238   0.541 -10.939  1.00  0.00     0.031 A 
ATOM     37  C   UNL     1       0.330   1.781 -11.553  1.00  0.00     0.074 A 
ATOM     38  C   UNL     1      -0.015  -0.667 -11.486  1.00  0.00     0.049 A 
ATOM     39  N   UNL     1       0.973   1.923 -12.682  1.00  0.00    -0.248 NA
ATOM     40  C   UNL     1       0.158   3.029 -10.793  1.00  0.00     0.031 C 
ATOM     41  C   UNL     1      -0.465  -1.941 -10.921  1.00  0.00     0.029 A 
ATOM     42  N   UNL     1       0.652  -1.022 -12.628  1.00  0.00    -0.354 N 
ATOM     43  C   UNL     1       1.268   3.275 -12.779  1.00  0.00     0.074 A 
ATOM     44  C   UNL     1       0.729   3.915 -11.598  1.00  0.00     0.031 C 
ATOM     45  C   UNL     1      -0.051  -2.940 -11.715  1.00  0.00     0.029 A 
ATOM     46  C   UNL     1       0.644  -2.373 -12.866  1.00  0.00     0.049 A 
ATOM     47  H   UNL     1       1.095  -0.371 -13.219  1.00  0.00     0.167 HD
ATOM     48  C   UNL     1       1.929   3.917 -13.772  1.00  0.00     0.037 A 
ATOM     49  C   UNL     1       1.121  -3.068 -13.914  1.00  0.00     0.037 A 
ATOM     50  C   UNL     1       2.460   3.263 -14.940  1.00  0.00     0.049 A 
ATOM     51  C   UNL     1       1.789  -2.322 -15.034  1.00  0.00     0.074 A 
ATOM     52  C   UNL     1       3.121   3.821 -16.019  1.00  0.00     0.029 A 
ATOM     53  N   UNL     1       2.391   1.897 -15.176  1.00  0.00    -0.354 N 
ATOM     54  N   UNL     1       2.025  -1.037 -15.144  1.00  0.00    -0.248 NA
ATOM     55  C   UNL     1       2.246  -3.119 -16.179  1.00  0.00     0.031 C 
ATOM     56  C   UNL     1       3.424   2.797 -16.924  1.00  0.00     0.029 A 
ATOM     57  C   UNL     1       2.986   1.595 -16.389  1.00  0.00     0.049 A 
ATOM     58  H   UNL     1       1.980   1.239 -14.569  1.00  0.00     0.167 HD
ATOM     59  C   UNL     1       2.666  -0.870 -16.362  1.00  0.00     0.074 A 
ATOM     60  C   UNL     1       2.798  -2.190 -16.947  1.00  0.00     0.031 C 
ATOM     61  C   UNL     1       3.103   0.272 -16.947  1.00  0.00     0.037 A 
BRANCH  48  62
ATOM     62  C   UNL     1       2.079   5.403 -13.654  1.00  0.00     0.064 A 
ATOM     63  C   UNL     1       2.987   5.983 -12.757  1.00  0.00     0.173 A 
ATOM     64  C   UNL     1       1.321   6.258 -14.468  1.00  0.00     0.173 A 
ATOM     65  F   UNL     1       3.720   5.208 -11.943  1.00  0.00    -0.203 F 
ATOM     66  C   UNL     1       3.120   7.367 -12.669  1.00  0.00     0.198 A 
ATOM     67  C   UNL     1       1.472   7.640 -14.392  1.00  0.00     0.198 A 
ATOM     68  F   UNL     1       0.437   5.752 -15.340  1.00  0.00    -0.203 F 
ATOM     69  F   UNL     1       3.967   7.901 -11.778  1.00  0.00    -0.200 F 
ATOM     70  C   UNL     1       2.368   8.193 -13.490  1.00  0.00     0.200 A 
ATOM     71  F   UNL     1       0.748   8.437 -15.190  1.00  0.00    -0.200 F 
ATOM     72  F   UNL     1       2.499   9.524 -13.405  1.00  0.00    -0.200 F 
ENDBRANCH  48  62
BRANCH  49  73
ATOM     73  C   UNL     1       0.959  -4.543 -13.953  1.00  0.00     0.064 A 
ATOM     74  C   UNL     1       2.062  -5.393 -13.806  1.00  0.00     0.173 A 
ATOM     75  C   UNL     1      -0.304  -5.131 -14.116  1.00  0.00     0.173 A 
ATOM     76  F   UNL     1       3.292  -4.876 -13.670  1.00  0.00    -0.203 F 
ATOM     77  C   UNL     1       1.909  -6.777 -13.823  1.00  0.00     0.198 A 
ATOM     78  C   UNL     1      -0.460  -6.514 -14.108  1.00  0.00     0.198 A 
ATOM     79  F   UNL     1      -1.391  -4.358 -14.261  1.00  0.00    -0.203 F 
ATOM     80  F   UNL     1       2.984  -7.570 -13.710  1.00  0.00    -0.200 F 
ATOM     81  C   UNL     1       0.647  -7.337 -13.966  1.00  0.00     0.200 A 
ATOM     82  F   UNL     1      -1.681  -7.050 -14.234  1.00  0.00    -0.200 F 
ATOM     83  F   UNL     1       0.500  -8.669 -13.972  1.00  0.00    -0.200 F 
ENDBRANCH  49  73
BRANCH  61  84
ATOM     84  C   UNL     1       3.780   0.135 -18.276  1.00  0.00     0.064 A 
ATOM     85  C   UNL     1       3.048  -0.111 -19.446  1.00  0.00     0.173 A 
ATOM     86  C   UNL     1       5.170   0.281 -18.383  1.00  0.00     0.173 A 
ATOM     87  F   UNL     1       1.718  -0.275 -19.388  1.00  0.00    -0.203 F 
ATOM     88  C   UNL     1       3.688  -0.225 -20.676  1.00  0.00     0.198 A 
ATOM     89  C   UNL     1       5.805   0.189 -19.617  1.00  0.00     0.198 A 
ATOM     90  F   UNL     1       5.911   0.521 -17.290  1.00  0.00    -0.203 F 
ATOM     91  F   UNL     1       2.976  -0.500 -21.778  1.00  0.00    -0.200 F 
ATOM     92  C   UNL     1       5.064  -0.070 -20.762  1.00  0.00     0.200 A 
ATOM     93  F   UNL     1       7.133   0.346 -19.700  1.00  0.00    -0.200 F 
ATOM     94  F   UNL     1       5.679  -0.178 -21.948  1.00  0.00    -0.200 F 
ENDBRANCH  61  84
ENDBRANCH  35  36
ENDBRANCH  28  30
ENDBRANCH  27  28
ENDBRANCH  26  27
ENDBRANCH   1  26
TORSDOF 15
