REMARK SMILES CCC(CC)N(CC(C)C)C(=O)N1CC[C@@H](C(=O)OCCOC(=O)c2ccc(-c3c4nc(c(-c5c(F)c(F)c(F)c(F)c5F)c5ccc([nH]5)c(-c5c(F)c(F)c(F)c(F)c5F)c5nc(c(-c6c(F)c(F)c(F)c(F)c6F)c6ccc3[nH]6)C=C5)C=C4)cc2)[C@@H]1C
REMARK SMILES IDX 20 1 19 2 17 3 18 4 16 5 13 6 14 7 88 8 15 9 89 10 11 11
REMARK SMILES IDX 12 12 6 13 3 14 2 15 1 16 4 17 5 18 7 19 8 20 9 21 10 22
REMARK SMILES IDX 21 23 22 24 23 25 24 26 25 27 26 28 87 29 27 30 86 31 28 32
REMARK SMILES IDX 29 33 30 34 80 35 31 36 85 37 79 38 81 39 32 40 84 41 78 42
REMARK SMILES IDX 77 43 33 45 65 46 45 47 64 48 46 49 49 50 63 51 82 52 47 53
REMARK SMILES IDX 48 54 62 56 83 57 50 58 34 59 35 60 43 61 36 62 37 63 41 64
REMARK SMILES IDX 44 65 38 66 39 67 42 68 40 69 66 70 67 71 75 72 68 73 69 74
REMARK SMILES IDX 73 75 76 76 70 77 71 78 74 79 72 80 51 81 52 82 60 83 53 84
REMARK SMILES IDX 54 85 58 86 61 87 55 88 56 89 59 90 57 91
REMARK H PARENT 81 44 49 55
REMARK Flexibility Score: inf
ROOT
ATOM      1  C   UNL     1       1.100  -0.361   9.544  1.00  0.00     0.274 C 
ENDROOT
BRANCH   1   2
ATOM      2  O   UNL     1       0.237   0.014   8.451  1.00  0.00    -0.462 OA
BRANCH   2   3
ATOM      3  C   UNL     1      -1.076   0.182   8.755  1.00  0.00     0.311 C 
ATOM      4  O   UNL     1      -1.552   0.049   9.877  1.00  0.00    -0.252 OA
BRANCH   3   5
ATOM      5  C   UNL     1      -1.947   0.493   7.555  1.00  0.00     0.123 C 
ATOM      6  N   UNL     1      -1.391   0.421   5.244  1.00  0.00    -0.321 N 
ATOM      7  C   UNL     1      -2.498  -0.492   5.442  1.00  0.00     0.122 C 
ATOM      8  C   UNL     1      -1.271   1.292   6.417  1.00  0.00     0.098 C 
ATOM      9  C   UNL     1      -2.436  -0.810   6.918  1.00  0.00     0.039 C 
ATOM     10  C   UNL     1      -2.006   2.616   6.158  1.00  0.00     0.032 C 
BRANCH   6  11
ATOM     11  C   UNL     1      -0.969   0.659   3.958  1.00  0.00     0.320 C 
ATOM     12  O   UNL     1      -1.761   0.426   3.041  1.00  0.00    -0.248 OA
BRANCH  11  13
ATOM     13  N   UNL     1       0.338   1.069   3.720  1.00  0.00    -0.321 N 
BRANCH  13  14
ATOM     14  C   UNL     1       0.789   1.260   2.309  1.00  0.00     0.086 C 
BRANCH  14  15
ATOM     15  C   UNL     1       0.533   0.019   1.417  1.00  0.00     0.022 C 
ATOM     16  C   UNL     1       1.265   0.059   0.084  1.00  0.00     0.006 C 
ENDBRANCH  14  15
BRANCH  14  17
ATOM     17  C   UNL     1       0.376   2.613   1.692  1.00  0.00     0.022 C 
ATOM     18  C   UNL     1      -1.101   2.819   1.405  1.00  0.00     0.006 C 
ENDBRANCH  14  17
ENDBRANCH  13  14
BRANCH  13  19
ATOM     19  C   UNL     1       1.422   0.993   4.712  1.00  0.00     0.124 C 
BRANCH  19  20
ATOM     20  C   UNL     1       2.181   2.317   4.963  1.00  0.00     0.002 C 
ATOM     21  C   UNL     1       1.292   3.514   5.295  1.00  0.00     0.009 C 
ATOM     22  C   UNL     1       3.205   2.113   6.083  1.00  0.00     0.009 C 
ENDBRANCH  19  20
ENDBRANCH  13  19
ENDBRANCH  11  13
ENDBRANCH   6  11
ENDBRANCH   3   5
ENDBRANCH   2   3
ENDBRANCH   1   2
BRANCH   1  23
ATOM     23  C   UNL     1       1.876   0.831  10.111  1.00  0.00     0.275 C 
BRANCH  23  24
ATOM     24  O   UNL     1       0.996   1.821  10.675  1.00  0.00    -0.458 OA
BRANCH  24  25
ATOM     25  C   UNL     1       0.699   2.848   9.850  1.00  0.00     0.338 C 
ATOM     26  O   UNL     1       1.122   3.040   8.720  1.00  0.00    -0.246 OA
BRANCH  25  27
ATOM     27  C   UNL     1      -0.365   3.673  10.430  1.00  0.00     0.060 A 
ATOM     28  C   UNL     1      -1.632   3.581   9.854  1.00  0.00     0.016 A 
ATOM     29  C   UNL     1      -0.111   4.598  11.441  1.00  0.00     0.016 A 
ATOM     30  C   UNL     1      -2.652   4.428  10.261  1.00  0.00     0.010 A 
ATOM     31  C   UNL     1      -1.148   5.433  11.874  1.00  0.00     0.010 A 
ATOM     32  C   UNL     1      -2.421   5.359  11.279  1.00  0.00    -0.014 A 
BRANCH  32  33
ATOM     33  C   UNL     1      -3.530   6.241  11.708  1.00  0.00     0.031 A 
ATOM     34  C   UNL     1      -3.525   7.696  11.349  1.00  0.00     0.074 A 
ATOM     35  C   UNL     1      -4.560   5.710  12.393  1.00  0.00     0.049 A 
ATOM     36  N   UNL     1      -4.382   8.630  11.676  1.00  0.00    -0.248 NA
ATOM     37  C   UNL     1      -2.411   8.168  10.513  1.00  0.00     0.031 C 
ATOM     38  C   UNL     1      -4.684   4.301  12.769  1.00  0.00     0.029 A 
ATOM     39  N   UNL     1      -5.698   6.291  12.891  1.00  0.00    -0.354 N 
ATOM     40  C   UNL     1      -3.898   9.802  11.113  1.00  0.00     0.074 A 
ATOM     41  C   UNL     1      -2.670   9.466  10.425  1.00  0.00     0.031 C 
ATOM     42  C   UNL     1      -5.834   4.126  13.438  1.00  0.00     0.029 A 
ATOM     43  C   UNL     1      -6.504   5.416  13.576  1.00  0.00     0.049 A 
ATOM     44  H   UNL     1      -5.915   7.244  12.770  1.00  0.00     0.167 HD
ATOM     45  C   UNL     1      -4.435  11.044  11.171  1.00  0.00     0.037 A 
ATOM     46  C   UNL     1      -7.640   5.635  14.262  1.00  0.00     0.037 A 
ATOM     47  C   UNL     1      -5.675  11.364  11.828  1.00  0.00     0.049 A 
ATOM     48  C   UNL     1      -8.203   7.027  14.320  1.00  0.00     0.074 A 
ATOM     49  C   UNL     1      -6.322  12.586  11.902  1.00  0.00     0.029 A 
ATOM     50  N   UNL     1      -6.457  10.455  12.524  1.00  0.00    -0.354 N 
ATOM     51  N   UNL     1      -7.743   8.127  13.776  1.00  0.00    -0.248 NA
ATOM     52  C   UNL     1      -9.440   7.210  15.091  1.00  0.00     0.031 C 
ATOM     53  C   UNL     1      -7.476  12.424  12.677  1.00  0.00     0.029 A 
ATOM     54  C   UNL     1      -7.568  11.093  13.052  1.00  0.00     0.049 A 
ATOM     55  H   UNL     1      -6.253   9.497  12.628  1.00  0.00     0.167 HD
ATOM     56  C   UNL     1      -8.634   9.129  14.130  1.00  0.00     0.074 A 
ATOM     57  C   UNL     1      -9.677   8.502  14.916  1.00  0.00     0.031 C 
ATOM     58  C   UNL     1      -8.590  10.452  13.837  1.00  0.00     0.037 A 
BRANCH  45  59
ATOM     59  C   UNL     1      -3.671  12.164  10.531  1.00  0.00     0.064 A 
ATOM     60  C   UNL     1      -3.637  12.336   9.140  1.00  0.00     0.173 A 
ATOM     61  C   UNL     1      -3.012  13.111  11.329  1.00  0.00     0.173 A 
ATOM     62  F   UNL     1      -4.241  11.450   8.335  1.00  0.00    -0.203 F 
ATOM     63  C   UNL     1      -2.960  13.412   8.571  1.00  0.00     0.198 A 
ATOM     64  C   UNL     1      -2.354  14.196  10.758  1.00  0.00     0.198 A 
ATOM     65  F   UNL     1      -3.018  12.990  12.665  1.00  0.00    -0.203 F 
ATOM     66  F   UNL     1      -2.915  13.544   7.238  1.00  0.00    -0.200 F 
ATOM     67  C   UNL     1      -2.326  14.344   9.380  1.00  0.00     0.200 A 
ATOM     68  F   UNL     1      -1.750  15.100  11.541  1.00  0.00    -0.200 F 
ATOM     69  F   UNL     1      -1.683  15.384   8.830  1.00  0.00    -0.200 F 
ENDBRANCH  45  59
BRANCH  46  70
ATOM     70  C   UNL     1      -8.299   4.512  14.976  1.00  0.00     0.064 A 
ATOM     71  C   UNL     1      -9.530   4.001  14.545  1.00  0.00     0.173 A 
ATOM     72  C   UNL     1      -7.708   3.931  16.108  1.00  0.00     0.173 A 
ATOM     73  F   UNL     1     -10.144   4.541  13.483  1.00  0.00    -0.203 F 
ATOM     74  C   UNL     1     -10.153   2.959  15.229  1.00  0.00     0.198 A 
ATOM     75  C   UNL     1      -8.318   2.871  16.774  1.00  0.00     0.198 A 
ATOM     76  F   UNL     1      -6.530   4.386  16.559  1.00  0.00    -0.203 F 
ATOM     77  F   UNL     1     -11.350   2.515  14.823  1.00  0.00    -0.200 F 
ATOM     78  C   UNL     1      -9.543   2.391  16.338  1.00  0.00     0.200 A 
ATOM     79  F   UNL     1      -7.720   2.318  17.838  1.00  0.00    -0.200 F 
ATOM     80  F   UNL     1     -10.142   1.386  16.993  1.00  0.00    -0.200 F 
ENDBRANCH  46  70
BRANCH  58  81
ATOM     81  C   UNL     1      -9.707  11.301  14.365  1.00  0.00     0.064 A 
ATOM     82  C   UNL     1      -9.781  11.646  15.722  1.00  0.00     0.173 A 
ATOM     83  C   UNL     1     -10.695  11.796  13.502  1.00  0.00     0.173 A 
ATOM     84  F   UNL     1      -8.867  11.181  16.587  1.00  0.00    -0.203 F 
ATOM     85  C   UNL     1     -10.821  12.437  16.201  1.00  0.00     0.198 A 
ATOM     86  C   UNL     1     -11.720  12.607  13.981  1.00  0.00     0.198 A 
ATOM     87  F   UNL     1     -10.664  11.497  12.195  1.00  0.00    -0.203 F 
ATOM     88  F   UNL     1     -10.898  12.718  17.509  1.00  0.00    -0.200 F 
ATOM     89  C   UNL     1     -11.786  12.922  15.330  1.00  0.00     0.200 A 
ATOM     90  F   UNL     1     -12.647  13.082  13.137  1.00  0.00    -0.200 F 
ATOM     91  F   UNL     1     -12.785  13.685  15.794  1.00  0.00    -0.200 F 
ENDBRANCH  58  81
ENDBRANCH  32  33
ENDBRANCH  25  27
ENDBRANCH  24  25
ENDBRANCH  23  24
ENDBRANCH   1  23
TORSDOF 18
