REMARK SMILES O=C(COc1ccccc1/C=C1\C(=O)Nc2ccccc21)OCCOC(=O)c1ccc(-c2c3nc(c(-c4c(F)c(F)c(F)c(F)c4F)c4ccc([nH]4)c(-c4c(F)c(F)c(F)c(F)c4F)c4nc(c(-c5c(F)c(F)c(F)c(F)c5F)c5ccc2[nH]5)C=C4)C=C3)cc1
REMARK SMILES IDX 23 1 22 2 2 3 1 4 3 5 4 6 5 7 6 8 10 9 7 10 9 11 8 12 11 13
REMARK SMILES IDX 12 14 13 15 21 16 14 17 15 18 16 19 20 20 17 22 19 23 18 24
REMARK SMILES IDX 24 25 25 26 26 27 27 28 28 29 29 30 90 31 30 32 89 33 31 34
REMARK SMILES IDX 32 35 33 36 83 37 34 38 88 39 82 40 84 41 35 42 87 43 81 44
REMARK SMILES IDX 80 45 36 47 68 48 48 49 67 50 49 51 52 52 66 53 85 54 50 55
REMARK SMILES IDX 51 56 65 58 86 59 53 60 37 61 38 62 46 63 39 64 40 65 44 66
REMARK SMILES IDX 47 67 41 68 42 69 45 70 43 71 69 72 70 73 78 74 71 75 72 76
REMARK SMILES IDX 76 77 79 78 73 79 74 80 77 81 75 82 54 83 55 84 63 85 56 86
REMARK SMILES IDX 57 87 61 88 64 89 58 90 59 91 62 92 60 93
REMARK H PARENT 15 21 84 46 52 57
REMARK Flexibility Score: inf
ROOT
ATOM      1  C   UNL     1       4.358  -0.935  -0.761  1.00  0.00     0.274 C 
ENDROOT
BRANCH   1   2
ATOM      2  O   UNL     1       2.936  -1.055  -0.532  1.00  0.00    -0.460 OA
BRANCH   2   3
ATOM      3  C   UNL     1       2.168  -0.073   0.005  1.00  0.00     0.344 C 
ATOM      4  O   UNL     1       0.946  -0.101  -0.126  1.00  0.00    -0.248 OA
BRANCH   3   5
ATOM      5  C   UNL     1       2.850   1.029   0.791  1.00  0.00     0.352 C 
BRANCH   5   6
ATOM      6  O   UNL     1       3.624   0.461   1.838  1.00  0.00    -0.481 OA
BRANCH   6   7
ATOM      7  C   UNL     1       3.127   0.779   3.072  1.00  0.00     0.127 A 
ATOM      8  C   UNL     1       3.647   1.927   3.684  1.00  0.00     0.047 A 
ATOM      9  C   UNL     1       2.232  -0.075   3.739  1.00  0.00     0.017 A 
ATOM     10  C   UNL     1       3.300   2.225   4.996  1.00  0.00     0.004 A 
ATOM     11  C   UNL     1       2.011   0.179   5.096  1.00  0.00     0.012 A 
ATOM     12  C   UNL     1       2.510   1.333   5.712  1.00  0.00     0.001 A 
BRANCH   9  13
ATOM     13  C   UNL     1       1.549  -1.187   3.034  1.00  0.00     0.026 C 
ATOM     14  C   UNL     1       0.248  -1.530   3.120  1.00  0.00     0.050 C 
ATOM     15  C   UNL     1      -0.810  -0.951   4.040  1.00  0.00     0.256 C 
ATOM     16  C   UNL     1      -0.432  -2.592   2.347  1.00  0.00     0.011 A 
ATOM     17  O   UNL     1      -0.765   0.026   4.762  1.00  0.00    -0.269 OA
ATOM     18  N   UNL     1      -1.909  -1.777   3.900  1.00  0.00    -0.321 N 
ATOM     19  C   UNL     1      -1.714  -2.714   2.897  1.00  0.00     0.049 A 
ATOM     20  C   UNL     1      -0.100  -3.342   1.232  1.00  0.00     0.011 A 
ATOM     21  H   UNL     1      -2.727  -1.708   4.443  1.00  0.00     0.170 HD
ATOM     22  C   UNL     1      -2.664  -3.599   2.428  1.00  0.00     0.027 A 
ATOM     23  C   UNL     1      -1.060  -4.228   0.715  1.00  0.00     0.001 A 
ATOM     24  C   UNL     1      -2.325  -4.365   1.316  1.00  0.00     0.002 A 
ENDBRANCH   9  13
ENDBRANCH   6   7
ENDBRANCH   5   6
ENDBRANCH   3   5
ENDBRANCH   2   3
ENDBRANCH   1   2
BRANCH   1  25
ATOM     25  C   UNL     1       4.641  -0.378  -2.157  1.00  0.00     0.275 C 
BRANCH  25  26
ATOM     26  O   UNL     1       4.185   0.985  -2.248  1.00  0.00    -0.458 OA
BRANCH  26  27
ATOM     27  C   UNL     1       2.955   1.159  -2.801  1.00  0.00     0.338 C 
ATOM     28  O   UNL     1       2.250   0.315  -3.308  1.00  0.00    -0.246 OA
BRANCH  27  29
ATOM     29  C   UNL     1       2.518   2.541  -2.509  1.00  0.00     0.060 A 
ATOM     30  C   UNL     1       1.251   2.742  -1.946  1.00  0.00     0.016 A 
ATOM     31  C   UNL     1       3.351   3.628  -2.783  1.00  0.00     0.016 A 
ATOM     32  C   UNL     1       0.809   4.035  -1.664  1.00  0.00     0.010 A 
ATOM     33  C   UNL     1       2.899   4.923  -2.520  1.00  0.00     0.010 A 
ATOM     34  C   UNL     1       1.617   5.134  -1.982  1.00  0.00    -0.014 A 
BRANCH  34  35
ATOM     35  C   UNL     1       1.065   6.509  -1.931  1.00  0.00     0.031 A 
ATOM     36  C   UNL     1       0.530   7.109  -3.201  1.00  0.00     0.074 A 
ATOM     37  C   UNL     1       1.050   7.218  -0.790  1.00  0.00     0.049 A 
ATOM     38  N   UNL     1       0.070   8.313  -3.426  1.00  0.00    -0.248 NA
ATOM     39  C   UNL     1       0.520   6.229  -4.382  1.00  0.00     0.031 C 
ATOM     40  C   UNL     1       1.504   6.737   0.512  1.00  0.00     0.029 A 
ATOM     41  N   UNL     1       0.647   8.509  -0.551  1.00  0.00    -0.354 N 
ATOM     42  C   UNL     1      -0.282   8.335  -4.768  1.00  0.00     0.074 A 
ATOM     43  C   UNL     1       0.050   7.039  -5.318  1.00  0.00     0.031 C 
ATOM     44  C   UNL     1       1.369   7.727   1.413  1.00  0.00     0.029 A 
ATOM     45  C   UNL     1       0.850   8.919   0.743  1.00  0.00     0.049 A 
ATOM     46  H   UNL     1       0.249   9.086  -1.243  1.00  0.00     0.167 HD
ATOM     47  C   UNL     1      -0.842   9.344  -5.477  1.00  0.00     0.037 A 
ATOM     48  C   UNL     1       0.659  10.127   1.311  1.00  0.00     0.037 A 
ATOM     49  C   UNL     1      -1.164  10.635  -4.932  1.00  0.00     0.049 A 
ATOM     50  C   UNL     1       0.111  11.260   0.478  1.00  0.00     0.074 A 
ATOM     51  C   UNL     1      -1.746  11.718  -5.568  1.00  0.00     0.029 A 
ATOM     52  N   UNL     1      -0.922  11.021  -3.623  1.00  0.00    -0.354 N 
ATOM     53  N   UNL     1      -0.252  11.266  -0.782  1.00  0.00    -0.248 NA
ATOM     54  C   UNL     1      -0.058  12.557   1.150  1.00  0.00     0.031 C 
ATOM     55  C   UNL     1      -1.802  12.779  -4.659  1.00  0.00     0.029 A 
ATOM     56  C   UNL     1      -1.316  12.337  -3.438  1.00  0.00     0.049 A 
ATOM     57  H   UNL     1      -0.529  10.446  -2.927  1.00  0.00     0.167 HD
ATOM     58  C   UNL     1      -0.727  12.547  -1.040  1.00  0.00     0.074 A 
ATOM     59  C   UNL     1      -0.614  13.290   0.196  1.00  0.00     0.031 C 
ATOM     60  C   UNL     1      -1.216  13.060  -2.196  1.00  0.00     0.037 A 
BRANCH  47  61
ATOM     61  C   UNL     1      -1.116   9.097  -6.931  1.00  0.00     0.064 A 
ATOM     62  C   UNL     1      -2.132   8.226  -7.353  1.00  0.00     0.173 A 
ATOM     63  C   UNL     1      -0.375   9.767  -7.916  1.00  0.00     0.173 A 
ATOM     64  F   UNL     1      -2.859   7.549  -6.452  1.00  0.00    -0.203 F 
ATOM     65  C   UNL     1      -2.378   8.016  -8.708  1.00  0.00     0.198 A 
ATOM     66  C   UNL     1      -0.644   9.579  -9.268  1.00  0.00     0.198 A 
ATOM     67  F   UNL     1       0.607  10.612  -7.566  1.00  0.00    -0.203 F 
ATOM     68  F   UNL     1      -3.321   7.143  -9.088  1.00  0.00    -0.200 F 
ATOM     69  C   UNL     1      -1.640   8.698  -9.663  1.00  0.00     0.200 A 
ATOM     70  F   UNL     1       0.061  10.248 -10.190  1.00  0.00    -0.200 F 
ATOM     71  F   UNL     1      -1.885   8.502 -10.966  1.00  0.00    -0.200 F 
ENDBRANCH  47  61
BRANCH  48  72
ATOM     72  C   UNL     1       0.998  10.344   2.744  1.00  0.00     0.064 A 
ATOM     73  C   UNL     1       0.001  10.623   3.690  1.00  0.00     0.173 A 
ATOM     74  C   UNL     1       2.328  10.324   3.188  1.00  0.00     0.173 A 
ATOM     75  F   UNL     1      -1.284  10.683   3.310  1.00  0.00    -0.203 F 
ATOM     76  C   UNL     1       0.323  10.901   5.017  1.00  0.00     0.198 A 
ATOM     77  C   UNL     1       2.647  10.571   4.522  1.00  0.00     0.198 A 
ATOM     78  F   UNL     1       3.322  10.068   2.324  1.00  0.00    -0.203 F 
ATOM     79  F   UNL     1      -0.644  11.227   5.885  1.00  0.00    -0.200 F 
ATOM     80  C   UNL     1       1.645  10.870   5.433  1.00  0.00     0.200 A 
ATOM     81  F   UNL     1       3.925  10.531   4.921  1.00  0.00    -0.200 F 
ATOM     82  F   UNL     1       1.956  11.144   6.707  1.00  0.00    -0.200 F 
ENDBRANCH  48  72
BRANCH  60  83
ATOM     83  C   UNL     1      -1.718  14.477  -2.174  1.00  0.00     0.064 A 
ATOM     84  C   UNL     1      -0.848  15.571  -2.062  1.00  0.00     0.173 A 
ATOM     85  C   UNL     1      -3.089  14.743  -2.322  1.00  0.00     0.173 A 
ATOM     86  F   UNL     1       0.470  15.373  -1.907  1.00  0.00    -0.203 F 
ATOM     87  C   UNL     1      -1.334  16.877  -2.073  1.00  0.00     0.198 A 
ATOM     88  C   UNL     1      -3.567  16.049  -2.366  1.00  0.00     0.198 A 
ATOM     89  F   UNL     1      -3.964  13.733  -2.443  1.00  0.00    -0.203 F 
ATOM     90  F   UNL     1      -0.488  17.905  -1.917  1.00  0.00    -0.200 F 
ATOM     91  C   UNL     1      -2.691  17.115  -2.234  1.00  0.00     0.200 A 
ATOM     92  F   UNL     1      -4.876  16.277  -2.541  1.00  0.00    -0.200 F 
ATOM     93  F   UNL     1      -3.154  18.372  -2.257  1.00  0.00    -0.200 F 
ENDBRANCH  60  83
ENDBRANCH  34  35
ENDBRANCH  27  29
ENDBRANCH  26  27
ENDBRANCH  25  26
ENDBRANCH   1  25
TORSDOF 14
