REMARK SMILES Cc1ccc2[nH]cc([C@@H](C(=O)OCCOC(=O)c3ccc(-c4c5nc(c(-c6c(F)c(F)c(F)c(F)c6F)c6ccc([nH]6)c(-c6c(F)c(F)c(F)c(F)c6F)c6nc(c(-c7c(F)c(F)c(F)c(F)c7F)c7ccc4[nH]7)C=C6)C=C5)cc3)[NH+]3CCN(c4ccc(F)cc4)CC3)c2c1
REMARK SMILES IDX 13 1 12 2 10 3 11 4 9 5 8 6 1 7 2 8 3 9 95 10 4 11 94 12
REMARK SMILES IDX 5 13 6 14 7 15 81 17 82 18 93 19 83 21 92 22 84 23 85 24
REMARK SMILES IDX 86 25 91 26 87 27 90 28 88 29 89 30 14 31 15 32 16 33 17 34
REMARK SMILES IDX 18 35 19 36 80 37 20 38 79 39 21 40 22 41 23 42 73 43 24 44
REMARK SMILES IDX 78 45 72 46 74 47 25 48 77 49 71 50 70 51 26 53 58 54 38 55
REMARK SMILES IDX 57 56 39 57 42 58 56 59 75 60 40 61 41 62 55 64 76 65 43 66
REMARK SMILES IDX 27 67 28 68 36 69 29 70 30 71 34 72 37 73 31 74 32 75 35 76
REMARK SMILES IDX 33 77 59 78 60 79 68 80 61 81 62 82 66 83 69 84 63 85 64 86
REMARK SMILES IDX 67 87 65 88 44 89 45 90 53 91 46 92 47 93 51 94 54 95 48 96
REMARK SMILES IDX 49 97 52 98 50 99
REMARK H PARENT 6 16 81 20 74 52 42 63
REMARK Flexibility Score: inf
ROOT
ATOM      1  C   UNL     1      -2.778  -3.466   3.549  1.00  0.00     0.274 C 
ENDROOT
BRANCH   1   2
ATOM      2  O   UNL     1      -2.206  -2.719   2.456  1.00  0.00    -0.457 OA
BRANCH   2   3
ATOM      3  C   UNL     1      -2.119  -3.358   1.254  1.00  0.00     0.370 C 
ATOM      4  O   UNL     1      -2.470  -4.525   1.085  1.00  0.00    -0.245 OA
BRANCH   3   5
ATOM      5  C   UNL     1      -1.468  -2.498   0.142  1.00  0.00     0.328 C 
BRANCH   5   6
ATOM      6  C   UNL     1      -1.220  -1.050   0.474  1.00  0.00     0.046 A 
ATOM      7  C   UNL     1       3.796  -0.401  -0.296  1.00  0.00     0.044 C 
ATOM      8  C   UNL     1       2.406   0.096  -0.028  1.00  0.00    -0.050 A 
ATOM      9  C   UNL     1       2.152   1.452   0.192  1.00  0.00     0.005 A 
ATOM     10  C   UNL     1       1.351  -0.826   0.035  1.00  0.00     0.014 A 
ATOM     11  C   UNL     1       0.870   1.911   0.515  1.00  0.00     0.027 A 
ATOM     12  C   UNL     1       0.049  -0.390   0.360  1.00  0.00     0.009 A 
ATOM     13  C   UNL     1      -0.152   0.963   0.619  1.00  0.00     0.046 A 
ATOM     14  N   UNL     1      -1.471   1.115   0.972  1.00  0.00    -0.361 N 
ATOM     15  C   UNL     1      -2.109  -0.096   0.941  1.00  0.00     0.094 A 
ATOM     16  H   UNL     1      -1.896   1.970   1.213  1.00  0.00     0.166 HD
ENDBRANCH   5   6
BRANCH   5  17
ATOM     17  N   UNL     1      -2.176  -2.666  -1.148  1.00  0.00    -0.316 N 
ATOM     18  C   UNL     1      -3.544  -2.149  -1.241  1.00  0.00     0.284 C 
ATOM     19  C   UNL     1      -1.400  -2.387  -2.366  1.00  0.00     0.284 C 
ATOM     20  H   UNL     1      -2.287  -3.679  -1.115  1.00  0.00     0.349 HD
ATOM     21  C   UNL     1      -3.770  -0.773  -1.895  1.00  0.00     0.178 C 
ATOM     22  C   UNL     1      -1.583  -0.992  -3.019  1.00  0.00     0.178 C 
ATOM     23  N   UNL     1      -3.012  -0.660  -3.140  1.00  0.00    -0.360 N 
BRANCH  23  24
ATOM     24  C   UNL     1      -3.343   0.395  -3.983  1.00  0.00     0.037 A 
ATOM     25  C   UNL     1      -3.557   1.699  -3.511  1.00  0.00     0.029 A 
ATOM     26  C   UNL     1      -3.513   0.147  -5.352  1.00  0.00     0.029 A 
ATOM     27  C   UNL     1      -3.963   2.718  -4.374  1.00  0.00     0.041 A 
ATOM     28  C   UNL     1      -3.926   1.162  -6.219  1.00  0.00     0.041 A 
ATOM     29  C   UNL     1      -4.153   2.437  -5.720  1.00  0.00     0.123 A 
ATOM     30  F   UNL     1      -4.563   3.409  -6.544  1.00  0.00    -0.207 F 
ENDBRANCH  23  24
ENDBRANCH   5  17
ENDBRANCH   3   5
ENDBRANCH   2   3
ENDBRANCH   1   2
BRANCH   1  31
ATOM     31  C   UNL     1      -4.253  -3.111   3.722  1.00  0.00     0.275 C 
BRANCH  31  32
ATOM     32  O   UNL     1      -4.995  -3.605   2.593  1.00  0.00    -0.458 OA
BRANCH  32  33
ATOM     33  C   UNL     1      -5.934  -2.782   2.081  1.00  0.00     0.338 C 
ATOM     34  O   UNL     1      -6.271  -1.689   2.526  1.00  0.00    -0.246 OA
BRANCH  33  35
ATOM     35  C   UNL     1      -6.503  -3.351   0.838  1.00  0.00     0.060 A 
ATOM     36  C   UNL     1      -5.745  -4.182   0.011  1.00  0.00     0.016 A 
ATOM     37  C   UNL     1      -7.772  -2.945   0.419  1.00  0.00     0.016 A 
ATOM     38  C   UNL     1      -6.202  -4.506  -1.267  1.00  0.00     0.010 A 
ATOM     39  C   UNL     1      -8.272  -3.368  -0.819  1.00  0.00     0.010 A 
ATOM     40  C   UNL     1      -7.481  -4.129  -1.696  1.00  0.00    -0.014 A 
BRANCH  40  41
ATOM     41  C   UNL     1      -7.997  -4.508  -3.046  1.00  0.00     0.031 A 
ATOM     42  C   UNL     1      -8.563  -3.459  -3.968  1.00  0.00     0.074 A 
ATOM     43  C   UNL     1      -7.991  -5.793  -3.455  1.00  0.00     0.049 A 
ATOM     44  N   UNL     1      -9.355  -3.603  -5.002  1.00  0.00    -0.248 NA
ATOM     45  C   UNL     1      -8.204  -2.062  -3.679  1.00  0.00     0.031 C 
ATOM     46  C   UNL     1      -7.415  -6.921  -2.722  1.00  0.00     0.029 A 
ATOM     47  N   UNL     1      -8.499  -6.369  -4.596  1.00  0.00    -0.354 N 
ATOM     48  C   UNL     1      -9.653  -2.317  -5.434  1.00  0.00     0.074 A 
ATOM     49  C   UNL     1      -8.937  -1.404  -4.568  1.00  0.00     0.031 C 
ATOM     50  C   UNL     1      -7.566  -8.041  -3.442  1.00  0.00     0.029 A 
ATOM     51  C   UNL     1      -8.357  -7.735  -4.627  1.00  0.00     0.049 A 
ATOM     52  H   UNL     1      -8.923  -5.853  -5.319  1.00  0.00     0.167 HD
ATOM     53  C   UNL     1     -10.464  -1.940  -6.453  1.00  0.00     0.037 A 
ATOM     54  C   UNL     1      -8.865  -8.657  -5.466  1.00  0.00     0.037 A 
ATOM     55  C   UNL     1     -11.107  -2.854  -7.363  1.00  0.00     0.049 A 
ATOM     56  C   UNL     1      -9.780  -8.223  -6.572  1.00  0.00     0.074 A 
ATOM     57  C   UNL     1     -11.945  -2.569  -8.428  1.00  0.00     0.029 A 
ATOM     58  N   UNL     1     -10.953  -4.231  -7.336  1.00  0.00    -0.354 N 
ATOM     59  N   UNL     1     -10.173  -7.016  -6.892  1.00  0.00    -0.248 NA
ATOM     60  C   UNL     1     -10.353  -9.286  -7.411  1.00  0.00     0.031 C 
ATOM     61  C   UNL     1     -12.315  -3.776  -9.033  1.00  0.00     0.029 A 
ATOM     62  C   UNL     1     -11.679  -4.809  -8.365  1.00  0.00     0.049 A 
ATOM     63  H   UNL     1     -10.407  -4.726  -6.682  1.00  0.00     0.167 HD
ATOM     64  C   UNL     1     -11.038  -7.170  -7.965  1.00  0.00     0.074 A 
ATOM     65  C   UNL     1     -11.097  -8.587  -8.258  1.00  0.00     0.031 C 
ATOM     66  C   UNL     1     -11.729  -6.221  -8.641  1.00  0.00     0.037 A 
BRANCH  53  67
ATOM     67  C   UNL     1     -10.745  -0.476  -6.624  1.00  0.00     0.064 A 
ATOM     68  C   UNL     1      -9.806   0.404  -7.179  1.00  0.00     0.173 A 
ATOM     69  C   UNL     1     -12.009   0.037  -6.289  1.00  0.00     0.173 A 
ATOM     70  F   UNL     1      -8.582  -0.035  -7.507  1.00  0.00    -0.203 F 
ATOM     71  C   UNL     1     -10.118   1.747  -7.381  1.00  0.00     0.198 A 
ATOM     72  C   UNL     1     -12.325   1.373  -6.515  1.00  0.00     0.198 A 
ATOM     73  F   UNL     1     -12.946  -0.766  -5.763  1.00  0.00    -0.203 F 
ATOM     74  F   UNL     1      -9.198   2.578  -7.890  1.00  0.00    -0.200 F 
ATOM     75  C   UNL     1     -11.379   2.228  -7.057  1.00  0.00     0.200 A 
ATOM     76  F   UNL     1     -13.548   1.832  -6.214  1.00  0.00    -0.200 F 
ATOM     77  F   UNL     1     -11.681   3.517  -7.268  1.00  0.00    -0.200 F 
ENDBRANCH  53  67
BRANCH  54  78
ATOM     78  C   UNL     1      -8.571 -10.094  -5.234  1.00  0.00     0.064 A 
ATOM     79  C   UNL     1      -7.730 -10.805  -6.100  1.00  0.00     0.173 A 
ATOM     80  C   UNL     1      -9.095 -10.773  -4.123  1.00  0.00     0.173 A 
ATOM     81  F   UNL     1      -7.231 -10.205  -7.190  1.00  0.00    -0.203 F 
ATOM     82  C   UNL     1      -7.420 -12.141  -5.859  1.00  0.00     0.198 A 
ATOM     83  C   UNL     1      -8.759 -12.100  -3.868  1.00  0.00     0.198 A 
ATOM     84  F   UNL     1      -9.907 -10.135  -3.267  1.00  0.00    -0.203 F 
ATOM     85  F   UNL     1      -6.635 -12.808  -6.716  1.00  0.00    -0.200 F 
ATOM     86  C   UNL     1      -7.924 -12.784  -4.738  1.00  0.00     0.200 A 
ATOM     87  F   UNL     1      -9.236 -12.711  -2.775  1.00  0.00    -0.200 F 
ATOM     88  F   UNL     1      -7.609 -14.064  -4.498  1.00  0.00    -0.200 F 
ENDBRANCH  54  78
BRANCH  66  89
ATOM     89  C   UNL     1     -12.588  -6.686  -9.776  1.00  0.00     0.064 A 
ATOM     90  C   UNL     1     -13.826  -7.303  -9.548  1.00  0.00     0.173 A 
ATOM     91  C   UNL     1     -12.177  -6.496 -11.103  1.00  0.00     0.173 A 
ATOM     92  F   UNL     1     -14.251  -7.521  -8.294  1.00  0.00    -0.203 F 
ATOM     93  C   UNL     1     -14.616  -7.731 -10.611  1.00  0.00     0.198 A 
ATOM     94  C   UNL     1     -12.978  -6.908 -12.164  1.00  0.00     0.198 A 
ATOM     95  F   UNL     1     -11.000  -5.909 -11.368  1.00  0.00    -0.203 F 
ATOM     96  F   UNL     1     -15.778  -8.353 -10.372  1.00  0.00    -0.200 F 
ATOM     97  C   UNL     1     -14.193  -7.529 -11.917  1.00  0.00     0.200 A 
ATOM     98  F   UNL     1     -12.571  -6.709 -13.425  1.00  0.00    -0.200 F 
ATOM     99  F   UNL     1     -14.954  -7.944 -12.940  1.00  0.00    -0.200 F 
ENDBRANCH  66  89
ENDBRANCH  40  41
ENDBRANCH  33  35
ENDBRANCH  32  33
ENDBRANCH  31  32
ENDBRANCH   1  31
TORSDOF 14
