REMARK SMILES COC(=O)c1ccc(-c2ccc(C(=O)OCCOC(=O)c3ccc(-c4c5nc(c(-c6c(F)c(F)c(F)c(F)c6F)c6ccc([nH]6)c(-c6c(F)c(F)c(F)c(F)c6F)c6nc(c(-c7c(F)c(F)c(F)c(F)c7F)c7ccc4[nH]7)C=C6)C=C5)cc3)cc2O)cc1F
REMARK SMILES IDX 16 1 15 2 13 3 14 4 12 5 9 6 10 7 85 8 11 9 84 10 8 11 5 12
REMARK SMILES IDX 6 13 88 14 7 15 87 16 89 17 3 18 4 19 2 20 1 21 86 22 17 24
REMARK SMILES IDX 18 25 19 26 20 27 21 28 22 29 83 30 23 31 82 32 24 33 25 34
REMARK SMILES IDX 26 35 76 36 27 37 81 38 75 39 77 40 28 41 80 42 74 43 73 44
REMARK SMILES IDX 29 46 61 47 41 48 60 49 42 50 45 51 59 52 78 53 43 54 44 55
REMARK SMILES IDX 58 57 79 58 46 59 30 60 31 61 39 62 32 63 33 64 37 65 40 66
REMARK SMILES IDX 34 67 35 68 38 69 36 70 62 71 63 72 71 73 64 74 65 75 69 76
REMARK SMILES IDX 72 77 66 78 67 79 70 80 68 81 47 82 48 83 56 84 49 85 50 86
REMARK SMILES IDX 54 87 57 88 51 89 52 90 55 91 53 92
REMARK H PARENT 86 23 77 45 45 56
REMARK Flexibility Score: inf
ROOT
ATOM      1  C   UNL     1      -2.797 -10.786   8.232  1.00  0.00     0.275 C 
ENDROOT
BRANCH   1   2
ATOM      2  O   UNL     1      -2.515  -9.842   7.176  1.00  0.00    -0.458 OA
BRANCH   2   3
ATOM      3  C   UNL     1      -2.330  -8.557   7.566  1.00  0.00     0.338 C 
ATOM      4  O   UNL     1      -2.400  -8.129   8.707  1.00  0.00    -0.246 OA
BRANCH   3   5
ATOM      5  C   UNL     1      -1.907  -7.709   6.424  1.00  0.00     0.063 A 
ATOM      6  C   UNL     1      -1.018  -6.022   4.340  1.00  0.00     0.024 A 
ATOM      7  C   UNL     1      -0.526  -5.872   5.641  1.00  0.00     0.013 A 
ATOM      8  C   UNL     1      -1.984  -7.021   4.112  1.00  0.00     0.124 A 
ATOM      9  C   UNL     1      -1.000  -6.673   6.674  1.00  0.00     0.016 A 
ATOM     10  C   UNL     1      -2.410  -7.881   5.134  1.00  0.00     0.062 A 
BRANCH   6  11
ATOM     11  C   UNL     1      -0.543  -5.092   3.306  1.00  0.00    -0.012 A 
ATOM     12  C   UNL     1       0.400  -3.185   1.464  1.00  0.00     0.095 A 
ATOM     13  C   UNL     1       1.279  -4.131   2.000  1.00  0.00     0.019 A 
ATOM     14  C   UNL     1      -0.944  -3.207   1.829  1.00  0.00     0.138 A 
ATOM     15  C   UNL     1       0.810  -5.071   2.921  1.00  0.00     0.010 A 
ATOM     16  C   UNL     1      -1.414  -4.149   2.740  1.00  0.00     0.049 A 
ATOM     17  F   UNL     1      -1.820  -2.336   1.308  1.00  0.00    -0.206 F 
BRANCH  12  18
ATOM     18  C   UNL     1       0.927  -2.203   0.502  1.00  0.00     0.340 C 
ATOM     19  O   UNL     1       1.777  -2.473  -0.327  1.00  0.00    -0.246 OA
BRANCH  18  20
ATOM     20  O   UNL     1       0.409  -0.978   0.761  1.00  0.00    -0.465 OA
ATOM     21  C   UNL     1       0.917   0.053  -0.086  1.00  0.00     0.282 C 
ENDBRANCH  18  20
ENDBRANCH  12  18
ENDBRANCH   6  11
BRANCH   8  22
ATOM     22  O   UNL     1      -2.526  -7.142   2.861  1.00  0.00    -0.507 OA
ATOM     23  H   UNL     1      -2.247  -6.571   2.172  1.00  0.00     0.293 HD
ENDBRANCH   8  22
ENDBRANCH   3   5
ENDBRANCH   2   3
ENDBRANCH   1   2
BRANCH   1  24
ATOM     24  C   UNL     1      -1.563 -11.613   8.604  1.00  0.00     0.275 C 
BRANCH  24  25
ATOM     25  O   UNL     1      -0.577 -10.809   9.280  1.00  0.00    -0.458 OA
BRANCH  25  26
ATOM     26  C   UNL     1       0.451 -10.406   8.503  1.00  0.00     0.338 C 
ATOM     27  O   UNL     1       0.634 -10.655   7.323  1.00  0.00    -0.246 OA
BRANCH  26  28
ATOM     28  C   UNL     1       1.335  -9.494   9.241  1.00  0.00     0.060 A 
ATOM     29  C   UNL     1       1.008  -8.145   9.226  1.00  0.00     0.016 A 
ATOM     30  C   UNL     1       2.575  -9.904   9.717  1.00  0.00     0.016 A 
ATOM     31  C   UNL     1       1.966  -7.185   9.527  1.00  0.00     0.010 A 
ATOM     32  C   UNL     1       3.492  -8.938  10.159  1.00  0.00     0.010 A 
ATOM     33  C   UNL     1       3.223  -7.562  10.017  1.00  0.00    -0.014 A 
BRANCH  33  34
ATOM     34  C   UNL     1       4.253  -6.528  10.339  1.00  0.00     0.031 A 
ATOM     35  C   UNL     1       5.626  -6.599   9.714  1.00  0.00     0.074 A 
ATOM     36  C   UNL     1       3.963  -5.504  11.171  1.00  0.00     0.049 A 
ATOM     37  N   UNL     1       6.708  -5.919  10.006  1.00  0.00    -0.248 NA
ATOM     38  C   UNL     1       5.814  -7.571   8.623  1.00  0.00     0.031 C 
ATOM     39  C   UNL     1       2.663  -5.263  11.800  1.00  0.00     0.029 A 
ATOM     40  N   UNL     1       4.740  -4.464  11.626  1.00  0.00    -0.354 N 
ATOM     41  C   UNL     1       7.708  -6.414   9.177  1.00  0.00     0.074 A 
ATOM     42  C   UNL     1       7.114  -7.465   8.380  1.00  0.00     0.031 C 
ATOM     43  C   UNL     1       2.716  -4.128  12.511  1.00  0.00     0.029 A 
ATOM     44  C   UNL     1       4.081  -3.619  12.487  1.00  0.00     0.049 A 
ATOM     45  H   UNL     1       5.679  -4.337  11.360  1.00  0.00     0.167 HD
ATOM     46  C   UNL     1       9.001  -6.021   9.085  1.00  0.00     0.037 A 
ATOM     47  C   UNL     1       4.527  -2.581  13.222  1.00  0.00     0.037 A 
ATOM     48  C   UNL     1       9.574  -4.937   9.842  1.00  0.00     0.049 A 
ATOM     49  C   UNL     1       5.983  -2.215  13.158  1.00  0.00     0.074 A 
ATOM     50  C   UNL     1      10.876  -4.466   9.820  1.00  0.00     0.029 A 
ATOM     51  N   UNL     1       8.876  -4.142  10.739  1.00  0.00    -0.354 N 
ATOM     52  N   UNL     1       6.934  -2.734  12.421  1.00  0.00    -0.248 NA
ATOM     53  C   UNL     1       6.434  -1.130  14.041  1.00  0.00     0.031 C 
ATOM     54  C   UNL     1      10.978  -3.418  10.738  1.00  0.00     0.029 A 
ATOM     55  C   UNL     1       9.725  -3.192  11.285  1.00  0.00     0.049 A 
ATOM     56  H   UNL     1       7.921  -4.237  10.956  1.00  0.00     0.167 HD
ATOM     57  C   UNL     1       8.085  -2.022  12.727  1.00  0.00     0.074 A 
ATOM     58  C   UNL     1       7.712  -1.024  13.707  1.00  0.00     0.031 C 
ATOM     59  C   UNL     1       9.337  -2.185  12.238  1.00  0.00     0.037 A 
BRANCH  46  60
ATOM     60  C   UNL     1       9.909  -6.761   8.142  1.00  0.00     0.064 A 
ATOM     61  C   UNL     1      10.962  -7.543   8.643  1.00  0.00     0.173 A 
ATOM     62  C   UNL     1       9.806  -6.617   6.752  1.00  0.00     0.173 A 
ATOM     63  F   UNL     1      11.113  -7.708   9.966  1.00  0.00    -0.203 F 
ATOM     64  C   UNL     1      11.891  -8.132   7.788  1.00  0.00     0.198 A 
ATOM     65  C   UNL     1      10.719  -7.233   5.898  1.00  0.00     0.198 A 
ATOM     66  F   UNL     1       8.812  -5.889   6.220  1.00  0.00    -0.203 F 
ATOM     67  F   UNL     1      12.914  -8.834   8.294  1.00  0.00    -0.200 F 
ATOM     68  C   UNL     1      11.767  -7.978   6.417  1.00  0.00     0.200 A 
ATOM     69  F   UNL     1      10.585  -7.102   4.571  1.00  0.00    -0.200 F 
ATOM     70  F   UNL     1      12.660  -8.545   5.594  1.00  0.00    -0.200 F 
ENDBRANCH  46  60
BRANCH  47  71
ATOM     71  C   UNL     1       3.587  -1.835  14.104  1.00  0.00     0.064 A 
ATOM     72  C   UNL     1       2.977  -2.445  15.211  1.00  0.00     0.173 A 
ATOM     73  C   UNL     1       3.275  -0.493  13.848  1.00  0.00     0.173 A 
ATOM     74  F   UNL     1       3.240  -3.727  15.504  1.00  0.00    -0.203 F 
ATOM     75  C   UNL     1       2.070  -1.750  16.009  1.00  0.00     0.198 A 
ATOM     76  C   UNL     1       2.397   0.212  14.670  1.00  0.00     0.198 A 
ATOM     77  F   UNL     1       3.851   0.144  12.818  1.00  0.00    -0.203 F 
ATOM     78  F   UNL     1       1.469  -2.372  17.033  1.00  0.00    -0.200 F 
ATOM     79  C   UNL     1       1.787  -0.420  15.743  1.00  0.00     0.200 A 
ATOM     80  F   UNL     1       2.151   1.507  14.429  1.00  0.00    -0.200 F 
ATOM     81  F   UNL     1       0.933   0.254  16.524  1.00  0.00    -0.200 F 
ENDBRANCH  47  71
BRANCH  59  82
ATOM     82  C   UNL     1      10.399  -1.231  12.704  1.00  0.00     0.064 A 
ATOM     83  C   UNL     1      10.951  -0.300  11.809  1.00  0.00     0.173 A 
ATOM     84  C   UNL     1      10.927  -1.289  14.001  1.00  0.00     0.173 A 
ATOM     85  F   UNL     1      10.485  -0.210  10.554  1.00  0.00    -0.203 F 
ATOM     86  C   UNL     1      12.006   0.522  12.191  1.00  0.00     0.198 A 
ATOM     87  C   UNL     1      11.961  -0.441  14.389  1.00  0.00     0.198 A 
ATOM     88  F   UNL     1      10.424  -2.151  14.897  1.00  0.00    -0.203 F 
ATOM     89  F   UNL     1      12.545   1.372  11.306  1.00  0.00    -0.200 F 
ATOM     90  C   UNL     1      12.507   0.454  13.481  1.00  0.00     0.200 A 
ATOM     91  F   UNL     1      12.427  -0.489  15.645  1.00  0.00    -0.200 F 
ATOM     92  F   UNL     1      13.518   1.253  13.851  1.00  0.00    -0.200 F 
ENDBRANCH  59  82
ENDBRANCH  33  34
ENDBRANCH  26  28
ENDBRANCH  25  26
ENDBRANCH  24  25
ENDBRANCH   1  24
TORSDOF 15
