REMARK SMILES Cc1ccc(S(=O)(=O)Nc2cc(C(=O)OCCOC(=O)c3ccc(-c4c5nc(c(-c6c(F)c(F)c(F)c(F)c6F)c6ccc([nH]6)c(-c6c(F)c(F)c(F)c(F)c6F)c6nc(c(-c7c(F)c(F)c(F)c(F)c7F)c7ccc4[nH]7)C=C6)C=C5)cc3)ccc2C)c(Br)c1
REMARK SMILES IDX 16 1 15 2 13 3 14 4 12 5 10 6 11 7 86 8 85 9 87 10 84 11
REMARK SMILES IDX 9 12 6 14 7 15 8 16 5 17 1 18 2 19 3 20 90 21 4 22 88 23
REMARK SMILES IDX 89 24 17 25 18 26 19 27 20 28 21 29 22 30 83 31 23 32 82 33
REMARK SMILES IDX 24 34 25 35 26 36 76 37 27 38 81 39 75 40 77 41 28 42 80 43
REMARK SMILES IDX 74 44 73 45 29 47 61 48 41 49 60 50 42 51 45 52 59 53 78 54
REMARK SMILES IDX 43 55 44 56 58 58 79 59 46 60 30 61 31 62 39 63 32 64 33 65
REMARK SMILES IDX 37 66 40 67 34 68 35 69 38 70 36 71 62 72 63 73 71 74 64 75
REMARK SMILES IDX 65 76 69 77 72 78 66 79 67 80 70 81 68 82 47 83 48 84 56 85
REMARK SMILES IDX 49 86 50 87 54 88 57 89 51 90 52 91 55 92 53 93
REMARK H PARENT 9 13 77 46 45 57
REMARK Flexibility Score: inf
ROOT
ATOM      1  C   UNL     1      -5.877   0.972   4.114  1.00  0.00     0.275 C 
ENDROOT
BRANCH   1   2
ATOM      2  O   UNL     1      -4.920   1.202   3.063  1.00  0.00    -0.458 OA
BRANCH   2   3
ATOM      3  C   UNL     1      -5.224   2.210   1.976  1.00  0.00     0.338 C 
ATOM      4  O   UNL     1      -6.472   2.011   1.886  1.00  0.00    -0.246 OA
BRANCH   3   5
ATOM      5  C   UNL     1      -3.821   3.524   1.014  1.00  0.00     0.062 A 
ATOM      6  C   UNL     1      -1.271   4.319   0.337  1.00  0.00     0.053 A 
ATOM      7  C   UNL     1      -2.267   3.643   1.130  1.00  0.00     0.042 A 
ATOM      8  C   UNL     1      -1.694   5.162  -0.676  1.00  0.00    -0.027 A 
ATOM      9  C   UNL     1      -3.069   5.304  -0.833  1.00  0.00     0.006 A 
ATOM     10  C   UNL     1      -0.840   6.016  -1.566  1.00  0.00     0.046 C 
ATOM     11  C   UNL     1      -4.020   4.569  -0.067  1.00  0.00     0.016 A 
BRANCH   6  12
ATOM     12  N   UNL     1       0.106   4.185   0.763  1.00  0.00    -0.279 N 
ATOM     13  H   UNL     1       0.438   4.883   1.373  1.00  0.00     0.180 HD
BRANCH  12  14
ATOM     14  S   UNL     1       1.238   2.958   0.337  1.00  0.00     0.263 S 
ATOM     15  O   UNL     1       2.408   3.326   1.106  1.00  0.00    -0.201 OA
ATOM     16  O   UNL     1       1.290   2.900  -1.109  1.00  0.00    -0.201 OA
BRANCH  14  17
ATOM     17  C   UNL     1       0.681   1.367   0.911  1.00  0.00     0.101 A 
ATOM     18  C   UNL     1      -1.469  -2.269   2.019  1.00  0.00     0.044 C 
ATOM     19  C   UNL     1      -0.577  -1.116   1.660  1.00  0.00    -0.050 A 
ATOM     20  C   UNL     1      -1.163  -0.154   0.885  1.00  0.00     0.005 A 
ATOM     21  C   UNL     1       0.737  -0.867   1.996  1.00  0.00     0.020 A 
ATOM     22  C   UNL     1      -0.576   1.040   0.487  1.00  0.00     0.024 A 
ATOM     23  C   UNL     1       1.376   0.366   1.615  1.00  0.00     0.038 A 
ATOM     24  Br  UNL     1       3.221   0.459   2.027  1.00  0.00    -0.049 Br
ENDBRANCH  14  17
ENDBRANCH  12  14
ENDBRANCH   6  12
ENDBRANCH   3   5
ENDBRANCH   2   3
ENDBRANCH   1   2
BRANCH   1  25
ATOM     25  C   UNL     1      -5.921   2.183   5.050  1.00  0.00     0.275 C 
BRANCH  25  26
ATOM     26  O   UNL     1      -6.528   3.366   4.463  1.00  0.00    -0.458 OA
BRANCH  26  27
ATOM     27  C   UNL     1      -5.781   4.416   4.013  1.00  0.00     0.338 C 
ATOM     28  O   UNL     1      -5.936   5.572   4.367  1.00  0.00    -0.246 OA
BRANCH  27  29
ATOM     29  C   UNL     1      -4.993   4.082   2.801  1.00  0.00     0.060 A 
ATOM     30  C   UNL     1      -5.948   4.003   1.267  1.00  0.00     0.016 A 
ATOM     31  C   UNL     1      -3.629   2.950   3.071  1.00  0.00     0.016 A 
ATOM     32  C   UNL     1      -5.560   2.717  -0.003  1.00  0.00     0.010 A 
ATOM     33  C   UNL     1      -3.281   1.632   1.819  1.00  0.00     0.010 A 
ATOM     34  C   UNL     1      -4.239   1.525   0.272  1.00  0.00    -0.014 A 
BRANCH  34  35
ATOM     35  C   UNL     1      -4.278   0.215  -0.435  1.00  0.00     0.031 A 
ATOM     36  C   UNL     1      -3.191  -0.302  -1.340  1.00  0.00     0.074 A 
ATOM     37  C   UNL     1      -5.119  -0.647   0.192  1.00  0.00     0.049 A 
ATOM     38  N   UNL     1      -2.910  -1.559  -1.399  1.00  0.00    -0.248 NA
ATOM     39  C   UNL     1      -2.193   0.480  -2.077  1.00  0.00     0.031 C 
ATOM     40  C   UNL     1      -5.080  -2.099   0.327  1.00  0.00     0.029 A 
ATOM     41  N   UNL     1      -6.417  -0.329   0.594  1.00  0.00    -0.354 N 
ATOM     42  C   UNL     1      -1.613  -1.741  -1.851  1.00  0.00     0.074 A 
ATOM     43  C   UNL     1      -1.201  -0.423  -2.264  1.00  0.00     0.031 C 
ATOM     44  C   UNL     1      -6.332  -2.566   0.472  1.00  0.00     0.029 A 
ATOM     45  C   UNL     1      -7.220  -1.437   0.284  1.00  0.00     0.049 A 
ATOM     46  H   UNL     1      -6.713   0.511   1.014  1.00  0.00     0.167 HD
ATOM     47  C   UNL     1      -1.104  -3.004  -1.687  1.00  0.00     0.037 A 
ATOM     48  C   UNL     1      -8.094  -1.299  -0.757  1.00  0.00     0.037 A 
ATOM     49  C   UNL     1      -2.235  -3.925  -1.708  1.00  0.00     0.049 A 
ATOM     50  C   UNL     1      -7.660  -2.114  -1.970  1.00  0.00     0.074 A 
ATOM     51  C   UNL     1      -2.886  -4.790  -0.852  1.00  0.00     0.029 A 
ATOM     52  N   UNL     1      -3.048  -3.781  -2.814  1.00  0.00    -0.354 N 
ATOM     53  N   UNL     1      -6.454  -2.601  -2.142  1.00  0.00    -0.248 NA
ATOM     54  C   UNL     1      -8.566  -2.541  -3.029  1.00  0.00     0.031 C 
ATOM     55  C   UNL     1      -4.198  -4.999  -1.400  1.00  0.00     0.029 A 
ATOM     56  C   UNL     1      -4.291  -4.308  -2.601  1.00  0.00     0.049 A 
ATOM     57  H   UNL     1      -2.767  -3.352  -3.654  1.00  0.00     0.167 HD
ATOM     58  C   UNL     1      -6.416  -3.415  -3.246  1.00  0.00     0.074 A 
ATOM     59  C   UNL     1      -7.768  -3.340  -3.763  1.00  0.00     0.031 C 
ATOM     60  C   UNL     1      -5.291  -4.095  -3.638  1.00  0.00     0.037 A 
BRANCH  47  61
ATOM     61  C   UNL     1       0.313  -3.510  -1.500  1.00  0.00     0.064 A 
ATOM     62  C   UNL     1       0.559  -4.907  -1.407  1.00  0.00     0.173 A 
ATOM     63  C   UNL     1       1.423  -2.699  -1.208  1.00  0.00     0.173 A 
ATOM     64  F   UNL     1      -0.396  -5.804  -1.691  1.00  0.00    -0.203 F 
ATOM     65  C   UNL     1       1.785  -5.443  -0.999  1.00  0.00     0.198 A 
ATOM     66  C   UNL     1       2.663  -3.241  -0.818  1.00  0.00     0.198 A 
ATOM     67  F   UNL     1       1.329  -1.364  -1.262  1.00  0.00    -0.203 F 
ATOM     68  F   UNL     1       1.925  -6.772  -0.876  1.00  0.00    -0.200 F 
ATOM     69  C   UNL     1       2.837  -4.610  -0.696  1.00  0.00     0.200 A 
ATOM     70  F   UNL     1       3.689  -2.427  -0.530  1.00  0.00    -0.200 F 
ATOM     71  F   UNL     1       4.007  -5.121  -0.285  1.00  0.00    -0.200 F 
ENDBRANCH  47  61
BRANCH  48  72
ATOM     72  C   UNL     1      -8.810   0.020  -0.659  1.00  0.00     0.064 A 
ATOM     73  C   UNL     1      -9.493   0.262   0.563  1.00  0.00     0.173 A 
ATOM     74  C   UNL     1      -8.488   1.149  -1.420  1.00  0.00     0.173 A 
ATOM     75  F   UNL     1      -9.852  -0.776   1.337  1.00  0.00    -0.203 F 
ATOM     76  C   UNL     1      -9.671   1.547   1.077  1.00  0.00     0.198 A 
ATOM     77  C   UNL     1      -8.736   2.445  -0.929  1.00  0.00     0.198 A 
ATOM     78  F   UNL     1      -7.800   1.024  -2.565  1.00  0.00    -0.203 F 
ATOM     79  F   UNL     1     -10.150   1.712   2.319  1.00  0.00    -0.200 F 
ATOM     80  C   UNL     1      -9.271   2.641   0.338  1.00  0.00     0.200 A 
ATOM     81  F   UNL     1      -8.315   3.514  -1.625  1.00  0.00    -0.200 F 
ATOM     82  F   UNL     1      -9.341   3.875   0.862  1.00  0.00    -0.200 F 
ENDBRANCH  48  72
BRANCH  60  83
ATOM     83  C   UNL     1      -4.971  -4.585  -5.054  1.00  0.00     0.064 A 
ATOM     84  C   UNL     1      -5.715  -4.245  -6.194  1.00  0.00     0.173 A 
ATOM     85  C   UNL     1      -3.761  -5.287  -5.341  1.00  0.00     0.173 A 
ATOM     86  F   UNL     1      -6.788  -3.451  -6.127  1.00  0.00    -0.203 F 
ATOM     87  C   UNL     1      -5.345  -4.648  -7.482  1.00  0.00     0.198 A 
ATOM     88  C   UNL     1      -3.340  -5.588  -6.636  1.00  0.00     0.198 A 
ATOM     89  F   UNL     1      -2.909  -5.675  -4.381  1.00  0.00    -0.203 F 
ATOM     90  F   UNL     1      -6.146  -4.358  -8.515  1.00  0.00    -0.200 F 
ATOM     91  C   UNL     1      -4.151  -5.301  -7.707  1.00  0.00     0.200 A 
ATOM     92  F   UNL     1      -2.131  -6.136  -6.833  1.00  0.00    -0.200 F 
ATOM     93  F   UNL     1      -3.775  -5.630  -8.949  1.00  0.00    -0.200 F 
ENDBRANCH  60  83
ENDBRANCH  34  35
ENDBRANCH  27  29
ENDBRANCH  26  27
ENDBRANCH  25  26
ENDBRANCH   1  25
TORSDOF 14
