REMARK SMILES CC1(C)[C@H](O)CC[C@]2(C)[C@@H]1CC[C@@]1(C)Oc3oc(C(=O)OCCOC(=O)c4ccc(-c5c6nc(c(-c7c(F)c(F)c(F)c(F)c7F)c7ccc([nH]7)c(-c7c(F)c(F)c(F)c(F)c7F)c7nc(c(-c8c(F)c(F)c(F)c(F)c8F)c8ccc5[nH]8)C=C7)C=C6)cc4)cc(=O)c3C[C@H]21
REMARK SMILES IDX 23 1 22 2 21 3 19 4 20 5 18 6 1 7 2 8 3 9 4 10 10 11 6 12
REMARK SMILES IDX 8 13 11 14 7 15 9 16 95 17 12 18 13 19 94 20 14 21 15 22
REMARK SMILES IDX 93 23 16 24 91 25 17 26 90 27 92 28 5 29 24 31 25 32 26 33
REMARK SMILES IDX 27 34 28 35 89 36 29 37 88 38 30 39 31 40 32 41 82 42 33 43
REMARK SMILES IDX 87 44 81 45 83 46 34 47 86 48 80 49 79 50 35 52 67 53 47 54
REMARK SMILES IDX 66 55 48 56 51 57 65 58 84 59 49 60 50 61 64 63 85 64 52 65
REMARK SMILES IDX 36 66 37 67 45 68 38 69 39 70 43 71 46 72 40 73 41 74 44 75
REMARK SMILES IDX 42 76 68 77 69 78 77 79 70 80 71 81 75 82 78 83 72 84 73 85
REMARK SMILES IDX 76 86 74 87 53 88 54 89 62 90 55 91 56 92 60 93 63 94 57 95
REMARK SMILES IDX 58 96 61 97 59 98
REMARK H PARENT 5 30 83 51 51 62
REMARK Flexibility Score: inf
ROOT
ATOM      1  C   UNL     1       0.675   9.372   6.550  1.00  0.00     0.275 C 
ENDROOT
BRANCH   1   2
ATOM      2  C   UNL     1      -0.502   8.436   6.270  1.00  0.00     0.275 C 
BRANCH   2   3
ATOM      3  O   UNL     1      -0.101   7.486   5.272  1.00  0.00    -0.456 OA
BRANCH   3   4
ATOM      4  C   UNL     1      -0.499   7.631   3.977  1.00  0.00     0.374 C 
ATOM      5  O   UNL     1      -1.386   8.370   3.577  1.00  0.00    -0.242 OA
BRANCH   4   6
ATOM      6  C   UNL     1       0.433   6.829   3.121  1.00  0.00     0.219 A 
ATOM      7  C   UNL     1       2.015  -0.042  -2.927  1.00  0.00     0.014 C 
ATOM      8  C   UNL     1       1.189   1.184  -2.433  1.00  0.00    -0.006 C 
ATOM      9  C   UNL     1      -0.162   1.095  -3.188  1.00  0.00     0.014 C 
ATOM     10  C   UNL     1       0.820   0.715  -0.848  1.00  0.00     0.120 C 
ATOM     11  C   UNL     1       2.230   2.663  -2.523  1.00  0.00     0.004 C 
ATOM     12  C   UNL     1       1.991   0.848   0.093  1.00  0.00     0.033 C 
ATOM     13  C   UNL     1       1.984   3.138  -1.122  1.00  0.00    -0.022 C 
ATOM     14  C   UNL     1       2.398   3.996  -3.364  1.00  0.00     0.009 C 
ATOM     15  C   UNL     1       2.802   1.975  -0.422  1.00  0.00     0.010 C 
ATOM     16  C   UNL     1       0.411   3.589  -1.483  1.00  0.00     0.012 C 
ATOM     17  C   UNL     1       2.328   4.370  -0.344  1.00  0.00     0.044 C 
ATOM     18  C   UNL     1       2.438   5.472  -2.605  1.00  0.00     0.049 C 
ATOM     19  C   UNL     1       2.801   5.604  -1.042  1.00  0.00     0.113 C 
ATOM     20  C   UNL     1       2.882   4.237   1.056  1.00  0.00     0.055 C 
ATOM     21  C   UNL     1       4.315   5.852  -0.910  1.00  0.00     0.057 C 
ATOM     22  O   UNL     1       2.104   6.715  -0.264  1.00  0.00    -0.458 OA
ATOM     23  C   UNL     1       2.340   5.389   1.790  1.00  0.00     0.081 A 
ATOM     24  C   UNL     1       1.860   6.486   1.167  1.00  0.00     0.292 A 
ATOM     25  C   UNL     1       1.948   4.996   3.153  1.00  0.00     0.192 A 
ATOM     26  O   UNL     1       0.914   7.284   1.867  1.00  0.00    -0.418 OA
ATOM     27  C   UNL     1       0.843   5.712   3.728  1.00  0.00     0.107 A 
ATOM     28  O   UNL     1       2.455   4.059   3.758  1.00  0.00    -0.289 OA
BRANCH  10  29
ATOM     29  O   UNL     1      -0.234   1.408  -0.183  1.00  0.00    -0.393 OA
ATOM     30  H   UNL     1       0.037   2.324  -0.014  1.00  0.00     0.210 HD
ENDBRANCH  10  29
ENDBRANCH   4   6
ENDBRANCH   3   4
ENDBRANCH   2   3
ENDBRANCH   1   2
BRANCH   1  31
ATOM     31  O   UNL     1       0.894  10.227   5.411  1.00  0.00    -0.458 OA
BRANCH  31  32
ATOM     32  C   UNL     1       1.887   9.838   4.581  1.00  0.00     0.338 C 
ATOM     33  O   UNL     1       2.660   8.905   4.724  1.00  0.00    -0.246 OA
BRANCH  32  34
ATOM     34  C   UNL     1       1.848  10.637   3.351  1.00  0.00     0.060 A 
ATOM     35  C   UNL     1       0.982  10.244   2.336  1.00  0.00     0.016 A 
ATOM     36  C   UNL     1       2.791  11.631   3.119  1.00  0.00     0.016 A 
ATOM     37  C   UNL     1       1.134  10.724   1.048  1.00  0.00     0.010 A 
ATOM     38  C   UNL     1       2.861  12.212   1.849  1.00  0.00     0.010 A 
ATOM     39  C   UNL     1       2.061  11.731   0.795  1.00  0.00    -0.014 A 
BRANCH  39  40
ATOM     40  C   UNL     1       2.221  12.236  -0.586  1.00  0.00     0.031 A 
ATOM     41  C   UNL     1       3.541  12.080  -1.278  1.00  0.00     0.074 A 
ATOM     42  C   UNL     1       1.176  12.793  -1.226  1.00  0.00     0.049 A 
ATOM     43  N   UNL     1       3.969  12.639  -2.380  1.00  0.00    -0.248 NA
ATOM     44  C   UNL     1       4.517  11.181  -0.640  1.00  0.00     0.031 C 
ATOM     45  C   UNL     1      -0.188  12.894  -0.700  1.00  0.00     0.029 A 
ATOM     46  N   UNL     1       1.097  13.379  -2.462  1.00  0.00    -0.354 N 
ATOM     47  C   UNL     1       5.275  12.199  -2.541  1.00  0.00     0.074 A 
ATOM     48  C   UNL     1       5.577  11.334  -1.421  1.00  0.00     0.031 C 
ATOM     49  C   UNL     1      -0.970  13.487  -1.613  1.00  0.00     0.029 A 
ATOM     50  C   UNL     1      -0.143  13.898  -2.740  1.00  0.00     0.049 A 
ATOM     51  H   UNL     1       1.855  13.423  -3.089  1.00  0.00     0.167 HD
ATOM     52  C   UNL     1       6.136  12.499  -3.541  1.00  0.00     0.037 A 
ATOM     53  C   UNL     1      -0.552  14.671  -3.762  1.00  0.00     0.037 A 
ATOM     54  C   UNL     1       5.799  13.335  -4.664  1.00  0.00     0.049 A 
ATOM     55  C   UNL     1       0.450  15.071  -4.806  1.00  0.00     0.074 A 
ATOM     56  C   UNL     1       6.599  13.725  -5.722  1.00  0.00     0.029 A 
ATOM     57  N   UNL     1       4.548  13.899  -4.879  1.00  0.00    -0.354 N 
ATOM     58  N   UNL     1       1.712  14.734  -4.913  1.00  0.00    -0.248 NA
ATOM     59  C   UNL     1      -0.025  15.975  -5.860  1.00  0.00     0.031 C 
ATOM     60  C   UNL     1       5.846  14.560  -6.554  1.00  0.00     0.029 A 
ATOM     61  C   UNL     1       4.560  14.647  -6.045  1.00  0.00     0.049 A 
ATOM     62  H   UNL     1       3.768  13.784  -4.289  1.00  0.00     0.167 HD
ATOM     63  C   UNL     1       2.181  15.369  -6.053  1.00  0.00     0.074 A 
ATOM     64  C   UNL     1       1.058  16.092  -6.616  1.00  0.00     0.031 C 
ATOM     65  C   UNL     1       3.429  15.361  -6.584  1.00  0.00     0.037 A 
BRANCH  52  66
ATOM     66  C   UNL     1       7.531  11.954  -3.450  1.00  0.00     0.064 A 
ATOM     67  C   UNL     1       7.812  10.594  -3.647  1.00  0.00     0.173 A 
ATOM     68  C   UNL     1       8.611  12.818  -3.208  1.00  0.00     0.173 A 
ATOM     69  F   UNL     1       6.815   9.722  -3.861  1.00  0.00    -0.203 F 
ATOM     70  C   UNL     1       9.120  10.118  -3.593  1.00  0.00     0.198 A 
ATOM     71  C   UNL     1       9.919  12.344  -3.185  1.00  0.00     0.198 A 
ATOM     72  F   UNL     1       8.398  14.128  -3.011  1.00  0.00    -0.203 F 
ATOM     73  F   UNL     1       9.362   8.809  -3.747  1.00  0.00    -0.200 F 
ATOM     74  C   UNL     1      10.173  10.994  -3.373  1.00  0.00     0.200 A 
ATOM     75  F   UNL     1      10.936  13.195  -2.984  1.00  0.00    -0.200 F 
ATOM     76  F   UNL     1      11.432  10.537  -3.338  1.00  0.00    -0.200 F 
ENDBRANCH  52  66
BRANCH  53  77
ATOM     77  C   UNL     1      -1.960  15.142  -3.813  1.00  0.00     0.064 A 
ATOM     78  C   UNL     1      -2.832  14.689  -4.811  1.00  0.00     0.173 A 
ATOM     79  C   UNL     1      -2.471  16.034  -2.856  1.00  0.00     0.173 A 
ATOM     80  F   UNL     1      -2.385  13.857  -5.763  1.00  0.00    -0.203 F 
ATOM     81  C   UNL     1      -4.159  15.113  -4.854  1.00  0.00     0.198 A 
ATOM     82  C   UNL     1      -3.805  16.431  -2.881  1.00  0.00     0.198 A 
ATOM     83  F   UNL     1      -1.678  16.499  -1.879  1.00  0.00    -0.203 F 
ATOM     84  F   UNL     1      -4.962  14.693  -5.841  1.00  0.00    -0.200 F 
ATOM     85  C   UNL     1      -4.647  15.975  -3.883  1.00  0.00     0.200 A 
ATOM     86  F   UNL     1      -4.276  17.251  -1.931  1.00  0.00    -0.200 F 
ATOM     87  F   UNL     1      -5.927  16.370  -3.917  1.00  0.00    -0.200 F 
ENDBRANCH  53  77
BRANCH  65  88
ATOM     88  C   UNL     1       3.634  16.139  -7.850  1.00  0.00     0.064 A 
ATOM     89  C   UNL     1       3.624  17.542  -7.860  1.00  0.00     0.173 A 
ATOM     90  C   UNL     1       3.870  15.474  -9.063  1.00  0.00     0.173 A 
ATOM     91  F   UNL     1       3.386  18.223  -6.729  1.00  0.00    -0.203 F 
ATOM     92  C   UNL     1       3.813  18.249  -9.043  1.00  0.00     0.198 A 
ATOM     93  C   UNL     1       4.094  16.185 -10.237  1.00  0.00     0.198 A 
ATOM     94  F   UNL     1       3.898  14.133  -9.105  1.00  0.00    -0.203 F 
ATOM     95  F   UNL     1       3.743  19.587  -9.040  1.00  0.00    -0.200 F 
ATOM     96  C   UNL     1       4.055  17.571 -10.229  1.00  0.00     0.200 A 
ATOM     97  F   UNL     1       4.344  15.529 -11.379  1.00  0.00    -0.200 F 
ATOM     98  F   UNL     1       4.242  18.254 -11.366  1.00  0.00    -0.200 F 
ENDBRANCH  65  88
ENDBRANCH  39  40
ENDBRANCH  32  34
ENDBRANCH  31  32
ENDBRANCH   1  31
TORSDOF 12
