REMARK SMILES Cc1ccc(S(=O)(=O)n2cc(C(=O)C(=O)N[C@@H](Cc3cnc[nH]3)C(=O)OCCOC(=O)c3ccc(-c4c5nc(c(-c6c(F)c(F)c(F)c(F)c6F)c6ccc([nH]6)c(-c6c(F)c(F)c(F)c(F)c6F)c6nc(c(-c7c(F)c(F)c(F)c(F)c7F)c7ccc4[nH]7)C=C6)C=C5)cc3)c3ccccc32)cc1
REMARK SMILES IDX 26 1 24 2 25 3 17 4 16 5 14 6 15 7 12 9 13 10 11 11 9 12
REMARK SMILES IDX 10 13 100 14 95 15 99 16 96 17 98 18 97 19 6 20 7 21 8 22
REMARK SMILES IDX 5 23 1 24 2 25 3 26 102 27 4 28 101 29 18 30 19 31 20 32
REMARK SMILES IDX 23 33 21 34 22 35 27 37 28 38 29 39 30 40 31 41 32 42 33 43
REMARK SMILES IDX 94 44 34 45 93 46 35 47 36 48 37 49 87 50 38 51 92 52 86 53
REMARK SMILES IDX 88 54 39 55 91 56 85 57 84 58 40 60 72 61 52 62 71 63 53 64
REMARK SMILES IDX 56 65 70 66 89 67 54 68 55 69 69 71 90 72 57 73 41 74 42 75
REMARK SMILES IDX 50 76 43 77 44 78 48 79 51 80 45 81 46 82 49 83 47 84 73 85
REMARK SMILES IDX 74 86 82 87 75 88 76 89 80 90 83 91 77 92 78 93 81 94 79 95
REMARK SMILES IDX 58 96 59 97 67 98 60 99 61 100 65 101 68 102 62 103 63 104
REMARK SMILES IDX 66 105 64 106
REMARK H PARENT 16 8 23 36 88 59 56 70
REMARK Flexibility Score: inf
ROOT
ATOM      1  O   UNL     1      -7.126   8.443   5.934  1.00  0.00    -0.461 OA
ENDROOT
BRANCH   1   2
ATOM      2  C   UNL     1      -6.979   8.107   4.519  1.00  0.00     0.329 C 
ATOM      3  O   UNL     1      -6.101   8.918   4.114  1.00  0.00    -0.250 OA
BRANCH   2   4
ATOM      4  C   UNL     1      -8.005   6.411   3.560  1.00  0.00     0.198 C 
BRANCH   4   5
ATOM      5  N   UNL     1      -7.576   4.776   3.549  1.00  0.00    -0.335 N 
ATOM      6  C   UNL     1      -7.043   3.873   2.648  1.00  0.00     0.293 C 
ATOM      7  O   UNL     1      -7.047   2.692   2.987  1.00  0.00    -0.265 OA
ATOM      8  H   UNL     1      -7.754   4.352   4.419  1.00  0.00     0.164 HD
BRANCH   6   9
ATOM      9  C   UNL     1      -6.462   4.269   1.265  1.00  0.00     0.252 C 
ATOM     10  O   UNL     1      -6.900   5.283   0.726  1.00  0.00    -0.283 OA
BRANCH   9  11
ATOM     11  C   UNL     1      -5.459   3.418   0.574  1.00  0.00     0.054 A 
ATOM     12  N   UNL     1      -4.210   1.653  -0.038  1.00  0.00    -0.240 N 
ATOM     13  C   UNL     1      -5.069   2.132   0.920  1.00  0.00     0.117 A 
ATOM     14  C   UNL     1      -3.992   2.594  -1.021  1.00  0.00     0.065 A 
ATOM     15  C   UNL     1      -4.713   3.734  -0.627  1.00  0.00     0.012 A 
ATOM     16  C   UNL     1      -3.225   2.561  -2.202  1.00  0.00     0.028 A 
ATOM     17  C   UNL     1      -4.603   4.892  -1.432  1.00  0.00     0.011 A 
ATOM     18  C   UNL     1      -3.130   3.725  -2.964  1.00  0.00     0.002 A 
ATOM     19  C   UNL     1      -3.799   4.880  -2.579  1.00  0.00     0.001 A 
BRANCH  12  20
ATOM     20  S   UNL     1      -3.596   0.060  -0.053  1.00  0.00     0.268 S 
ATOM     21  O   UNL     1      -3.952  -0.467  -1.358  1.00  0.00    -0.201 OA
ATOM     22  O   UNL     1      -4.064  -0.556   1.175  1.00  0.00    -0.201 OA
BRANCH  20  23
ATOM     23  C   UNL     1      -1.824   0.108   0.036  1.00  0.00     0.088 A 
ATOM     24  C   UNL     1       2.481  -0.038   0.005  1.00  0.00     0.044 C 
ATOM     25  C   UNL     1       0.981   0.017   0.031  1.00  0.00    -0.051 A 
ATOM     26  C   UNL     1       0.238  -1.168  -0.025  1.00  0.00     0.005 A 
ATOM     27  C   UNL     1       0.306   1.241   0.117  1.00  0.00     0.005 A 
ATOM     28  C   UNL     1      -1.158  -1.124  -0.030  1.00  0.00     0.022 A 
ATOM     29  C   UNL     1      -1.092   1.291   0.136  1.00  0.00     0.022 A 
ENDBRANCH  20  23
ENDBRANCH  12  20
ENDBRANCH   9  11
ENDBRANCH   6   9
ENDBRANCH   4   5
BRANCH   4  30
ATOM     30  C   UNL     1      -9.734   5.998   3.344  1.00  0.00     0.092 C 
BRANCH  30  31
ATOM     31  C   UNL     1     -10.478   5.390   4.513  1.00  0.00     0.037 A 
ATOM     32  C   UNL     1     -10.519   4.119   5.048  1.00  0.00     0.134 A 
ATOM     33  N   UNL     1     -11.342   6.102   5.322  1.00  0.00    -0.348 N 
ATOM     34  N   UNL     1     -11.167   4.117   6.259  1.00  0.00    -0.245 NA
ATOM     35  C   UNL     1     -11.603   5.342   6.423  1.00  0.00     0.196 A 
ATOM     36  H   UNL     1     -11.704   6.998   5.137  1.00  0.00     0.167 HD
ENDBRANCH  30  31
ENDBRANCH   4  30
ENDBRANCH   2   4
ENDBRANCH   1   2
BRANCH   1  37
ATOM     37  C   UNL     1      -5.965   8.881   6.662  1.00  0.00     0.274 C 
BRANCH  37  38
ATOM     38  C   UNL     1      -4.992   7.714   6.881  1.00  0.00     0.275 C 
BRANCH  38  39
ATOM     39  O   UNL     1      -4.287   7.257   5.694  1.00  0.00    -0.458 OA
BRANCH  39  40
ATOM     40  C   UNL     1      -4.667   6.170   4.964  1.00  0.00     0.338 C 
ATOM     41  O   UNL     1      -3.900   5.338   4.510  1.00  0.00    -0.246 OA
BRANCH  40  42
ATOM     42  C   UNL     1      -6.024   6.298   4.413  1.00  0.00     0.060 A 
ATOM     43  C   UNL     1      -6.144   7.169   2.836  1.00  0.00     0.016 A 
ATOM     44  C   UNL     1      -7.414   6.307   5.554  1.00  0.00     0.016 A 
ATOM     45  C   UNL     1      -7.569   8.255   2.506  1.00  0.00     0.010 A 
ATOM     46  C   UNL     1      -8.818   7.390   5.212  1.00  0.00     0.010 A 
ATOM     47  C   UNL     1      -8.855   8.410   3.725  1.00  0.00    -0.014 A 
BRANCH  47  48
ATOM     48  C   UNL     1      -9.665   9.613   3.966  1.00  0.00     0.031 A 
ATOM     49  C   UNL     1     -11.100   9.402   4.180  1.00  0.00     0.074 A 
ATOM     50  C   UNL     1      -9.035  10.686   4.493  1.00  0.00     0.049 A 
ATOM     51  N   UNL     1     -11.702   9.565   5.312  1.00  0.00    -0.248 NA
ATOM     52  C   UNL     1     -11.927   8.788   3.134  1.00  0.00     0.031 C 
ATOM     53  C   UNL     1      -9.572  11.750   5.332  1.00  0.00     0.029 A 
ATOM     54  N   UNL     1      -7.752  11.133   4.185  1.00  0.00    -0.354 N 
ATOM     55  C   UNL     1     -13.027   9.259   5.103  1.00  0.00     0.074 A 
ATOM     56  C   UNL     1     -13.078   8.616   3.791  1.00  0.00     0.031 C 
ATOM     57  C   UNL     1      -8.795  12.842   5.210  1.00  0.00     0.029 A 
ATOM     58  C   UNL     1      -7.782  12.543   4.212  1.00  0.00     0.049 A 
ATOM     59  H   UNL     1      -6.970  10.569   3.985  1.00  0.00     0.167 HD
ATOM     60  C   UNL     1     -14.002  10.144   5.434  1.00  0.00     0.037 A 
ATOM     61  C   UNL     1      -7.635  13.184   3.013  1.00  0.00     0.037 A 
ATOM     62  C   UNL     1     -13.571  11.516   5.317  1.00  0.00     0.049 A 
ATOM     63  C   UNL     1      -8.979  13.641   2.465  1.00  0.00     0.074 A 
ATOM     64  C   UNL     1     -13.017  12.457   6.160  1.00  0.00     0.029 A 
ATOM     65  N   UNL     1     -13.444  12.019   4.037  1.00  0.00    -0.354 N 
ATOM     66  N   UNL     1     -10.129  13.330   3.008  1.00  0.00    -0.248 NA
ATOM     67  C   UNL     1      -9.147  14.454   1.264  1.00  0.00     0.031 C 
ATOM     68  C   UNL     1     -12.469  13.496   5.339  1.00  0.00     0.029 A 
ATOM     69  C   UNL     1     -12.739  13.203   4.011  1.00  0.00     0.049 A 
ATOM     70  H   UNL     1     -13.813  11.582   3.236  1.00  0.00     0.167 HD
ATOM     71  C   UNL     1     -11.150  13.906   2.315  1.00  0.00     0.074 A 
ATOM     72  C   UNL     1     -10.488  14.536   1.182  1.00  0.00     0.031 C 
ATOM     73  C   UNL     1     -12.452  13.840   2.728  1.00  0.00     0.037 A 
BRANCH  60  74
ATOM     74  C   UNL     1     -15.224   9.613   6.116  1.00  0.00     0.064 A 
ATOM     75  C   UNL     1     -16.170  10.488   6.674  1.00  0.00     0.173 A 
ATOM     76  C   UNL     1     -15.449   8.233   6.336  1.00  0.00     0.173 A 
ATOM     77  F   UNL     1     -16.069  11.813   6.494  1.00  0.00    -0.203 F 
ATOM     78  C   UNL     1     -17.232  10.022   7.452  1.00  0.00     0.198 A 
ATOM     79  C   UNL     1     -16.521   7.770   7.100  1.00  0.00     0.198 A 
ATOM     80  F   UNL     1     -14.617   7.304   5.837  1.00  0.00    -0.203 F 
ATOM     81  F   UNL     1     -18.081  10.897   8.008  1.00  0.00    -0.200 F 
ATOM     82  C   UNL     1     -17.402   8.666   7.673  1.00  0.00     0.200 A 
ATOM     83  F   UNL     1     -16.678   6.454   7.297  1.00  0.00    -0.200 F 
ATOM     84  F   UNL     1     -18.407   8.225   8.442  1.00  0.00    -0.200 F 
ENDBRANCH  60  74
BRANCH  61  85
ATOM     85  C   UNL     1      -6.492  12.570   2.258  1.00  0.00     0.064 A 
ATOM     86  C   UNL     1      -5.248  12.521   2.937  1.00  0.00     0.173 A 
ATOM     87  C   UNL     1      -6.681  11.655   1.218  1.00  0.00     0.173 A 
ATOM     88  F   UNL     1      -4.994  13.396   3.924  1.00  0.00    -0.203 F 
ATOM     89  C   UNL     1      -4.350  11.473   2.741  1.00  0.00     0.198 A 
ATOM     90  C   UNL     1      -5.734  10.651   0.973  1.00  0.00     0.198 A 
ATOM     91  F   UNL     1      -7.838  11.626   0.540  1.00  0.00    -0.203 F 
ATOM     92  F   UNL     1      -3.291  11.341   3.554  1.00  0.00    -0.200 F 
ATOM     93  C   UNL     1      -4.610  10.520   1.777  1.00  0.00     0.200 A 
ATOM     94  F   UNL     1      -5.983   9.721   0.038  1.00  0.00    -0.200 F 
ATOM     95  F   UNL     1      -3.814   9.447   1.655  1.00  0.00    -0.200 F 
ENDBRANCH  61  85
BRANCH  73  96
ATOM     96  C   UNL     1     -13.572  14.418   1.914  1.00  0.00     0.064 A 
ATOM     97  C   UNL     1     -13.488  15.688   1.328  1.00  0.00     0.173 A 
ATOM     98  C   UNL     1     -14.789  13.728   1.727  1.00  0.00     0.173 A 
ATOM     99  F   UNL     1     -12.426  16.477   1.551  1.00  0.00    -0.203 F 
ATOM    100  C   UNL     1     -14.495  16.177   0.497  1.00  0.00     0.198 A 
ATOM    101  C   UNL     1     -15.831  14.258   0.972  1.00  0.00     0.198 A 
ATOM    102  F   UNL     1     -14.987  12.500   2.228  1.00  0.00    -0.203 F 
ATOM    103  F   UNL     1     -14.315  17.336  -0.149  1.00  0.00    -0.200 F 
ATOM    104  C   UNL     1     -15.668  15.464   0.323  1.00  0.00     0.200 A 
ATOM    105  F   UNL     1     -16.978  13.575   0.856  1.00  0.00    -0.200 F 
ATOM    106  F   UNL     1     -16.634  15.932  -0.477  1.00  0.00    -0.200 F 
ENDBRANCH  73  96
ENDBRANCH  47  48
ENDBRANCH  40  42
ENDBRANCH  39  40
ENDBRANCH  38  39
ENDBRANCH  37  38
ENDBRANCH   1  37
TORSDOF 18
