REMARK SMILES Cc1ccccc1/C=C1\SC(=O)N(CC(=O)Nc2ccccc2C(=O)OCCOC(=O)c2ccc(-c3c4nc(c(-c5c(F)c(F)c(F)c(F)c5F)c5ccc([nH]5)c(-c5c(F)c(F)c(F)c(F)c5F)c5nc(c(-c6c(F)c(F)c(F)c(F)c6F)c6ccc3[nH]6)C=C5)C=C4)cc2)C1=O
REMARK SMILES IDX 27 1 26 2 24 3 25 4 23 5 18 6 19 7 20 8 22 9 21 10 17 11
REMARK SMILES IDX 15 12 16 13 14 15 13 16 8 17 9 18 10 19 95 20 11 21 96 22
REMARK SMILES IDX 12 23 7 24 1 25 2 26 3 27 4 28 6 29 5 30 28 31 29 32 30 33
REMARK SMILES IDX 31 34 32 35 33 36 94 37 34 38 93 39 35 40 36 41 37 42 87 43
REMARK SMILES IDX 38 44 92 45 86 46 88 47 39 48 91 49 85 50 84 51 40 53 72 54
REMARK SMILES IDX 52 55 71 56 53 57 56 58 70 59 89 60 54 61 55 62 69 64 90 65
REMARK SMILES IDX 57 66 41 67 42 68 50 69 43 70 44 71 48 72 51 73 45 74 46 75
REMARK SMILES IDX 49 76 47 77 73 78 74 79 82 80 75 81 76 82 80 83 83 84 77 85
REMARK SMILES IDX 78 86 81 87 79 88 58 89 59 90 67 91 60 92 61 93 65 94 68 95
REMARK SMILES IDX 62 96 63 97 66 98 64 99
REMARK H PARENT 17 14 88 52 56 63
REMARK Flexibility Score: inf
ROOT
ATOM      1  C   UNL     1       4.612   2.028  -0.394  1.00  0.00     0.275 C 
ENDROOT
BRANCH   1   2
ATOM      2  O   UNL     1       3.035   2.405  -1.663  1.00  0.00    -0.458 OA
BRANCH   2   3
ATOM      3  C   UNL     1       2.367   3.492  -2.601  1.00  0.00     0.340 C 
ATOM      4  O   UNL     1       1.922   4.122  -1.590  1.00  0.00    -0.246 OA
BRANCH   3   5
ATOM      5  C   UNL     1       2.121   4.080  -4.682  1.00  0.00     0.083 A 
ATOM      6  C   UNL     1       2.512   5.716  -5.178  1.00  0.00     0.055 A 
ATOM      7  C   UNL     1       2.313   6.205  -6.476  1.00  0.00     0.027 A 
ATOM      8  C   UNL     1       1.875   5.322  -7.458  1.00  0.00     0.002 A 
ATOM      9  C   UNL     1       1.660   3.393  -5.891  1.00  0.00     0.018 A 
ATOM     10  C   UNL     1       1.577   3.979  -7.182  1.00  0.00     0.001 A 
BRANCH   6  11
ATOM     11  N   UNL     1       3.235   6.906  -4.140  1.00  0.00    -0.324 N 
ATOM     12  C   UNL     1       3.997   6.868  -2.692  1.00  0.00     0.244 C 
ATOM     13  O   UNL     1       4.413   7.995  -2.357  1.00  0.00    -0.273 OA
ATOM     14  H   UNL     1       3.172   7.817  -4.509  1.00  0.00     0.170 HD
BRANCH  12  15
ATOM     15  C   UNL     1       4.714   5.355  -1.736  1.00  0.00     0.230 C 
BRANCH  15  16
ATOM     16  N   UNL     1       4.317   3.622  -1.444  1.00  0.00    -0.259 N 
ATOM     17  C   UNL     1       1.236   1.449   0.743  1.00  0.00     0.029 C 
ATOM     18  C   UNL     1       2.362   1.813   0.082  1.00  0.00     0.083 C 
ATOM     19  S   UNL     1       3.123   0.363  -1.383  1.00  0.00    -0.022 SA
ATOM     20  C   UNL     1       3.205   3.551  -0.039  1.00  0.00     0.268 C 
ATOM     21  C   UNL     1       4.580   1.913  -2.291  1.00  0.00     0.294 C 
ATOM     22  O   UNL     1       3.047   4.458   0.774  1.00  0.00    -0.268 OA
ATOM     23  O   UNL     1       5.380   1.290  -2.978  1.00  0.00    -0.261 OA
BRANCH  17  24
ATOM     24  C   UNL     1       0.465   0.173   0.578  1.00  0.00    -0.021 A 
ATOM     25  C   UNL     1       2.374  -1.364   1.294  1.00  0.00     0.045 C 
ATOM     26  C   UNL     1       0.993  -1.115   0.763  1.00  0.00    -0.044 A 
ATOM     27  C   UNL     1       0.218  -2.254   0.436  1.00  0.00     0.004 A 
ATOM     28  C   UNL     1      -1.108  -2.146   0.029  1.00  0.00     0.000 A 
ATOM     29  C   UNL     1      -0.891   0.239   0.211  1.00  0.00     0.008 A 
ATOM     30  C   UNL     1      -1.677  -0.892  -0.046  1.00  0.00     0.001 A 
ENDBRANCH  17  24
ENDBRANCH  15  16
ENDBRANCH  12  15
ENDBRANCH   6  11
ENDBRANCH   3   5
ENDBRANCH   2   3
ENDBRANCH   1   2
BRANCH   1  31
ATOM     31  C   UNL     1       6.250   2.711  -0.984  1.00  0.00     0.275 C 
BRANCH  31  32
ATOM     32  O   UNL     1       6.429   3.269  -2.594  1.00  0.00    -0.458 OA
BRANCH  32  33
ATOM     33  C   UNL     1       5.740   3.380  -3.881  1.00  0.00     0.338 C 
ATOM     34  O   UNL     1       6.363   3.810  -4.848  1.00  0.00    -0.246 OA
BRANCH  33  35
ATOM     35  C   UNL     1       4.094   3.303  -4.047  1.00  0.00     0.060 A 
ATOM     36  C   UNL     1       3.526   4.796  -3.507  1.00  0.00     0.016 A 
ATOM     37  C   UNL     1       2.871   2.043  -4.140  1.00  0.00     0.016 A 
ATOM     38  C   UNL     1       1.706   5.303  -3.140  1.00  0.00     0.010 A 
ATOM     39  C   UNL     1       1.135   2.324  -3.704  1.00  0.00     0.010 A 
ATOM     40  C   UNL     1       0.479   3.961  -3.239  1.00  0.00    -0.014 A 
BRANCH  40  41
ATOM     41  C   UNL     1      -0.682   3.825  -2.268  1.00  0.00     0.031 A 
ATOM     42  C   UNL     1      -1.721   2.857  -2.720  1.00  0.00     0.074 A 
ATOM     43  C   UNL     1      -0.692   4.246  -0.954  1.00  0.00     0.049 A 
ATOM     44  N   UNL     1      -2.702   2.457  -2.002  1.00  0.00    -0.248 NA
ATOM     45  C   UNL     1      -1.756   2.250  -4.051  1.00  0.00     0.031 C 
ATOM     46  C   UNL     1      -1.466   3.659   0.151  1.00  0.00     0.029 A 
ATOM     47  N   UNL     1       0.070   5.210  -0.260  1.00  0.00    -0.354 N 
ATOM     48  C   UNL     1      -3.406   1.494  -2.671  1.00  0.00     0.074 A 
ATOM     49  C   UNL     1      -2.750   1.365  -3.938  1.00  0.00     0.031 C 
ATOM     50  C   UNL     1      -1.178   4.222   1.333  1.00  0.00     0.029 A 
ATOM     51  C   UNL     1      -0.412   5.411   1.064  1.00  0.00     0.049 A 
ATOM     52  H   UNL     1       0.841   5.685  -0.645  1.00  0.00     0.167 HD
ATOM     53  C   UNL     1      -4.466   0.937  -2.027  1.00  0.00     0.037 A 
ATOM     54  C   UNL     1      -0.919   6.622   1.471  1.00  0.00     0.037 A 
ATOM     55  C   UNL     1      -4.859   1.819  -0.908  1.00  0.00     0.049 A 
ATOM     56  C   UNL     1      -2.397   6.764   1.172  1.00  0.00     0.074 A 
ATOM     57  C   UNL     1      -4.787   1.741   0.471  1.00  0.00     0.029 A 
ATOM     58  N   UNL     1      -5.097   3.174  -1.194  1.00  0.00    -0.354 N 
ATOM     59  N   UNL     1      -3.171   5.771   0.829  1.00  0.00    -0.248 NA
ATOM     60  C   UNL     1      -3.122   8.027   1.230  1.00  0.00     0.031 C 
ATOM     61  C   UNL     1      -4.866   3.072   0.993  1.00  0.00     0.029 A 
ATOM     62  C   UNL     1      -5.073   3.960  -0.052  1.00  0.00     0.049 A 
ATOM     63  H   UNL     1      -5.262   3.524  -2.099  1.00  0.00     0.167 HD
ATOM     64  C   UNL     1      -4.399   6.229   0.468  1.00  0.00     0.074 A 
ATOM     65  C   UNL     1      -4.344   7.639   0.823  1.00  0.00     0.031 C 
ATOM     66  C   UNL     1      -5.325   5.410  -0.124  1.00  0.00     0.037 A 
BRANCH  53  67
ATOM     67  C   UNL     1      -5.065  -0.423  -2.343  1.00  0.00     0.064 A 
ATOM     68  C   UNL     1      -6.097  -0.947  -1.535  1.00  0.00     0.173 A 
ATOM     69  C   UNL     1      -4.592  -1.326  -3.326  1.00  0.00     0.173 A 
ATOM     70  F   UNL     1      -6.635  -0.222  -0.546  1.00  0.00    -0.203 F 
ATOM     71  C   UNL     1      -6.590  -2.253  -1.687  1.00  0.00     0.198 A 
ATOM     72  C   UNL     1      -5.110  -2.615  -3.501  1.00  0.00     0.198 A 
ATOM     73  F   UNL     1      -3.568  -1.041  -4.133  1.00  0.00    -0.203 F 
ATOM     74  F   UNL     1      -7.532  -2.709  -0.849  1.00  0.00    -0.200 F 
ATOM     75  C   UNL     1      -6.101  -3.085  -2.672  1.00  0.00     0.200 A 
ATOM     76  F   UNL     1      -4.610  -3.405  -4.464  1.00  0.00    -0.200 F 
ATOM     77  F   UNL     1      -6.561  -4.335  -2.810  1.00  0.00    -0.200 F 
ENDBRANCH  53  67
BRANCH  54  78
ATOM     78  C   UNL     1       0.092   7.705   1.389  1.00  0.00     0.064 A 
ATOM     79  C   UNL     1       1.121   7.636   2.347  1.00  0.00     0.173 A 
ATOM     80  C   UNL     1       0.409   8.135   0.104  1.00  0.00     0.173 A 
ATOM     81  F   UNL     1       0.829   7.390   3.634  1.00  0.00    -0.203 F 
ATOM     82  C   UNL     1       2.447   7.635   1.943  1.00  0.00     0.198 A 
ATOM     83  C   UNL     1       1.728   8.085  -0.306  1.00  0.00     0.198 A 
ATOM     84  F   UNL     1      -0.557   8.319  -0.808  1.00  0.00    -0.203 F 
ATOM     85  F   UNL     1       3.427   7.384   2.824  1.00  0.00    -0.200 F 
ATOM     86  C   UNL     1       2.740   7.775   0.599  1.00  0.00     0.200 A 
ATOM     87  F   UNL     1       1.975   8.202  -1.614  1.00  0.00    -0.200 F 
ATOM     88  F   UNL     1       3.995   7.568   0.188  1.00  0.00    -0.200 F 
ENDBRANCH  54  78
BRANCH  66  89
ATOM     89  C   UNL     1      -6.627   5.900  -0.720  1.00  0.00     0.064 A 
ATOM     90  C   UNL     1      -6.878   7.224  -1.116  1.00  0.00     0.173 A 
ATOM     91  C   UNL     1      -7.688   4.994  -0.964  1.00  0.00     0.173 A 
ATOM     92  F   UNL     1      -5.906   8.143  -1.168  1.00  0.00    -0.203 F 
ATOM     93  C   UNL     1      -8.140   7.643  -1.543  1.00  0.00     0.198 A 
ATOM     94  C   UNL     1      -8.908   5.394  -1.499  1.00  0.00     0.198 A 
ATOM     95  F   UNL     1      -7.579   3.684  -0.709  1.00  0.00    -0.203 F 
ATOM     96  F   UNL     1      -8.360   8.943  -1.782  1.00  0.00    -0.200 F 
ATOM     97  C   UNL     1      -9.153   6.727  -1.738  1.00  0.00     0.200 A 
ATOM     98  F   UNL     1      -9.840   4.473  -1.779  1.00  0.00    -0.200 F 
ATOM     99  F   UNL     1     -10.352   7.123  -2.182  1.00  0.00    -0.200 F 
ENDBRANCH  66  89
ENDBRANCH  40  41
ENDBRANCH  33  35
ENDBRANCH  32  33
ENDBRANCH  31  32
ENDBRANCH   1  31
TORSDOF 15
