REMARK SMILES COC(C)(C)C[C@@](C)(Nc1cc(C)cc(F)c1)C(=O)OCCOC(=O)c1ccc(-c2c3nc(c(-c4c(F)c(F)c(F)c(F)c4F)c4ccc([nH]4)c(-c4c(F)c(F)c(F)c(F)c4F)c4nc(c(-c5c(F)c(F)c(F)c(F)c5F)c5ccc2[nH]5)C=C4)C=C3)cc1
REMARK SMILES IDX 21 1 20 2 18 3 19 4 7 5 8 6 6 7 3 8 4 9 5 10 2 11 1 12 9 13
REMARK SMILES IDX 10 15 11 16 17 17 12 18 15 19 13 20 14 21 16 22 22 23 23 24
REMARK SMILES IDX 24 25 25 26 26 27 27 28 88 29 28 30 87 31 29 32 30 33 31 34
REMARK SMILES IDX 81 35 32 36 86 37 80 38 82 39 33 40 85 41 79 42 78 43 34 45
REMARK SMILES IDX 66 46 46 47 65 48 47 49 50 50 64 51 83 52 48 53 49 54 63 56
REMARK SMILES IDX 84 57 51 58 35 59 36 60 44 61 37 62 38 63 42 64 45 65 39 66
REMARK SMILES IDX 40 67 43 68 41 69 67 70 68 71 76 72 69 73 70 74 74 75 77 76
REMARK SMILES IDX 71 77 72 78 75 79 73 80 52 81 53 82 61 83 54 84 55 85 59 86
REMARK SMILES IDX 62 87 56 88 57 89 60 90 58 91
REMARK H PARENT 9 14 82 44 50 55
REMARK Flexibility Score: inf
ROOT
ATOM      1  C   UNL     1       4.951   4.408  -0.056  1.00  0.00     0.274 C 
ENDROOT
BRANCH   1   2
ATOM      2  O   UNL     1       3.535   4.640   0.073  1.00  0.00    -0.460 OA
BRANCH   2   3
ATOM      3  C   UNL     1       2.688   3.599  -0.037  1.00  0.00     0.331 C 
ATOM      4  O   UNL     1       3.099   2.502  -0.411  1.00  0.00    -0.249 OA
BRANCH   3   5
ATOM      5  C   UNL     1       1.185   3.876   0.241  1.00  0.00     0.135 C 
ATOM      6  C   UNL     1       0.488   3.752  -1.122  1.00  0.00     0.047 C 
BRANCH   5   7
ATOM      7  C   UNL     1       0.630   2.811   1.281  1.00  0.00     0.075 C 
BRANCH   7   8
ATOM      8  C   UNL     1       0.658   1.255   1.099  1.00  0.00     0.065 C 
ATOM      9  C   UNL     1      -0.320   0.670   2.155  1.00  0.00     0.042 C 
ATOM     10  C   UNL     1       2.028   0.607   1.377  1.00  0.00     0.042 C 
BRANCH   8  11
ATOM     11  O   UNL     1       0.132   0.965  -0.200  1.00  0.00    -0.379 OA
ATOM     12  C   UNL     1       0.313  -0.357  -0.688  1.00  0.00     0.195 C 
ENDBRANCH   8  11
ENDBRANCH   7   8
ENDBRANCH   5   7
BRANCH   5  13
ATOM     13  N   UNL     1       0.690   5.203   0.789  1.00  0.00    -0.370 N 
ATOM     14  H   UNL     1      -0.263   5.127   1.027  1.00  0.00     0.161 HD
BRANCH  13  15
ATOM     15  C   UNL     1       1.134   6.472   1.063  1.00  0.00     0.038 A 
ATOM     16  C   UNL     1       2.312   7.053   0.611  1.00  0.00     0.029 A 
ATOM     17  C   UNL     1       0.367   7.268   1.937  1.00  0.00     0.065 A 
ATOM     18  C   UNL     1       2.837   8.246   1.153  1.00  0.00    -0.046 A 
ATOM     19  C   UNL     1       0.833   8.492   2.425  1.00  0.00     0.125 A 
ATOM     20  C   UNL     1       4.250   8.645   0.848  1.00  0.00     0.044 C 
ATOM     21  C   UNL     1       2.084   8.967   2.075  1.00  0.00     0.042 A 
ATOM     22  F   UNL     1       0.101   9.162   3.328  1.00  0.00    -0.207 F 
ENDBRANCH  13  15
ENDBRANCH   5  13
ENDBRANCH   3   5
ENDBRANCH   2   3
ENDBRANCH   1   2
BRANCH   1  23
ATOM     23  C   UNL     1       5.654   4.600   1.287  1.00  0.00     0.275 C 
BRANCH  23  24
ATOM     24  O   UNL     1       5.422   3.520   2.206  1.00  0.00    -0.458 OA
BRANCH  24  25
ATOM     25  C   UNL     1       4.236   3.611   2.847  1.00  0.00     0.338 C 
ATOM     26  O   UNL     1       3.300   4.338   2.578  1.00  0.00    -0.246 OA
BRANCH  25  27
ATOM     27  C   UNL     1       4.222   2.903   4.123  1.00  0.00     0.060 A 
ATOM     28  C   UNL     1       2.955   2.601   4.647  1.00  0.00     0.016 A 
ATOM     29  C   UNL     1       5.348   3.021   4.934  1.00  0.00     0.016 A 
ATOM     30  C   UNL     1       2.762   2.618   6.012  1.00  0.00     0.010 A 
ATOM     31  C   UNL     1       5.153   3.044   6.298  1.00  0.00     0.010 A 
ATOM     32  C   UNL     1       3.853   2.930   6.814  1.00  0.00    -0.014 A 
BRANCH  32  33
ATOM     33  C   UNL     1       3.688   3.213   8.222  1.00  0.00     0.031 A 
ATOM     34  C   UNL     1       3.433   2.110   9.151  1.00  0.00     0.074 A 
ATOM     35  C   UNL     1       3.700   4.490   8.653  1.00  0.00     0.049 A 
ATOM     36  N   UNL     1       2.759   2.229  10.245  1.00  0.00    -0.248 NA
ATOM     37  C   UNL     1       3.856   0.742   8.857  1.00  0.00     0.031 C 
ATOM     38  C   UNL     1       3.864   4.965  10.018  1.00  0.00     0.029 A 
ATOM     39  N   UNL     1       3.365   5.629   7.921  1.00  0.00    -0.354 N 
ATOM     40  C   UNL     1       2.950   1.063  10.939  1.00  0.00     0.074 A 
ATOM     41  C   UNL     1       3.516   0.126   9.992  1.00  0.00     0.031 C 
ATOM     42  C   UNL     1       3.447   6.241  10.092  1.00  0.00     0.029 A 
ATOM     43  C   UNL     1       2.805   6.555   8.824  1.00  0.00     0.049 A 
ATOM     44  H   UNL     1       3.494   5.761   6.954  1.00  0.00     0.167 HD
ATOM     45  C   UNL     1       2.830   1.056  12.294  1.00  0.00     0.037 A 
ATOM     46  C   UNL     1       1.529   7.036   8.697  1.00  0.00     0.037 A 
ATOM     47  C   UNL     1       2.430   2.351  12.822  1.00  0.00     0.049 A 
ATOM     48  C   UNL     1       0.708   6.853   9.943  1.00  0.00     0.074 A 
ATOM     49  C   UNL     1       3.180   3.425  13.276  1.00  0.00     0.029 A 
ATOM     50  N   UNL     1       1.145   2.839  12.597  1.00  0.00    -0.354 N 
ATOM     51  N   UNL     1       0.869   5.842  10.747  1.00  0.00    -0.248 NA
ATOM     52  C   UNL     1      -0.404   7.717  10.323  1.00  0.00     0.031 C 
ATOM     53  C   UNL     1       2.354   4.568  13.303  1.00  0.00     0.029 A 
ATOM     54  C   UNL     1       1.094   4.193  12.876  1.00  0.00     0.049 A 
ATOM     55  H   UNL     1       0.384   2.299  12.284  1.00  0.00     0.167 HD
ATOM     56  C   UNL     1      -0.074   5.908  11.734  1.00  0.00     0.074 A 
ATOM     57  C   UNL     1      -0.857   7.089  11.421  1.00  0.00     0.031 C 
ATOM     58  C   UNL     1      -0.121   4.973  12.725  1.00  0.00     0.037 A 
BRANCH  45  59
ATOM     59  C   UNL     1       3.532  -0.026  13.062  1.00  0.00     0.064 A 
ATOM     60  C   UNL     1       4.486   0.281  14.050  1.00  0.00     0.173 A 
ATOM     61  C   UNL     1       3.392  -1.387  12.743  1.00  0.00     0.173 A 
ATOM     62  F   UNL     1       4.680   1.534  14.476  1.00  0.00    -0.203 F 
ATOM     63  C   UNL     1       5.314  -0.693  14.606  1.00  0.00     0.198 A 
ATOM     64  C   UNL     1       4.250  -2.357  13.269  1.00  0.00     0.198 A 
ATOM     65  F   UNL     1       2.453  -1.789  11.872  1.00  0.00    -0.203 F 
ATOM     66  F   UNL     1       6.233  -0.341  15.516  1.00  0.00    -0.200 F 
ATOM     67  C   UNL     1       5.220  -2.006  14.190  1.00  0.00     0.200 A 
ATOM     68  F   UNL     1       4.161  -3.626  12.847  1.00  0.00    -0.200 F 
ATOM     69  F   UNL     1       6.066  -2.927  14.671  1.00  0.00    -0.200 F 
ENDBRANCH  45  59
BRANCH  46  70
ATOM     70  C   UNL     1       0.934   6.844   7.340  1.00  0.00     0.064 A 
ATOM     71  C   UNL     1       1.702   7.196   6.218  1.00  0.00     0.173 A 
ATOM     72  C   UNL     1      -0.147   5.974   7.144  1.00  0.00     0.173 A 
ATOM     73  F   UNL     1       2.710   8.078   6.334  1.00  0.00    -0.203 F 
ATOM     74  C   UNL     1       1.574   6.487   5.033  1.00  0.00     0.198 A 
ATOM     75  C   UNL     1      -0.330   5.337   5.923  1.00  0.00     0.198 A 
ATOM     76  F   UNL     1      -0.976   5.662   8.150  1.00  0.00    -0.203 F 
ATOM     77  F   UNL     1       2.498   6.654   4.079  1.00  0.00    -0.200 F 
ATOM     78  C   UNL     1       0.567   5.546   4.892  1.00  0.00     0.200 A 
ATOM     79  F   UNL     1      -1.321   4.446   5.772  1.00  0.00    -0.200 F 
ATOM     80  F   UNL     1       0.461   4.811   3.779  1.00  0.00    -0.200 F 
ENDBRANCH  46  70
BRANCH  58  81
ATOM     81  C   UNL     1      -1.220   4.833  13.735  1.00  0.00     0.064 A 
ATOM     82  C   UNL     1      -2.565   5.131  13.464  1.00  0.00     0.173 A 
ATOM     83  C   UNL     1      -0.957   4.258  14.999  1.00  0.00     0.173 A 
ATOM     84  F   UNL     1      -2.950   5.570  12.258  1.00  0.00    -0.203 F 
ATOM     85  C   UNL     1      -3.565   4.937  14.419  1.00  0.00     0.198 A 
ATOM     86  C   UNL     1      -1.964   4.019  15.930  1.00  0.00     0.198 A 
ATOM     87  F   UNL     1       0.283   3.895  15.360  1.00  0.00    -0.203 F 
ATOM     88  F   UNL     1      -4.830   5.278  14.133  1.00  0.00    -0.200 F 
ATOM     89  C   UNL     1      -3.266   4.375  15.647  1.00  0.00     0.200 A 
ATOM     90  F   UNL     1      -1.665   3.427  17.095  1.00  0.00    -0.200 F 
ATOM     91  F   UNL     1      -4.234   4.159  16.547  1.00  0.00    -0.200 F 
ENDBRANCH  58  81
ENDBRANCH  32  33
ENDBRANCH  25  27
ENDBRANCH  24  25
ENDBRANCH  23  24
ENDBRANCH   1  23
TORSDOF 16
