REMARK SMILES CC[C@@H](COC)NC(=O)NC[C@@H]1CC[C@H](C(=O)OCCOC(=O)c2ccc(-c3c4nc(c(-c5c(F)c(F)c(F)c(F)c5F)c5ccc([nH]5)c(-c5c(F)c(F)c(F)c(F)c5F)c5nc(c(-c6c(F)c(F)c(F)c(F)c6F)c6ccc3[nH]6)C=C5)C=C4)cc2)O1
REMARK SMILES IDX 18 1 16 2 17 3 15 4 12 5 13 6 87 7 14 8 11 9 10 10 7 11 8 12
REMARK SMILES IDX 9 14 3 16 2 17 1 18 4 19 5 20 6 21 19 22 20 23 21 24 22 25
REMARK SMILES IDX 23 26 24 27 25 28 86 29 26 30 85 31 27 32 28 33 29 34 79 35
REMARK SMILES IDX 30 36 84 37 78 38 80 39 31 40 83 41 77 42 76 43 32 45 64 46
REMARK SMILES IDX 44 47 63 48 45 49 48 50 62 51 81 52 46 53 47 54 61 56 82 57
REMARK SMILES IDX 49 58 33 59 34 60 42 61 35 62 36 63 40 64 43 65 37 66 38 67
REMARK SMILES IDX 41 68 39 69 65 70 66 71 74 72 67 73 68 74 72 75 75 76 69 77
REMARK SMILES IDX 70 78 73 79 71 80 50 81 51 82 59 83 52 84 53 85 57 86 60 87
REMARK SMILES IDX 54 88 55 89 58 90 56 91
REMARK H PARENT 7 13 10 15 80 44 48 55
REMARK Flexibility Score: inf
ROOT
ATOM      1  O   UNL     1       1.321   1.232  -4.839  1.00  0.00    -0.460 OA
ENDROOT
BRANCH   1   2
ATOM      2  C   UNL     1       2.227   0.439  -4.206  1.00  0.00     0.335 C 
ATOM      3  O   UNL     1       1.997  -0.708  -3.833  1.00  0.00    -0.249 OA
BRANCH   2   4
ATOM      4  C   UNL     1       3.574   1.132  -3.958  1.00  0.00     0.228 C 
ATOM      5  C   UNL     1       4.206   2.830  -2.488  1.00  0.00     0.138 C 
ATOM      6  C   UNL     1       3.701   3.495  -3.755  1.00  0.00     0.037 C 
ATOM      7  O   UNL     1       3.718   1.477  -2.568  1.00  0.00    -0.361 OA
ATOM      8  C   UNL     1       3.872   2.388  -4.768  1.00  0.00     0.047 C 
BRANCH   5   9
ATOM      9  C   UNL     1       3.836   3.491  -1.147  1.00  0.00     0.149 C 
BRANCH   9  10
ATOM     10  N   UNL     1       2.827   4.534  -1.230  1.00  0.00    -0.336 N 
ATOM     11  N   UNL     1       0.731   3.563  -0.732  1.00  0.00    -0.333 N 
ATOM     12  C   UNL     1       1.512   4.608  -1.006  1.00  0.00     0.315 C 
ATOM     13  H   UNL     1      -0.169   3.829  -0.437  1.00  0.00     0.165 HD
ATOM     14  O   UNL     1       0.994   5.726  -1.061  1.00  0.00    -0.249 OA
ATOM     15  H   UNL     1       3.204   5.395  -1.522  1.00  0.00     0.165 HD
BRANCH  11  16
ATOM     16  C   UNL     1       0.906   2.113  -0.769  1.00  0.00     0.109 C 
BRANCH  16  17
ATOM     17  C   UNL     1       0.778   1.538   0.643  1.00  0.00     0.024 C 
ATOM     18  C   UNL     1       1.139   0.061   0.714  1.00  0.00     0.006 C 
ENDBRANCH  16  17
BRANCH  16  19
ATOM     19  C   UNL     1      -0.076   1.517  -1.793  1.00  0.00     0.184 C 
BRANCH  19  20
ATOM     20  O   UNL     1      -1.450   1.715  -1.451  1.00  0.00    -0.383 OA
ATOM     21  C   UNL     1      -2.103   0.534  -1.005  1.00  0.00     0.194 C 
ENDBRANCH  19  20
ENDBRANCH  16  19
ENDBRANCH  11  16
ENDBRANCH   9  10
ENDBRANCH   5   9
ENDBRANCH   2   4
ENDBRANCH   1   2
BRANCH   1  22
ATOM     22  C   UNL     1       0.024   0.661  -5.115  1.00  0.00     0.274 C 
BRANCH  22  23
ATOM     23  C   UNL     1      -0.186   0.444  -6.613  1.00  0.00     0.275 C 
BRANCH  23  24
ATOM     24  O   UNL     1       0.701  -0.569  -7.113  1.00  0.00    -0.458 OA
BRANCH  24  25
ATOM     25  C   UNL     1       1.906  -0.115  -7.517  1.00  0.00     0.338 C 
ATOM     26  O   UNL     1       2.290   1.046  -7.575  1.00  0.00    -0.246 OA
BRANCH  25  27
ATOM     27  C   UNL     1       2.803  -1.253  -7.727  1.00  0.00     0.060 A 
ATOM     28  C   UNL     1       4.001  -1.277  -7.007  1.00  0.00     0.016 A 
ATOM     29  C   UNL     1       2.500  -2.250  -8.654  1.00  0.00     0.016 A 
ATOM     30  C   UNL     1       4.913  -2.303  -7.213  1.00  0.00     0.010 A 
ATOM     31  C   UNL     1       3.421  -3.274  -8.870  1.00  0.00     0.010 A 
ATOM     32  C   UNL     1       4.635  -3.295  -8.159  1.00  0.00    -0.014 A 
BRANCH  32  33
ATOM     33  C   UNL     1       5.655  -4.316  -8.470  1.00  0.00     0.031 A 
ATOM     34  C   UNL     1       6.462  -4.178  -9.724  1.00  0.00     0.074 A 
ATOM     35  C   UNL     1       5.841  -5.349  -7.630  1.00  0.00     0.049 A 
ATOM     36  N   UNL     1       7.306  -5.019 -10.262  1.00  0.00    -0.248 NA
ATOM     37  C   UNL     1       6.292  -2.926 -10.481  1.00  0.00     0.031 C 
ATOM     38  C   UNL     1       5.138  -5.543  -6.362  1.00  0.00     0.029 A 
ATOM     39  N   UNL     1       6.668  -6.438  -7.728  1.00  0.00    -0.354 N 
ATOM     40  C   UNL     1       7.743  -4.414 -11.432  1.00  0.00     0.074 A 
ATOM     41  C   UNL     1       7.074  -3.135 -11.530  1.00  0.00     0.031 C 
ATOM     42  C   UNL     1       5.551  -6.694  -5.807  1.00  0.00     0.029 A 
ATOM     43  C   UNL     1       6.508  -7.337  -6.703  1.00  0.00     0.049 A 
ATOM     44  H   UNL     1       7.312  -6.563  -8.462  1.00  0.00     0.167 HD
ATOM     45  C   UNL     1       8.624  -4.894 -12.340  1.00  0.00     0.037 A 
ATOM     46  C   UNL     1       7.046  -8.559  -6.536  1.00  0.00     0.037 A 
ATOM     47  C   UNL     1       9.301  -6.157 -12.211  1.00  0.00     0.049 A 
ATOM     48  C   UNL     1       7.990  -9.083  -7.584  1.00  0.00     0.074 A 
ATOM     49  C   UNL     1      10.239  -6.724 -13.054  1.00  0.00     0.029 A 
ATOM     50  N   UNL     1       9.108  -7.047 -11.164  1.00  0.00    -0.354 N 
ATOM     51  N   UNL     1       8.403  -8.508  -8.688  1.00  0.00    -0.248 NA
ATOM     52  C   UNL     1       8.536 -10.430  -7.370  1.00  0.00     0.031 C 
ATOM     53  C   UNL     1      10.586  -7.977 -12.536  1.00  0.00     0.029 A 
ATOM     54  C   UNL     1       9.894  -8.171 -11.351  1.00  0.00     0.049 A 
ATOM     55  H   UNL     1       8.503  -6.900 -10.402  1.00  0.00     0.167 HD
ATOM     56  C   UNL     1       9.266  -9.412  -9.291  1.00  0.00     0.074 A 
ATOM     57  C   UNL     1       9.333 -10.567  -8.419  1.00  0.00     0.031 C 
ATOM     58  C   UNL     1       9.940  -9.302 -10.462  1.00  0.00     0.037 A 
BRANCH  45  59
ATOM     59  C   UNL     1       8.883  -4.073 -13.566  1.00  0.00     0.064 A 
ATOM     60  C   UNL     1       9.671  -2.914 -13.526  1.00  0.00     0.173 A 
ATOM     61  C   UNL     1       8.379  -4.484 -14.809  1.00  0.00     0.173 A 
ATOM     62  F   UNL     1      10.161  -2.470 -12.359  1.00  0.00    -0.203 F 
ATOM     63  C   UNL     1       9.937  -2.191 -14.687  1.00  0.00     0.198 A 
ATOM     64  C   UNL     1       8.665  -3.771 -15.970  1.00  0.00     0.198 A 
ATOM     65  F   UNL     1       7.619  -5.586 -14.899  1.00  0.00    -0.203 F 
ATOM     66  F   UNL     1      10.669  -1.069 -14.623  1.00  0.00    -0.200 F 
ATOM     67  C   UNL     1       9.441  -2.624 -15.908  1.00  0.00     0.200 A 
ATOM     68  F   UNL     1       8.191  -4.196 -17.149  1.00  0.00    -0.200 F 
ATOM     69  F   UNL     1       9.709  -1.934 -17.025  1.00  0.00    -0.200 F 
ENDBRANCH  45  59
BRANCH  46  70
ATOM     70  C   UNL     1       6.676  -9.383  -5.357  1.00  0.00     0.064 A 
ATOM     71  C   UNL     1       7.611  -9.677  -4.356  1.00  0.00     0.173 A 
ATOM     72  C   UNL     1       5.383  -9.912  -5.218  1.00  0.00     0.173 A 
ATOM     73  F   UNL     1       8.866  -9.215  -4.457  1.00  0.00    -0.203 F 
ATOM     74  C   UNL     1       7.273 -10.483  -3.271  1.00  0.00     0.198 A 
ATOM     75  C   UNL     1       5.039 -10.694  -4.118  1.00  0.00     0.198 A 
ATOM     76  F   UNL     1       4.451  -9.663  -6.150  1.00  0.00    -0.203 F 
ATOM     77  F   UNL     1       8.200 -10.788  -2.352  1.00  0.00    -0.200 F 
ATOM     78  C   UNL     1       5.987 -10.986  -3.150  1.00  0.00     0.200 A 
ATOM     79  F   UNL     1       3.792 -11.169  -4.001  1.00  0.00    -0.200 F 
ATOM     80  F   UNL     1       5.663 -11.762  -2.106  1.00  0.00    -0.200 F 
ENDBRANCH  46  70
BRANCH  58  81
ATOM     81  C   UNL     1      10.820 -10.451 -10.849  1.00  0.00     0.064 A 
ATOM     82  C   UNL     1      10.282 -11.653 -11.329  1.00  0.00     0.173 A 
ATOM     83  C   UNL     1      12.216 -10.334 -10.774  1.00  0.00     0.173 A 
ATOM     84  F   UNL     1       8.952 -11.815 -11.402  1.00  0.00    -0.203 F 
ATOM     85  C   UNL     1      11.111 -12.707 -11.701  1.00  0.00     0.198 A 
ATOM     86  C   UNL     1      13.042 -11.380 -11.171  1.00  0.00     0.198 A 
ATOM     87  F   UNL     1      12.776  -9.200 -10.326  1.00  0.00    -0.203 F 
ATOM     88  F   UNL     1      10.576 -13.863 -12.117  1.00  0.00    -0.200 F 
ATOM     89  C   UNL     1      12.489 -12.567 -11.628  1.00  0.00     0.200 A 
ATOM     90  F   UNL     1      14.373 -11.240 -11.110  1.00  0.00    -0.200 F 
ATOM     91  F   UNL     1      13.286 -13.581 -11.991  1.00  0.00    -0.200 F 
ENDBRANCH  58  81
ENDBRANCH  32  33
ENDBRANCH  25  27
ENDBRANCH  24  25
ENDBRANCH  23  24
ENDBRANCH  22  23
ENDBRANCH   1  22
TORSDOF 17
