REMARK SMILES COCC[C@@]1(C(=O)OCCOC(=O)c2ccc(-c3c4nc(c(-c5c(F)c(F)c(F)c(F)c5F)c5ccc([nH]5)c(-c5c(F)c(F)c(F)c(F)c5F)c5nc(c(-c6c(F)c(F)c(F)c(F)c6F)c6ccc3[nH]6)C=C5)C=C4)cc2)CCCN(C(=O)NCc2ccc(OC)cc2)C1
REMARK SMILES IDX 9 1 8 2 6 3 7 4 5 5 77 6 93 7 78 8 80 9 79 10 4 11 3 12 2 13
REMARK SMILES IDX 1 14 81 15 82 16 83 17 84 19 85 20 86 21 92 22 87 23 91 24
REMARK SMILES IDX 88 25 89 26 90 27 10 28 11 29 12 30 13 31 14 32 15 33 76 34
REMARK SMILES IDX 16 35 75 36 17 37 18 38 19 39 69 40 20 41 74 42 68 43 70 44
REMARK SMILES IDX 21 45 73 46 67 47 66 48 22 50 54 51 34 52 53 53 35 54 38 55
REMARK SMILES IDX 52 56 71 57 36 58 37 59 51 61 72 62 39 63 23 64 24 65 32 66
REMARK SMILES IDX 25 67 26 68 30 69 33 70 27 71 28 72 31 73 29 74 55 75 56 76
REMARK SMILES IDX 64 77 57 78 58 79 62 80 65 81 59 82 60 83 63 84 61 85 40 86
REMARK SMILES IDX 41 87 49 88 42 89 43 90 47 91 50 92 44 93 45 94 48 95 46 96
REMARK H PARENT 83 18 70 49 38 60
REMARK Flexibility Score: inf
ROOT
ATOM      1  C   UNL     1      -0.389   1.482   4.366  1.00  0.00     0.274 C 
ENDROOT
BRANCH   1   2
ATOM      2  O   UNL     1       0.511   0.419   3.989  1.00  0.00    -0.462 OA
BRANCH   2   3
ATOM      3  C   UNL     1       0.056  -0.555   3.158  1.00  0.00     0.314 C 
ATOM      4  O   UNL     1      -1.123  -0.692   2.852  1.00  0.00    -0.252 OA
BRANCH   3   5
ATOM      5  C   UNL     1       1.192  -1.496   2.680  1.00  0.00     0.088 C 
ATOM      6  C   UNL     1       1.334  -2.617   3.746  1.00  0.00     0.022 C 
ATOM      7  C   UNL     1       2.502  -0.686   2.527  1.00  0.00     0.140 C 
ATOM      8  C   UNL     1       2.101  -2.191   5.000  1.00  0.00     0.023 C 
ATOM      9  N   UNL     1       3.165  -0.377   3.793  1.00  0.00    -0.324 N 
ATOM     10  C   UNL     1       3.424  -1.554   4.602  1.00  0.00     0.121 C 
BRANCH   5  11
ATOM     11  C   UNL     1       0.747  -2.171   1.318  1.00  0.00     0.049 C 
BRANCH  11  12
ATOM     12  C   UNL     1       1.593  -1.916   0.061  1.00  0.00     0.161 C 
BRANCH  12  13
ATOM     13  O   UNL     1       2.575  -2.938  -0.074  1.00  0.00    -0.385 OA
ATOM     14  C   UNL     1       3.917  -2.485  -0.171  1.00  0.00     0.194 C 
ENDBRANCH  12  13
ENDBRANCH  11  12
ENDBRANCH   5  11
BRANCH   9  15
ATOM     15  C   UNL     1       3.521   0.919   4.018  1.00  0.00     0.317 C 
ATOM     16  O   UNL     1       3.488   1.762   3.115  1.00  0.00    -0.249 OA
ATOM     17  N   UNL     1       3.883   1.394   5.215  1.00  0.00    -0.334 N 
ATOM     18  H   UNL     1       4.188   2.328   5.152  1.00  0.00     0.165 HD
BRANCH  17  19
ATOM     19  C   UNL     1       3.949   0.908   6.577  1.00  0.00     0.153 C 
BRANCH  19  20
ATOM     20  C   UNL     1       5.389   0.786   7.010  1.00  0.00    -0.028 A 
ATOM     21  C   UNL     1       5.992  -0.457   7.228  1.00  0.00     0.009 A 
ATOM     22  C   UNL     1       6.176   1.942   7.139  1.00  0.00     0.009 A 
ATOM     23  C   UNL     1       7.353  -0.540   7.534  1.00  0.00     0.047 A 
ATOM     24  C   UNL     1       7.535   1.857   7.454  1.00  0.00     0.047 A 
ATOM     25  C   UNL     1       8.132   0.613   7.646  1.00  0.00     0.118 A 
BRANCH  25  26
ATOM     26  O   UNL     1       9.449   0.390   7.938  1.00  0.00    -0.497 OA
ATOM     27  C   UNL     1      10.264   1.540   8.121  1.00  0.00     0.278 C 
ENDBRANCH  25  26
ENDBRANCH  19  20
ENDBRANCH  17  19
ENDBRANCH   9  15
ENDBRANCH   3   5
ENDBRANCH   2   3
ENDBRANCH   1   2
BRANCH   1  28
ATOM     28  C   UNL     1      -0.100   2.712   3.507  1.00  0.00     0.275 C 
BRANCH  28  29
ATOM     29  O   UNL     1      -0.455   2.381   2.158  1.00  0.00    -0.458 OA
BRANCH  29  30
ATOM     30  C   UNL     1       0.116   3.117   1.181  1.00  0.00     0.338 C 
ATOM     31  O   UNL     1       0.782   4.132   1.307  1.00  0.00    -0.246 OA
BRANCH  30  32
ATOM     32  C   UNL     1      -0.238   2.495  -0.114  1.00  0.00     0.060 A 
ATOM     33  C   UNL     1      -0.364   1.108  -0.216  1.00  0.00     0.016 A 
ATOM     34  C   UNL     1      -0.438   3.289  -1.242  1.00  0.00     0.016 A 
ATOM     35  C   UNL     1      -0.661   0.511  -1.436  1.00  0.00     0.010 A 
ATOM     36  C   UNL     1      -0.809   2.692  -2.454  1.00  0.00     0.010 A 
ATOM     37  C   UNL     1      -0.911   1.293  -2.568  1.00  0.00    -0.014 A 
BRANCH  37  38
ATOM     38  C   UNL     1      -1.243   0.642  -3.866  1.00  0.00     0.031 A 
ATOM     39  C   UNL     1      -0.374   0.876  -5.070  1.00  0.00     0.074 A 
ATOM     40  C   UNL     1      -2.307  -0.180  -3.969  1.00  0.00     0.049 A 
ATOM     41  N   UNL     1      -0.585   0.558  -6.322  1.00  0.00    -0.248 NA
ATOM     42  C   UNL     1       0.898   1.576  -4.835  1.00  0.00     0.031 C 
ATOM     43  C   UNL     1      -3.208  -0.543  -2.875  1.00  0.00     0.029 A 
ATOM     44  N   UNL     1      -2.805  -0.870  -5.049  1.00  0.00    -0.354 N 
ATOM     45  C   UNL     1       0.488   1.081  -7.031  1.00  0.00     0.074 A 
ATOM     46  C   UNL     1       1.354   1.729  -6.069  1.00  0.00     0.031 C 
ATOM     47  C   UNL     1      -4.120  -1.417  -3.326  1.00  0.00     0.029 A 
ATOM     48  C   UNL     1      -3.930  -1.603  -4.760  1.00  0.00     0.049 A 
ATOM     49  H   UNL     1      -2.395  -0.840  -5.943  1.00  0.00     0.167 HD
ATOM     50  C   UNL     1       0.722   1.031  -8.365  1.00  0.00     0.037 A 
ATOM     51  C   UNL     1      -4.749  -2.308  -5.563  1.00  0.00     0.037 A 
ATOM     52  C   UNL     1      -0.110   0.328  -9.309  1.00  0.00     0.049 A 
ATOM     53  C   UNL     1      -4.476  -2.345  -7.040  1.00  0.00     0.074 A 
ATOM     54  C   UNL     1       0.058   0.195 -10.677  1.00  0.00     0.029 A 
ATOM     55  N   UNL     1      -1.260  -0.374  -8.979  1.00  0.00    -0.354 N 
ATOM     56  N   UNL     1      -3.499  -1.788  -7.713  1.00  0.00    -0.248 NA
ATOM     57  C   UNL     1      -5.433  -3.087  -7.871  1.00  0.00     0.031 C 
ATOM     58  C   UNL     1      -1.011  -0.555 -11.179  1.00  0.00     0.029 A 
ATOM     59  C   UNL     1      -1.821  -0.929 -10.119  1.00  0.00     0.049 A 
ATOM     60  H   UNL     1      -1.623  -0.466  -8.068  1.00  0.00     0.167 HD
ATOM     61  C   UNL     1      -3.725  -2.103  -9.045  1.00  0.00     0.074 A 
ATOM     62  C   UNL     1      -4.914  -2.931  -9.081  1.00  0.00     0.031 C 
ATOM     63  C   UNL     1      -3.017  -1.732 -10.140  1.00  0.00     0.037 A 
BRANCH  50  64
ATOM     64  C   UNL     1       1.897   1.804  -8.889  1.00  0.00     0.064 A 
ATOM     65  C   UNL     1       3.221   1.399  -8.666  1.00  0.00     0.173 A 
ATOM     66  C   UNL     1       1.686   2.970  -9.643  1.00  0.00     0.173 A 
ATOM     67  F   UNL     1       3.478   0.302  -7.939  1.00  0.00    -0.203 F 
ATOM     68  C   UNL     1       4.290   2.151  -9.150  1.00  0.00     0.198 A 
ATOM     69  C   UNL     1       2.756   3.702 -10.150  1.00  0.00     0.198 A 
ATOM     70  F   UNL     1       0.440   3.400  -9.889  1.00  0.00    -0.203 F 
ATOM     71  F   UNL     1       5.548   1.775  -8.879  1.00  0.00    -0.200 F 
ATOM     72  C   UNL     1       4.057   3.297  -9.896  1.00  0.00     0.200 A 
ATOM     73  F   UNL     1       2.528   4.803 -10.880  1.00  0.00    -0.200 F 
ATOM     74  F   UNL     1       5.087   4.017 -10.361  1.00  0.00    -0.200 F 
ENDBRANCH  50  64
BRANCH  51  75
ATOM     75  C   UNL     1      -5.934  -2.991  -4.982  1.00  0.00     0.064 A 
ATOM     76  C   UNL     1      -6.002  -4.388  -4.910  1.00  0.00     0.173 A 
ATOM     77  C   UNL     1      -7.008  -2.257  -4.453  1.00  0.00     0.173 A 
ATOM     78  F   UNL     1      -5.016  -5.134  -5.429  1.00  0.00    -0.203 F 
ATOM     79  C   UNL     1      -7.095  -5.026  -4.326  1.00  0.00     0.198 A 
ATOM     80  C   UNL     1      -8.084  -2.894  -3.842  1.00  0.00     0.198 A 
ATOM     81  F   UNL     1      -6.993  -0.917  -4.502  1.00  0.00    -0.203 F 
ATOM     82  F   UNL     1      -7.150  -6.364  -4.295  1.00  0.00    -0.200 F 
ATOM     83  C   UNL     1      -8.129  -4.278  -3.781  1.00  0.00     0.200 A 
ATOM     84  F   UNL     1      -9.072  -2.167  -3.303  1.00  0.00    -0.200 F 
ATOM     85  F   UNL     1      -9.169  -4.891  -3.201  1.00  0.00    -0.200 F 
ENDBRANCH  51  75
BRANCH  63  86
ATOM     86  C   UNL     1      -3.517  -2.220 -11.467  1.00  0.00     0.064 A 
ATOM     87  C   UNL     1      -4.676  -1.688 -12.053  1.00  0.00     0.173 A 
ATOM     88  C   UNL     1      -2.827  -3.221 -12.166  1.00  0.00     0.173 A 
ATOM     89  F   UNL     1      -5.380  -0.741 -11.415  1.00  0.00    -0.203 F 
ATOM     90  C   UNL     1      -5.141  -2.161 -13.277  1.00  0.00     0.198 A 
ATOM     91  C   UNL     1      -3.280  -3.674 -13.402  1.00  0.00     0.198 A 
ATOM     92  F   UNL     1      -1.711  -3.760 -11.651  1.00  0.00    -0.203 F 
ATOM     93  F   UNL     1      -6.278  -1.675 -13.793  1.00  0.00    -0.200 F 
ATOM     94  C   UNL     1      -4.440  -3.150 -13.952  1.00  0.00     0.200 A 
ATOM     95  F   UNL     1      -2.598  -4.622 -14.058  1.00  0.00    -0.200 F 
ATOM     96  F   UNL     1      -4.891  -3.606 -15.129  1.00  0.00    -0.200 F 
ENDBRANCH  63  86
ENDBRANCH  37  38
ENDBRANCH  30  32
ENDBRANCH  29  30
ENDBRANCH  28  29
ENDBRANCH   1  28
TORSDOF 18
