REMARK SMILES O=Cc1c(OCc2ccc(C(=O)OCCOC(=O)c3ccc(-c4c5nc(c(-c6c(F)c(F)c(F)c(F)c6F)c6ccc([nH]6)c(-c6c(F)c(F)c(F)c(F)c6F)c6nc(c(-c7c(F)c(F)c(F)c(F)c7F)c7ccc4[nH]7)C=C6)C=C5)cc3)cc2)ccc2ccccc12
REMARK SMILES IDX 14 1 13 2 11 3 12 4 10 5 7 6 8 7 83 8 9 9 82 10 6 11 5 12
REMARK SMILES IDX 4 13 3 14 91 15 84 16 86 17 90 18 85 19 87 20 89 21 88 22
REMARK SMILES IDX 2 23 1 24 15 25 16 26 17 27 18 28 19 29 20 30 81 31 21 32
REMARK SMILES IDX 80 33 22 34 23 35 24 36 74 37 25 38 79 39 73 40 75 41 26 42
REMARK SMILES IDX 78 43 72 44 71 45 27 47 59 48 39 49 58 50 40 51 43 52 57 53
REMARK SMILES IDX 76 54 41 55 42 56 56 58 77 59 44 60 28 61 29 62 37 63 30 64
REMARK SMILES IDX 31 65 35 66 38 67 32 68 33 69 36 70 34 71 60 72 61 73 69 74
REMARK SMILES IDX 62 75 63 76 67 77 70 78 64 79 65 80 68 81 66 82 45 83 46 84
REMARK SMILES IDX 54 85 47 86 48 87 52 88 55 89 49 90 50 91 53 92 51 93
REMARK H PARENT 75 46 43 57
REMARK Flexibility Score: inf
ROOT
ATOM      1  C   UNL     1       5.834   3.302  -8.559  1.00  0.00     0.275 C 
ENDROOT
BRANCH   1   2
ATOM      2  O   UNL     1       4.842   2.847  -7.617  1.00  0.00    -0.458 OA
BRANCH   2   3
ATOM      3  C   UNL     1       4.192   1.709  -7.964  1.00  0.00     0.338 C 
ATOM      4  O   UNL     1       4.358   1.069  -8.992  1.00  0.00    -0.246 OA
BRANCH   3   5
ATOM      5  C   UNL     1       3.291   1.242  -6.876  1.00  0.00     0.060 A 
ATOM      6  C   UNL     1       1.715   0.164  -4.806  1.00  0.00    -0.011 A 
ATOM      7  C   UNL     1       2.072  -0.622  -5.908  1.00  0.00     0.008 A 
ATOM      8  C   UNL     1       2.112   1.511  -4.776  1.00  0.00     0.008 A 
ATOM      9  C   UNL     1       2.851  -0.087  -6.933  1.00  0.00     0.016 A 
ATOM     10  C   UNL     1       2.901   2.049  -5.803  1.00  0.00     0.016 A 
BRANCH   6  11
ATOM     11  C   UNL     1       0.915  -0.439  -3.670  1.00  0.00     0.265 C 
BRANCH  11  12
ATOM     12  O   UNL     1       1.553  -0.277  -2.403  1.00  0.00    -0.488 OA
BRANCH  12  13
ATOM     13  C   UNL     1       2.576  -1.105  -2.024  1.00  0.00     0.130 A 
ATOM     14  C   UNL     1       3.136  -0.887  -0.749  1.00  0.00     0.064 A 
ATOM     15  C   UNL     1       4.296  -1.588  -0.304  1.00  0.00    -0.004 A 
ATOM     16  C   UNL     1       3.136  -2.089  -2.833  1.00  0.00     0.048 A 
ATOM     17  C   UNL     1       4.869  -2.541  -1.180  1.00  0.00    -0.017 A 
ATOM     18  C   UNL     1       4.918  -1.413   0.959  1.00  0.00     0.009 A 
ATOM     19  C   UNL     1       4.271  -2.792  -2.420  1.00  0.00     0.012 A 
ATOM     20  C   UNL     1       6.027  -3.244  -0.807  1.00  0.00     0.009 A 
ATOM     21  C   UNL     1       6.071  -2.118   1.316  1.00  0.00     0.001 A 
ATOM     22  C   UNL     1       6.630  -3.028   0.430  1.00  0.00     0.001 A 
BRANCH  14  23
ATOM     23  C   UNL     1       2.511   0.114   0.148  1.00  0.00     0.264 C 
ATOM     24  O   UNL     1       1.302   0.194   0.326  1.00  0.00    -0.298 OA
ENDBRANCH  14  23
ENDBRANCH  12  13
ENDBRANCH  11  12
ENDBRANCH   6  11
ENDBRANCH   3   5
ENDBRANCH   2   3
ENDBRANCH   1   2
BRANCH   1  25
ATOM     25  C   UNL     1       7.240   2.918  -8.102  1.00  0.00     0.275 C 
BRANCH  25  26
ATOM     26  O   UNL     1       7.366   1.486  -8.014  1.00  0.00    -0.458 OA
BRANCH  26  27
ATOM     27  C   UNL     1       7.684   1.000  -6.793  1.00  0.00     0.338 C 
ATOM     28  O   UNL     1       7.922   1.625  -5.775  1.00  0.00    -0.246 OA
BRANCH  27  29
ATOM     29  C   UNL     1       7.700  -0.470  -6.839  1.00  0.00     0.060 A 
ATOM     30  C   UNL     1       6.492  -1.164  -6.803  1.00  0.00     0.016 A 
ATOM     31  C   UNL     1       8.912  -1.158  -6.778  1.00  0.00     0.016 A 
ATOM     32  C   UNL     1       6.489  -2.552  -6.663  1.00  0.00     0.010 A 
ATOM     33  C   UNL     1       8.908  -2.555  -6.691  1.00  0.00     0.010 A 
ATOM     34  C   UNL     1       7.696  -3.265  -6.602  1.00  0.00    -0.014 A 
BRANCH  34  35
ATOM     35  C   UNL     1       7.687  -4.740  -6.388  1.00  0.00     0.031 A 
ATOM     36  C   UNL     1       8.276  -5.330  -5.132  1.00  0.00     0.074 A 
ATOM     37  C   UNL     1       7.133  -5.559  -7.302  1.00  0.00     0.049 A 
ATOM     38  N   UNL     1       8.457  -6.587  -4.810  1.00  0.00    -0.248 NA
ATOM     39  C   UNL     1       8.727  -4.379  -4.105  1.00  0.00     0.031 C 
ATOM     40  C   UNL     1       6.500  -5.128  -8.548  1.00  0.00     0.029 A 
ATOM     41  N   UNL     1       7.006  -6.928  -7.322  1.00  0.00    -0.354 N 
ATOM     42  C   UNL     1       9.087  -6.577  -3.572  1.00  0.00     0.074 A 
ATOM     43  C   UNL     1       9.260  -5.189  -3.201  1.00  0.00     0.031 C 
ATOM     44  C   UNL     1       6.022  -6.203  -9.193  1.00  0.00     0.029 A 
ATOM     45  C   UNL     1       6.373  -7.406  -8.443  1.00  0.00     0.049 A 
ATOM     46  H   UNL     1       7.336  -7.510  -6.600  1.00  0.00     0.167 HD
ATOM     47  C   UNL     1       9.484  -7.629  -2.815  1.00  0.00     0.037 A 
ATOM     48  C   UNL     1       6.128  -8.670  -8.841  1.00  0.00     0.037 A 
ATOM     49  C   UNL     1       9.272  -9.012  -3.159  1.00  0.00     0.049 A 
ATOM     50  C   UNL     1       6.590  -9.819  -7.989  1.00  0.00     0.074 A 
ATOM     51  C   UNL     1       9.616 -10.144  -2.438  1.00  0.00     0.029 A 
ATOM     52  N   UNL     1       8.650  -9.454  -4.318  1.00  0.00    -0.354 N 
ATOM     53  N   UNL     1       7.210  -9.797  -6.835  1.00  0.00    -0.248 NA
ATOM     54  C   UNL     1       6.332 -11.172  -8.505  1.00  0.00     0.031 C 
ATOM     55  C   UNL     1       9.233 -11.270  -3.176  1.00  0.00     0.029 A 
ATOM     56  C   UNL     1       8.612 -10.840  -4.337  1.00  0.00     0.049 A 
ATOM     57  H   UNL     1       8.289  -8.869  -5.023  1.00  0.00     0.167 HD
ATOM     58  C   UNL     1       7.408 -11.125  -6.483  1.00  0.00     0.074 A 
ATOM     59  C   UNL     1       6.822 -11.930  -7.534  1.00  0.00     0.031 C 
ATOM     60  C   UNL     1       8.028 -11.631  -5.389  1.00  0.00     0.037 A 
BRANCH  47  61
ATOM     61  C   UNL     1      10.220  -7.329  -1.541  1.00  0.00     0.064 A 
ATOM     62  C   UNL     1       9.571  -6.799  -0.417  1.00  0.00     0.173 A 
ATOM     63  C   UNL     1      11.590  -7.616  -1.434  1.00  0.00     0.173 A 
ATOM     64  F   UNL     1       8.267  -6.488  -0.473  1.00  0.00    -0.203 F 
ATOM     65  C   UNL     1      10.271  -6.547   0.761  1.00  0.00     0.198 A 
ATOM     66  C   UNL     1      12.281  -7.389  -0.247  1.00  0.00     0.198 A 
ATOM     67  F   UNL     1      12.258  -8.127  -2.480  1.00  0.00    -0.203 F 
ATOM     68  F   UNL     1       9.640  -5.997   1.807  1.00  0.00    -0.200 F 
ATOM     69  C   UNL     1      11.622  -6.849   0.848  1.00  0.00     0.200 A 
ATOM     70  F   UNL     1      13.584  -7.690  -0.163  1.00  0.00    -0.200 F 
ATOM     71  F   UNL     1      12.292  -6.612   1.984  1.00  0.00    -0.200 F 
ENDBRANCH  47  61
BRANCH  48  72
ATOM     72  C   UNL     1       5.424  -8.913 -10.127  1.00  0.00     0.064 A 
ATOM     73  C   UNL     1       4.121  -9.428 -10.149  1.00  0.00     0.173 A 
ATOM     74  C   UNL     1       6.037  -8.630 -11.357  1.00  0.00     0.173 A 
ATOM     75  F   UNL     1       3.506  -9.742  -9.000  1.00  0.00    -0.203 F 
ATOM     76  C   UNL     1       3.459  -9.656 -11.354  1.00  0.00     0.198 A 
ATOM     77  C   UNL     1       5.364  -8.831 -12.559  1.00  0.00     0.198 A 
ATOM     78  F   UNL     1       7.285  -8.139 -11.388  1.00  0.00    -0.203 F 
ATOM     79  F   UNL     1       2.228 -10.184 -11.350  1.00  0.00    -0.200 F 
ATOM     80  C   UNL     1       4.078  -9.349 -12.557  1.00  0.00     0.200 A 
ATOM     81  F   UNL     1       5.960  -8.520 -13.718  1.00  0.00    -0.200 F 
ATOM     82  F   UNL     1       3.436  -9.557 -13.715  1.00  0.00    -0.200 F 
ENDBRANCH  48  72
BRANCH  60  83
ATOM     83  C   UNL     1       8.084 -13.124  -5.263  1.00  0.00     0.064 A 
ATOM     84  C   UNL     1       8.947 -13.895  -6.056  1.00  0.00     0.173 A 
ATOM     85  C   UNL     1       7.287 -13.790  -4.319  1.00  0.00     0.173 A 
ATOM     86  F   UNL     1       9.717 -13.306  -6.984  1.00  0.00    -0.203 F 
ATOM     87  C   UNL     1       8.992 -15.281  -5.926  1.00  0.00     0.198 A 
ATOM     88  C   UNL     1       7.353 -15.173  -4.175  1.00  0.00     0.198 A 
ATOM     89  F   UNL     1       6.449 -13.098  -3.534  1.00  0.00    -0.203 F 
ATOM     90  F   UNL     1       9.791 -16.001  -6.724  1.00  0.00    -0.200 F 
ATOM     91  C   UNL     1       8.200 -15.918  -4.982  1.00  0.00     0.200 A 
ATOM     92  F   UNL     1       6.593 -15.787  -3.257  1.00  0.00    -0.200 F 
ATOM     93  F   UNL     1       8.246 -17.251  -4.857  1.00  0.00    -0.200 F 
ENDBRANCH  60  83
ENDBRANCH  34  35
ENDBRANCH  27  29
ENDBRANCH  26  27
ENDBRANCH  25  26
ENDBRANCH   1  25
TORSDOF 15
