REMARK SMILES CC(C)(C)OC(=O)N[C@@H](C(=O)OCCOC(=O)c1ccc(-c2c3nc(c(-c4c(F)c(F)c(F)c(F)c4F)c4ccc([nH]4)c(-c4c(F)c(F)c(F)c(F)c4F)c4nc(c(-c5c(F)c(F)c(F)c(F)c5F)c5ccc2[nH]5)C=C4)C=C3)cc1)c1ccc([N+](=O)[O-])cc1
REMARK SMILES IDX 13 1 12 2 10 3 11 4 9 5 8 6 6 7 7 8 5 10 2 11 1 12 3 13 4 14
REMARK SMILES IDX 81 15 82 16 89 17 83 18 88 19 84 20 85 21 86 22 87 23 14 24
REMARK SMILES IDX 15 25 16 26 17 27 18 28 19 29 80 30 20 31 79 32 21 33 22 34
REMARK SMILES IDX 23 35 73 36 24 37 78 38 72 39 74 40 25 41 77 42 71 43 70 44
REMARK SMILES IDX 26 46 58 47 38 48 57 49 39 50 42 51 56 52 75 53 40 54 41 55
REMARK SMILES IDX 55 57 76 58 43 59 27 60 28 61 36 62 29 63 30 64 34 65 37 66
REMARK SMILES IDX 31 67 32 68 35 69 33 70 59 71 60 72 68 73 61 74 62 75 66 76
REMARK SMILES IDX 69 77 63 78 64 79 67 80 65 81 44 82 45 83 53 84 46 85 47 86
REMARK SMILES IDX 51 87 54 88 48 89 49 90 52 91 50 92
REMARK H PARENT 8 9 74 45 42 56
REMARK Flexibility Score: inf
ROOT
ATOM      1  C   UNL     1       5.268   1.595   5.418  1.00  0.00     0.274 C 
ENDROOT
BRANCH   1   2
ATOM      2  O   UNL     1       3.931   1.329   4.950  1.00  0.00    -0.460 OA
BRANCH   2   3
ATOM      3  C   UNL     1       3.493   0.038   5.000  1.00  0.00     0.333 C 
ATOM      4  O   UNL     1       4.195  -0.911   5.338  1.00  0.00    -0.249 OA
BRANCH   3   5
ATOM      5  C   UNL     1       2.034  -0.099   4.502  1.00  0.00     0.226 C 
BRANCH   5   6
ATOM      6  N   UNL     1       1.369   1.193   4.394  1.00  0.00    -0.304 N 
ATOM      7  C   UNL     1       0.804   1.710   3.270  1.00  0.00     0.408 C 
ATOM      8  O   UNL     1       0.239   2.787   3.272  1.00  0.00    -0.225 OA
ATOM      9  H   UNL     1       1.325   1.743   5.210  1.00  0.00     0.168 HD
BRANCH   7  10
ATOM     10  O   UNL     1       0.967   0.892   2.205  1.00  0.00    -0.444 OA
BRANCH  10  11
ATOM     11  C   UNL     1       0.458   1.241   0.896  1.00  0.00     0.106 C 
ATOM     12  C   UNL     1       0.986   0.127  -0.021  1.00  0.00     0.056 C 
ATOM     13  C   UNL     1       1.012   2.582   0.404  1.00  0.00     0.056 C 
ATOM     14  C   UNL     1      -1.071   1.209   0.892  1.00  0.00     0.056 C 
ENDBRANCH  10  11
ENDBRANCH   7  10
ENDBRANCH   5   6
BRANCH   5  15
ATOM     15  C   UNL     1       1.205  -1.101   5.313  1.00  0.00    -0.014 A 
ATOM     16  C   UNL     1       0.186  -0.704   6.200  1.00  0.00     0.013 A 
ATOM     17  C   UNL     1       1.480  -2.478   5.191  1.00  0.00     0.013 A 
ATOM     18  C   UNL     1      -0.525  -1.647   6.953  1.00  0.00     0.086 A 
ATOM     19  C   UNL     1       0.783  -3.427   5.946  1.00  0.00     0.086 A 
ATOM     20  C   UNL     1      -0.216  -3.006   6.831  1.00  0.00     0.269 A 
BRANCH  20  21
ATOM     21  N   UNL     1      -0.892  -3.991   7.688  1.00  0.00     0.062 N 
ATOM     22  O   UNL     1      -1.807  -3.585   8.416  1.00  0.00    -0.258 OA
ATOM     23  O   UNL     1      -0.491  -5.163   7.642  1.00  0.00    -0.258 OA
ENDBRANCH  20  21
ENDBRANCH   5  15
ENDBRANCH   3   5
ENDBRANCH   2   3
ENDBRANCH   1   2
BRANCH   1  24
ATOM     24  C   UNL     1       5.231   2.342   6.753  1.00  0.00     0.275 C 
BRANCH  24  25
ATOM     25  O   UNL     1       4.792   1.484   7.825  1.00  0.00    -0.458 OA
BRANCH  25  26
ATOM     26  C   UNL     1       3.459   1.480   8.037  1.00  0.00     0.338 C 
ATOM     27  O   UNL     1       2.603   2.107   7.432  1.00  0.00    -0.246 OA
BRANCH  26  28
ATOM     28  C   UNL     1       3.104   0.462   9.034  1.00  0.00     0.060 A 
ATOM     29  C   UNL     1       2.720  -0.781   8.551  1.00  0.00     0.016 A 
ATOM     30  C   UNL     1       2.903   0.786  10.375  1.00  0.00     0.016 A 
ATOM     31  C   UNL     1       1.986  -1.637   9.363  1.00  0.00     0.010 A 
ATOM     32  C   UNL     1       2.243  -0.129  11.214  1.00  0.00     0.010 A 
ATOM     33  C   UNL     1       1.697  -1.319  10.697  1.00  0.00    -0.014 A 
BRANCH  33  34
ATOM     34  C   UNL     1       0.714  -2.157  11.464  1.00  0.00     0.031 A 
ATOM     35  C   UNL     1      -0.507  -1.518  12.093  1.00  0.00     0.074 A 
ATOM     36  C   UNL     1       0.815  -3.503  11.505  1.00  0.00     0.049 A 
ATOM     37  N   UNL     1      -1.394  -2.036  12.910  1.00  0.00    -0.248 NA
ATOM     38  C   UNL     1      -0.759  -0.105  11.773  1.00  0.00     0.031 C 
ATOM     39  C   UNL     1       1.869  -4.297  10.874  1.00  0.00     0.029 A 
ATOM     40  N   UNL     1      -0.018  -4.450  12.057  1.00  0.00    -0.354 N 
ATOM     41  C   UNL     1      -2.247  -0.996  13.264  1.00  0.00     0.074 A 
ATOM     42  C   UNL     1      -1.777   0.183  12.570  1.00  0.00     0.031 C 
ATOM     43  C   UNL     1       1.558  -5.598  10.967  1.00  0.00     0.029 A 
ATOM     44  C   UNL     1       0.357  -5.744  11.783  1.00  0.00     0.049 A 
ATOM     45  H   UNL     1      -0.808  -4.222  12.598  1.00  0.00     0.167 HD
ATOM     46  C   UNL     1      -3.320  -1.018  14.092  1.00  0.00     0.037 A 
ATOM     47  C   UNL     1      -0.177  -6.920  12.170  1.00  0.00     0.037 A 
ATOM     48  C   UNL     1      -3.854  -2.208  14.706  1.00  0.00     0.049 A 
ATOM     49  C   UNL     1      -1.353  -6.921  13.110  1.00  0.00     0.074 A 
ATOM     50  C   UNL     1      -4.914  -2.326  15.590  1.00  0.00     0.029 A 
ATOM     51  N   UNL     1      -3.395  -3.494  14.463  1.00  0.00    -0.354 N 
ATOM     52  N   UNL     1      -2.055  -5.914  13.566  1.00  0.00    -0.248 NA
ATOM     53  C   UNL     1      -1.782  -8.231  13.624  1.00  0.00     0.031 C 
ATOM     54  C   UNL     1      -5.074  -3.679  15.909  1.00  0.00     0.029 A 
ATOM     55  C   UNL     1      -4.147  -4.409  15.184  1.00  0.00     0.049 A 
ATOM     56  H   UNL     1      -2.646  -3.723  13.867  1.00  0.00     0.167 HD
ATOM     57  C   UNL     1      -3.014  -6.466  14.404  1.00  0.00     0.074 A 
ATOM     58  C   UNL     1      -2.822  -7.900  14.375  1.00  0.00     0.031 C 
ATOM     59  C   UNL     1      -3.961  -5.836  15.142  1.00  0.00     0.037 A 
BRANCH  46  60
ATOM     60  C   UNL     1      -3.960   0.299  14.437  1.00  0.00     0.064 A 
ATOM     61  C   UNL     1      -4.721   1.032  13.516  1.00  0.00     0.173 A 
ATOM     62  C   UNL     1      -3.818   0.823  15.733  1.00  0.00     0.173 A 
ATOM     63  F   UNL     1      -4.876   0.587  12.261  1.00  0.00    -0.203 F 
ATOM     64  C   UNL     1      -5.287   2.257  13.869  1.00  0.00     0.198 A 
ATOM     65  C   UNL     1      -4.414   2.029  16.092  1.00  0.00     0.198 A 
ATOM     66  F   UNL     1      -3.108   0.160  16.657  1.00  0.00    -0.203 F 
ATOM     67  F   UNL     1      -5.960   2.970  12.955  1.00  0.00    -0.200 F 
ATOM     68  C   UNL     1      -5.139   2.750  15.157  1.00  0.00     0.200 A 
ATOM     69  F   UNL     1      -4.281   2.495  17.341  1.00  0.00    -0.200 F 
ATOM     70  F   UNL     1      -5.686   3.926  15.494  1.00  0.00    -0.200 F 
ENDBRANCH  46  60
BRANCH  47  71
ATOM     71  C   UNL     1       0.421  -8.205  11.712  1.00  0.00     0.064 A 
ATOM     72  C   UNL     1      -0.310  -9.094  10.910  1.00  0.00     0.173 A 
ATOM     73  C   UNL     1       1.719  -8.586  12.085  1.00  0.00     0.173 A 
ATOM     74  F   UNL     1      -1.572  -8.802  10.561  1.00  0.00    -0.203 F 
ATOM     75  C   UNL     1       0.232 -10.314  10.507  1.00  0.00     0.198 A 
ATOM     76  C   UNL     1       2.273  -9.786  11.649  1.00  0.00     0.198 A 
ATOM     77  F   UNL     1       2.458  -7.784  12.866  1.00  0.00    -0.203 F 
ATOM     78  F   UNL     1      -0.508 -11.170   9.789  1.00  0.00    -0.200 F 
ATOM     79  C   UNL     1       1.527 -10.654  10.867  1.00  0.00     0.200 A 
ATOM     80  F   UNL     1       3.530 -10.104  11.990  1.00  0.00    -0.200 F 
ATOM     81  F   UNL     1       2.050 -11.823  10.474  1.00  0.00    -0.200 F 
ENDBRANCH  47  71
BRANCH  59  82
ATOM     82  C   UNL     1      -4.889  -6.697  15.950  1.00  0.00     0.064 A 
ATOM     83  C   UNL     1      -4.452  -7.384  17.092  1.00  0.00     0.173 A 
ATOM     84  C   UNL     1      -6.239  -6.821  15.586  1.00  0.00     0.173 A 
ATOM     85  F   UNL     1      -3.169  -7.311  17.475  1.00  0.00    -0.203 F 
ATOM     86  C   UNL     1      -5.324  -8.190  17.821  1.00  0.00     0.198 A 
ATOM     87  C   UNL     1      -7.115  -7.604  16.334  1.00  0.00     0.198 A 
ATOM     88  F   UNL     1      -6.711  -6.178  14.507  1.00  0.00    -0.203 F 
ATOM     89  F   UNL     1      -4.872  -8.881  18.877  1.00  0.00    -0.200 F 
ATOM     90  C   UNL     1      -6.655  -8.295  17.444  1.00  0.00     0.200 A 
ATOM     91  F   UNL     1      -8.403  -7.694  15.977  1.00  0.00    -0.200 F 
ATOM     92  F   UNL     1      -7.492  -9.070  18.147  1.00  0.00    -0.200 F 
ENDBRANCH  59  82
ENDBRANCH  33  34
ENDBRANCH  26  28
ENDBRANCH  25  26
ENDBRANCH  24  25
ENDBRANCH   1  24
TORSDOF 16
