REMARK SMILES CCN(CC(=O)OCCOC(=O)c1ccc(-c2c3nc(c(-c4c(F)c(F)c(F)c(F)c4F)c4ccc([nH]4)c(-c4c(F)c(F)c(F)c(F)c4F)c4nc(c(-c5c(F)c(F)c(F)c(F)c5F)c5ccc2[nH]5)C=C4)C=C3)cc1)C(=O)[C@@H]1CC[NH2+][C@@H]1C
REMARK SMILES IDX 8 1 7 2 5 3 6 4 4 5 3 6 2 7 1 8 76 9 77 10 78 11 79 12 82 13
REMARK SMILES IDX 80 14 81 15 83 16 9 19 10 20 11 21 12 22 13 23 14 24 75 25
REMARK SMILES IDX 15 26 74 27 16 28 17 29 18 30 68 31 19 32 73 33 67 34 69 35
REMARK SMILES IDX 20 36 72 37 66 38 65 39 21 41 53 42 33 43 52 44 34 45 37 46
REMARK SMILES IDX 51 47 70 48 35 49 36 50 50 52 71 53 38 54 22 55 23 56 31 57
REMARK SMILES IDX 24 58 25 59 29 60 32 61 26 62 27 63 30 64 28 65 54 66 55 67
REMARK SMILES IDX 63 68 56 69 57 70 61 71 64 72 58 73 59 74 62 75 60 76 39 77
REMARK SMILES IDX 40 78 48 79 41 80 42 81 46 82 49 83 43 84 44 85 47 86 45 87
REMARK H PARENT 81 17 81 18 69 40 37 51
REMARK Flexibility Score: inf
ROOT
ATOM      1  C   UNL     1       5.616   6.229   4.989  1.00  0.00     0.274 C 
ENDROOT
BRANCH   1   2
ATOM      2  O   UNL     1       4.295   5.962   4.467  1.00  0.00    -0.461 OA
BRANCH   2   3
ATOM      3  C   UNL     1       4.152   6.204   3.140  1.00  0.00     0.325 C 
ATOM      4  O   UNL     1       5.071   6.509   2.383  1.00  0.00    -0.250 OA
BRANCH   3   5
ATOM      5  C   UNL     1       2.701   6.242   2.667  1.00  0.00     0.242 C 
BRANCH   5   6
ATOM      6  N   UNL     1       1.560   5.702   3.416  1.00  0.00    -0.331 N 
BRANCH   6   7
ATOM      7  C   UNL     1       0.392   6.603   3.470  1.00  0.00     0.117 C 
ATOM      8  C   UNL     1      -0.533   6.338   2.282  1.00  0.00     0.027 C 
ENDBRANCH   6   7
BRANCH   6   9
ATOM      9  C   UNL     1       1.267   4.408   3.797  1.00  0.00     0.232 C 
ATOM     10  O   UNL     1       0.348   4.250   4.625  1.00  0.00    -0.274 OA
BRANCH   9  11
ATOM     11  C   UNL     1       1.925   3.106   3.340  1.00  0.00     0.142 C 
ATOM     12  C   UNL     1       2.897   2.513   4.344  1.00  0.00     0.081 C 
ATOM     13  C   UNL     1       2.409   2.627   1.970  1.00  0.00     0.192 C 
ATOM     14  C   UNL     1       3.243   1.194   3.683  1.00  0.00     0.261 C 
ATOM     15  N   UNL     1       3.360   1.516   2.255  1.00  0.00    -0.343 N 
ATOM     16  C   UNL     1       3.074   3.589   1.015  1.00  0.00     0.076 C 
ATOM     17  H   UNL     1       3.121   0.699   1.693  1.00  0.00     0.346 HD
ATOM     18  H   UNL     1       4.315   1.791   2.025  1.00  0.00     0.346 HD
ENDBRANCH   9  11
ENDBRANCH   6   9
ENDBRANCH   5   6
ENDBRANCH   3   5
ENDBRANCH   2   3
ENDBRANCH   1   2
BRANCH   1  19
ATOM     19  C   UNL     1       6.460   4.961   5.082  1.00  0.00     0.275 C 
BRANCH  19  20
ATOM     20  O   UNL     1       6.626   4.371   3.781  1.00  0.00    -0.458 OA
BRANCH  20  21
ATOM     21  C   UNL     1       6.799   3.030   3.790  1.00  0.00     0.338 C 
ATOM     22  O   UNL     1       6.859   2.324   4.791  1.00  0.00    -0.246 OA
BRANCH  21  23
ATOM     23  C   UNL     1       6.833   2.467   2.417  1.00  0.00     0.060 A 
ATOM     24  C   UNL     1       6.486   3.210   1.284  1.00  0.00     0.016 A 
ATOM     25  C   UNL     1       7.115   1.103   2.278  1.00  0.00     0.016 A 
ATOM     26  C   UNL     1       6.337   2.570   0.045  1.00  0.00     0.010 A 
ATOM     27  C   UNL     1       7.030   0.483   1.028  1.00  0.00     0.010 A 
ATOM     28  C   UNL     1       6.616   1.201  -0.102  1.00  0.00    -0.014 A 
BRANCH  28  29
ATOM     29  C   UNL     1       6.552   0.501  -1.417  1.00  0.00     0.031 A 
ATOM     30  C   UNL     1       5.694  -0.725  -1.602  1.00  0.00     0.074 A 
ATOM     31  C   UNL     1       7.354   0.898  -2.425  1.00  0.00     0.049 A 
ATOM     32  N   UNL     1       5.767  -1.657  -2.521  1.00  0.00    -0.248 NA
ATOM     33  C   UNL     1       4.614  -0.929  -0.626  1.00  0.00     0.031 C 
ATOM     34  C   UNL     1       8.195   2.094  -2.418  1.00  0.00     0.029 A 
ATOM     35  N   UNL     1       7.628   0.304  -3.635  1.00  0.00    -0.354 N 
ATOM     36  C   UNL     1       4.768  -2.574  -2.217  1.00  0.00     0.074 A 
ATOM     37  C   UNL     1       4.098  -2.085  -1.029  1.00  0.00     0.031 C 
ATOM     38  C   UNL     1       8.909   2.135  -3.550  1.00  0.00     0.029 A 
ATOM     39  C   UNL     1       8.653   0.919  -4.312  1.00  0.00     0.049 A 
ATOM     40  H   UNL     1       7.140  -0.478  -3.980  1.00  0.00     0.167 HD
ATOM     41  C   UNL     1       4.448  -3.719  -2.869  1.00  0.00     0.037 A 
ATOM     42  C   UNL     1       9.379   0.518  -5.372  1.00  0.00     0.037 A 
ATOM     43  C   UNL     1       5.103  -4.188  -4.067  1.00  0.00     0.049 A 
ATOM     44  C   UNL     1       9.086  -0.802  -6.018  1.00  0.00     0.074 A 
ATOM     45  C   UNL     1       4.834  -5.325  -4.811  1.00  0.00     0.029 A 
ATOM     46  N   UNL     1       6.155  -3.542  -4.697  1.00  0.00    -0.354 N 
ATOM     47  N   UNL     1       8.188  -1.697  -5.690  1.00  0.00    -0.248 NA
ATOM     48  C   UNL     1       9.918  -1.174  -7.169  1.00  0.00     0.031 C 
ATOM     49  C   UNL     1       5.749  -5.388  -5.868  1.00  0.00     0.029 A 
ATOM     50  C   UNL     1       6.558  -4.266  -5.809  1.00  0.00     0.049 A 
ATOM     51  H   UNL     1       6.557  -2.694  -4.399  1.00  0.00     0.167 HD
ATOM     52  C   UNL     1       8.330  -2.729  -6.605  1.00  0.00     0.074 A 
ATOM     53  C   UNL     1       9.401  -2.349  -7.503  1.00  0.00     0.031 C 
ATOM     54  C   UNL     1       7.626  -3.883  -6.695  1.00  0.00     0.037 A 
BRANCH  41  55
ATOM     55  C   UNL     1       3.352  -4.579  -2.307  1.00  0.00     0.064 A 
ATOM     56  C   UNL     1       2.000  -4.242  -2.456  1.00  0.00     0.173 A 
ATOM     57  C   UNL     1       3.660  -5.815  -1.716  1.00  0.00     0.173 A 
ATOM     58  F   UNL     1       1.653  -3.073  -3.014  1.00  0.00    -0.203 F 
ATOM     59  C   UNL     1       0.995  -5.111  -2.032  1.00  0.00     0.198 A 
ATOM     60  C   UNL     1       2.653  -6.690  -1.313  1.00  0.00     0.198 A 
ATOM     61  F   UNL     1       4.938  -6.192  -1.563  1.00  0.00    -0.203 F 
ATOM     62  F   UNL     1      -0.292  -4.765  -2.175  1.00  0.00    -0.200 F 
ATOM     63  C   UNL     1       1.322  -6.337  -1.472  1.00  0.00     0.200 A 
ATOM     64  F   UNL     1       2.972  -7.882  -0.790  1.00  0.00    -0.200 F 
ATOM     65  F   UNL     1       0.354  -7.182  -1.090  1.00  0.00    -0.200 F 
ENDBRANCH  41  55
BRANCH  42  66
ATOM     66  C   UNL     1      10.507   1.368  -5.826  1.00  0.00     0.064 A 
ATOM     67  C   UNL     1      10.421   2.113  -7.007  1.00  0.00     0.173 A 
ATOM     68  C   UNL     1      11.663   1.510  -5.040  1.00  0.00     0.173 A 
ATOM     69  F   UNL     1       9.346   1.989  -7.800  1.00  0.00    -0.203 F 
ATOM     70  C   UNL     1      11.444   2.982  -7.381  1.00  0.00     0.198 A 
ATOM     71  C   UNL     1      12.670   2.400  -5.400  1.00  0.00     0.198 A 
ATOM     72  F   UNL     1      11.787   0.818  -3.898  1.00  0.00    -0.203 F 
ATOM     73  F   UNL     1      11.345   3.676  -8.522  1.00  0.00    -0.200 F 
ATOM     74  C   UNL     1      12.559   3.135  -6.570  1.00  0.00     0.200 A 
ATOM     75  F   UNL     1      13.735   2.561  -4.603  1.00  0.00    -0.200 F 
ATOM     76  F   UNL     1      13.527   3.996  -6.914  1.00  0.00    -0.200 F 
ENDBRANCH  42  66
BRANCH  54  77
ATOM     77  C   UNL     1       7.963  -4.795  -7.834  1.00  0.00     0.064 A 
ATOM     78  C   UNL     1       9.120  -5.586  -7.826  1.00  0.00     0.173 A 
ATOM     79  C   UNL     1       7.111  -4.882  -8.946  1.00  0.00     0.173 A 
ATOM     80  F   UNL     1       9.974  -5.522  -6.793  1.00  0.00    -0.203 F 
ATOM     81  C   UNL     1       9.426  -6.414  -8.903  1.00  0.00     0.198 A 
ATOM     82  C   UNL     1       7.409  -5.727 -10.011  1.00  0.00     0.198 A 
ATOM     83  F   UNL     1       5.991  -4.146  -8.998  1.00  0.00    -0.203 F 
ATOM     84  F   UNL     1      10.561  -7.127  -8.897  1.00  0.00    -0.200 F 
ATOM     85  C   UNL     1       8.569  -6.486  -9.992  1.00  0.00     0.200 A 
ATOM     86  F   UNL     1       6.578  -5.799 -11.060  1.00  0.00    -0.200 F 
ATOM     87  F   UNL     1       8.868  -7.279 -11.030  1.00  0.00    -0.200 F 
ENDBRANCH  54  77
ENDBRANCH  28  29
ENDBRANCH  21  23
ENDBRANCH  20  21
ENDBRANCH  19  20
ENDBRANCH   1  19
TORSDOF 15
