REMARK SMILES C[C@@H](Sc1nc2ccccc2c(=O)n1N)C(=O)OCCOC(=O)c1ccc(-c2c3nc(c(-c4c(F)c(F)c(F)c(F)c4F)c4ccc([nH]4)c(-c4c(F)c(F)c(F)c(F)c4F)c4nc(c(-c5c(F)c(F)c(F)c(F)c5F)c5ccc2[nH]5)C=C4)C=C3)cc1
REMARK SMILES IDX 19 1 18 2 16 3 17 4 2 5 1 6 3 7 4 8 5 9 14 10 6 11 12 12
REMARK SMILES IDX 7 13 11 14 13 15 8 16 10 17 9 18 15 19 20 22 21 23 22 24
REMARK SMILES IDX 23 25 24 26 25 27 86 28 26 29 85 30 27 31 28 32 29 33 79 34
REMARK SMILES IDX 30 35 84 36 78 37 80 38 31 39 83 40 77 41 76 42 32 44 64 45
REMARK SMILES IDX 44 46 63 47 45 48 48 49 62 50 81 51 46 52 47 53 61 55 82 56
REMARK SMILES IDX 49 57 33 58 34 59 42 60 35 61 36 62 40 63 43 64 37 65 38 66
REMARK SMILES IDX 41 67 39 68 65 69 66 70 74 71 67 72 68 73 72 74 75 75 69 76
REMARK SMILES IDX 70 77 73 78 71 79 50 80 51 81 59 82 52 83 53 84 57 85 60 86
REMARK SMILES IDX 54 87 55 88 58 89 56 90
REMARK H PARENT 15 20 15 21 80 43 48 54
REMARK Flexibility Score: inf
ROOT
ATOM      1  C   UNL     1      -3.074  -0.785  -0.939  1.00  0.00     0.274 C 
ENDROOT
BRANCH   1   2
ATOM      2  O   UNL     1      -1.648  -0.937  -0.800  1.00  0.00    -0.461 OA
BRANCH   2   3
ATOM      3  C   UNL     1      -0.883  -0.375  -1.776  1.00  0.00     0.319 C 
ATOM      4  O   UNL     1      -1.338   0.201  -2.761  1.00  0.00    -0.251 OA
BRANCH   3   5
ATOM      5  C   UNL     1       0.614  -0.529  -1.526  1.00  0.00     0.161 C 
ATOM      6  C   UNL     1       0.989  -0.908  -0.099  1.00  0.00     0.032 C 
BRANCH   5   7
ATOM      7  S   UNL     1       1.247  -1.728  -2.750  1.00  0.00    -0.071 SA
BRANCH   7   8
ATOM      8  C   UNL     1       2.968  -1.474  -2.582  1.00  0.00     0.191 A 
ATOM      9  N   UNL     1       3.647  -2.435  -2.046  1.00  0.00    -0.222 NA
ATOM     10  N   UNL     1       3.538  -0.304  -3.077  1.00  0.00    -0.202 N 
ATOM     11  C   UNL     1       5.040  -2.303  -1.974  1.00  0.00     0.079 A 
ATOM     12  C   UNL     1       4.918  -0.092  -3.039  1.00  0.00     0.280 A 
ATOM     13  C   UNL     1       5.782  -3.355  -1.433  1.00  0.00     0.029 A 
ATOM     14  C   UNL     1       5.719  -1.182  -2.453  1.00  0.00     0.068 A 
ATOM     15  O   UNL     1       5.458   0.924  -3.476  1.00  0.00    -0.267 OA
ATOM     16  C   UNL     1       7.177  -3.289  -1.379  1.00  0.00     0.002 A 
ATOM     17  C   UNL     1       7.115  -1.103  -2.401  1.00  0.00     0.016 A 
ATOM     18  C   UNL     1       7.843  -2.164  -1.864  1.00  0.00     0.001 A 
BRANCH  10  19
ATOM     19  N   UNL     1       2.748   0.744  -3.662  1.00  0.00    -0.334 N 
ATOM     20  H   UNL     1       1.769   0.651  -3.716  1.00  0.00     0.178 HD
ATOM     21  H   UNL     1       3.185   1.556  -4.008  1.00  0.00     0.178 HD
ENDBRANCH  10  19
ENDBRANCH   7   8
ENDBRANCH   5   7
ENDBRANCH   3   5
ENDBRANCH   2   3
ENDBRANCH   1   2
BRANCH   1  22
ATOM     22  C   UNL     1      -3.600   0.403  -0.125  1.00  0.00     0.275 C 
BRANCH  22  23
ATOM     23  O   UNL     1      -3.225   1.668  -0.701  1.00  0.00    -0.458 OA
BRANCH  23  24
ATOM     24  C   UNL     1      -2.035   2.158  -0.286  1.00  0.00     0.338 C 
ATOM     25  O   UNL     1      -1.271   1.665   0.526  1.00  0.00    -0.246 OA
BRANCH  24  26
ATOM     26  C   UNL     1      -1.696   3.365  -1.052  1.00  0.00     0.060 A 
ATOM     27  C   UNL     1      -0.506   3.371  -1.787  1.00  0.00     0.016 A 
ATOM     28  C   UNL     1      -2.487   4.511  -0.966  1.00  0.00     0.016 A 
ATOM     29  C   UNL     1      -0.087   4.532  -2.428  1.00  0.00     0.010 A 
ATOM     30  C   UNL     1      -2.067   5.675  -1.610  1.00  0.00     0.010 A 
ATOM     31  C   UNL     1      -0.858   5.696  -2.328  1.00  0.00    -0.014 A 
BRANCH  31  32
ATOM     32  C   UNL     1      -0.373   6.964  -2.913  1.00  0.00     0.031 A 
ATOM     33  C   UNL     1       0.179   8.025  -2.010  1.00  0.00     0.074 A 
ATOM     34  C   UNL     1      -0.455   7.168  -4.239  1.00  0.00     0.049 A 
ATOM     35  N   UNL     1       0.490   9.266  -2.281  1.00  0.00    -0.248 NA
ATOM     36  C   UNL     1       0.404   7.636  -0.610  1.00  0.00     0.031 C 
ATOM     37  C   UNL     1      -0.922   6.187  -5.215  1.00  0.00     0.029 A 
ATOM     38  N   UNL     1      -0.167   8.281  -4.986  1.00  0.00    -0.354 N 
ATOM     39  C   UNL     1       0.917   9.816  -1.081  1.00  0.00     0.074 A 
ATOM     40  C   UNL     1       0.822   8.775  -0.078  1.00  0.00     0.031 C 
ATOM     41  C   UNL     1      -0.912   6.749  -6.435  1.00  0.00     0.029 A 
ATOM     42  C   UNL     1      -0.486   8.141  -6.313  1.00  0.00     0.049 A 
ATOM     43  H   UNL     1       0.230   9.100  -4.608  1.00  0.00     0.167 HD
ATOM     44  C   UNL     1       1.343  11.079  -0.842  1.00  0.00     0.037 A 
ATOM     45  C   UNL     1      -0.479   9.049  -7.306  1.00  0.00     0.037 A 
ATOM     46  C   UNL     1       1.447  12.099  -1.851  1.00  0.00     0.049 A 
ATOM     47  C   UNL     1      -0.051  10.460  -7.009  1.00  0.00     0.074 A 
ATOM     48  C   UNL     1       1.878  13.407  -1.718  1.00  0.00     0.029 A 
ATOM     49  N   UNL     1       1.113  11.921  -3.186  1.00  0.00    -0.354 N 
ATOM     50  N   UNL     1       0.334  10.984  -5.870  1.00  0.00    -0.248 NA
ATOM     51  C   UNL     1      -0.062  11.408  -8.131  1.00  0.00     0.031 C 
ATOM     52  C   UNL     1       1.769  14.032  -2.965  1.00  0.00     0.029 A 
ATOM     53  C   UNL     1       1.313  13.100  -3.885  1.00  0.00     0.049 A 
ATOM     54  H   UNL     1       0.784  11.081  -3.579  1.00  0.00     0.167 HD
ATOM     55  C   UNL     1       0.633  12.312  -6.141  1.00  0.00     0.074 A 
ATOM     56  C   UNL     1       0.388  12.514  -7.554  1.00  0.00     0.031 C 
ATOM     57  C   UNL     1       1.073  13.275  -5.295  1.00  0.00     0.037 A 
BRANCH  44  58
ATOM     58  C   UNL     1       1.686  11.433   0.574  1.00  0.00     0.064 A 
ATOM     59  C   UNL     1       2.847  10.953   1.197  1.00  0.00     0.173 A 
ATOM     60  C   UNL     1       0.842  12.274   1.315  1.00  0.00     0.173 A 
ATOM     61  F   UNL     1       3.678  10.133   0.537  1.00  0.00    -0.203 F 
ATOM     62  C   UNL     1       3.136  11.281   2.520  1.00  0.00     0.198 A 
ATOM     63  C   UNL     1       1.147  12.620   2.628  1.00  0.00     0.198 A 
ATOM     64  F   UNL     1      -0.280  12.761   0.764  1.00  0.00    -0.203 F 
ATOM     65  F   UNL     1       4.226  10.773   3.112  1.00  0.00    -0.200 F 
ATOM     66  C   UNL     1       2.289  12.117   3.232  1.00  0.00     0.200 A 
ATOM     67  F   UNL     1       0.332  13.435   3.311  1.00  0.00    -0.200 F 
ATOM     68  F   UNL     1       2.568  12.431   4.505  1.00  0.00    -0.200 F 
ENDBRANCH  44  58
BRANCH  45  69
ATOM     69  C   UNL     1      -0.917   8.648  -8.666  1.00  0.00     0.064 A 
ATOM     70  C   UNL     1       0.005   8.515  -9.711  1.00  0.00     0.173 A 
ATOM     71  C   UNL     1      -2.263   8.361  -8.939  1.00  0.00     0.173 A 
ATOM     72  F   UNL     1       1.298   8.801  -9.502  1.00  0.00    -0.203 F 
ATOM     73  C   UNL     1      -0.403   8.113 -10.981  1.00  0.00     0.198 A 
ATOM     74  C   UNL     1      -2.666   7.937 -10.202  1.00  0.00     0.198 A 
ATOM     75  F   UNL     1      -3.184   8.474  -7.970  1.00  0.00    -0.203 F 
ATOM     76  F   UNL     1       0.495   8.021 -11.972  1.00  0.00    -0.200 F 
ATOM     77  C   UNL     1      -1.736   7.816 -11.224  1.00  0.00     0.200 A 
ATOM     78  F   UNL     1      -3.953   7.640 -10.429  1.00  0.00    -0.200 F 
ATOM     79  F   UNL     1      -2.125   7.418 -12.443  1.00  0.00    -0.200 F 
ENDBRANCH  45  69
BRANCH  57  80
ATOM     80  C   UNL     1       1.361  14.625  -5.881  1.00  0.00     0.064 A 
ATOM     81  C   UNL     1       0.331  15.510  -6.227  1.00  0.00     0.173 A 
ATOM     82  C   UNL     1       2.686  15.056  -6.044  1.00  0.00     0.173 A 
ATOM     83  F   UNL     1      -0.952  15.136  -6.103  1.00  0.00    -0.203 F 
ATOM     84  C   UNL     1       0.618  16.777  -6.728  1.00  0.00     0.198 A 
ATOM     85  C   UNL     1       2.969  16.331  -6.523  1.00  0.00     0.198 A 
ATOM     86  F   UNL     1       3.705  14.245  -5.722  1.00  0.00    -0.203 F 
ATOM     87  F   UNL     1      -0.381  17.598  -7.083  1.00  0.00    -0.200 F 
ATOM     88  C   UNL     1       1.935  17.189  -6.868  1.00  0.00     0.200 A 
ATOM     89  F   UNL     1       4.242  16.732  -6.648  1.00  0.00    -0.200 F 
ATOM     90  F   UNL     1       2.209  18.413  -7.341  1.00  0.00    -0.200 F 
ENDBRANCH  57  80
ENDBRANCH  31  32
ENDBRANCH  24  26
ENDBRANCH  23  24
ENDBRANCH  22  23
ENDBRANCH   1  22
TORSDOF 14
