REMARK SMILES Cc1ccc(OCC(=O)NC(=S)Nc2ccc(C(=O)OCCOC(=O)c3ccc(-c4c5nc(c(-c6c(F)c(F)c(F)c(F)c6F)c6ccc([nH]6)c(-c6c(F)c(F)c(F)c(F)c6F)c6nc(c(-c7c(F)c(F)c(F)c(F)c7F)c7ccc4[nH]7)C=C6)C=C5)cc3)cc2)cc1
REMARK SMILES IDX 18 1 19 2 17 3 14 4 15 5 90 6 16 7 89 8 13 9 11 11 12 12
REMARK SMILES IDX 10 13 8 14 9 15 7 17 6 18 5 19 1 20 2 21 3 22 92 23 4 24
REMARK SMILES IDX 91 25 20 26 21 27 22 28 23 29 24 30 25 31 26 32 27 33 88 34
REMARK SMILES IDX 28 35 87 36 29 37 30 38 31 39 81 40 32 41 86 42 80 43 82 44
REMARK SMILES IDX 33 45 85 46 79 47 78 48 34 50 66 51 46 52 65 53 47 54 50 55
REMARK SMILES IDX 64 56 83 57 48 58 49 59 63 61 84 62 51 63 35 64 36 65 44 66
REMARK SMILES IDX 37 67 38 68 42 69 45 70 39 71 40 72 43 73 41 74 67 75 68 76
REMARK SMILES IDX 76 77 69 78 70 79 74 80 77 81 71 82 72 83 75 84 73 85 52 86
REMARK SMILES IDX 53 87 61 88 54 89 55 90 59 91 62 92 56 93 57 94 60 95 58 96
REMARK H PARENT 13 10 10 16 82 49 50 60
REMARK Flexibility Score: inf
ROOT
ATOM      1  C   UNL     1      -2.696  -0.064  -3.994  1.00  0.00     0.338 C 
ATOM      2  O   UNL     1      -2.555  -0.880  -4.867  1.00  0.00    -0.246 OA
ENDROOT
BRANCH   1   3
ATOM      3  C   UNL     1      -3.362  -0.300  -2.690  1.00  0.00     0.060 A 
ATOM      4  C   UNL     1      -4.627  -0.549  -0.190  1.00  0.00     0.040 A 
ATOM      5  C   UNL     1      -3.258  -0.397  -0.286  1.00  0.00     0.027 A 
ATOM      6  C   UNL     1      -5.348  -0.737  -1.372  1.00  0.00     0.027 A 
ATOM      7  C   UNL     1      -2.621  -0.205  -1.517  1.00  0.00     0.018 A 
ATOM      8  C   UNL     1      -4.714  -0.640  -2.622  1.00  0.00     0.018 A 
BRANCH   4   9
ATOM      9  N   UNL     1      -5.283  -0.697   1.038  1.00  0.00    -0.332 N 
ATOM     10  H   UNL     1      -6.151  -1.150   0.934  1.00  0.00     0.169 HD
BRANCH   9  11
ATOM     11  C   UNL     1      -5.036  -0.380   2.322  1.00  0.00     0.177 C 
ATOM     12  S   UNL     1      -5.719  -1.387   3.485  1.00  0.00    -0.040 S 
BRANCH  11  13
ATOM     13  N   UNL     1      -4.521   0.801   2.800  1.00  0.00    -0.300 N 
ATOM     14  C   UNL     1      -3.913   2.022   2.493  1.00  0.00     0.264 C 
ATOM     15  O   UNL     1      -4.301   3.035   3.086  1.00  0.00    -0.271 OA
ATOM     16  H   UNL     1      -4.624   0.777   3.779  1.00  0.00     0.172 HD
BRANCH  14  17
ATOM     17  C   UNL     1      -2.725   2.076   1.568  1.00  0.00     0.329 C 
BRANCH  17  18
ATOM     18  O   UNL     1      -1.819   1.120   2.122  1.00  0.00    -0.484 OA
BRANCH  18  19
ATOM     19  C   UNL     1      -0.654   0.898   1.452  1.00  0.00     0.120 A 
ATOM     20  C   UNL     1       3.068  -0.186  -0.400  1.00  0.00     0.044 C 
ATOM     21  C   UNL     1       1.756   0.199   0.213  1.00  0.00    -0.051 A 
ATOM     22  C   UNL     1       0.947  -0.791   0.776  1.00  0.00     0.007 A 
ATOM     23  C   UNL     1       1.333   1.535   0.253  1.00  0.00     0.007 A 
ATOM     24  C   UNL     1      -0.231  -0.435   1.424  1.00  0.00     0.047 A 
ATOM     25  C   UNL     1       0.124   1.886   0.865  1.00  0.00     0.047 A 
ENDBRANCH  18  19
ENDBRANCH  17  18
ENDBRANCH  14  17
ENDBRANCH  11  13
ENDBRANCH   9  11
ENDBRANCH   4   9
ENDBRANCH   1   3
BRANCH   1  26
ATOM     26  O   UNL     1      -2.318   1.237  -4.014  1.00  0.00    -0.458 OA
BRANCH  26  27
ATOM     27  C   UNL     1      -1.574   1.741  -5.134  1.00  0.00     0.275 C 
BRANCH  27  28
ATOM     28  C   UNL     1      -1.969   1.371  -6.583  1.00  0.00     0.275 C 
BRANCH  28  29
ATOM     29  O   UNL     1      -3.329   1.308  -7.104  1.00  0.00    -0.458 OA
BRANCH  29  30
ATOM     30  C   UNL     1      -4.478   1.254  -6.398  1.00  0.00     0.338 C 
ATOM     31  O   UNL     1      -5.379   0.457  -6.602  1.00  0.00    -0.246 OA
BRANCH  30  32
ATOM     32  C   UNL     1      -4.633   2.343  -5.434  1.00  0.00     0.060 A 
ATOM     33  C   UNL     1      -5.400   2.138  -4.276  1.00  0.00     0.016 A 
ATOM     34  C   UNL     1      -3.926   3.521  -5.652  1.00  0.00     0.016 A 
ATOM     35  C   UNL     1      -5.390   3.089  -3.272  1.00  0.00     0.010 A 
ATOM     36  C   UNL     1      -3.798   4.397  -4.615  1.00  0.00     0.010 A 
ATOM     37  C   UNL     1      -4.592   4.211  -3.472  1.00  0.00    -0.014 A 
BRANCH  37  38
ATOM     38  C   UNL     1      -4.843   5.467  -2.805  1.00  0.00     0.031 A 
ATOM     39  C   UNL     1      -4.098   5.859  -1.612  1.00  0.00     0.074 A 
ATOM     40  C   UNL     1      -5.590   6.265  -3.601  1.00  0.00     0.049 A 
ATOM     41  N   UNL     1      -4.527   6.727  -0.769  1.00  0.00    -0.248 NA
ATOM     42  C   UNL     1      -2.811   5.277  -1.231  1.00  0.00     0.031 C 
ATOM     43  C   UNL     1      -5.724   7.705  -3.660  1.00  0.00     0.029 A 
ATOM     44  N   UNL     1      -6.466   5.804  -4.605  1.00  0.00    -0.354 N 
ATOM     45  C   UNL     1      -3.448   7.094   0.004  1.00  0.00     0.074 A 
ATOM     46  C   UNL     1      -2.464   6.055  -0.196  1.00  0.00     0.031 C 
ATOM     47  C   UNL     1      -6.810   8.001  -4.404  1.00  0.00     0.029 A 
ATOM     48  C   UNL     1      -7.487   6.745  -4.716  1.00  0.00     0.049 A 
ATOM     49  H   UNL     1      -6.373   4.975  -5.128  1.00  0.00     0.167 HD
ATOM     50  C   UNL     1      -3.423   8.356   0.523  1.00  0.00     0.037 A 
ATOM     51  C   UNL     1      -8.729   6.375  -4.286  1.00  0.00     0.037 A 
ATOM     52  C   UNL     1      -4.589   9.096   0.042  1.00  0.00     0.049 A 
ATOM     53  C   UNL     1      -9.099   7.151  -3.049  1.00  0.00     0.074 A 
ATOM     54  C   UNL     1      -4.734   9.935  -1.052  1.00  0.00     0.029 A 
ATOM     55  N   UNL     1      -5.870   8.709   0.419  1.00  0.00    -0.354 N 
ATOM     56  N   UNL     1      -8.240   7.548  -2.149  1.00  0.00    -0.248 NA
ATOM     57  C   UNL     1     -10.457   7.604  -2.787  1.00  0.00     0.031 C 
ATOM     58  C   UNL     1      -6.114  10.024  -1.356  1.00  0.00     0.029 A 
ATOM     59  C   UNL     1      -6.806   9.233  -0.454  1.00  0.00     0.049 A 
ATOM     60  H   UNL     1      -6.080   8.142   1.196  1.00  0.00     0.167 HD
ATOM     61  C   UNL     1      -8.882   8.361  -1.252  1.00  0.00     0.074 A 
ATOM     62  C   UNL     1     -10.269   8.348  -1.684  1.00  0.00     0.031 C 
ATOM     63  C   UNL     1      -8.227   9.019  -0.249  1.00  0.00     0.037 A 
BRANCH  50  64
ATOM     64  C   UNL     1      -2.217   9.038   1.129  1.00  0.00     0.064 A 
ATOM     65  C   UNL     1      -2.059  10.441   1.036  1.00  0.00     0.173 A 
ATOM     66  C   UNL     1      -1.185   8.373   1.817  1.00  0.00     0.173 A 
ATOM     67  F   UNL     1      -2.993  11.220   0.476  1.00  0.00    -0.203 F 
ATOM     68  C   UNL     1      -0.932  11.110   1.516  1.00  0.00     0.198 A 
ATOM     69  C   UNL     1      -0.041   9.042   2.275  1.00  0.00     0.198 A 
ATOM     70  F   UNL     1      -1.269   7.067   2.100  1.00  0.00    -0.203 F 
ATOM     71  F   UNL     1      -0.843  12.441   1.382  1.00  0.00    -0.200 F 
ATOM     72  C   UNL     1       0.088  10.408   2.119  1.00  0.00     0.200 A 
ATOM     73  F   UNL     1       0.940   8.349   2.872  1.00  0.00    -0.200 F 
ATOM     74  F   UNL     1       1.180  11.047   2.561  1.00  0.00    -0.200 F 
ENDBRANCH  50  64
BRANCH  51  75
ATOM     75  C   UNL     1      -9.039   4.926  -4.530  1.00  0.00     0.064 A 
ATOM     76  C   UNL     1      -8.979   4.442  -5.857  1.00  0.00     0.173 A 
ATOM     77  C   UNL     1      -9.061   3.966  -3.510  1.00  0.00     0.173 A 
ATOM     78  F   UNL     1      -8.950   5.308  -6.883  1.00  0.00    -0.203 F 
ATOM     79  C   UNL     1      -8.838   3.083  -6.142  1.00  0.00     0.198 A 
ATOM     80  C   UNL     1      -8.939   2.601  -3.800  1.00  0.00     0.198 A 
ATOM     81  F   UNL     1      -9.109   4.339  -2.224  1.00  0.00    -0.203 F 
ATOM     82  F   UNL     1      -8.668   2.680  -7.410  1.00  0.00    -0.200 F 
ATOM     83  C   UNL     1      -8.801   2.164  -5.111  1.00  0.00     0.200 A 
ATOM     84  F   UNL     1      -8.861   1.708  -2.801  1.00  0.00    -0.200 F 
ATOM     85  F   UNL     1      -8.583   0.866  -5.368  1.00  0.00    -0.200 F 
ENDBRANCH  51  75
BRANCH  63  86
ATOM     86  C   UNL     1      -8.874   9.653   0.957  1.00  0.00     0.064 A 
ATOM     87  C   UNL     1     -10.134   9.279   1.448  1.00  0.00     0.173 A 
ATOM     88  C   UNL     1      -8.154  10.567   1.769  1.00  0.00     0.173 A 
ATOM     89  F   UNL     1     -10.858   8.316   0.863  1.00  0.00    -0.203 F 
ATOM     90  C   UNL     1     -10.671   9.841   2.606  1.00  0.00     0.198 A 
ATOM     91  C   UNL     1      -8.659  11.060   2.967  1.00  0.00     0.198 A 
ATOM     92  F   UNL     1      -6.923  10.989   1.447  1.00  0.00    -0.203 F 
ATOM     93  F   UNL     1     -11.908   9.499   2.991  1.00  0.00    -0.200 F 
ATOM     94  C   UNL     1      -9.929  10.718   3.373  1.00  0.00     0.200 A 
ATOM     95  F   UNL     1      -7.896  11.853   3.733  1.00  0.00    -0.200 F 
ATOM     96  F   UNL     1     -10.430  11.214   4.511  1.00  0.00    -0.200 F 
ENDBRANCH  63  86
ENDBRANCH  37  38
ENDBRANCH  30  32
ENDBRANCH  29  30
ENDBRANCH  28  29
ENDBRANCH  27  28
ENDBRANCH  26  27
ENDBRANCH   1  26
TORSDOF 17
