REMARK SMILES O=C(OCCOC(=O)c1cccnc1C(=O)Nc1ccc([N+](=O)[O-])cc1)c1ccc(-c2c3nc(c(-c4c(F)c(F)c(F)c(F)c4F)c4ccc([nH]4)c(-c4c(F)c(F)c(F)c(F)c4F)c4nc(c(-c5c(F)c(F)c(F)c(F)c5F)c5ccc2[nH]5)C=C4)C=C3)cc1
REMARK SMILES IDX 5 1 4 2 3 3 2 4 1 5 27 6 28 7 89 8 29 9 88 10 30 11 31 12
REMARK SMILES IDX 32 13 82 14 33 15 87 16 81 17 83 18 34 19 86 20 80 21 79 22
REMARK SMILES IDX 35 24 67 25 47 26 66 27 48 28 51 29 65 30 84 31 49 32 50 33
REMARK SMILES IDX 64 35 85 36 52 37 36 38 37 39 45 40 38 41 39 42 43 43 46 44
REMARK SMILES IDX 40 45 41 46 44 47 42 48 68 49 69 50 77 51 70 52 71 53 75 54
REMARK SMILES IDX 78 55 72 56 73 57 76 58 74 59 53 60 54 61 62 62 55 63 56 64
REMARK SMILES IDX 60 65 63 66 57 67 58 68 61 69 59 70 6 71 7 72 8 73 9 74
REMARK SMILES IDX 10 75 14 76 11 77 13 78 12 79 15 80 16 81 17 82 18 84 19 85
REMARK SMILES IDX 26 86 20 87 25 88 21 89 22 90 23 91 24 92
REMARK H PARENT 83 23 51 34 17 83
REMARK Flexibility Score: inf
ROOT
ATOM      1  C   UNL     1       5.255  -1.114   0.546  1.00  0.00     0.275 C 
ENDROOT
BRANCH   1   2
ATOM      2  C   UNL     1       5.156   0.389   0.188  1.00  0.00     0.275 C 
BRANCH   2   3
ATOM      3  O   UNL     1       3.977   0.823  -0.537  1.00  0.00    -0.458 OA
BRANCH   3   4
ATOM      4  C   UNL     1       3.814   0.746  -1.890  1.00  0.00     0.338 C 
ATOM      5  O   UNL     1       3.185   1.560  -2.536  1.00  0.00    -0.246 OA
BRANCH   4   6
ATOM      6  C   UNL     1       4.266  -0.524  -2.486  1.00  0.00     0.060 A 
ATOM      7  C   UNL     1       5.620  -0.845  -2.500  1.00  0.00     0.016 A 
ATOM      8  C   UNL     1       3.303  -1.457  -2.886  1.00  0.00     0.016 A 
ATOM      9  C   UNL     1       5.995  -2.166  -2.694  1.00  0.00     0.010 A 
ATOM     10  C   UNL     1       3.680  -2.775  -3.128  1.00  0.00     0.010 A 
ATOM     11  C   UNL     1       5.024  -3.136  -2.986  1.00  0.00    -0.014 A 
BRANCH  11  12
ATOM     12  C   UNL     1       5.503  -4.466  -3.391  1.00  0.00     0.031 A 
ATOM     13  C   UNL     1       6.100  -4.558  -4.753  1.00  0.00     0.074 A 
ATOM     14  C   UNL     1       5.542  -5.507  -2.543  1.00  0.00     0.049 A 
ATOM     15  N   UNL     1       6.834  -5.508  -5.255  1.00  0.00    -0.248 NA
ATOM     16  C   UNL     1       5.949  -3.374  -5.619  1.00  0.00     0.031 C 
ATOM     17  C   UNL     1       5.139  -5.472  -1.144  1.00  0.00     0.029 A 
ATOM     18  N   UNL     1       5.943  -6.802  -2.735  1.00  0.00    -0.354 N 
ATOM     19  C   UNL     1       7.342  -4.983  -6.428  1.00  0.00     0.074 A 
ATOM     20  C   UNL     1       6.783  -3.662  -6.603  1.00  0.00     0.031 C 
ATOM     21  C   UNL     1       5.198  -6.715  -0.631  1.00  0.00     0.029 A 
ATOM     22  C   UNL     1       5.688  -7.621  -1.662  1.00  0.00     0.049 A 
ATOM     23  H   UNL     1       6.372  -7.116  -3.563  1.00  0.00     0.167 HD
ATOM     24  C   UNL     1       8.230  -5.556  -7.264  1.00  0.00     0.037 A 
ATOM     25  C   UNL     1       5.829  -8.955  -1.553  1.00  0.00     0.037 A 
ATOM     26  C   UNL     1       8.646  -6.921  -7.148  1.00  0.00     0.049 A 
ATOM     27  C   UNL     1       6.522  -9.672  -2.682  1.00  0.00     0.074 A 
ATOM     28  C   UNL     1       9.455  -7.654  -7.990  1.00  0.00     0.029 A 
ATOM     29  N   UNL     1       8.217  -7.779  -6.142  1.00  0.00    -0.354 N 
ATOM     30  N   UNL     1       7.076  -9.162  -3.756  1.00  0.00    -0.248 NA
ATOM     31  C   UNL     1       6.645 -11.131  -2.578  1.00  0.00     0.031 C 
ATOM     32  C   UNL     1       9.454  -8.978  -7.534  1.00  0.00     0.029 A 
ATOM     33  C   UNL     1       8.687  -9.056  -6.380  1.00  0.00     0.049 A 
ATOM     34  H   UNL     1       7.661  -7.515  -5.373  1.00  0.00     0.167 HD
ATOM     35  C   UNL     1       7.663 -10.222  -4.427  1.00  0.00     0.074 A 
ATOM     36  C   UNL     1       7.382 -11.411  -3.645  1.00  0.00     0.031 C 
ATOM     37  C   UNL     1       8.388 -10.213  -5.573  1.00  0.00     0.037 A 
BRANCH  24  38
ATOM     38  C   UNL     1       8.718  -4.702  -8.383  1.00  0.00     0.064 A 
ATOM     39  C   UNL     1       9.683  -3.707  -8.164  1.00  0.00     0.173 A 
ATOM     40  C   UNL     1       8.155  -4.814  -9.659  1.00  0.00     0.173 A 
ATOM     41  F   UNL     1      10.213  -3.535  -6.943  1.00  0.00    -0.203 F 
ATOM     42  C   UNL     1      10.058  -2.842  -9.188  1.00  0.00     0.198 A 
ATOM     43  C   UNL     1       8.540  -3.955 -10.683  1.00  0.00     0.198 A 
ATOM     44  F   UNL     1       7.203  -5.728  -9.898  1.00  0.00    -0.203 F 
ATOM     45  F   UNL     1      10.945  -1.867  -8.949  1.00  0.00    -0.200 F 
ATOM     46  C   UNL     1       9.486  -2.967 -10.446  1.00  0.00     0.200 A 
ATOM     47  F   UNL     1       7.974  -4.063 -11.892  1.00  0.00    -0.200 F 
ATOM     48  F   UNL     1       9.831  -2.121 -11.426  1.00  0.00    -0.200 F 
ENDBRANCH  24  38
BRANCH  25  49
ATOM     49  C   UNL     1       5.276  -9.694  -0.387  1.00  0.00     0.064 A 
ATOM     50  C   UNL     1       6.093 -10.396   0.509  1.00  0.00     0.173 A 
ATOM     51  C   UNL     1       3.886  -9.782  -0.198  1.00  0.00     0.173 A 
ATOM     52  F   UNL     1       7.426 -10.361   0.366  1.00  0.00    -0.203 F 
ATOM     53  C   UNL     1       5.544 -11.185   1.522  1.00  0.00     0.198 A 
ATOM     54  C   UNL     1       3.339 -10.555   0.825  1.00  0.00     0.198 A 
ATOM     55  F   UNL     1       3.053  -9.128  -1.022  1.00  0.00    -0.203 F 
ATOM     56  F   UNL     1       6.348 -11.893   2.327  1.00  0.00    -0.200 F 
ATOM     57  C   UNL     1       4.168 -11.268   1.676  1.00  0.00     0.200 A 
ATOM     58  F   UNL     1       2.009 -10.625   0.970  1.00  0.00    -0.200 F 
ATOM     59  F   UNL     1       3.642 -12.044   2.633  1.00  0.00    -0.200 F 
ENDBRANCH  25  49
BRANCH  37  60
ATOM     60  C   UNL     1       8.953 -11.521  -6.029  1.00  0.00     0.064 A 
ATOM     61  C   UNL     1       8.143 -12.504  -6.612  1.00  0.00     0.173 A 
ATOM     62  C   UNL     1      10.332 -11.759  -5.942  1.00  0.00     0.173 A 
ATOM     63  F   UNL     1       6.816 -12.324  -6.696  1.00  0.00    -0.203 F 
ATOM     64  C   UNL     1       8.696 -13.688  -7.087  1.00  0.00     0.198 A 
ATOM     65  C   UNL     1      10.885 -12.931  -6.444  1.00  0.00     0.198 A 
ATOM     66  F   UNL     1      11.144 -10.842  -5.393  1.00  0.00    -0.203 F 
ATOM     67  F   UNL     1       7.902 -14.632  -7.611  1.00  0.00    -0.200 F 
ATOM     68  C   UNL     1      10.066 -13.896  -7.013  1.00  0.00     0.200 A 
ATOM     69  F   UNL     1      12.209 -13.124  -6.385  1.00  0.00    -0.200 F 
ATOM     70  F   UNL     1      10.599 -15.030  -7.487  1.00  0.00    -0.200 F 
ENDBRANCH  37  60
ENDBRANCH  11  12
ENDBRANCH   4   6
ENDBRANCH   3   4
ENDBRANCH   2   3
ENDBRANCH   1   2
BRANCH   1  71
ATOM     71  O   UNL     1       4.081  -1.845   0.134  1.00  0.00    -0.458 OA
BRANCH  71  72
ATOM     72  C   UNL     1       3.542  -2.716   1.019  1.00  0.00     0.340 C 
ATOM     73  O   UNL     1       4.042  -3.080   2.068  1.00  0.00    -0.246 OA
BRANCH  72  74
ATOM     74  C   UNL     1       2.306  -3.281   0.465  1.00  0.00     0.091 A 
ATOM     75  C   UNL     1       2.318  -4.689   0.419  1.00  0.00     0.020 A 
ATOM     76  C   UNL     1       1.272  -2.602  -0.170  1.00  0.00     0.142 A 
ATOM     77  C   UNL     1       1.442  -5.378  -0.406  1.00  0.00     0.021 A 
ATOM     78  N   UNL     1       0.395  -3.296  -0.973  1.00  0.00    -0.250 NA
ATOM     79  C   UNL     1       0.526  -4.634  -1.111  1.00  0.00     0.112 A 
BRANCH  76  80
ATOM     80  C   UNL     1       0.943  -1.117  -0.212  1.00  0.00     0.275 C 
ATOM     81  O   UNL     1       0.714  -0.620  -1.320  1.00  0.00    -0.267 OA
ATOM     82  N   UNL     1       0.492  -0.393   0.889  1.00  0.00    -0.321 N 
ATOM     83  H   UNL     1      -0.428  -0.055   0.802  1.00  0.00     0.170 HD
BRANCH  82  84
ATOM     84  C   UNL     1       1.117  -0.061   2.102  1.00  0.00     0.042 A 
ATOM     85  C   UNL     1       0.457   0.656   3.097  1.00  0.00     0.033 A 
ATOM     86  C   UNL     1       2.463  -0.275   2.280  1.00  0.00     0.033 A 
ATOM     87  C   UNL     1       1.137   1.027   4.277  1.00  0.00     0.088 A 
ATOM     88  C   UNL     1       3.154   0.001   3.452  1.00  0.00     0.088 A 
ATOM     89  C   UNL     1       2.477   0.659   4.462  1.00  0.00     0.269 A 
BRANCH  89  90
ATOM     90  N   UNL     1       3.213   1.022   5.674  1.00  0.00     0.062 N 
ATOM     91  O   UNL     1       2.720   1.887   6.407  1.00  0.00    -0.258 OA
ATOM     92  O   UNL     1       4.294   0.449   5.881  1.00  0.00    -0.258 OA
ENDBRANCH  89  90
ENDBRANCH  82  84
ENDBRANCH  76  80
ENDBRANCH  72  74
ENDBRANCH  71  72
ENDBRANCH   1  71
TORSDOF 14
