REMARK SMILES C[C@@H](C(=O)OCCOC(=O)c1ccc(-c2c3nc(c(-c4c(F)c(F)c(F)c(F)c4F)c4ccc([nH]4)c(-c4c(F)c(F)c(F)c(F)c4F)c4nc(c(-c5c(F)c(F)c(F)c(F)c5F)c5ccc2[nH]5)C=C4)C=C3)cc1)c1ccc(-c2ccccc2)cc1
REMARK SMILES IDX 6 1 5 2 3 3 4 4 2 5 1 6 74 7 75 8 85 9 76 10 84 11 77 12
REMARK SMILES IDX 78 13 79 14 83 15 80 16 82 17 81 18 7 19 8 20 9 21 10 22
REMARK SMILES IDX 11 23 12 24 73 25 13 26 72 27 14 28 15 29 16 30 66 31 17 32
REMARK SMILES IDX 71 33 65 34 67 35 18 36 70 37 64 38 63 39 19 41 51 42 31 43
REMARK SMILES IDX 50 44 32 45 35 46 49 47 68 48 33 49 34 50 48 52 69 53 36 54
REMARK SMILES IDX 20 55 21 56 29 57 22 58 23 59 27 60 30 61 24 62 25 63 28 64
REMARK SMILES IDX 26 65 52 66 53 67 61 68 54 69 55 70 59 71 62 72 56 73 57 74
REMARK SMILES IDX 60 75 58 76 37 77 38 78 46 79 39 80 40 81 44 82 47 83 41 84
REMARK SMILES IDX 42 85 45 86 43 87
REMARK H PARENT 67 40 35 51
REMARK Flexibility Score: inf
ROOT
ATOM      1  C   UNL     1       2.578  -2.357   2.719  1.00  0.00     0.274 C 
ENDROOT
BRANCH   1   2
ATOM      2  O   UNL     1       2.103  -1.692   1.531  1.00  0.00    -0.462 OA
BRANCH   2   3
ATOM      3  C   UNL     1       1.043  -2.253   0.884  1.00  0.00     0.313 C 
ATOM      4  O   UNL     1       0.513  -3.304   1.230  1.00  0.00    -0.252 OA
BRANCH   3   5
ATOM      5  C   UNL     1       0.624  -1.455  -0.363  1.00  0.00     0.126 C 
ATOM      6  C   UNL     1       1.355  -0.109  -0.473  1.00  0.00     0.025 C 
BRANCH   5   7
ATOM      7  C   UNL     1      -0.898  -1.339  -0.491  1.00  0.00    -0.034 A 
ATOM      8  C   UNL     1      -1.592  -0.139  -0.288  1.00  0.00     0.005 A 
ATOM      9  C   UNL     1      -1.658  -2.479  -0.802  1.00  0.00     0.005 A 
ATOM     10  C   UNL     1      -2.990  -0.086  -0.382  1.00  0.00     0.009 A 
ATOM     11  C   UNL     1      -3.059  -2.424  -0.888  1.00  0.00     0.009 A 
ATOM     12  C   UNL     1      -3.756  -1.226  -0.673  1.00  0.00    -0.018 A 
BRANCH  12  13
ATOM     13  C   UNL     1      -5.235  -1.162  -0.694  1.00  0.00    -0.018 A 
ATOM     14  C   UNL     1      -5.910  -0.083  -1.292  1.00  0.00     0.009 A 
ATOM     15  C   UNL     1      -6.021  -2.150  -0.074  1.00  0.00     0.009 A 
ATOM     16  C   UNL     1      -7.305   0.021  -1.247  1.00  0.00     0.001 A 
ATOM     17  C   UNL     1      -7.416  -2.050  -0.034  1.00  0.00     0.001 A 
ATOM     18  C   UNL     1      -8.057  -0.959  -0.610  1.00  0.00     0.000 A 
ENDBRANCH  12  13
ENDBRANCH   5   7
ENDBRANCH   3   5
ENDBRANCH   2   3
ENDBRANCH   1   2
BRANCH   1  19
ATOM     19  C   UNL     1       2.162  -1.575   3.961  1.00  0.00     0.275 C 
BRANCH  19  20
ATOM     20  O   UNL     1       0.734  -1.643   4.108  1.00  0.00    -0.458 OA
BRANCH  20  21
ATOM     21  C   UNL     1       0.069  -0.469   4.015  1.00  0.00     0.338 C 
ATOM     22  O   UNL     1       0.534   0.650   3.893  1.00  0.00    -0.246 OA
BRANCH  21  23
ATOM     23  C   UNL     1      -1.375  -0.740   4.067  1.00  0.00     0.060 A 
ATOM     24  C   UNL     1      -1.965  -1.470   3.041  1.00  0.00     0.016 A 
ATOM     25  C   UNL     1      -2.160  -0.174   5.073  1.00  0.00     0.016 A 
ATOM     26  C   UNL     1      -3.351  -1.569   2.971  1.00  0.00     0.010 A 
ATOM     27  C   UNL     1      -3.551  -0.340   5.039  1.00  0.00     0.010 A 
ATOM     28  C   UNL     1      -4.165  -1.003   3.962  1.00  0.00    -0.014 A 
BRANCH  28  29
ATOM     29  C   UNL     1      -5.646  -1.040   3.808  1.00  0.00     0.031 A 
ATOM     30  C   UNL     1      -6.419   0.242   3.640  1.00  0.00     0.074 A 
ATOM     31  C   UNL     1      -6.295  -2.219   3.726  1.00  0.00     0.049 A 
ATOM     32  N   UNL     1      -7.715   0.429   3.579  1.00  0.00    -0.248 NA
ATOM     33  C   UNL     1      -5.633   1.482   3.542  1.00  0.00     0.031 C 
ATOM     34  C   UNL     1      -5.663  -3.537   3.776  1.00  0.00     0.029 A 
ATOM     35  N   UNL     1      -7.624  -2.498   3.514  1.00  0.00    -0.354 N 
ATOM     36  C   UNL     1      -7.896   1.805   3.521  1.00  0.00     0.074 A 
ATOM     37  C   UNL     1      -6.582   2.407   3.525  1.00  0.00     0.031 C 
ATOM     38  C   UNL     1      -6.578  -4.473   3.479  1.00  0.00     0.029 A 
ATOM     39  C   UNL     1      -7.878  -3.832   3.304  1.00  0.00     0.049 A 
ATOM     40  H   UNL     1      -8.327  -1.808   3.514  1.00  0.00     0.167 HD
ATOM     41  C   UNL     1      -9.058   2.500   3.487  1.00  0.00     0.037 A 
ATOM     42  C   UNL     1      -9.026  -4.459   2.984  1.00  0.00     0.037 A 
ATOM     43  C   UNL     1     -10.362   1.899   3.390  1.00  0.00     0.049 A 
ATOM     44  C   UNL     1     -10.300  -3.664   2.906  1.00  0.00     0.074 A 
ATOM     45  C   UNL     1     -11.602   2.513   3.398  1.00  0.00     0.029 A 
ATOM     46  N   UNL     1     -10.588   0.541   3.229  1.00  0.00    -0.354 N 
ATOM     47  N   UNL     1     -10.474  -2.367   2.961  1.00  0.00    -0.248 NA
ATOM     48  C   UNL     1     -11.546  -4.431   2.755  1.00  0.00     0.031 C 
ATOM     49  C   UNL     1     -12.582   1.523   3.263  1.00  0.00     0.029 A 
ATOM     50  C   UNL     1     -11.949   0.297   3.139  1.00  0.00     0.049 A 
ATOM     51  H   UNL     1      -9.887  -0.148   3.184  1.00  0.00     0.167 HD
ATOM     52  C   UNL     1     -11.844  -2.163   2.868  1.00  0.00     0.074 A 
ATOM     53  C   UNL     1     -12.452  -3.466   2.694  1.00  0.00     0.031 C 
ATOM     54  C   UNL     1     -12.538  -1.002   2.953  1.00  0.00     0.037 A 
BRANCH  41  55
ATOM     55  C   UNL     1      -8.979   3.991   3.626  1.00  0.00     0.064 A 
ATOM     56  C   UNL     1      -8.580   4.823   2.572  1.00  0.00     0.173 A 
ATOM     57  C   UNL     1      -9.350   4.595   4.838  1.00  0.00     0.173 A 
ATOM     58  F   UNL     1      -8.201   4.293   1.400  1.00  0.00    -0.203 F 
ATOM     59  C   UNL     1      -8.536   6.206   2.733  1.00  0.00     0.198 A 
ATOM     60  C   UNL     1      -9.328   5.978   4.988  1.00  0.00     0.198 A 
ATOM     61  F   UNL     1      -9.745   3.841   5.876  1.00  0.00    -0.203 F 
ATOM     62  F   UNL     1      -8.116   6.984   1.726  1.00  0.00    -0.200 F 
ATOM     63  C   UNL     1      -8.917   6.782   3.938  1.00  0.00     0.200 A 
ATOM     64  F   UNL     1      -9.707   6.531   6.149  1.00  0.00    -0.200 F 
ATOM     65  F   UNL     1      -8.881   8.114   4.087  1.00  0.00    -0.200 F 
ENDBRANCH  41  55
BRANCH  42  66
ATOM     66  C   UNL     1      -9.028  -5.912   2.669  1.00  0.00     0.064 A 
ATOM     67  C   UNL     1      -9.329  -6.347   1.369  1.00  0.00     0.173 A 
ATOM     68  C   UNL     1      -8.747  -6.888   3.633  1.00  0.00     0.173 A 
ATOM     69  F   UNL     1      -9.629  -5.450   0.417  1.00  0.00    -0.203 F 
ATOM     70  C   UNL     1      -9.357  -7.702   1.050  1.00  0.00     0.198 A 
ATOM     71  C   UNL     1      -8.745  -8.243   3.306  1.00  0.00     0.198 A 
ATOM     72  F   UNL     1      -8.462  -6.527   4.893  1.00  0.00    -0.203 F 
ATOM     73  F   UNL     1      -9.690  -8.090  -0.188  1.00  0.00    -0.200 F 
ATOM     74  C   UNL     1      -9.057  -8.649   2.017  1.00  0.00     0.200 A 
ATOM     75  F   UNL     1      -8.444  -9.155   4.240  1.00  0.00    -0.200 F 
ATOM     76  F   UNL     1      -9.078  -9.953   1.710  1.00  0.00    -0.200 F 
ENDBRANCH  42  66
BRANCH  54  77
ATOM     77  C   UNL     1     -14.033  -1.086   2.867  1.00  0.00     0.064 A 
ATOM     78  C   UNL     1     -14.793  -1.586   3.935  1.00  0.00     0.173 A 
ATOM     79  C   UNL     1     -14.714  -0.617   1.735  1.00  0.00     0.173 A 
ATOM     80  F   UNL     1     -14.185  -2.057   5.034  1.00  0.00    -0.203 F 
ATOM     81  C   UNL     1     -16.182  -1.631   3.864  1.00  0.00     0.198 A 
ATOM     82  C   UNL     1     -16.105  -0.642   1.677  1.00  0.00     0.198 A 
ATOM     83  F   UNL     1     -14.032  -0.123   0.691  1.00  0.00    -0.203 F 
ATOM     84  F   UNL     1     -16.887  -2.147   4.881  1.00  0.00    -0.200 F 
ATOM     85  C   UNL     1     -16.837  -1.153   2.739  1.00  0.00     0.200 A 
ATOM     86  F   UNL     1     -16.738  -0.171   0.594  1.00  0.00    -0.200 F 
ATOM     87  F   UNL     1     -18.175  -1.192   2.675  1.00  0.00    -0.200 F 
ENDBRANCH  54  77
ENDBRANCH  28  29
ENDBRANCH  21  23
ENDBRANCH  20  21
ENDBRANCH  19  20
ENDBRANCH   1  19
TORSDOF 13
