REMARK SMILES O=C1OC(c2ccc(Cl)cc2)=N/C1=C/Nc1ccc(O)c(C(=O)OCCOC(=O)c2ccc(-c3c4nc(c(-c5c(F)c(F)c(F)c(F)c5F)c5ccc([nH]5)c(-c5c(F)c(F)c(F)c(F)c5F)c5nc(c(-c6c(F)c(F)c(F)c(F)c6F)c6ccc3[nH]6)C=C5)C=C4)cc2)c1
REMARK SMILES IDX 25 1 24 2 22 3 23 4 21 5 16 6 17 7 93 8 18 9 19 10 15 11
REMARK SMILES IDX 14 13 1 14 2 15 3 16 13 17 4 18 12 19 5 20 6 21 11 22 7 23
REMARK SMILES IDX 10 24 8 25 9 26 20 27 26 29 27 30 28 31 29 32 30 33 31 34
REMARK SMILES IDX 92 35 32 36 91 37 33 38 34 39 35 40 85 41 36 42 90 43 84 44
REMARK SMILES IDX 86 45 37 46 89 47 83 48 82 49 38 51 70 52 50 53 69 54 51 55
REMARK SMILES IDX 54 56 68 57 87 58 52 59 53 60 67 62 88 63 55 64 39 65 40 66
REMARK SMILES IDX 48 67 41 68 42 69 46 70 49 71 43 72 44 73 47 74 45 75 71 76
REMARK SMILES IDX 72 77 80 78 73 79 74 80 78 81 81 82 75 83 76 84 79 85 77 86
REMARK SMILES IDX 56 87 57 88 65 89 58 90 59 91 63 92 66 93 60 94 61 95 64 96
REMARK SMILES IDX 62 97
REMARK H PARENT 15 12 20 28 86 50 54 61
REMARK Flexibility Score: inf
ROOT
ATOM      1  C   UNL     1      -3.570  -9.009  -2.326  1.00  0.00     0.275 C 
ENDROOT
BRANCH   1   2
ATOM      2  O   UNL     1      -2.811  -8.318  -1.312  1.00  0.00    -0.458 OA
BRANCH   2   3
ATOM      3  C   UNL     1      -2.014  -7.311  -1.746  1.00  0.00     0.342 C 
ATOM      4  O   UNL     1      -1.935  -6.900  -2.896  1.00  0.00    -0.246 OA
BRANCH   3   5
ATOM      5  C   UNL     1      -1.306  -6.640  -0.633  1.00  0.00     0.103 A 
ATOM      6  C   UNL     1      -0.579  -4.500   0.323  1.00  0.00     0.039 A 
ATOM      7  C   UNL     1       0.197  -5.204   1.242  1.00  0.00     0.030 A 
ATOM      8  C   UNL     1      -1.291  -5.236  -0.625  1.00  0.00     0.045 A 
ATOM      9  C   UNL     1       0.191  -6.607   1.260  1.00  0.00     0.049 A 
ATOM     10  C   UNL     1      -0.567  -7.324   0.328  1.00  0.00     0.130 A 
BRANCH   6  11
ATOM     11  N   UNL     1      -0.600  -3.102   0.244  1.00  0.00    -0.360 N 
ATOM     12  H   UNL     1      -1.485  -2.673   0.204  1.00  0.00     0.166 HD
BRANCH  11  13
ATOM     13  C   UNL     1       0.491  -2.269   0.216  1.00  0.00     0.119 C 
ATOM     14  O   UNL     1      -1.840  -0.356   0.103  1.00  0.00    -0.244 OA
ATOM     15  C   UNL     1      -0.661  -0.051   0.106  1.00  0.00     0.365 C 
ATOM     16  O   UNL     1      -0.117   1.200   0.102  1.00  0.00    -0.402 OA
ATOM     17  C   UNL     1       0.535  -0.935   0.117  1.00  0.00     0.168 C 
ATOM     18  C   UNL     1       1.223   1.020   0.052  1.00  0.00     0.231 C 
ATOM     19  N   UNL     1       1.681  -0.189   0.041  1.00  0.00    -0.204 NA
BRANCH  18  20
ATOM     20  C   UNL     1       2.017   2.244  -0.018  1.00  0.00     0.037 A 
ATOM     21  C   UNL     1       1.900   3.216   0.980  1.00  0.00     0.015 A 
ATOM     22  C   UNL     1       2.946   2.392  -1.052  1.00  0.00     0.015 A 
ATOM     23  C   UNL     1       2.732   4.339   0.946  1.00  0.00     0.021 A 
ATOM     24  C   UNL     1       3.761   3.526  -1.093  1.00  0.00     0.021 A 
ATOM     25  C   UNL     1       3.657   4.490  -0.089  1.00  0.00     0.041 A 
ATOM     26  Cl  UNL     1       4.687   5.867  -0.120  1.00  0.00    -0.084 Cl
ENDBRANCH  18  20
ENDBRANCH  11  13
ENDBRANCH   6  11
BRANCH  10  27
ATOM     27  O   UNL     1      -0.527  -8.688   0.331  1.00  0.00    -0.507 OA
ATOM     28  H   UNL     1      -0.027  -9.140   0.982  1.00  0.00     0.293 HD
ENDBRANCH  10  27
ENDBRANCH   3   5
ENDBRANCH   2   3
ENDBRANCH   1   2
BRANCH   1  29
ATOM     29  C   UNL     1      -5.057  -8.662  -2.244  1.00  0.00     0.275 C 
BRANCH  29  30
ATOM     30  O   UNL     1      -5.284  -7.299  -2.646  1.00  0.00    -0.458 OA
BRANCH  30  31
ATOM     31  C   UNL     1      -5.425  -6.429  -1.623  1.00  0.00     0.338 C 
ATOM     32  O   UNL     1      -5.437  -6.671  -0.428  1.00  0.00    -0.246 OA
BRANCH  31  33
ATOM     33  C   UNL     1      -5.475  -5.052  -2.129  1.00  0.00     0.060 A 
ATOM     34  C   UNL     1      -4.268  -4.429  -2.410  1.00  0.00     0.016 A 
ATOM     35  C   UNL     1      -6.651  -4.312  -2.092  1.00  0.00     0.016 A 
ATOM     36  C   UNL     1      -4.193  -3.043  -2.468  1.00  0.00     0.010 A 
ATOM     37  C   UNL     1      -6.596  -2.931  -2.317  1.00  0.00     0.010 A 
ATOM     38  C   UNL     1      -5.359  -2.268  -2.448  1.00  0.00    -0.014 A 
BRANCH  38  39
ATOM     39  C   UNL     1      -5.278  -0.780  -2.540  1.00  0.00     0.031 A 
ATOM     40  C   UNL     1      -5.948   0.086  -1.502  1.00  0.00     0.074 A 
ATOM     41  C   UNL     1      -4.600  -0.195  -3.550  1.00  0.00     0.049 A 
ATOM     42  N   UNL     1      -6.173   1.378  -1.514  1.00  0.00    -0.248 NA
ATOM     43  C   UNL     1      -6.461  -0.594  -0.302  1.00  0.00     0.031 C 
ATOM     44  C   UNL     1      -3.865  -0.901  -4.601  1.00  0.00     0.029 A 
ATOM     45  N   UNL     1      -4.418   1.131  -3.861  1.00  0.00    -0.354 N 
ATOM     46  C   UNL     1      -6.898   1.650  -0.360  1.00  0.00     0.074 A 
ATOM     47  C   UNL     1      -7.099   0.388   0.319  1.00  0.00     0.031 C 
ATOM     48  C   UNL     1      -3.277  -0.009  -5.409  1.00  0.00     0.029 A 
ATOM     49  C   UNL     1      -3.688   1.329  -5.008  1.00  0.00     0.049 A 
ATOM     50  H   UNL     1      -4.776   1.868  -3.315  1.00  0.00     0.167 HD
ATOM     51  C   UNL     1      -7.351   2.846   0.092  1.00  0.00     0.037 A 
ATOM     52  C   UNL     1      -3.423   2.453  -5.701  1.00  0.00     0.037 A 
ATOM     53  C   UNL     1      -7.095   4.105  -0.561  1.00  0.00     0.049 A 
ATOM     54  C   UNL     1      -3.981   3.758  -5.210  1.00  0.00     0.074 A 
ATOM     55  C   UNL     1      -7.484   5.375  -0.173  1.00  0.00     0.029 A 
ATOM     56  N   UNL     1      -6.371   4.253  -1.737  1.00  0.00    -0.354 N 
ATOM     57  N   UNL     1      -4.696   4.002  -4.139  1.00  0.00    -0.248 NA
ATOM     58  C   UNL     1      -3.708   4.943  -6.032  1.00  0.00     0.031 C 
ATOM     59  C   UNL     1      -7.048   6.284  -1.142  1.00  0.00     0.029 A 
ATOM     60  C   UNL     1      -6.327   5.590  -2.101  1.00  0.00     0.049 A 
ATOM     61  H   UNL     1      -5.952   3.516  -2.239  1.00  0.00     0.167 HD
ATOM     62  C   UNL     1      -4.939   5.367  -4.146  1.00  0.00     0.074 A 
ATOM     63  C   UNL     1      -4.276   5.903  -5.317  1.00  0.00     0.031 C 
ATOM     64  C   UNL     1      -5.652   6.110  -3.263  1.00  0.00     0.037 A 
BRANCH  51  65
ATOM     65  C   UNL     1      -8.203   2.853   1.332  1.00  0.00     0.064 A 
ATOM     66  C   UNL     1      -7.683   2.554   2.601  1.00  0.00     0.173 A 
ATOM     67  C   UNL     1      -9.561   3.204   1.251  1.00  0.00     0.173 A 
ATOM     68  F   UNL     1      -6.395   2.207   2.739  1.00  0.00    -0.203 F 
ATOM     69  C   UNL     1      -8.496   2.572   3.733  1.00  0.00     0.198 A 
ATOM     70  C   UNL     1     -10.361   3.257   2.390  1.00  0.00     0.198 A 
ATOM     71  F   UNL     1     -10.111   3.512   0.067  1.00  0.00    -0.203 F 
ATOM     72  F   UNL     1      -7.989   2.230   4.926  1.00  0.00    -0.200 F 
ATOM     73  C   UNL     1      -9.832   2.931   3.628  1.00  0.00     0.200 A 
ATOM     74  F   UNL     1     -11.647   3.624   2.287  1.00  0.00    -0.200 F 
ATOM     75  F   UNL     1     -10.609   2.957   4.719  1.00  0.00    -0.200 F 
ENDBRANCH  51  65
BRANCH  52  76
ATOM     76  C   UNL     1      -2.631   2.381  -6.958  1.00  0.00     0.064 A 
ATOM     77  C   UNL     1      -1.366   2.977  -7.049  1.00  0.00     0.173 A 
ATOM     78  C   UNL     1      -3.119   1.715  -8.094  1.00  0.00     0.173 A 
ATOM     79  F   UNL     1      -0.863   3.644  -6.000  1.00  0.00    -0.203 F 
ATOM     80  C   UNL     1      -0.630   2.927  -8.231  1.00  0.00     0.198 A 
ATOM     81  C   UNL     1      -2.366   1.632  -9.262  1.00  0.00     0.198 A 
ATOM     82  F   UNL     1      -4.323   1.124  -8.062  1.00  0.00    -0.203 F 
ATOM     83  F   UNL     1       0.554   3.550  -8.306  1.00  0.00    -0.200 F 
ATOM     84  C   UNL     1      -1.126   2.247  -9.334  1.00  0.00     0.200 A 
ATOM     85  F   UNL     1      -2.841   0.955 -10.317  1.00  0.00    -0.200 F 
ATOM     86  F   UNL     1      -0.413   2.191 -10.466  1.00  0.00    -0.200 F 
ENDBRANCH  52  76
BRANCH  64  87
ATOM     87  C   UNL     1      -5.707   7.591  -3.503  1.00  0.00     0.064 A 
ATOM     88  C   UNL     1      -6.432   8.142  -4.569  1.00  0.00     0.173 A 
ATOM     89  C   UNL     1      -5.049   8.472  -2.631  1.00  0.00     0.173 A 
ATOM     90  F   UNL     1      -7.064   7.343  -5.442  1.00  0.00    -0.203 F 
ATOM     91  C   UNL     1      -6.471   9.519  -4.771  1.00  0.00     0.198 A 
ATOM     92  C   UNL     1      -5.121   9.849  -2.814  1.00  0.00     0.198 A 
ATOM     93  F   UNL     1      -4.345   7.997  -1.592  1.00  0.00    -0.203 F 
ATOM     94  F   UNL     1      -7.123  10.021  -5.829  1.00  0.00    -0.200 F 
ATOM     95  C   UNL     1      -5.824  10.372  -3.889  1.00  0.00     0.200 A 
ATOM     96  F   UNL     1      -4.507  10.671  -1.952  1.00  0.00    -0.200 F 
ATOM     97  F   UNL     1      -5.870  11.697  -4.080  1.00  0.00    -0.200 F 
ENDBRANCH  64  87
ENDBRANCH  38  39
ENDBRANCH  31  33
ENDBRANCH  30  31
ENDBRANCH  29  30
ENDBRANCH   1  29
TORSDOF 15
