REMARK SMILES O=C(CCCN1C(=O)c2ccc3c4c(ccc(c24)C1=O)C(=O)NC3=O)OCCOC(=O)c1ccc(-c2c3nc(c(-c4c(F)c(F)c(F)c(F)c4F)c4ccc([nH]4)c(-c4c(F)c(F)c(F)c(F)c4F)c4nc(c(-c5c(F)c(F)c(F)c(F)c5F)c5ccc2[nH]5)C=C4)C=C3)cc1
REMARK SMILES IDX 27 1 26 2 2 3 1 4 3 5 4 6 5 7 6 8 19 9 7 10 20 11 17 12 9 13
REMARK SMILES IDX 8 14 16 15 18 16 10 17 15 18 13 19 11 20 14 21 12 22 21 23
REMARK SMILES IDX 24 24 23 25 22 26 25 27 28 29 29 30 30 31 31 32 32 33 33 34
REMARK SMILES IDX 94 35 34 36 93 37 35 38 36 39 37 40 87 41 38 42 92 43 86 44
REMARK SMILES IDX 88 45 39 46 91 47 85 48 84 49 40 51 72 52 52 53 71 54 53 55
REMARK SMILES IDX 56 56 70 57 89 58 54 59 55 60 69 62 90 63 57 64 41 65 42 66
REMARK SMILES IDX 50 67 43 68 44 69 48 70 51 71 45 72 46 73 49 74 47 75 73 76
REMARK SMILES IDX 74 77 82 78 75 79 76 80 80 81 83 82 77 83 78 84 81 85 79 86
REMARK SMILES IDX 58 87 59 88 67 89 60 90 61 91 65 92 68 93 62 94 63 95 66 96
REMARK SMILES IDX 64 97
REMARK H PARENT 23 28 88 50 56 61
REMARK Flexibility Score: inf
ROOT
ATOM      1  C   UNL     1       2.999   0.705  -1.219  1.00  0.00     0.274 C 
ENDROOT
BRANCH   1   2
ATOM      2  O   UNL     1       1.976  -0.234  -0.851  1.00  0.00    -0.462 OA
BRANCH   2   3
ATOM      3  C   UNL     1       2.213  -1.320  -0.077  1.00  0.00     0.305 C 
ATOM      4  O   UNL     1       1.393  -2.236  -0.048  1.00  0.00    -0.252 OA
BRANCH   3   5
ATOM      5  C   UNL     1       3.436  -1.357   0.825  1.00  0.00     0.124 C 
BRANCH   5   6
ATOM      6  C   UNL     1       4.578  -2.272   0.392  1.00  0.00     0.034 C 
BRANCH   6   7
ATOM      7  C   UNL     1       5.755  -1.612  -0.361  1.00  0.00     0.130 C 
BRANCH   7   8
ATOM      8  N   UNL     1       6.387  -0.455   0.301  1.00  0.00    -0.274 N 
ATOM      9  C   UNL     1       6.356   0.781  -0.344  1.00  0.00     0.261 C 
ATOM     10  C   UNL     1       7.202  -0.694   1.410  1.00  0.00     0.261 C 
ATOM     11  O   UNL     1       6.014   0.958  -1.510  1.00  0.00    -0.269 OA
ATOM     12  C   UNL     1       6.805   1.958   0.427  1.00  0.00     0.049 A 
ATOM     13  C   UNL     1       7.933   0.473   1.979  1.00  0.00     0.049 A 
ATOM     14  O   UNL     1       7.355  -1.799   1.921  1.00  0.00    -0.269 OA
ATOM     15  C   UNL     1       6.464   3.250   0.003  1.00  0.00     0.015 A 
ATOM     16  C   UNL     1       7.637   1.762   1.525  1.00  0.00     0.009 A 
ATOM     17  C   UNL     1       8.888   0.288   2.987  1.00  0.00     0.015 A 
ATOM     18  C   UNL     1       6.940   4.362   0.693  1.00  0.00     0.015 A 
ATOM     19  C   UNL     1       8.216   2.889   2.157  1.00  0.00     0.009 A 
ATOM     20  C   UNL     1       9.530   1.393   3.554  1.00  0.00     0.015 A 
ATOM     21  C   UNL     1       7.831   4.179   1.753  1.00  0.00     0.048 A 
ATOM     22  C   UNL     1       9.177   2.687   3.156  1.00  0.00     0.048 A 
ATOM     23  C   UNL     1       8.393   5.356   2.451  1.00  0.00     0.258 C 
ATOM     24  C   UNL     1       9.843   3.863   3.765  1.00  0.00     0.258 C 
ATOM     25  N   UNL     1       9.373   5.097   3.378  1.00  0.00    -0.288 N 
ATOM     26  O   UNL     1       8.002   6.490   2.209  1.00  0.00    -0.269 OA
ATOM     27  O   UNL     1      10.760   3.735   4.564  1.00  0.00    -0.269 OA
ATOM     28  H   UNL     1       9.784   5.879   3.813  1.00  0.00     0.173 HD
ENDBRANCH   7   8
ENDBRANCH   6   7
ENDBRANCH   5   6
ENDBRANCH   3   5
ENDBRANCH   2   3
ENDBRANCH   1   2
BRANCH   1  29
ATOM     29  C   UNL     1       2.899   2.002  -0.422  1.00  0.00     0.275 C 
BRANCH  29  30
ATOM     30  O   UNL     1       3.038   1.716   0.984  1.00  0.00    -0.458 OA
BRANCH  30  31
ATOM     31  C   UNL     1       1.928   1.968   1.712  1.00  0.00     0.338 C 
ATOM     32  O   UNL     1       0.991   2.684   1.390  1.00  0.00    -0.246 OA
BRANCH  31  33
ATOM     33  C   UNL     1       1.870   1.091   2.897  1.00  0.00     0.060 A 
ATOM     34  C   UNL     1       0.710   0.324   3.039  1.00  0.00     0.016 A 
ATOM     35  C   UNL     1       2.847   1.083   3.897  1.00  0.00     0.016 A 
ATOM     36  C   UNL     1       0.464  -0.357   4.227  1.00  0.00     0.010 A 
ATOM     37  C   UNL     1       2.602   0.383   5.091  1.00  0.00     0.010 A 
ATOM     38  C   UNL     1       1.377  -0.284   5.287  1.00  0.00    -0.014 A 
BRANCH  38  39
ATOM     39  C   UNL     1       0.922  -0.741   6.631  1.00  0.00     0.031 A 
ATOM     40  C   UNL     1       0.465   0.285   7.639  1.00  0.00     0.074 A 
ATOM     41  C   UNL     1       0.778  -2.050   6.909  1.00  0.00     0.049 A 
ATOM     42  N   UNL     1      -0.111   0.113   8.803  1.00  0.00    -0.248 NA
ATOM     43  C   UNL     1       0.679   1.696   7.282  1.00  0.00     0.031 C 
ATOM     44  C   UNL     1       1.132  -3.145   6.010  1.00  0.00     0.029 A 
ATOM     45  N   UNL     1       0.265  -2.677   8.019  1.00  0.00    -0.354 N 
ATOM     46  C   UNL     1      -0.335   1.388   9.309  1.00  0.00     0.074 A 
ATOM     47  C   UNL     1       0.211   2.323   8.350  1.00  0.00     0.031 C 
ATOM     48  C   UNL     1       0.805  -4.311   6.594  1.00  0.00     0.029 A 
ATOM     49  C   UNL     1       0.239  -4.046   7.916  1.00  0.00     0.049 A 
ATOM     50  H   UNL     1      -0.053  -2.190   8.814  1.00  0.00     0.167 HD
ATOM     51  C   UNL     1      -0.957   1.753  10.458  1.00  0.00     0.037 A 
ATOM     52  C   UNL     1      -0.197  -4.979   8.786  1.00  0.00     0.037 A 
ATOM     53  C   UNL     1      -1.504   0.828  11.417  1.00  0.00     0.049 A 
ATOM     54  C   UNL     1      -0.810  -4.549  10.096  1.00  0.00     0.074 A 
ATOM     55  C   UNL     1      -2.168   1.104  12.600  1.00  0.00     0.029 A 
ATOM     56  N   UNL     1      -1.440  -0.553  11.309  1.00  0.00    -0.354 N 
ATOM     57  N   UNL     1      -1.057  -3.342  10.542  1.00  0.00    -0.248 NA
ATOM     58  C   UNL     1      -1.215  -5.620  11.019  1.00  0.00     0.031 C 
ATOM     59  C   UNL     1      -2.444  -0.108  13.241  1.00  0.00     0.029 A 
ATOM     60  C   UNL     1      -2.017  -1.142  12.424  1.00  0.00     0.049 A 
ATOM     61  H   UNL     1      -1.042  -1.043  10.553  1.00  0.00     0.167 HD
ATOM     62  C   UNL     1      -1.679  -3.508  11.775  1.00  0.00     0.074 A 
ATOM     63  C   UNL     1      -1.783  -4.934  12.000  1.00  0.00     0.031 C 
ATOM     64  C   UNL     1      -2.126  -2.563  12.639  1.00  0.00     0.037 A 
BRANCH  51  65
ATOM     65  C   UNL     1      -1.047   3.223  10.759  1.00  0.00     0.064 A 
ATOM     66  C   UNL     1      -1.863   4.087  10.012  1.00  0.00     0.173 A 
ATOM     67  C   UNL     1      -0.318   3.773  11.825  1.00  0.00     0.173 A 
ATOM     68  F   UNL     1      -2.572   3.617   8.975  1.00  0.00    -0.203 F 
ATOM     69  C   UNL     1      -1.917   5.449  10.297  1.00  0.00     0.198 A 
ATOM     70  C   UNL     1      -0.402   5.129  12.130  1.00  0.00     0.198 A 
ATOM     71  F   UNL     1       0.472   2.993  12.578  1.00  0.00    -0.203 F 
ATOM     72  F   UNL     1      -2.657   6.264   9.532  1.00  0.00    -0.200 F 
ATOM     73  C   UNL     1      -1.191   5.968  11.359  1.00  0.00     0.200 A 
ATOM     74  F   UNL     1       0.289   5.625  13.166  1.00  0.00    -0.200 F 
ATOM     75  F   UNL     1      -1.245   7.278  11.634  1.00  0.00    -0.200 F 
ENDBRANCH  51  65
BRANCH  52  76
ATOM     76  C   UNL     1      -0.082  -6.425   8.450  1.00  0.00     0.064 A 
ATOM     77  C   UNL     1      -1.221  -7.220   8.255  1.00  0.00     0.173 A 
ATOM     78  C   UNL     1       1.170  -7.049   8.355  1.00  0.00     0.173 A 
ATOM     79  F   UNL     1      -2.443  -6.678   8.364  1.00  0.00    -0.203 F 
ATOM     80  C   UNL     1      -1.112  -8.587   8.003  1.00  0.00     0.198 A 
ATOM     81  C   UNL     1       1.279  -8.409   8.071  1.00  0.00     0.198 A 
ATOM     82  F   UNL     1       2.292  -6.337   8.540  1.00  0.00    -0.203 F 
ATOM     83  F   UNL     1      -2.217  -9.334   7.880  1.00  0.00    -0.200 F 
ATOM     84  C   UNL     1       0.139  -9.179   7.906  1.00  0.00     0.200 A 
ATOM     85  F   UNL     1       2.490  -8.975   7.970  1.00  0.00    -0.200 F 
ATOM     86  F   UNL     1       0.243 -10.493   7.666  1.00  0.00    -0.200 F 
ENDBRANCH  52  76
BRANCH  64  87
ATOM     87  C   UNL     1      -2.814  -3.036  13.892  1.00  0.00     0.064 A 
ATOM     88  C   UNL     1      -2.119  -3.689  14.920  1.00  0.00     0.173 A 
ATOM     89  C   UNL     1      -4.187  -2.804  14.077  1.00  0.00     0.173 A 
ATOM     90  F   UNL     1      -0.808  -3.947  14.792  1.00  0.00    -0.203 F 
ATOM     91  C   UNL     1      -2.777  -4.124  16.069  1.00  0.00     0.198 A 
ATOM     92  C   UNL     1      -4.834  -3.207  15.242  1.00  0.00     0.198 A 
ATOM     93  F   UNL     1      -4.901  -2.174  13.132  1.00  0.00    -0.203 F 
ATOM     94  F   UNL     1      -2.103  -4.799  17.010  1.00  0.00    -0.200 F 
ATOM     95  C   UNL     1      -4.132  -3.877  16.232  1.00  0.00     0.200 A 
ATOM     96  F   UNL     1      -6.139  -2.949  15.406  1.00  0.00    -0.200 F 
ATOM     97  F   UNL     1      -4.762  -4.291  17.340  1.00  0.00    -0.200 F 
ENDBRANCH  64  87
ENDBRANCH  38  39
ENDBRANCH  31  33
ENDBRANCH  30  31
ENDBRANCH  29  30
ENDBRANCH   1  29
TORSDOF 14
