REMARK SMILES CC/C=C/C/C=C/C/C=C/C/C=C/CC/C=C/COCC(=O)OCCOC(=O)c1ccc(-c2c3nc(c(-c4c(F)c(F)c(F)c(F)c4F)c4ccc([nH]4)c(-c4c(F)c(F)c(F)c(F)c4F)c4nc(c(-c5c(F)c(F)c(F)c(F)c5F)c5ccc2[nH]5)C=C4)C=C3)cc1
REMARK SMILES IDX 18 1 17 2 16 3 15 4 14 5 13 6 12 7 11 8 10 9 9 10 8 11 7 12
REMARK SMILES IDX 6 13 5 14 4 15 3 16 2 17 1 18 19 19 20 20 21 21 22 22 23 23
REMARK SMILES IDX 24 24 25 25 26 26 27 27 28 28 29 29 30 30 91 31 31 32 90 33
REMARK SMILES IDX 32 34 33 35 34 36 84 37 35 38 89 39 83 40 85 41 36 42 88 43
REMARK SMILES IDX 82 44 81 45 37 47 69 48 49 49 68 50 50 51 53 52 67 53 86 54
REMARK SMILES IDX 51 55 52 56 66 58 87 59 54 60 38 61 39 62 47 63 40 64 41 65
REMARK SMILES IDX 45 66 48 67 42 68 43 69 46 70 44 71 70 72 71 73 79 74 72 75
REMARK SMILES IDX 73 76 77 77 80 78 74 79 75 80 78 81 76 82 55 83 56 84 64 85
REMARK SMILES IDX 57 86 58 87 62 88 65 89 59 90 60 91 63 92 61 93
REMARK H PARENT 85 46 53 57
REMARK Flexibility Score: inf
ROOT
ATOM      1  C   UNL     1      -8.475 -12.702  -7.386  1.00  0.00     0.188 C 
ENDROOT
BRANCH   1   2
ATOM      2  C   UNL     1      -8.823 -11.275  -7.724  1.00  0.00    -0.003 C 
ATOM      3  C   UNL     1      -8.118 -10.262  -7.205  1.00  0.00    -0.029 C 
BRANCH   3   4
ATOM      4  C   UNL     1      -8.500  -8.808  -7.099  1.00  0.00     0.031 C 
BRANCH   4   5
ATOM      5  C   UNL     1      -8.948  -8.228  -5.668  1.00  0.00     0.031 C 
BRANCH   5   6
ATOM      6  C   UNL     1      -8.133  -8.298  -4.330  1.00  0.00    -0.031 C 
ATOM      7  C   UNL     1      -7.311  -7.375  -3.751  1.00  0.00    -0.027 C 
BRANCH   7   8
ATOM      8  C   UNL     1      -6.432  -7.424  -2.494  1.00  0.00     0.054 C 
BRANCH   8   9
ATOM      9  C   UNL     1      -4.905  -7.388  -2.698  1.00  0.00    -0.027 C 
ATOM     10  C   UNL     1      -4.019  -6.366  -2.574  1.00  0.00    -0.027 C 
BRANCH  10  11
ATOM     11  C   UNL     1      -2.493  -6.526  -2.629  1.00  0.00     0.054 C 
BRANCH  11  12
ATOM     12  C   UNL     1      -1.731  -5.372  -3.265  1.00  0.00    -0.027 C 
ATOM     13  C   UNL     1      -0.690  -4.728  -2.689  1.00  0.00    -0.027 C 
BRANCH  13  14
ATOM     14  C   UNL     1       0.144  -3.632  -3.322  1.00  0.00     0.054 C 
BRANCH  14  15
ATOM     15  C   UNL     1      -0.084  -2.301  -2.652  1.00  0.00    -0.027 C 
ATOM     16  C   UNL     1       0.871  -1.488  -2.162  1.00  0.00    -0.031 C 
BRANCH  16  17
ATOM     17  C   UNL     1       0.578  -0.154  -1.523  1.00  0.00     0.023 C 
ATOM     18  C   UNL     1       1.092  -0.076  -0.092  1.00  0.00     0.008 C 
ENDBRANCH  16  17
ENDBRANCH  14  15
ENDBRANCH  13  14
ENDBRANCH  11  12
ENDBRANCH  10  11
ENDBRANCH   8   9
ENDBRANCH   7   8
ENDBRANCH   5   6
ENDBRANCH   4   5
ENDBRANCH   3   4
ENDBRANCH   1   2
BRANCH   1  19
ATOM     19  O   UNL     1      -9.606 -13.373  -6.821  1.00  0.00    -0.366 OA
BRANCH  19  20
ATOM     20  C   UNL     1     -10.308 -12.659  -5.814  1.00  0.00     0.283 C 
BRANCH  20  21
ATOM     21  C   UNL     1      -9.676 -12.349  -4.455  1.00  0.00     0.332 C 
ATOM     22  O   UNL     1      -9.811 -11.275  -3.886  1.00  0.00    -0.250 OA
BRANCH  21  23
ATOM     23  O   UNL     1      -9.058 -13.442  -3.928  1.00  0.00    -0.460 OA
BRANCH  23  24
ATOM     24  C   UNL     1      -8.636 -13.330  -2.552  1.00  0.00     0.274 C 
BRANCH  24  25
ATOM     25  C   UNL     1      -7.109 -13.399  -2.447  1.00  0.00     0.275 C 
BRANCH  25  26
ATOM     26  O   UNL     1      -6.526 -12.245  -3.090  1.00  0.00    -0.458 OA
BRANCH  26  27
ATOM     27  C   UNL     1      -5.234 -12.324  -3.504  1.00  0.00     0.338 C 
ATOM     28  O   UNL     1      -4.475 -13.277  -3.318  1.00  0.00    -0.246 OA
BRANCH  27  29
ATOM     29  C   UNL     1      -4.850 -11.082  -4.241  1.00  0.00     0.060 A 
ATOM     30  C   UNL     1      -5.840 -10.331  -4.835  1.00  0.00     0.016 A 
ATOM     31  C   UNL     1      -3.545 -10.621  -4.419  1.00  0.00     0.016 A 
ATOM     32  C   UNL     1      -5.548  -9.152  -5.555  1.00  0.00     0.010 A 
ATOM     33  C   UNL     1      -3.282  -9.386  -5.106  1.00  0.00     0.010 A 
ATOM     34  C   UNL     1      -4.304  -8.589  -5.674  1.00  0.00    -0.014 A 
BRANCH  34  35
ATOM     35  C   UNL     1      -4.097  -7.273  -6.422  1.00  0.00     0.031 A 
ATOM     36  C   UNL     1      -3.073  -7.289  -7.500  1.00  0.00     0.074 A 
ATOM     37  C   UNL     1      -4.843  -6.131  -6.514  1.00  0.00     0.049 A 
ATOM     38  N   UNL     1      -2.431  -6.301  -8.055  1.00  0.00    -0.248 NA
ATOM     39  C   UNL     1      -2.828  -8.610  -8.094  1.00  0.00     0.031 C 
ATOM     40  C   UNL     1      -6.246  -5.945  -6.231  1.00  0.00     0.029 A 
ATOM     41  N   UNL     1      -4.479  -4.832  -6.865  1.00  0.00    -0.354 N 
ATOM     42  C   UNL     1      -1.689  -6.880  -9.059  1.00  0.00     0.074 A 
ATOM     43  C   UNL     1      -1.919  -8.310  -9.004  1.00  0.00     0.031 C 
ATOM     44  C   UNL     1      -6.576  -4.648  -6.144  1.00  0.00     0.029 A 
ATOM     45  C   UNL     1      -5.403  -3.873  -6.473  1.00  0.00     0.049 A 
ATOM     46  H   UNL     1      -3.647  -4.615  -7.344  1.00  0.00     0.167 HD
ATOM     47  C   UNL     1      -0.908  -6.265  -9.970  1.00  0.00     0.037 A 
ATOM     48  C   UNL     1      -5.350  -2.528  -6.387  1.00  0.00     0.037 A 
ATOM     49  C   UNL     1      -0.739  -4.846 -10.099  1.00  0.00     0.049 A 
ATOM     50  C   UNL     1      -4.214  -1.836  -7.064  1.00  0.00     0.074 A 
ATOM     51  C   UNL     1       0.153  -4.166 -10.907  1.00  0.00     0.029 A 
ATOM     52  N   UNL     1      -1.495  -3.888  -9.441  1.00  0.00    -0.354 N 
ATOM     53  N   UNL     1      -3.298  -2.374  -7.823  1.00  0.00    -0.248 NA
ATOM     54  C   UNL     1      -4.139  -0.371  -6.968  1.00  0.00     0.031 C 
ATOM     55  C   UNL     1      -0.031  -2.794 -10.707  1.00  0.00     0.029 A 
ATOM     56  C   UNL     1      -1.063  -2.618  -9.802  1.00  0.00     0.049 A 
ATOM     57  H   UNL     1      -2.228  -4.078  -8.812  1.00  0.00     0.167 HD
ATOM     58  C   UNL     1      -2.604  -1.319  -8.380  1.00  0.00     0.074 A 
ATOM     59  C   UNL     1      -3.172  -0.103  -7.836  1.00  0.00     0.031 C 
ATOM     60  C   UNL     1      -1.615  -1.386  -9.299  1.00  0.00     0.037 A 
BRANCH  47  61
ATOM     61  C   UNL     1      -0.096  -7.179 -10.815  1.00  0.00     0.064 A 
ATOM     62  C   UNL     1      -0.647  -7.896 -11.884  1.00  0.00     0.173 A 
ATOM     63  C   UNL     1       1.243  -7.403 -10.469  1.00  0.00     0.173 A 
ATOM     64  F   UNL     1      -1.944  -7.756 -12.197  1.00  0.00    -0.203 F 
ATOM     65  C   UNL     1       0.120  -8.829 -12.572  1.00  0.00     0.198 A 
ATOM     66  C   UNL     1       2.012  -8.315 -11.176  1.00  0.00     0.198 A 
ATOM     67  F   UNL     1       1.788  -6.760  -9.425  1.00  0.00    -0.203 F 
ATOM     68  F   UNL     1      -0.436  -9.563 -13.545  1.00  0.00    -0.200 F 
ATOM     69  C   UNL     1       1.449  -9.032 -12.222  1.00  0.00     0.200 A 
ATOM     70  F   UNL     1       3.290  -8.517 -10.830  1.00  0.00    -0.200 F 
ATOM     71  F   UNL     1       2.183  -9.939 -12.879  1.00  0.00    -0.200 F 
ENDBRANCH  47  61
BRANCH  48  72
ATOM     72  C   UNL     1      -6.389  -1.733  -5.664  1.00  0.00     0.064 A 
ATOM     73  C   UNL     1      -7.253  -0.850  -6.328  1.00  0.00     0.173 A 
ATOM     74  C   UNL     1      -6.448  -1.757  -4.260  1.00  0.00     0.173 A 
ATOM     75  F   UNL     1      -7.214  -0.755  -7.665  1.00  0.00    -0.203 F 
ATOM     76  C   UNL     1      -8.114  -0.007  -5.620  1.00  0.00     0.198 A 
ATOM     77  C   UNL     1      -7.320  -0.925  -3.554  1.00  0.00     0.198 A 
ATOM     78  F   UNL     1      -5.627  -2.559  -3.567  1.00  0.00    -0.203 F 
ATOM     79  F   UNL     1      -8.884   0.869  -6.280  1.00  0.00    -0.200 F 
ATOM     80  C   UNL     1      -8.146  -0.044  -4.234  1.00  0.00     0.200 A 
ATOM     81  F   UNL     1      -7.336  -0.954  -2.214  1.00  0.00    -0.200 F 
ATOM     82  F   UNL     1      -8.953   0.784  -3.556  1.00  0.00    -0.200 F 
ENDBRANCH  48  72
BRANCH  60  83
ATOM     83  C   UNL     1      -1.097  -0.094  -9.845  1.00  0.00     0.064 A 
ATOM     84  C   UNL     1      -0.314   0.772  -9.071  1.00  0.00     0.173 A 
ATOM     85  C   UNL     1      -1.362   0.265 -11.175  1.00  0.00     0.173 A 
ATOM     86  F   UNL     1      -0.055   0.482  -7.787  1.00  0.00    -0.203 F 
ATOM     87  C   UNL     1       0.174   1.961  -9.605  1.00  0.00     0.198 A 
ATOM     88  C   UNL     1      -0.849   1.441 -11.714  1.00  0.00     0.198 A 
ATOM     89  F   UNL     1      -2.112  -0.528 -11.955  1.00  0.00    -0.203 F 
ATOM     90  F   UNL     1       0.886   2.795  -8.835  1.00  0.00    -0.200 F 
ATOM     91  C   UNL     1      -0.086   2.290 -10.927  1.00  0.00     0.200 A 
ATOM     92  F   UNL     1      -1.094   1.753 -12.994  1.00  0.00    -0.200 F 
ATOM     93  F   UNL     1       0.395   3.430 -11.442  1.00  0.00    -0.200 F 
ENDBRANCH  60  83
ENDBRANCH  34  35
ENDBRANCH  27  29
ENDBRANCH  26  27
ENDBRANCH  25  26
ENDBRANCH  24  25
ENDBRANCH  23  24
ENDBRANCH  21  23
ENDBRANCH  20  21
ENDBRANCH  19  20
ENDBRANCH   1  19
TORSDOF 24
