REMARK SMILES O=C(OCCOC(=O)c1cc(S(=O)(=O)C/C(Cl)=C/Cl)ccc1Cl)c1ccc(-c2c3nc(c(-c4c(F)c(F)c(F)c(F)c4F)c4ccc([nH]4)c(-c4c(F)c(F)c(F)c(F)c4F)c4nc(c(-c5c(F)c(F)c(F)c(F)c5F)c5ccc2[nH]5)C=C4)C=C3)cc1
REMARK SMILES IDX 5 1 4 2 3 3 2 4 1 5 24 6 25 7 86 8 26 9 85 10 27 11 28 12
REMARK SMILES IDX 29 13 79 14 30 15 84 16 78 17 80 18 31 19 83 20 77 21 76 22
REMARK SMILES IDX 32 24 64 25 44 26 63 27 45 28 48 29 62 30 81 31 46 32 47 33
REMARK SMILES IDX 61 35 82 36 49 37 33 38 34 39 42 40 35 41 36 42 40 43 43 44
REMARK SMILES IDX 37 45 38 46 41 47 39 48 65 49 66 50 74 51 67 52 68 53 72 54
REMARK SMILES IDX 75 55 69 56 70 57 73 58 71 59 50 60 51 61 59 62 52 63 53 64
REMARK SMILES IDX 57 65 60 66 54 67 55 68 58 69 56 70 6 71 7 72 8 73 9 74
REMARK SMILES IDX 10 75 22 76 11 77 21 78 23 79 20 80 12 81 13 82 14 83 15 84
REMARK SMILES IDX 16 85 17 86 18 87 19 88
REMARK H PARENT 80 23 48 34
REMARK Flexibility Score: inf
ROOT
ATOM      1  C   UNL     1       3.707   0.596   2.034  1.00  0.00     0.275 C 
ENDROOT
BRANCH   1   2
ATOM      2  C   UNL     1       3.991   1.388   0.756  1.00  0.00     0.275 C 
BRANCH   2   3
ATOM      3  O   UNL     1       3.001   1.234  -0.274  1.00  0.00    -0.458 OA
BRANCH   3   4
ATOM      4  C   UNL     1       2.852   0.274  -1.213  1.00  0.00     0.338 C 
ATOM      5  O   UNL     1       1.963   0.412  -2.052  1.00  0.00    -0.246 OA
BRANCH   4   6
ATOM      6  C   UNL     1       3.623  -1.013  -1.235  1.00  0.00     0.060 A 
ATOM      7  C   UNL     1       4.875  -1.251  -0.664  1.00  0.00     0.016 A 
ATOM      8  C   UNL     1       3.001  -2.087  -1.893  1.00  0.00     0.016 A 
ATOM      9  C   UNL     1       5.444  -2.530  -0.663  1.00  0.00     0.010 A 
ATOM     10  C   UNL     1       3.554  -3.370  -1.884  1.00  0.00     0.010 A 
ATOM     11  C   UNL     1       4.782  -3.600  -1.260  1.00  0.00    -0.014 A 
BRANCH  11  12
ATOM     12  C   UNL     1       5.442  -4.919  -1.363  1.00  0.00     0.031 A 
ATOM     13  C   UNL     1       6.006  -5.327  -2.689  1.00  0.00     0.074 A 
ATOM     14  C   UNL     1       5.573  -5.713  -0.285  1.00  0.00     0.049 A 
ATOM     15  N   UNL     1       6.661  -6.411  -3.008  1.00  0.00    -0.248 NA
ATOM     16  C   UNL     1       5.842  -4.371  -3.797  1.00  0.00     0.031 C 
ATOM     17  C   UNL     1       5.148  -5.369   1.069  1.00  0.00     0.029 A 
ATOM     18  N   UNL     1       6.093  -6.975  -0.153  1.00  0.00    -0.354 N 
ATOM     19  C   UNL     1       7.017  -6.248  -4.338  1.00  0.00     0.074 A 
ATOM     20  C   UNL     1       6.447  -5.001  -4.791  1.00  0.00     0.031 C 
ATOM     21  C   UNL     1       5.361  -6.416   1.884  1.00  0.00     0.029 A 
ATOM     22  C   UNL     1       5.950  -7.501   1.109  1.00  0.00     0.049 A 
ATOM     23  H   UNL     1       6.528  -7.459  -0.892  1.00  0.00     0.167 HD
ATOM     24  C   UNL     1       7.792  -7.052  -5.100  1.00  0.00     0.037 A 
ATOM     25  C   UNL     1       6.260  -8.725   1.578  1.00  0.00     0.037 A 
ATOM     26  C   UNL     1       8.333  -8.302  -4.643  1.00  0.00     0.049 A 
ATOM     27  C   UNL     1       6.987  -9.673   0.660  1.00  0.00     0.074 A 
ATOM     28  C   UNL     1       9.128  -9.201  -5.326  1.00  0.00     0.029 A 
ATOM     29  N   UNL     1       8.111  -8.835  -3.380  1.00  0.00    -0.354 N 
ATOM     30  N   UNL     1       7.376  -9.484  -0.578  1.00  0.00    -0.248 NA
ATOM     31  C   UNL     1       7.354 -10.984   1.210  1.00  0.00     0.031 C 
ATOM     32  C   UNL     1       9.341 -10.306  -4.496  1.00  0.00     0.029 A 
ATOM     33  C   UNL     1       8.728 -10.069  -3.275  1.00  0.00     0.049 A 
ATOM     34  H   UNL     1       7.591  -8.400  -2.666  1.00  0.00     0.167 HD
ATOM     35  C   UNL     1       8.082 -10.623  -0.936  1.00  0.00     0.074 A 
ATOM     36  C   UNL     1       8.064 -11.500   0.217  1.00  0.00     0.031 C 
ATOM     37  C   UNL     1       8.704 -10.912  -2.106  1.00  0.00     0.037 A 
BRANCH  24  38
ATOM     38  C   UNL     1       8.078  -6.597  -6.498  1.00  0.00     0.064 A 
ATOM     39  C   UNL     1       8.925  -5.506  -6.755  1.00  0.00     0.173 A 
ATOM     40  C   UNL     1       7.491  -7.246  -7.592  1.00  0.00     0.173 A 
ATOM     41  F   UNL     1       9.491  -4.836  -5.739  1.00  0.00    -0.203 F 
ATOM     42  C   UNL     1       9.152  -5.067  -8.056  1.00  0.00     0.198 A 
ATOM     43  C   UNL     1       7.742  -6.821  -8.894  1.00  0.00     0.198 A 
ATOM     44  F   UNL     1       6.670  -8.289  -7.399  1.00  0.00    -0.203 F 
ATOM     45  F   UNL     1       9.922  -3.992  -8.274  1.00  0.00    -0.200 F 
ATOM     46  C   UNL     1       8.565  -5.728  -9.124  1.00  0.00     0.200 A 
ATOM     47  F   UNL     1       7.177  -7.462  -9.926  1.00  0.00    -0.200 F 
ATOM     48  F   UNL     1       8.783  -5.304 -10.377  1.00  0.00    -0.200 F 
ENDBRANCH  24  38
BRANCH  25  49
ATOM     49  C   UNL     1       5.902  -9.120   2.968  1.00  0.00     0.064 A 
ATOM     50  C   UNL     1       6.883  -9.378   3.936  1.00  0.00     0.173 A 
ATOM     51  C   UNL     1       4.560  -9.296   3.343  1.00  0.00     0.173 A 
ATOM     52  F   UNL     1       8.180  -9.237   3.627  1.00  0.00    -0.203 F 
ATOM     53  C   UNL     1       6.540  -9.833   5.209  1.00  0.00     0.198 A 
ATOM     54  C   UNL     1       4.217  -9.727   4.624  1.00  0.00     0.198 A 
ATOM     55  F   UNL     1       3.577  -9.051   2.463  1.00  0.00    -0.203 F 
ATOM     56  F   UNL     1       7.502 -10.127   6.094  1.00  0.00    -0.200 F 
ATOM     57  C   UNL     1       5.208 -10.008   5.552  1.00  0.00     0.200 A 
ATOM     58  F   UNL     1       2.927  -9.881   4.954  1.00  0.00    -0.200 F 
ATOM     59  F   UNL     1       4.880 -10.457   6.771  1.00  0.00    -0.200 F 
ENDBRANCH  25  49
BRANCH  37  60
ATOM     60  C   UNL     1       9.459 -12.206  -2.176  1.00  0.00     0.064 A 
ATOM     61  C   UNL     1       8.801 -13.442  -2.227  1.00  0.00     0.173 A 
ATOM     62  C   UNL     1      10.861 -12.199  -2.245  1.00  0.00     0.173 A 
ATOM     63  F   UNL     1       7.463 -13.499  -2.147  1.00  0.00    -0.203 F 
ATOM     64  C   UNL     1       9.522 -14.629  -2.320  1.00  0.00     0.198 A 
ATOM     65  C   UNL     1      11.575 -13.385  -2.373  1.00  0.00     0.198 A 
ATOM     66  F   UNL     1      11.535 -11.040  -2.206  1.00  0.00    -0.203 F 
ATOM     67  F   UNL     1       8.876 -15.803  -2.316  1.00  0.00    -0.200 F 
ATOM     68  C   UNL     1      10.906 -14.599  -2.403  1.00  0.00     0.200 A 
ATOM     69  F   UNL     1      12.912 -13.353  -2.470  1.00  0.00    -0.200 F 
ATOM     70  F   UNL     1      11.597 -15.743  -2.505  1.00  0.00    -0.200 F 
ENDBRANCH  37  60
ENDBRANCH  11  12
ENDBRANCH   4   6
ENDBRANCH   3   4
ENDBRANCH   2   3
ENDBRANCH   1   2
BRANCH   1  71
ATOM     71  O   UNL     1       3.302  -0.762   1.795  1.00  0.00    -0.458 OA
BRANCH  71  72
ATOM     72  C   UNL     1       1.968  -1.004   1.869  1.00  0.00     0.339 C 
ATOM     73  O   UNL     1       1.082  -0.189   2.057  1.00  0.00    -0.246 OA
BRANCH  72  74
ATOM     74  C   UNL     1       1.704  -2.427   1.578  1.00  0.00     0.080 A 
ATOM     75  C   UNL     1       0.876  -2.741   0.487  1.00  0.00     0.037 A 
ATOM     76  C   UNL     1       2.231  -3.452   2.366  1.00  0.00     0.055 A 
ATOM     77  C   UNL     1       0.637  -4.083   0.142  1.00  0.00     0.068 A 
ATOM     78  C   UNL     1       1.956  -4.784   2.036  1.00  0.00     0.023 A 
ATOM     79  Cl  UNL     1       3.197  -3.160   3.767  1.00  0.00    -0.083 Cl
ATOM     80  C   UNL     1       1.174  -5.103   0.921  1.00  0.00     0.022 A 
BRANCH  77  81
ATOM     81  S   UNL     1      -0.381  -4.400  -1.288  1.00  0.00     0.183 S 
ATOM     82  O   UNL     1      -1.707  -3.954  -0.901  1.00  0.00    -0.223 OA
ATOM     83  O   UNL     1       0.291  -3.783  -2.416  1.00  0.00    -0.223 OA
BRANCH  81  84
ATOM     84  C   UNL     1      -0.505  -6.147  -1.601  1.00  0.00     0.191 C 
BRANCH  84  85
ATOM     85  C   UNL     1       0.750  -6.748  -2.176  1.00  0.00     0.045 C 
ATOM     86  Cl  UNL     1       1.428  -8.042  -1.228  1.00  0.00    -0.087 Cl
ATOM     87  C   UNL     1       1.247  -6.456  -3.387  1.00  0.00     0.097 C 
ATOM     88  Cl  UNL     1       2.631  -7.174  -4.105  1.00  0.00    -0.092 Cl
ENDBRANCH  84  85
ENDBRANCH  81  84
ENDBRANCH  77  81
ENDBRANCH  72  74
ENDBRANCH  71  72
ENDBRANCH   1  71
TORSDOF 14
