REMARK SMILES C[C@@H](C(=O)OCCOC(=O)c1ccc(-c2c3nc(c(-c4c(F)c(F)c(F)c(F)c4F)c4ccc([nH]4)c(-c4c(F)c(F)c(F)c(F)c4F)c4nc(c(-c5c(F)c(F)c(F)c(F)c5F)c5ccc2[nH]5)C=C4)C=C3)cc1)[N@@H+]1CCc2n[nH]c(C(c3ccccc3)c3ccccc3)c2C1
REMARK SMILES IDX 6 1 5 2 3 3 4 4 2 5 1 6 74 7 75 8 95 9 76 11 94 12 77 13
REMARK SMILES IDX 80 14 78 15 79 16 81 18 82 19 83 20 87 21 84 22 86 23 85 24
REMARK SMILES IDX 88 25 89 26 93 27 90 28 92 29 91 30 7 31 8 32 9 33 10 34
REMARK SMILES IDX 11 35 12 36 73 37 13 38 72 39 14 40 15 41 16 42 66 43 17 44
REMARK SMILES IDX 71 45 65 46 67 47 18 48 70 49 64 50 63 51 19 53 51 54 31 55
REMARK SMILES IDX 50 56 32 57 35 58 49 59 68 60 33 61 34 62 48 64 69 65 36 66
REMARK SMILES IDX 20 67 21 68 29 69 22 70 23 71 27 72 30 73 24 74 25 75 28 76
REMARK SMILES IDX 26 77 52 78 53 79 61 80 54 81 55 82 59 83 62 84 56 85 57 86
REMARK SMILES IDX 60 87 58 88 37 89 38 90 46 91 39 92 40 93 44 94 47 95 41 96
REMARK SMILES IDX 42 97 45 98 43 99
REMARK H PARENT 74 10 79 17 67 52 35 63
REMARK Flexibility Score: inf
ROOT
ATOM      1  C   UNL     1       0.482  -3.603   3.630  1.00  0.00     0.274 C 
ENDROOT
BRANCH   1   2
ATOM      2  O   UNL     1       1.063  -2.972   2.447  1.00  0.00    -0.458 OA
BRANCH   2   3
ATOM      3  C   UNL     1       0.464  -3.173   1.243  1.00  0.00     0.364 C 
ATOM      4  O   UNL     1       0.164  -4.299   0.855  1.00  0.00    -0.245 OA
BRANCH   3   5
ATOM      5  C   UNL     1       0.164  -1.867   0.415  1.00  0.00     0.292 C 
ATOM      6  C   UNL     1       1.153  -1.622  -0.726  1.00  0.00     0.088 C 
BRANCH   5   7
ATOM      7  N   UNL     1      -0.241  -0.664   1.216  1.00  0.00    -0.319 N 
ATOM      8  C   UNL     1      -0.341   0.633   0.480  1.00  0.00     0.269 C 
ATOM      9  C   UNL     1       0.501  -0.456   2.456  1.00  0.00     0.303 C 
ATOM     10  H   UNL     1      -1.193  -0.943   1.454  1.00  0.00     0.349 HD
ATOM     11  C   UNL     1       0.623   1.795   0.950  1.00  0.00     0.120 C 
ATOM     12  C   UNL     1       1.876  -0.014   2.191  1.00  0.00     0.052 A 
ATOM     13  C   UNL     1       1.896   1.221   1.500  1.00  0.00     0.077 A 
ATOM     14  C   UNL     1       3.206  -0.439   2.242  1.00  0.00     0.056 A 
ATOM     15  N   UNL     1       3.123   1.705   1.375  1.00  0.00    -0.180 NA
ATOM     16  N   UNL     1       3.875   0.748   1.959  1.00  0.00    -0.281 N 
ATOM     17  H   UNL     1       4.828   0.881   2.169  1.00  0.00     0.190 HD
BRANCH  14  18
ATOM     18  C   UNL     1       4.085  -1.726   2.389  1.00  0.00     0.098 C 
BRANCH  18  19
ATOM     19  C   UNL     1       4.122  -2.480   3.741  1.00  0.00    -0.035 A 
ATOM     20  C   UNL     1       4.879  -1.956   4.806  1.00  0.00     0.005 A 
ATOM     21  C   UNL     1       3.587  -3.764   3.947  1.00  0.00     0.005 A 
ATOM     22  C   UNL     1       5.117  -2.697   5.976  1.00  0.00     0.000 A 
ATOM     23  C   UNL     1       3.813  -4.508   5.113  1.00  0.00     0.000 A 
ATOM     24  C   UNL     1       4.589  -3.975   6.128  1.00  0.00     0.000 A 
ENDBRANCH  18  19
BRANCH  18  25
ATOM     25  C   UNL     1       4.269  -2.539   1.064  1.00  0.00    -0.035 A 
ATOM     26  C   UNL     1       4.462  -3.933   0.992  1.00  0.00     0.005 A 
ATOM     27  C   UNL     1       4.426  -1.846  -0.153  1.00  0.00     0.005 A 
ATOM     28  C   UNL     1       4.668  -4.605  -0.221  1.00  0.00     0.000 A 
ATOM     29  C   UNL     1       4.667  -2.507  -1.366  1.00  0.00     0.000 A 
ATOM     30  C   UNL     1       4.766  -3.891  -1.403  1.00  0.00     0.000 A 
ENDBRANCH  18  25
ENDBRANCH  14  18
ENDBRANCH   5   7
ENDBRANCH   3   5
ENDBRANCH   2   3
ENDBRANCH   1   2
BRANCH   1  31
ATOM     31  C   UNL     1       0.731  -2.725   4.910  1.00  0.00     0.275 C 
BRANCH  31  32
ATOM     32  O   UNL     1      -0.546  -2.163   5.305  1.00  0.00    -0.458 OA
BRANCH  32  33
ATOM     33  C   UNL     1      -0.659  -0.822   5.499  1.00  0.00     0.338 C 
ATOM     34  O   UNL     1       0.193  -0.040   5.866  1.00  0.00    -0.246 OA
BRANCH  33  35
ATOM     35  C   UNL     1      -1.994  -0.442   4.968  1.00  0.00     0.060 A 
ATOM     36  C   UNL     1      -2.419  -1.070   3.791  1.00  0.00     0.016 A 
ATOM     37  C   UNL     1      -2.792   0.543   5.547  1.00  0.00     0.016 A 
ATOM     38  C   UNL     1      -3.636  -0.770   3.219  1.00  0.00     0.010 A 
ATOM     39  C   UNL     1      -4.088   0.745   5.044  1.00  0.00     0.010 A 
ATOM     40  C   UNL     1      -4.536   0.031   3.916  1.00  0.00    -0.014 A 
BRANCH  40  41
ATOM     41  C   UNL     1      -5.964  -0.029   3.522  1.00  0.00     0.031 A 
ATOM     42  C   UNL     1      -6.697   1.207   3.126  1.00  0.00     0.074 A 
ATOM     43  C   UNL     1      -6.589  -1.226   3.522  1.00  0.00     0.049 A 
ATOM     44  N   UNL     1      -7.985   1.405   3.042  1.00  0.00    -0.248 NA
ATOM     45  C   UNL     1      -5.877   2.379   2.790  1.00  0.00     0.031 C 
ATOM     46  C   UNL     1      -5.954  -2.518   3.815  1.00  0.00     0.029 A 
ATOM     47  N   UNL     1      -7.892  -1.565   3.258  1.00  0.00    -0.354 N 
ATOM     48  C   UNL     1      -8.137   2.746   2.725  1.00  0.00     0.074 A 
ATOM     49  C   UNL     1      -6.807   3.303   2.588  1.00  0.00     0.031 C 
ATOM     50  C   UNL     1      -6.846  -3.503   3.662  1.00  0.00     0.029 A 
ATOM     51  C   UNL     1      -8.148  -2.907   3.414  1.00  0.00     0.049 A 
ATOM     52  H   UNL     1      -8.576  -0.912   2.985  1.00  0.00     0.167 HD
ATOM     53  C   UNL     1      -9.295   3.436   2.599  1.00  0.00     0.037 A 
ATOM     54  C   UNL     1      -9.312  -3.580   3.449  1.00  0.00     0.037 A 
ATOM     55  C   UNL     1     -10.599   2.828   2.699  1.00  0.00     0.049 A 
ATOM     56  C   UNL     1     -10.580  -2.792   3.328  1.00  0.00     0.074 A 
ATOM     57  C   UNL     1     -11.845   3.423   2.625  1.00  0.00     0.029 A 
ATOM     58  N   UNL     1     -10.818   1.466   2.877  1.00  0.00    -0.354 N 
ATOM     59  N   UNL     1     -10.731  -1.500   3.170  1.00  0.00    -0.248 NA
ATOM     60  C   UNL     1     -11.835  -3.543   3.430  1.00  0.00     0.031 C 
ATOM     61  C   UNL     1     -12.816   2.426   2.782  1.00  0.00     0.029 A 
ATOM     62  C   UNL     1     -12.177   1.203   2.911  1.00  0.00     0.049 A 
ATOM     63  H   UNL     1     -10.109   0.788   2.966  1.00  0.00     0.167 HD
ATOM     64  C   UNL     1     -12.097  -1.276   3.156  1.00  0.00     0.074 A 
ATOM     65  C   UNL     1     -12.730  -2.574   3.296  1.00  0.00     0.031 C 
ATOM     66  C   UNL     1     -12.768  -0.104   3.050  1.00  0.00     0.037 A 
BRANCH  53  67
ATOM     67  C   UNL     1      -9.199   4.923   2.423  1.00  0.00     0.064 A 
ATOM     68  C   UNL     1      -8.755   5.512   1.231  1.00  0.00     0.173 A 
ATOM     69  C   UNL     1      -9.564   5.776   3.477  1.00  0.00     0.173 A 
ATOM     70  F   UNL     1      -8.374   4.743   0.199  1.00  0.00    -0.203 F 
ATOM     71  C   UNL     1      -8.654   6.897   1.110  1.00  0.00     0.198 A 
ATOM     72  C   UNL     1      -9.488   7.159   3.344  1.00  0.00     0.198 A 
ATOM     73  F   UNL     1      -9.994   5.266   4.641  1.00  0.00    -0.203 F 
ATOM     74  F   UNL     1      -8.177   7.436  -0.020  1.00  0.00    -0.200 F 
ATOM     75  C   UNL     1      -9.025   7.719   2.164  1.00  0.00     0.200 A 
ATOM     76  F   UNL     1      -9.855   7.951   4.362  1.00  0.00    -0.200 F 
ATOM     77  F   UNL     1      -8.926   9.050   2.046  1.00  0.00    -0.200 F 
ENDBRANCH  53  67
BRANCH  54  78
ATOM     78  C   UNL     1      -9.314  -5.045   3.705  1.00  0.00     0.064 A 
ATOM     79  C   UNL     1      -9.700  -5.954   2.712  1.00  0.00     0.173 A 
ATOM     80  C   UNL     1      -8.882  -5.570   4.934  1.00  0.00     0.173 A 
ATOM     81  F   UNL     1     -10.144  -5.503   1.529  1.00  0.00    -0.203 F 
ATOM     82  C   UNL     1      -9.652  -7.329   2.936  1.00  0.00     0.198 A 
ATOM     83  C   UNL     1      -8.800  -6.944   5.145  1.00  0.00     0.198 A 
ATOM     84  F   UNL     1      -8.498  -4.745   5.920  1.00  0.00    -0.203 F 
ATOM     85  F   UNL     1     -10.054  -8.176   1.979  1.00  0.00    -0.200 F 
ATOM     86  C   UNL     1      -9.190  -7.823   4.147  1.00  0.00     0.200 A 
ATOM     87  F   UNL     1      -8.332  -7.415   6.309  1.00  0.00    -0.200 F 
ATOM     88  F   UNL     1      -9.121  -9.146   4.353  1.00  0.00    -0.200 F 
ENDBRANCH  54  78
BRANCH  66  89
ATOM     89  C   UNL     1     -14.262  -0.195   3.045  1.00  0.00     0.064 A 
ATOM     90  C   UNL     1     -14.985  -0.437   4.221  1.00  0.00     0.173 A 
ATOM     91  C   UNL     1     -14.973  -0.029   1.848  1.00  0.00     0.173 A 
ATOM     92  F   UNL     1     -14.342  -0.626   5.383  1.00  0.00    -0.203 F 
ATOM     93  C   UNL     1     -16.373  -0.533   4.194  1.00  0.00     0.198 A 
ATOM     94  C   UNL     1     -16.362  -0.102   1.830  1.00  0.00     0.198 A 
ATOM     95  F   UNL     1     -14.320   0.202   0.700  1.00  0.00    -0.203 F 
ATOM     96  F   UNL     1     -17.045  -0.813   5.319  1.00  0.00    -0.200 F 
ATOM     97  C   UNL     1     -17.059  -0.360   3.001  1.00  0.00     0.200 A 
ATOM     98  F   UNL     1     -17.024   0.070   0.678  1.00  0.00    -0.200 F 
ATOM     99  F   UNL     1     -18.396  -0.455   2.977  1.00  0.00    -0.200 F 
ENDBRANCH  66  89
ENDBRANCH  40  41
ENDBRANCH  33  35
ENDBRANCH  32  33
ENDBRANCH  31  32
ENDBRANCH   1  31
TORSDOF 15
