REMARK SMILES O=C(OCCOC(=O)C1(C/C=C/c2ccccc2)CCCCC1)c1ccc(-c2c3nc(c(-c4c(F)c(F)c(F)c(F)c4F)c4ccc([nH]4)c(-c4c(F)c(F)c(F)c(F)c4F)c4nc(c(-c5c(F)c(F)c(F)c(F)c5F)c5ccc2[nH]5)C=C4)C=C3)cc1
REMARK SMILES IDX 5 1 4 2 3 3 2 4 1 5 24 6 25 7 86 8 26 9 85 10 27 11 28 12
REMARK SMILES IDX 29 13 79 14 30 15 84 16 78 17 80 18 31 19 83 20 77 21 76 22
REMARK SMILES IDX 32 24 64 25 44 26 63 27 45 28 48 29 62 30 81 31 46 32 47 33
REMARK SMILES IDX 61 35 82 36 49 37 33 38 34 39 42 40 35 41 36 42 40 43 43 44
REMARK SMILES IDX 37 45 38 46 41 47 39 48 65 49 66 50 74 51 67 52 68 53 72 54
REMARK SMILES IDX 75 55 69 56 70 57 73 58 71 59 50 60 51 61 59 62 52 63 53 64
REMARK SMILES IDX 57 65 60 66 54 67 55 68 58 69 56 70 6 71 7 72 8 73 9 74
REMARK SMILES IDX 19 75 23 76 20 77 22 78 21 79 10 80 11 81 12 82 13 83 14 84
REMARK SMILES IDX 18 85 15 86 17 87 16 88
REMARK H PARENT 80 23 48 34
REMARK Flexibility Score: inf
ROOT
ATOM      1  C   UNL     1       3.929  -1.807  -0.466  1.00  0.00     0.274 C 
ENDROOT
BRANCH   1   2
ATOM      2  C   UNL     1       4.465  -1.186   0.820  1.00  0.00     0.275 C 
BRANCH   2   3
ATOM      3  O   UNL     1       3.585  -0.210   1.401  1.00  0.00    -0.458 OA
BRANCH   3   4
ATOM      4  C   UNL     1       3.388   1.095   1.111  1.00  0.00     0.338 C 
ATOM      5  O   UNL     1       2.516   1.693   1.744  1.00  0.00    -0.246 OA
BRANCH   4   6
ATOM      6  C   UNL     1       4.090   1.865   0.025  1.00  0.00     0.060 A 
ATOM      7  C   UNL     1       5.259   1.507  -0.658  1.00  0.00     0.016 A 
ATOM      8  C   UNL     1       3.459   3.060  -0.371  1.00  0.00     0.016 A 
ATOM      9  C   UNL     1       5.706   2.229  -1.785  1.00  0.00     0.010 A 
ATOM     10  C   UNL     1       3.890   3.773  -1.494  1.00  0.00     0.010 A 
ATOM     11  C   UNL     1       4.995   3.337  -2.244  1.00  0.00    -0.014 A 
BRANCH  11  12
ATOM     12  C   UNL     1       5.475   4.177  -3.373  1.00  0.00     0.031 A 
ATOM     13  C   UNL     1       6.046   5.502  -3.000  1.00  0.00     0.074 A 
ATOM     14  C   UNL     1       5.324   3.852  -4.672  1.00  0.00     0.049 A 
ATOM     15  N   UNL     1       6.338   6.523  -3.756  1.00  0.00    -0.248 NA
ATOM     16  C   UNL     1       6.245   5.724  -1.559  1.00  0.00     0.031 C 
ATOM     17  C   UNL     1       4.761   2.607  -5.160  1.00  0.00     0.029 A 
ATOM     18  N   UNL     1       5.590   4.547  -5.829  1.00  0.00    -0.354 N 
ATOM     19  C   UNL     1       6.721   7.517  -2.874  1.00  0.00     0.074 A 
ATOM     20  C   UNL     1       6.518   7.014  -1.535  1.00  0.00     0.031 C 
ATOM     21  C   UNL     1       4.689   2.616  -6.500  1.00  0.00     0.029 A 
ATOM     22  C   UNL     1       5.192   3.894  -6.977  1.00  0.00     0.049 A 
ATOM     23  H   UNL     1       6.024   5.431  -5.836  1.00  0.00     0.167 HD
ATOM     24  C   UNL     1       7.245   8.729  -3.157  1.00  0.00     0.037 A 
ATOM     25  C   UNL     1       5.211   4.292  -8.265  1.00  0.00     0.037 A 
ATOM     26  C   UNL     1       7.452   9.203  -4.493  1.00  0.00     0.049 A 
ATOM     27  C   UNL     1       5.776   5.653  -8.571  1.00  0.00     0.074 A 
ATOM     28  C   UNL     1       8.004  10.395  -4.912  1.00  0.00     0.029 A 
ATOM     29  N   UNL     1       7.104   8.489  -5.634  1.00  0.00    -0.354 N 
ATOM     30  N   UNL     1       6.206   6.567  -7.735  1.00  0.00    -0.248 NA
ATOM     31  C   UNL     1       5.877   6.037  -9.985  1.00  0.00     0.031 C 
ATOM     32  C   UNL     1       7.962  10.417  -6.310  1.00  0.00     0.029 A 
ATOM     33  C   UNL     1       7.428   9.219  -6.763  1.00  0.00     0.049 A 
ATOM     34  H   UNL     1       6.689   7.596  -5.638  1.00  0.00     0.167 HD
ATOM     35  C   UNL     1       6.670   7.614  -8.516  1.00  0.00     0.074 A 
ATOM     36  C   UNL     1       6.457   7.227  -9.897  1.00  0.00     0.031 C 
ATOM     37  C   UNL     1       7.232   8.782  -8.124  1.00  0.00     0.037 A 
BRANCH  24  38
ATOM     38  C   UNL     1       7.593   9.573  -1.970  1.00  0.00     0.064 A 
ATOM     39  C   UNL     1       8.600   9.180  -1.070  1.00  0.00     0.173 A 
ATOM     40  C   UNL     1       6.803  10.679  -1.635  1.00  0.00     0.173 A 
ATOM     41  F   UNL     1       9.355   8.101  -1.331  1.00  0.00    -0.203 F 
ATOM     42  C   UNL     1       8.738   9.808   0.163  1.00  0.00     0.198 A 
ATOM     43  C   UNL     1       6.976  11.333  -0.418  1.00  0.00     0.198 A 
ATOM     44  F   UNL     1       5.827  11.090  -2.458  1.00  0.00    -0.203 F 
ATOM     45  F   UNL     1       9.610   9.328   1.062  1.00  0.00    -0.200 F 
ATOM     46  C   UNL     1       7.923  10.880   0.490  1.00  0.00     0.200 A 
ATOM     47  F   UNL     1       6.190  12.370  -0.101  1.00  0.00    -0.200 F 
ATOM     48  F   UNL     1       8.027  11.457   1.695  1.00  0.00    -0.200 F 
ENDBRANCH  24  38
BRANCH  25  49
ATOM     49  C   UNL     1       4.713   3.399  -9.350  1.00  0.00     0.064 A 
ATOM     50  C   UNL     1       5.598   2.797 -10.256  1.00  0.00     0.173 A 
ATOM     51  C   UNL     1       3.345   3.129  -9.510  1.00  0.00     0.173 A 
ATOM     52  F   UNL     1       6.915   3.035 -10.163  1.00  0.00    -0.203 F 
ATOM     53  C   UNL     1       5.136   1.980 -11.289  1.00  0.00     0.198 A 
ATOM     54  C   UNL     1       2.885   2.294 -10.530  1.00  0.00     0.198 A 
ATOM     55  F   UNL     1       2.451   3.671  -8.671  1.00  0.00    -0.203 F 
ATOM     56  F   UNL     1       6.004   1.452 -12.163  1.00  0.00    -0.200 F 
ATOM     57  C   UNL     1       3.780   1.726 -11.423  1.00  0.00     0.200 A 
ATOM     58  F   UNL     1       1.574   2.044 -10.651  1.00  0.00    -0.200 F 
ATOM     59  F   UNL     1       3.337   0.941 -12.415  1.00  0.00    -0.200 F 
ENDBRANCH  25  49
BRANCH  37  60
ATOM     60  C   UNL     1       7.730   9.702  -9.194  1.00  0.00     0.064 A 
ATOM     61  C   UNL     1       6.858  10.500  -9.944  1.00  0.00     0.173 A 
ATOM     62  C   UNL     1       9.111   9.874  -9.373  1.00  0.00     0.173 A 
ATOM     63  F   UNL     1       5.530  10.355  -9.818  1.00  0.00    -0.203 F 
ATOM     64  C   UNL     1       7.354  11.450 -10.832  1.00  0.00     0.198 A 
ATOM     65  C   UNL     1       9.602  10.843 -10.240  1.00  0.00     0.198 A 
ATOM     66  F   UNL     1       9.981   9.130  -8.672  1.00  0.00    -0.203 F 
ATOM     67  F   UNL     1       6.506  12.199 -11.550  1.00  0.00    -0.200 F 
ATOM     68  C   UNL     1       8.723  11.632 -10.966  1.00  0.00     0.200 A 
ATOM     69  F   UNL     1      10.924  11.027 -10.355  1.00  0.00    -0.200 F 
ATOM     70  F   UNL     1       9.197  12.573 -11.794  1.00  0.00    -0.200 F 
ENDBRANCH  37  60
ENDBRANCH  11  12
ENDBRANCH   4   6
ENDBRANCH   3   4
ENDBRANCH   2   3
ENDBRANCH   1   2
BRANCH   1  71
ATOM     71  O   UNL     1       3.389  -0.824  -1.361  1.00  0.00    -0.462 OA
BRANCH  71  72
ATOM     72  C   UNL     1       2.178  -1.125  -1.930  1.00  0.00     0.312 C 
ATOM     73  O   UNL     1       1.491  -2.080  -1.619  1.00  0.00    -0.252 OA
BRANCH  72  74
ATOM     74  C   UNL     1       1.854  -0.180  -3.108  1.00  0.00     0.071 C 
ATOM     75  C   UNL     1       0.317  -0.239  -3.354  1.00  0.00     0.019 C 
ATOM     76  C   UNL     1       2.182   1.275  -2.742  1.00  0.00     0.019 C 
ATOM     77  C   UNL     1      -0.272   0.881  -4.224  1.00  0.00     0.001 C 
ATOM     78  C   UNL     1       1.649   2.339  -3.698  1.00  0.00     0.001 C 
ATOM     79  C   UNL     1       0.140   2.269  -3.756  1.00  0.00     0.000 C 
BRANCH  74  80
ATOM     80  C   UNL     1       2.682  -0.712  -4.325  1.00  0.00     0.046 C 
BRANCH  80  81
ATOM     81  C   UNL     1       4.194  -0.750  -4.136  1.00  0.00    -0.025 C 
ATOM     82  C   UNL     1       5.056  -1.681  -4.577  1.00  0.00     0.004 C 
BRANCH  82  83
ATOM     83  C   UNL     1       6.525  -1.548  -4.424  1.00  0.00    -0.026 A 
ATOM     84  C   UNL     1       7.359  -2.023  -5.444  1.00  0.00     0.008 A 
ATOM     85  C   UNL     1       7.129  -0.958  -3.303  1.00  0.00     0.008 A 
ATOM     86  C   UNL     1       8.750  -1.870  -5.368  1.00  0.00     0.001 A 
ATOM     87  C   UNL     1       8.518  -0.792  -3.230  1.00  0.00     0.001 A 
ATOM     88  C   UNL     1       9.328  -1.244  -4.267  1.00  0.00     0.000 A 
ENDBRANCH  82  83
ENDBRANCH  80  81
ENDBRANCH  74  80
ENDBRANCH  72  74
ENDBRANCH  71  72
ENDBRANCH   1  71
TORSDOF 14
