REMARK SMILES C[C@H]1CN(S(=O)(=O)N2CCO[C@H](CC(=O)OCCOC(=O)c3ccc(-c4c5nc(c(-c6c(F)c(F)c(F)c(F)c6F)c6ccc([nH]6)c(-c6c(F)c(F)c(F)c(F)c6F)c6nc(c(-c7c(F)c(F)c(F)c(F)c7F)c7ccc4[nH]7)C=C6)C=C5)cc3)C2)C[C@H](C)O1
REMARK SMILES IDX 17 1 16 2 14 3 15 4 13 5 12 6 8 7 9 8 85 9 10 10 11 11 5 12
REMARK SMILES IDX 6 13 7 14 4 15 1 16 2 17 3 18 89 19 87 20 86 21 88 22 18 23
REMARK SMILES IDX 19 24 20 25 21 26 22 27 23 28 84 29 24 30 83 31 25 32 26 33
REMARK SMILES IDX 27 34 77 35 28 36 82 37 76 38 78 39 29 40 81 41 75 42 74 43
REMARK SMILES IDX 30 45 62 46 42 47 61 48 43 49 46 50 60 51 79 52 44 53 45 54
REMARK SMILES IDX 59 56 80 57 47 58 31 59 32 60 40 61 33 62 34 63 38 64 41 65
REMARK SMILES IDX 35 66 36 67 39 68 37 69 63 70 64 71 72 72 65 73 66 74 70 75
REMARK SMILES IDX 73 76 67 77 68 78 71 79 69 80 48 81 49 82 57 83 50 84 51 85
REMARK SMILES IDX 55 86 58 87 52 88 53 89 56 90 54 91
REMARK H PARENT 78 44 46 55
REMARK Flexibility Score: inf
ROOT
ATOM      1  C   UNL     1       0.937   5.039   1.867  1.00  0.00     0.274 C 
ENDROOT
BRANCH   1   2
ATOM      2  O   UNL     1      -0.067   4.127   2.339  1.00  0.00    -0.462 OA
BRANCH   2   3
ATOM      3  C   UNL     1      -0.789   3.490   1.382  1.00  0.00     0.308 C 
ATOM      4  O   UNL     1      -0.885   3.823   0.208  1.00  0.00    -0.252 OA
BRANCH   3   5
ATOM      5  C   UNL     1      -1.494   2.303   1.962  1.00  0.00     0.156 C 
BRANCH   5   6
ATOM      6  C   UNL     1      -0.562   1.170   2.401  1.00  0.00     0.144 C 
ATOM      7  N   UNL     1      -0.376  -0.717   3.973  1.00  0.00    -0.184 NA
ATOM      8  C   UNL     1       1.010  -0.324   4.299  1.00  0.00     0.132 C 
ATOM      9  C   UNL     1      -1.223   0.408   3.558  1.00  0.00     0.136 C 
ATOM     10  C   UNL     1       1.594   0.502   3.147  1.00  0.00     0.177 C 
ATOM     11  O   UNL     1       0.741   1.616   2.813  1.00  0.00    -0.375 OA
BRANCH   7  12
ATOM     12  S   UNL     1      -0.767  -2.291   3.633  1.00  0.00     0.282 S 
ATOM     13  O   UNL     1      -2.151  -2.365   3.246  1.00  0.00    -0.195 OA
ATOM     14  O   UNL     1      -0.235  -3.087   4.720  1.00  0.00    -0.195 OA
BRANCH  12  15
ATOM     15  N   UNL     1       0.193  -2.590   2.259  1.00  0.00    -0.184 NA
ATOM     16  C   UNL     1      -0.089  -2.222  -1.545  1.00  0.00     0.040 C 
ATOM     17  C   UNL     1       0.550  -2.473  -0.187  1.00  0.00     0.130 C 
ATOM     18  C   UNL     1      -0.480  -2.321   0.945  1.00  0.00     0.135 C 
ATOM     19  O   UNL     1       1.073  -3.809  -0.221  1.00  0.00    -0.373 OA
ATOM     20  C   UNL     1       1.657  -4.224   1.022  1.00  0.00     0.130 C 
ATOM     21  C   UNL     1       0.725  -3.998   2.228  1.00  0.00     0.135 C 
ATOM     22  C   UNL     1       3.037  -3.600   1.204  1.00  0.00     0.040 C 
ENDBRANCH  12  15
ENDBRANCH   7  12
ENDBRANCH   5   6
ENDBRANCH   3   5
ENDBRANCH   2   3
ENDBRANCH   1   2
BRANCH   1  23
ATOM     23  C   UNL     1       2.187   4.272   1.429  1.00  0.00     0.275 C 
BRANCH  23  24
ATOM     24  O   UNL     1       1.918   3.568   0.202  1.00  0.00    -0.458 OA
BRANCH  24  25
ATOM     25  C   UNL     1       2.692   2.486  -0.029  1.00  0.00     0.338 C 
ATOM     26  O   UNL     1       3.597   2.060   0.669  1.00  0.00    -0.246 OA
BRANCH  25  27
ATOM     27  C   UNL     1       2.348   1.901  -1.341  1.00  0.00     0.060 A 
ATOM     28  C   UNL     1       1.040   1.535  -1.667  1.00  0.00     0.016 A 
ATOM     29  C   UNL     1       3.387   1.653  -2.242  1.00  0.00     0.016 A 
ATOM     30  C   UNL     1       0.785   0.875  -2.877  1.00  0.00     0.010 A 
ATOM     31  C   UNL     1       3.119   1.041  -3.469  1.00  0.00     0.010 A 
ATOM     32  C   UNL     1       1.821   0.608  -3.788  1.00  0.00    -0.014 A 
BRANCH  32  33
ATOM     33  C   UNL     1       1.585  -0.154  -5.052  1.00  0.00     0.031 A 
ATOM     34  C   UNL     1       2.306  -1.459  -5.299  1.00  0.00     0.074 A 
ATOM     35  C   UNL     1       0.758   0.325  -6.002  1.00  0.00     0.049 A 
ATOM     36  N   UNL     1       2.374  -2.180  -6.392  1.00  0.00    -0.248 NA
ATOM     37  C   UNL     1       3.058  -2.022  -4.167  1.00  0.00     0.031 C 
ATOM     38  C   UNL     1      -0.025   1.555  -5.900  1.00  0.00     0.029 A 
ATOM     39  N   UNL     1       0.452  -0.162  -7.252  1.00  0.00    -0.354 N 
ATOM     40  C   UNL     1       3.201  -3.257  -6.089  1.00  0.00     0.074 A 
ATOM     41  C   UNL     1       3.621  -3.090  -4.714  1.00  0.00     0.031 C 
ATOM     42  C   UNL     1      -0.729   1.722  -7.030  1.00  0.00     0.029 A 
ATOM     43  C   UNL     1      -0.394   0.652  -7.966  1.00  0.00     0.049 A 
ATOM     44  H   UNL     1       0.805  -1.012  -7.601  1.00  0.00     0.167 HD
ATOM     45  C   UNL     1       3.576  -4.291  -6.883  1.00  0.00     0.037 A 
ATOM     46  C   UNL     1      -0.823   0.574  -9.241  1.00  0.00     0.037 A 
ATOM     47  C   UNL     1       3.135  -4.482  -8.241  1.00  0.00     0.049 A 
ATOM     48  C   UNL     1      -0.358  -0.557 -10.117  1.00  0.00     0.074 A 
ATOM     49  C   UNL     1       3.438  -5.517  -9.110  1.00  0.00     0.029 A 
ATOM     50  N   UNL     1       2.292  -3.622  -8.927  1.00  0.00    -0.354 N 
ATOM     51  N   UNL     1       0.438  -1.556  -9.825  1.00  0.00    -0.248 NA
ATOM     52  C   UNL     1      -0.843  -0.564 -11.505  1.00  0.00     0.031 C 
ATOM     53  C   UNL     1       2.816  -5.260 -10.336  1.00  0.00     0.029 A 
ATOM     54  C   UNL     1       2.083  -4.091 -10.215  1.00  0.00     0.049 A 
ATOM     55  H   UNL     1       1.900  -2.799  -8.556  1.00  0.00     0.167 HD
ATOM     56  C   UNL     1       0.537  -2.316 -10.983  1.00  0.00     0.074 A 
ATOM     57  C   UNL     1      -0.295  -1.674 -11.978  1.00  0.00     0.031 C 
ATOM     58  C   UNL     1       1.256  -3.445 -11.200  1.00  0.00     0.037 A 
BRANCH  45  59
ATOM     59  C   UNL     1       4.537  -5.296  -6.315  1.00  0.00     0.064 A 
ATOM     60  C   UNL     1       4.145  -6.233  -5.347  1.00  0.00     0.173 A 
ATOM     61  C   UNL     1       5.855  -5.362  -6.794  1.00  0.00     0.173 A 
ATOM     62  F   UNL     1       2.899  -6.209  -4.851  1.00  0.00    -0.203 F 
ATOM     63  C   UNL     1       5.043  -7.183  -4.865  1.00  0.00     0.198 A 
ATOM     64  C   UNL     1       6.741  -6.331  -6.331  1.00  0.00     0.198 A 
ATOM     65  F   UNL     1       6.279  -4.496  -7.727  1.00  0.00    -0.203 F 
ATOM     66  F   UNL     1       4.657  -8.045  -3.913  1.00  0.00    -0.200 F 
ATOM     67  C   UNL     1       6.336  -7.237  -5.363  1.00  0.00     0.200 A 
ATOM     68  F   UNL     1       7.986  -6.390  -6.824  1.00  0.00    -0.200 F 
ATOM     69  F   UNL     1       7.194  -8.160  -4.907  1.00  0.00    -0.200 F 
ENDBRANCH  45  59
BRANCH  46  70
ATOM     70  C   UNL     1      -1.726   1.626  -9.777  1.00  0.00     0.064 A 
ATOM     71  C   UNL     1      -3.064   1.342 -10.083  1.00  0.00     0.173 A 
ATOM     72  C   UNL     1      -1.273   2.938  -9.984  1.00  0.00     0.173 A 
ATOM     73  F   UNL     1      -3.535   0.096  -9.931  1.00  0.00    -0.203 F 
ATOM     74  C   UNL     1      -3.913   2.329 -10.578  1.00  0.00     0.198 A 
ATOM     75  C   UNL     1      -2.131   3.931 -10.450  1.00  0.00     0.198 A 
ATOM     76  F   UNL     1       0.000   3.260  -9.712  1.00  0.00    -0.203 F 
ATOM     77  F   UNL     1      -5.178   2.023 -10.897  1.00  0.00    -0.200 F 
ATOM     78  C   UNL     1      -3.449   3.625 -10.752  1.00  0.00     0.200 A 
ATOM     79  F   UNL     1      -1.682   5.184 -10.604  1.00  0.00    -0.200 F 
ATOM     80  F   UNL     1      -4.271   4.577 -11.215  1.00  0.00    -0.200 F 
ENDBRANCH  46  70
BRANCH  58  81
ATOM     81  C   UNL     1       1.153  -4.074 -12.559  1.00  0.00     0.064 A 
ATOM     82  C   UNL     1       1.769  -3.502 -13.682  1.00  0.00     0.173 A 
ATOM     83  C   UNL     1       0.455  -5.279 -12.733  1.00  0.00     0.173 A 
ATOM     84  F   UNL     1       2.435  -2.343 -13.569  1.00  0.00    -0.203 F 
ATOM     85  C   UNL     1       1.666  -4.100 -14.935  1.00  0.00     0.198 A 
ATOM     86  C   UNL     1       0.377  -5.887 -13.983  1.00  0.00     0.198 A 
ATOM     87  F   UNL     1      -0.146  -5.870 -11.690  1.00  0.00    -0.203 F 
ATOM     88  F   UNL     1       2.222  -3.511 -16.004  1.00  0.00    -0.200 F 
ATOM     89  C   UNL     1       0.976  -5.294 -15.084  1.00  0.00     0.200 A 
ATOM     90  F   UNL     1      -0.281  -7.046 -14.123  1.00  0.00    -0.200 F 
ATOM     91  F   UNL     1       0.880  -5.868 -16.291  1.00  0.00    -0.200 F 
ENDBRANCH  58  81
ENDBRANCH  32  33
ENDBRANCH  25  27
ENDBRANCH  24  25
ENDBRANCH  23  24
ENDBRANCH   1  23
TORSDOF 14
