REMARK SMILES Cc1ccc(NC(=O)C[C@H]2SC[C@H](C(=O)OCCOC(=O)c3ccc(-c4c5nc(c(-c6c(F)c(F)c(F)c(F)c6F)c6ccc([nH]6)c(-c6c(F)c(F)c(F)c(F)c6F)c6nc(c(-c7c(F)c(F)c(F)c(F)c7F)c7ccc4[nH]7)C=C6)C=C5)cc3)NC2=O)cc1
REMARK SMILES IDX 17 1 16 2 14 3 15 4 13 5 10 6 11 7 86 8 12 9 85 10 87 11
REMARK SMILES IDX 9 13 7 14 6 15 8 17 5 18 1 19 2 20 3 21 89 22 4 23 88 24
REMARK SMILES IDX 18 25 19 26 20 27 21 28 22 29 23 30 84 31 24 32 83 33 25 34
REMARK SMILES IDX 26 35 27 36 77 37 28 38 82 39 76 40 78 41 29 42 81 43 75 44
REMARK SMILES IDX 74 45 30 47 62 48 42 49 61 50 43 51 46 52 60 53 79 54 44 55
REMARK SMILES IDX 45 56 59 58 80 59 47 60 31 61 32 62 40 63 33 64 34 65 38 66
REMARK SMILES IDX 41 67 35 68 36 69 39 70 37 71 63 72 64 73 72 74 65 75 66 76
REMARK SMILES IDX 70 77 73 78 67 79 68 80 71 81 69 82 48 83 49 84 57 85 50 86
REMARK SMILES IDX 51 87 55 88 58 89 52 90 53 91 56 92 54 93
REMARK H PARENT 85 12 6 16 78 46 46 57
REMARK Flexibility Score: inf
ROOT
ATOM      1  C   UNL     1      -8.264  -2.895  -3.101  1.00  0.00     0.274 C 
ENDROOT
BRANCH   1   2
ATOM      2  O   UNL     1      -6.922  -2.397  -3.086  1.00  0.00    -0.461 OA
BRANCH   2   3
ATOM      3  C   UNL     1      -6.107  -2.949  -2.146  1.00  0.00     0.329 C 
ATOM      4  O   UNL     1      -6.486  -3.653  -1.224  1.00  0.00    -0.250 OA
BRANCH   3   5
ATOM      5  C   UNL     1      -4.656  -2.566  -2.435  1.00  0.00     0.202 C 
ATOM      6  C   UNL     1      -1.870  -2.220  -1.322  1.00  0.00     0.145 C 
ATOM      7  S   UNL     1      -2.641  -0.729  -2.080  1.00  0.00    -0.145 SA
ATOM      8  C   UNL     1      -2.380  -3.494  -2.002  1.00  0.00     0.234 C 
ATOM      9  C   UNL     1      -4.375  -1.210  -1.810  1.00  0.00     0.107 C 
ATOM     10  N   UNL     1      -3.744  -3.644  -2.050  1.00  0.00    -0.341 N 
ATOM     11  O   UNL     1      -1.684  -4.428  -2.384  1.00  0.00    -0.274 OA
ATOM     12  H   UNL     1      -4.127  -4.520  -1.816  1.00  0.00     0.164 HD
BRANCH   6  13
ATOM     13  C   UNL     1      -0.361  -2.019  -1.191  1.00  0.00     0.124 C 
BRANCH  13  14
ATOM     14  C   UNL     1       0.547  -3.231  -1.167  1.00  0.00     0.226 C 
ATOM     15  N   UNL     1       0.360  -4.312  -0.367  1.00  0.00    -0.326 N 
ATOM     16  H   UNL     1       0.987  -5.046  -0.561  1.00  0.00     0.169 HD
ATOM     17  O   UNL     1       1.537  -3.250  -1.910  1.00  0.00    -0.275 OA
BRANCH  15  18
ATOM     18  C   UNL     1      -0.527  -4.613   0.672  1.00  0.00     0.041 A 
ATOM     19  C   UNL     1      -3.306  -5.827   3.739  1.00  0.00     0.044 C 
ATOM     20  C   UNL     1      -2.332  -5.418   2.676  1.00  0.00    -0.051 A 
ATOM     21  C   UNL     1      -2.036  -4.064   2.481  1.00  0.00     0.005 A 
ATOM     22  C   UNL     1      -1.698  -6.370   1.877  1.00  0.00     0.005 A 
ATOM     23  C   UNL     1      -1.125  -3.666   1.497  1.00  0.00     0.026 A 
ATOM     24  C   UNL     1      -0.794  -5.969   0.892  1.00  0.00     0.026 A 
ENDBRANCH  15  18
ENDBRANCH  13  14
ENDBRANCH   6  13
ENDBRANCH   3   5
ENDBRANCH   2   3
ENDBRANCH   1   2
BRANCH   1  25
ATOM     25  C   UNL     1      -8.939  -2.497  -4.423  1.00  0.00     0.275 C 
BRANCH  25  26
ATOM     26  O   UNL     1      -8.359  -2.940  -5.684  1.00  0.00    -0.458 OA
BRANCH  26  27
ATOM     27  C   UNL     1      -7.027  -3.148  -5.805  1.00  0.00     0.338 C 
ATOM     28  O   UNL     1      -6.230  -2.322  -6.239  1.00  0.00    -0.246 OA
BRANCH  27  29
ATOM     29  C   UNL     1      -6.641  -4.502  -5.341  1.00  0.00     0.060 A 
ATOM     30  C   UNL     1      -5.300  -4.797  -5.036  1.00  0.00     0.016 A 
ATOM     31  C   UNL     1      -7.650  -5.405  -5.017  1.00  0.00     0.016 A 
ATOM     32  C   UNL     1      -4.990  -5.924  -4.266  1.00  0.00     0.010 A 
ATOM     33  C   UNL     1      -7.355  -6.460  -4.187  1.00  0.00     0.010 A 
ATOM     34  C   UNL     1      -6.032  -6.719  -3.789  1.00  0.00    -0.014 A 
BRANCH  34  35
ATOM     35  C   UNL     1      -5.893  -7.943  -3.005  1.00  0.00     0.031 A 
ATOM     36  C   UNL     1      -5.704  -7.997  -1.538  1.00  0.00     0.074 A 
ATOM     37  C   UNL     1      -6.205  -9.053  -3.704  1.00  0.00     0.049 A 
ATOM     38  N   UNL     1      -5.557  -9.097  -0.876  1.00  0.00    -0.248 NA
ATOM     39  C   UNL     1      -5.617  -6.824  -0.683  1.00  0.00     0.031 C 
ATOM     40  C   UNL     1      -6.618 -10.364  -3.233  1.00  0.00     0.029 A 
ATOM     41  N   UNL     1      -6.040  -9.211  -5.088  1.00  0.00    -0.354 N 
ATOM     42  C   UNL     1      -5.571  -8.817   0.475  1.00  0.00     0.074 A 
ATOM     43  C   UNL     1      -5.534  -7.376   0.535  1.00  0.00     0.031 C 
ATOM     44  C   UNL     1      -6.402 -11.251  -4.220  1.00  0.00     0.029 A 
ATOM     45  C   UNL     1      -5.652 -10.551  -5.255  1.00  0.00     0.049 A 
ATOM     46  H   UNL     1      -6.168  -8.532  -5.790  1.00  0.00     0.167 HD
ATOM     47  C   UNL     1      -5.695  -9.858   1.355  1.00  0.00     0.037 A 
ATOM     48  C   UNL     1      -4.360 -10.828  -5.609  1.00  0.00     0.037 A 
ATOM     49  C   UNL     1      -5.568 -11.133   0.647  1.00  0.00     0.049 A 
ATOM     50  C   UNL     1      -3.624 -11.684  -4.605  1.00  0.00     0.074 A 
ATOM     51  C   UNL     1      -6.470 -12.062   0.157  1.00  0.00     0.029 A 
ATOM     52  N   UNL     1      -4.337 -11.466   0.113  1.00  0.00    -0.354 N 
ATOM     53  N   UNL     1      -3.985 -11.825  -3.361  1.00  0.00    -0.248 NA
ATOM     54  C   UNL     1      -2.376 -12.378  -4.911  1.00  0.00     0.031 C 
ATOM     55  C   UNL     1      -5.762 -12.942  -0.713  1.00  0.00     0.029 A 
ATOM     56  C   UNL     1      -4.434 -12.554  -0.730  1.00  0.00     0.049 A 
ATOM     57  H   UNL     1      -3.498 -10.989   0.309  1.00  0.00     0.167 HD
ATOM     58  C   UNL     1      -3.092 -12.635  -2.724  1.00  0.00     0.074 A 
ATOM     59  C   UNL     1      -2.076 -12.921  -3.719  1.00  0.00     0.031 C 
ATOM     60  C   UNL     1      -3.248 -13.014  -1.426  1.00  0.00     0.037 A 
BRANCH  47  61
ATOM     61  C   UNL     1      -6.056  -9.811   2.835  1.00  0.00     0.064 A 
ATOM     62  C   UNL     1      -6.425 -11.000   3.516  1.00  0.00     0.173 A 
ATOM     63  C   UNL     1      -6.120  -8.657   3.637  1.00  0.00     0.173 A 
ATOM     64  F   UNL     1      -6.388 -12.196   2.912  1.00  0.00    -0.203 F 
ATOM     65  C   UNL     1      -6.862 -11.016   4.848  1.00  0.00     0.198 A 
ATOM     66  C   UNL     1      -6.547  -8.672   4.972  1.00  0.00     0.198 A 
ATOM     67  F   UNL     1      -5.768  -7.457   3.181  1.00  0.00    -0.203 F 
ATOM     68  F   UNL     1      -7.226 -12.175   5.415  1.00  0.00    -0.200 F 
ATOM     69  C   UNL     1      -6.930  -9.849   5.575  1.00  0.00     0.200 A 
ATOM     70  F   UNL     1      -6.587  -7.524   5.665  1.00  0.00    -0.200 F 
ATOM     71  F   UNL     1      -7.355  -9.857   6.845  1.00  0.00    -0.200 F 
ENDBRANCH  47  61
BRANCH  48  72
ATOM     72  C   UNL     1      -3.708  -9.734  -6.395  1.00  0.00     0.064 A 
ATOM     73  C   UNL     1      -4.329  -9.267  -7.573  1.00  0.00     0.173 A 
ATOM     74  C   UNL     1      -2.703  -8.931  -5.839  1.00  0.00     0.173 A 
ATOM     75  F   UNL     1      -5.306  -9.986  -8.149  1.00  0.00    -0.203 F 
ATOM     76  C   UNL     1      -4.040  -8.008  -8.097  1.00  0.00     0.198 A 
ATOM     77  C   UNL     1      -2.400  -7.681  -6.381  1.00  0.00     0.198 A 
ATOM     78  F   UNL     1      -2.069  -9.310  -4.720  1.00  0.00    -0.203 F 
ATOM     79  F   UNL     1      -4.732  -7.545  -9.148  1.00  0.00    -0.200 F 
ATOM     80  C   UNL     1      -3.089  -7.207  -7.487  1.00  0.00     0.200 A 
ATOM     81  F   UNL     1      -1.485  -6.902  -5.788  1.00  0.00    -0.200 F 
ATOM     82  F   UNL     1      -2.862  -5.968  -7.944  1.00  0.00    -0.200 F 
ENDBRANCH  48  72
BRANCH  60  83
ATOM     83  C   UNL     1      -2.276 -13.894  -0.713  1.00  0.00     0.064 A 
ATOM     84  C   UNL     1      -1.818 -15.101  -1.259  1.00  0.00     0.173 A 
ATOM     85  C   UNL     1      -1.864 -13.593   0.600  1.00  0.00     0.173 A 
ATOM     86  F   UNL     1      -2.207 -15.490  -2.482  1.00  0.00    -0.203 F 
ATOM     87  C   UNL     1      -0.959 -15.937  -0.548  1.00  0.00     0.198 A 
ATOM     88  C   UNL     1      -1.049 -14.455   1.327  1.00  0.00     0.198 A 
ATOM     89  F   UNL     1      -2.226 -12.446   1.196  1.00  0.00    -0.203 F 
ATOM     90  F   UNL     1      -0.496 -17.057  -1.122  1.00  0.00    -0.200 F 
ATOM     91  C   UNL     1      -0.585 -15.621   0.748  1.00  0.00     0.200 A 
ATOM     92  F   UNL     1      -0.712 -14.147   2.587  1.00  0.00    -0.200 F 
ATOM     93  F   UNL     1       0.224 -16.437   1.436  1.00  0.00    -0.200 F 
ENDBRANCH  60  83
ENDBRANCH  34  35
ENDBRANCH  27  29
ENDBRANCH  26  27
ENDBRANCH  25  26
ENDBRANCH   1  25
TORSDOF 14
