REMARK SMILES CC(C)Cc1cc2c(cc1Cl)C=C(C(=O)OCCOC(=O)c1ccc(-c3c4nc(c(-c5c(F)c(F)c(F)c(F)c5F)c5ccc([nH]5)c(-c5c(F)c(F)c(F)c(F)c5F)c5nc(c(-c6c(F)c(F)c(F)c(F)c6F)c6ccc3[nH]6)C=C5)C=C4)cc1)[C@@H](C(F)(F)F)O2
REMARK SMILES IDX 17 1 16 2 14 3 15 4 13 5 5 6 6 7 10 8 7 9 9 10 11 11 8 12
REMARK SMILES IDX 90 13 12 14 85 15 4 16 2 17 1 18 3 19 86 20 87 21 88 22
REMARK SMILES IDX 89 23 18 24 19 25 20 26 21 27 22 28 23 29 84 30 24 31 83 32
REMARK SMILES IDX 25 33 26 34 27 35 77 36 28 37 82 38 76 39 78 40 29 41 81 42
REMARK SMILES IDX 75 43 74 44 30 46 62 47 42 48 61 49 43 50 46 51 60 52 79 53
REMARK SMILES IDX 44 54 45 55 59 57 80 58 47 59 31 60 32 61 40 62 33 63 34 64
REMARK SMILES IDX 38 65 41 66 35 67 36 68 39 69 37 70 63 71 64 72 72 73 65 74
REMARK SMILES IDX 66 75 70 76 73 77 67 78 68 79 71 80 69 81 48 82 49 83 57 84
REMARK SMILES IDX 50 85 51 86 55 87 58 88 52 89 53 90 56 91 54 92
REMARK H PARENT 78 45 46 56
REMARK Flexibility Score: inf
ROOT
ATOM      1  C   UNL     1      -2.209  -6.676   6.087  1.00  0.00     0.275 C 
ENDROOT
BRANCH   1   2
ATOM      2  O   UNL     1      -1.827  -5.694   5.096  1.00  0.00    -0.459 OA
BRANCH   2   3
ATOM      3  C   UNL     1      -2.791  -4.816   4.740  1.00  0.00     0.338 C 
ATOM      4  O   UNL     1      -3.927  -4.756   5.185  1.00  0.00    -0.246 OA
BRANCH   3   5
ATOM      5  C   UNL     1      -2.280  -3.867   3.733  1.00  0.00     0.087 C 
ATOM      6  C   UNL     1      -1.304   0.230   0.983  1.00  0.00    -0.025 A 
ATOM      7  C   UNL     1      -1.198  -1.159   0.764  1.00  0.00     0.052 A 
ATOM      8  C   UNL     1      -1.802   0.680   2.213  1.00  0.00     0.045 A 
ATOM      9  C   UNL     1      -1.538  -2.074   1.755  1.00  0.00     0.128 A 
ATOM     10  C   UNL     1      -2.187  -0.237   3.191  1.00  0.00     0.032 A 
ATOM     11  Cl  UNL     1      -1.961   2.357   2.590  1.00  0.00    -0.084 Cl
ATOM     12  C   UNL     1      -2.050  -1.611   2.959  1.00  0.00     0.019 A 
ATOM     13  O   UNL     1      -1.318  -3.391   1.476  1.00  0.00    -0.475 OA
ATOM     14  C   UNL     1      -2.463  -2.563   3.964  1.00  0.00     0.027 C 
ATOM     15  C   UNL     1      -1.694  -4.401   2.456  1.00  0.00     0.316 C 
BRANCH   6  16
ATOM     16  C   UNL     1      -0.807   1.165  -0.095  1.00  0.00     0.040 C 
BRANCH  16  17
ATOM     17  C   UNL     1       0.705   1.456   0.016  1.00  0.00    -0.013 C 
ATOM     18  C   UNL     1       1.563   0.210  -0.231  1.00  0.00     0.008 C 
ATOM     19  C   UNL     1       1.093   2.546  -0.983  1.00  0.00     0.008 C 
ENDBRANCH  16  17
ENDBRANCH   6  16
BRANCH  15  20
ATOM     20  C   UNL     1      -2.649  -5.388   1.767  1.00  0.00     0.430 C 
ATOM     21  F   UNL     1      -2.127  -5.851   0.607  1.00  0.00    -0.167 F 
ATOM     22  F   UNL     1      -2.893  -6.473   2.541  1.00  0.00    -0.167 F 
ATOM     23  F   UNL     1      -3.842  -4.820   1.478  1.00  0.00    -0.167 F 
ENDBRANCH  15  20
ENDBRANCH   3   5
ENDBRANCH   2   3
ENDBRANCH   1   2
BRANCH   1  24
ATOM     24  C   UNL     1      -1.637  -6.341   7.465  1.00  0.00     0.275 C 
BRANCH  24  25
ATOM     25  O   UNL     1      -2.258  -5.153   7.990  1.00  0.00    -0.458 OA
BRANCH  25  26
ATOM     26  C   UNL     1      -1.471  -4.056   8.025  1.00  0.00     0.338 C 
ATOM     27  O   UNL     1      -0.299  -3.965   7.701  1.00  0.00    -0.246 OA
BRANCH  26  28
ATOM     28  C   UNL     1      -2.268  -2.886   8.421  1.00  0.00     0.060 A 
ATOM     29  C   UNL     1      -2.042  -2.218   9.616  1.00  0.00     0.016 A 
ATOM     30  C   UNL     1      -3.127  -2.341   7.476  1.00  0.00     0.016 A 
ATOM     31  C   UNL     1      -2.693  -0.999   9.846  1.00  0.00     0.010 A 
ATOM     32  C   UNL     1      -3.630  -1.055   7.631  1.00  0.00     0.010 A 
ATOM     33  C   UNL     1      -3.455  -0.371   8.836  1.00  0.00    -0.014 A 
BRANCH  33  34
ATOM     34  C   UNL     1      -4.055   0.983   9.037  1.00  0.00     0.031 A 
ATOM     35  C   UNL     1      -5.529   1.237   8.808  1.00  0.00     0.074 A 
ATOM     36  C   UNL     1      -3.261   2.012   9.401  1.00  0.00     0.049 A 
ATOM     37  N   UNL     1      -6.215   2.339   8.998  1.00  0.00    -0.248 NA
ATOM     38  C   UNL     1      -6.333   0.137   8.250  1.00  0.00     0.031 C 
ATOM     39  C   UNL     1      -1.803   1.950   9.528  1.00  0.00     0.029 A 
ATOM     40  N   UNL     1      -3.565   3.304   9.758  1.00  0.00    -0.354 N 
ATOM     41  C   UNL     1      -7.507   2.064   8.564  1.00  0.00     0.074 A 
ATOM     42  C   UNL     1      -7.494   0.729   8.018  1.00  0.00     0.031 C 
ATOM     43  C   UNL     1      -1.354   3.110  10.031  1.00  0.00     0.029 A 
ATOM     44  C   UNL     1      -2.483   4.013  10.224  1.00  0.00     0.049 A 
ATOM     45  H   UNL     1      -4.470   3.684   9.688  1.00  0.00     0.167 HD
ATOM     46  C   UNL     1      -8.621   2.829   8.662  1.00  0.00     0.037 A 
ATOM     47  C   UNL     1      -2.410   5.240  10.778  1.00  0.00     0.037 A 
ATOM     48  C   UNL     1      -8.652   4.131   9.269  1.00  0.00     0.049 A 
ATOM     49  C   UNL     1      -3.669   6.045  10.949  1.00  0.00     0.074 A 
ATOM     50  C   UNL     1      -9.744   4.950   9.498  1.00  0.00     0.029 A 
ATOM     51  N   UNL     1      -7.539   4.798   9.758  1.00  0.00    -0.354 N 
ATOM     52  N   UNL     1      -4.899   5.729  10.629  1.00  0.00    -0.248 NA
ATOM     53  C   UNL     1      -3.531   7.373  11.564  1.00  0.00     0.031 C 
ATOM     54  C   UNL     1      -9.287   6.127  10.098  1.00  0.00     0.029 A 
ATOM     55  C   UNL     1      -7.918   6.022  10.281  1.00  0.00     0.049 A 
ATOM     56  H   UNL     1      -6.618   4.452   9.736  1.00  0.00     0.167 HD
ATOM     57  C   UNL     1      -5.684   6.804  11.021  1.00  0.00     0.074 A 
ATOM     58  C   UNL     1      -4.793   7.777  11.618  1.00  0.00     0.031 C 
ATOM     59  C   UNL     1      -7.022   6.971  10.890  1.00  0.00     0.037 A 
BRANCH  46  60
ATOM     60  C   UNL     1      -9.916   2.256   8.155  1.00  0.00     0.064 A 
ATOM     61  C   UNL     1     -10.541   1.180   8.805  1.00  0.00     0.173 A 
ATOM     62  C   UNL     1     -10.573   2.825   7.054  1.00  0.00     0.173 A 
ATOM     63  F   UNL     1      -9.954   0.596   9.861  1.00  0.00    -0.203 F 
ATOM     64  C   UNL     1     -11.759   0.677   8.356  1.00  0.00     0.198 A 
ATOM     65  C   UNL     1     -11.809   2.341   6.627  1.00  0.00     0.198 A 
ATOM     66  F   UNL     1     -10.029   3.864   6.402  1.00  0.00    -0.203 F 
ATOM     67  F   UNL     1     -12.312  -0.379   8.967  1.00  0.00    -0.200 F 
ATOM     68  C   UNL     1     -12.396   1.264   7.274  1.00  0.00     0.200 A 
ATOM     69  F   UNL     1     -12.433   2.920   5.593  1.00  0.00    -0.200 F 
ATOM     70  F   UNL     1     -13.577   0.790   6.853  1.00  0.00    -0.200 F 
ENDBRANCH  46  60
BRANCH  47  71
ATOM     71  C   UNL     1      -1.107   5.732  11.298  1.00  0.00     0.064 A 
ATOM     72  C   UNL     1      -0.879   5.818  12.679  1.00  0.00     0.173 A 
ATOM     73  C   UNL     1      -0.054   6.081  10.440  1.00  0.00     0.173 A 
ATOM     74  F   UNL     1      -1.860   5.511  13.540  1.00  0.00    -0.203 F 
ATOM     75  C   UNL     1       0.350   6.239  13.182  1.00  0.00     0.198 A 
ATOM     76  C   UNL     1       1.183   6.477  10.945  1.00  0.00     0.198 A 
ATOM     77  F   UNL     1      -0.219   6.007   9.111  1.00  0.00    -0.203 F 
ATOM     78  F   UNL     1       0.532   6.337  14.506  1.00  0.00    -0.200 F 
ATOM     79  C   UNL     1       1.384   6.559  12.315  1.00  0.00     0.200 A 
ATOM     80  F   UNL     1       2.185   6.768  10.104  1.00  0.00    -0.200 F 
ATOM     81  F   UNL     1       2.571   6.947  12.799  1.00  0.00    -0.200 F 
ENDBRANCH  47  71
BRANCH  59  82
ATOM     82  C   UNL     1      -7.626   8.237  11.418  1.00  0.00     0.064 A 
ATOM     83  C   UNL     1      -7.475   9.454  10.740  1.00  0.00     0.173 A 
ATOM     84  C   UNL     1      -8.451   8.209  12.552  1.00  0.00     0.173 A 
ATOM     85  F   UNL     1      -6.688   9.531   9.657  1.00  0.00    -0.203 F 
ATOM     86  C   UNL     1      -8.126  10.602  11.183  1.00  0.00     0.198 A 
ATOM     87  C   UNL     1      -9.121   9.352  12.977  1.00  0.00     0.198 A 
ATOM     88  F   UNL     1      -8.634   7.064  13.227  1.00  0.00    -0.203 F 
ATOM     89  F   UNL     1      -7.953  11.761  10.534  1.00  0.00    -0.200 F 
ATOM     90  C   UNL     1      -8.957  10.547  12.293  1.00  0.00     0.200 A 
ATOM     91  F   UNL     1      -9.936   9.293  14.039  1.00  0.00    -0.200 F 
ATOM     92  F   UNL     1      -9.603  11.648  12.703  1.00  0.00    -0.200 F 
ENDBRANCH  59  82
ENDBRANCH  33  34
ENDBRANCH  26  28
ENDBRANCH  25  26
ENDBRANCH  24  25
ENDBRANCH   1  24
TORSDOF 14
