REMARK SMILES O=C(OCCOC(=O)[C@@H]1CC2(CC[NH2+]CC2)C[N@@H+]1Cc1cccc2nonc12)c1ccc(-c2c3nc(c(-c4c(F)c(F)c(F)c(F)c4F)c4ccc([nH]4)c(-c4c(F)c(F)c(F)c(F)c4F)c4nc(c(-c5c(F)c(F)c(F)c(F)c5F)c5ccc2[nH]5)C=C4)C=C3)cc1
REMARK SMILES IDX 4 1 3 2 2 3 1 4 29 5 30 6 91 7 31 8 90 9 32 10 33 11 34 12
REMARK SMILES IDX 84 13 35 14 89 15 83 16 85 17 36 18 88 19 82 20 81 21 37 23
REMARK SMILES IDX 69 24 49 25 68 26 50 27 53 28 67 29 86 30 51 31 52 32 66 34
REMARK SMILES IDX 87 35 54 36 38 37 39 38 47 39 40 40 41 41 45 42 48 43 42 44
REMARK SMILES IDX 43 45 46 46 44 47 70 48 71 49 79 50 72 51 73 52 77 53 80 54
REMARK SMILES IDX 74 55 75 56 78 57 76 58 55 59 56 60 64 61 57 62 58 63 62 64
REMARK SMILES IDX 65 65 59 66 60 67 63 68 61 69 5 70 6 71 7 72 8 73 9 74 10 75
REMARK SMILES IDX 18 76 11 77 17 78 12 80 16 81 13 82 15 83 14 84 19 87 20 88
REMARK SMILES IDX 21 89 28 90 22 91 24 92 27 93 23 94 25 95 26 96
REMARK H PARENT 85 22 53 33 18 79 14 85 14 86
REMARK Flexibility Score: inf
ROOT
ATOM      1  C   UNL     1       5.434  -1.790  -1.152  1.00  0.00     0.275 C 
ENDROOT
BRANCH   1   2
ATOM      2  O   UNL     1       5.766  -0.548  -0.541  1.00  0.00    -0.458 OA
BRANCH   2   3
ATOM      3  C   UNL     1       4.634   0.045  -0.213  1.00  0.00     0.338 C 
ATOM      4  O   UNL     1       3.715  -0.482   0.383  1.00  0.00    -0.246 OA
BRANCH   3   5
ATOM      5  C   UNL     1       4.459   1.187  -1.111  1.00  0.00     0.060 A 
ATOM      6  C   UNL     1       2.967   1.808  -0.955  1.00  0.00     0.016 A 
ATOM      7  C   UNL     1       5.354   1.734  -2.338  1.00  0.00     0.016 A 
ATOM      8  C   UNL     1       2.159   3.135  -2.239  1.00  0.00     0.010 A 
ATOM      9  C   UNL     1       4.796   2.912  -3.461  1.00  0.00     0.010 A 
ATOM     10  C   UNL     1       3.216   3.649  -3.537  1.00  0.00    -0.014 A 
BRANCH  10  11
ATOM     11  C   UNL     1       2.775   4.447  -4.750  1.00  0.00     0.031 A 
ATOM     12  C   UNL     1       4.031   4.778  -5.543  1.00  0.00     0.074 A 
ATOM     13  C   UNL     1       1.678   4.184  -5.524  1.00  0.00     0.049 A 
ATOM     14  N   UNL     1       4.688   3.893  -6.242  1.00  0.00    -0.248 NA
ATOM     15  C   UNL     1       4.853   5.934  -5.174  1.00  0.00     0.031 C 
ATOM     16  C   UNL     1       1.241   2.876  -6.038  1.00  0.00     0.029 A 
ATOM     17  N   UNL     1       0.899   5.109  -6.259  1.00  0.00    -0.354 N 
ATOM     18  C   UNL     1       6.035   4.262  -6.226  1.00  0.00     0.074 A 
ATOM     19  C   UNL     1       6.080   5.542  -5.559  1.00  0.00     0.031 C 
ATOM     20  C   UNL     1       0.433   3.058  -7.103  1.00  0.00     0.029 A 
ATOM     21  C   UNL     1       0.245   4.486  -7.351  1.00  0.00     0.049 A 
ATOM     22  H   UNL     1       0.821   6.065  -6.039  1.00  0.00     0.167 HD
ATOM     23  C   UNL     1       7.027   3.441  -6.694  1.00  0.00     0.037 A 
ATOM     24  C   UNL     1       0.146   5.067  -8.591  1.00  0.00     0.037 A 
ATOM     25  C   UNL     1       6.560   2.287  -7.416  1.00  0.00     0.049 A 
ATOM     26  C   UNL     1       1.424   4.592  -9.229  1.00  0.00     0.074 A 
ATOM     27  C   UNL     1       6.695   0.922  -7.532  1.00  0.00     0.029 A 
ATOM     28  N   UNL     1       5.744   2.624  -8.461  1.00  0.00    -0.354 N 
ATOM     29  N   UNL     1       1.677   3.392  -9.681  1.00  0.00    -0.248 NA
ATOM     30  C   UNL     1       2.604   5.404  -8.963  1.00  0.00     0.031 C 
ATOM     31  C   UNL     1       5.604   0.495  -8.382  1.00  0.00     0.029 A 
ATOM     32  C   UNL     1       4.886   1.625  -8.775  1.00  0.00     0.049 A 
ATOM     33  H   UNL     1       5.777   3.490  -8.928  1.00  0.00     0.167 HD
ATOM     34  C   UNL     1       3.045   3.188  -9.443  1.00  0.00     0.074 A 
ATOM     35  C   UNL     1       3.560   4.497  -9.084  1.00  0.00     0.031 C 
ATOM     36  C   UNL     1       3.601   1.934  -9.374  1.00  0.00     0.037 A 
BRANCH  23  37
ATOM     37  C   UNL     1       8.421   3.898  -6.886  1.00  0.00     0.064 A 
ATOM     38  C   UNL     1       8.687   4.551  -8.100  1.00  0.00     0.173 A 
ATOM     39  C   UNL     1       9.503   3.582  -6.060  1.00  0.00     0.173 A 
ATOM     40  F   UNL     1       7.671   4.858  -8.924  1.00  0.00    -0.203 F 
ATOM     41  C   UNL     1       9.982   4.853  -8.495  1.00  0.00     0.198 A 
ATOM     42  C   UNL     1      10.809   3.903  -6.452  1.00  0.00     0.198 A 
ATOM     43  F   UNL     1       9.312   2.938  -4.898  1.00  0.00    -0.203 F 
ATOM     44  F   UNL     1      10.193   5.438  -9.681  1.00  0.00    -0.200 F 
ATOM     45  C   UNL     1      11.045   4.526  -7.672  1.00  0.00     0.200 A 
ATOM     46  F   UNL     1      11.846   3.590  -5.662  1.00  0.00    -0.200 F 
ATOM     47  F   UNL     1      12.297   4.804  -8.061  1.00  0.00    -0.200 F 
ENDBRANCH  23  37
BRANCH  24  48
ATOM     48  C   UNL     1      -0.332   6.493  -8.614  1.00  0.00     0.064 A 
ATOM     49  C   UNL     1      -1.525   6.776  -7.921  1.00  0.00     0.173 A 
ATOM     50  C   UNL     1       0.326   7.601  -9.173  1.00  0.00     0.173 A 
ATOM     51  F   UNL     1      -2.310   5.771  -7.504  1.00  0.00    -0.203 F 
ATOM     52  C   UNL     1      -1.900   8.078  -7.598  1.00  0.00     0.198 A 
ATOM     53  C   UNL     1      -0.035   8.909  -8.832  1.00  0.00     0.198 A 
ATOM     54  F   UNL     1       1.344   7.452 -10.030  1.00  0.00    -0.203 F 
ATOM     55  F   UNL     1      -2.983   8.289  -6.838  1.00  0.00    -0.200 F 
ATOM     56  C   UNL     1      -1.121   9.144  -8.006  1.00  0.00     0.200 A 
ATOM     57  F   UNL     1       0.704   9.940  -9.266  1.00  0.00    -0.200 F 
ATOM     58  F   UNL     1      -1.410  10.388  -7.602  1.00  0.00    -0.200 F 
ENDBRANCH  24  48
BRANCH  36  59
ATOM     59  C   UNL     1       2.737   0.821  -9.868  1.00  0.00     0.064 A 
ATOM     60  C   UNL     1       2.287   0.839 -11.197  1.00  0.00     0.173 A 
ATOM     61  C   UNL     1       2.414  -0.298  -9.083  1.00  0.00     0.173 A 
ATOM     62  F   UNL     1       2.607   1.861 -12.007  1.00  0.00    -0.203 F 
ATOM     63  C   UNL     1       1.539  -0.208 -11.718  1.00  0.00     0.198 A 
ATOM     64  C   UNL     1       1.707  -1.369  -9.626  1.00  0.00     0.198 A 
ATOM     65  F   UNL     1       2.799  -0.375  -7.799  1.00  0.00    -0.203 F 
ATOM     66  F   UNL     1       1.111  -0.154 -12.986  1.00  0.00    -0.200 F 
ATOM     67  C   UNL     1       1.266  -1.320 -10.939  1.00  0.00     0.200 A 
ATOM     68  F   UNL     1       1.475  -2.462  -8.884  1.00  0.00    -0.200 F 
ATOM     69  F   UNL     1       0.595  -2.355 -11.462  1.00  0.00    -0.200 F 
ENDBRANCH  36  59
ENDBRANCH  10  11
ENDBRANCH   3   5
ENDBRANCH   2   3
ENDBRANCH   1   2
BRANCH   1  70
ATOM     70  C   UNL     1       4.235  -1.820  -2.210  1.00  0.00     0.274 C 
BRANCH  70  71
ATOM     71  O   UNL     1       3.180  -0.769  -2.109  1.00  0.00    -0.458 OA
BRANCH  71  72
ATOM     72  C   UNL     1       1.825  -0.581  -1.947  1.00  0.00     0.365 C 
ATOM     73  O   UNL     1       1.028  -1.504  -1.929  1.00  0.00    -0.245 OA
BRANCH  72  74
ATOM     74  C   UNL     1       1.446   1.017  -2.049  1.00  0.00     0.296 C 
ATOM     75  C   UNL     1       3.155   1.709  -2.774  1.00  0.00     0.091 C 
ATOM     76  N   UNL     1       0.876   2.149  -0.647  1.00  0.00    -0.319 N 
ATOM     77  C   UNL     1       3.811   3.370  -1.400  1.00  0.00     0.036 C 
ATOM     78  C   UNL     1       2.156   3.479  -0.193  1.00  0.00     0.270 C 
ATOM     79  H   UNL     1       0.084   2.629  -1.074  1.00  0.00     0.349 HD
ATOM     80  C   UNL     1       4.058   5.047  -1.604  1.00  0.00     0.074 C 
ATOM     81  C   UNL     1       5.098   3.339  -0.179  1.00  0.00     0.074 C 
ATOM     82  C   UNL     1       5.503   5.524  -1.913  1.00  0.00     0.261 C 
ATOM     83  C   UNL     1       6.505   3.728  -0.692  1.00  0.00     0.261 C 
ATOM     84  N   UNL     1       6.553   5.148  -0.973  1.00  0.00    -0.346 N 
ATOM     85  H   UNL     1       6.425   5.666  -0.104  1.00  0.00     0.346 HD
ATOM     86  H   UNL     1       7.459   5.370  -1.387  1.00  0.00     0.346 HD
BRANCH  76  87
ATOM     87  C   UNL     1       0.220   1.511   0.538  1.00  0.00     0.302 C 
BRANCH  87  88
ATOM     88  C   UNL     1       0.979   0.521   1.406  1.00  0.00     0.038 A 
ATOM     89  C   UNL     1       2.000   0.888   2.339  1.00  0.00     0.012 A 
ATOM     90  C   UNL     1       0.828  -0.887   1.321  1.00  0.00     0.144 A 
ATOM     91  C   UNL     1       2.875  -0.039   2.991  1.00  0.00     0.003 A 
ATOM     92  C   UNL     1       1.726  -1.837   1.982  1.00  0.00     0.135 A 
ATOM     93  N   UNL     1      -0.086  -1.597   0.648  1.00  0.00    -0.049 NA
ATOM     94  C   UNL     1       2.783  -1.433   2.818  1.00  0.00     0.034 A 
ATOM     95  N   UNL     1       1.389  -3.075   1.599  1.00  0.00    -0.050 NA
ATOM     96  O   UNL     1       0.304  -2.920   0.752  1.00  0.00    -0.243 OA
ENDBRANCH  87  88
ENDBRANCH  76  87
ENDBRANCH  72  74
ENDBRANCH  71  72
ENDBRANCH  70  71
ENDBRANCH   1  70
TORSDOF 13
