REMARK SMILES CCCC[C@H](C(=O)OCCOC(=O)c1ccc(-c2c3nc(c(-c4c(F)c(F)c(F)c(F)c4F)c4ccc([nH]4)c(-c4c(F)c(F)c(F)c(F)c4F)c4nc(c(-c5c(F)c(F)c(F)c(F)c5F)c5ccc2[nH]5)C=C4)C=C3)cc1)[C@H](O)c1ccc(C(F)(F)F)cc1
REMARK SMILES IDX 9 1 8 2 6 3 7 4 5 5 4 6 3 7 2 8 1 9 77 10 79 11 80 12 88 13
REMARK SMILES IDX 81 14 87 15 82 16 83 17 84 18 85 19 86 20 78 21 10 23 11 24
REMARK SMILES IDX 12 25 13 26 14 27 15 28 76 29 16 30 75 31 17 32 18 33 19 34
REMARK SMILES IDX 69 35 20 36 74 37 68 38 70 39 21 40 73 41 67 42 66 43 22 45
REMARK SMILES IDX 54 46 34 47 53 48 35 49 38 50 52 51 71 52 36 53 37 54 51 56
REMARK SMILES IDX 72 57 39 58 23 59 24 60 32 61 25 62 26 63 30 64 33 65 27 66
REMARK SMILES IDX 28 67 31 68 29 69 55 70 56 71 64 72 57 73 58 74 62 75 65 76
REMARK SMILES IDX 59 77 60 78 63 79 61 80 40 81 41 82 49 83 42 84 43 85 47 86
REMARK SMILES IDX 50 87 44 88 45 89 48 90 46 91
REMARK H PARENT 78 22 70 44 38 55
REMARK Flexibility Score: inf
ROOT
ATOM      1  C   UNL     1      -3.303   5.542   1.833  1.00  0.00     0.274 C 
ENDROOT
BRANCH   1   2
ATOM      2  O   UNL     1      -2.692   4.247   1.634  1.00  0.00    -0.462 OA
BRANCH   2   3
ATOM      3  C   UNL     1      -1.539   4.038   2.314  1.00  0.00     0.312 C 
ATOM      4  O   UNL     1      -0.955   4.933   2.915  1.00  0.00    -0.252 OA
BRANCH   3   5
ATOM      5  C   UNL     1      -1.007   2.612   2.165  1.00  0.00     0.132 C 
BRANCH   5   6
ATOM      6  C   UNL     1       0.468   2.643   2.734  1.00  0.00     0.018 C 
BRANCH   6   7
ATOM      7  C   UNL     1       1.520   1.789   2.028  1.00  0.00     0.001 C 
BRANCH   7   8
ATOM      8  C   UNL     1       1.795   2.172   0.575  1.00  0.00    -0.003 C 
ATOM      9  C   UNL     1       2.060   3.657   0.370  1.00  0.00     0.004 C 
ENDBRANCH   7   8
ENDBRANCH   6   7
ENDBRANCH   5   6
BRANCH   5  10
ATOM     10  C   UNL     1      -1.767   1.469   2.902  1.00  0.00     0.158 C 
BRANCH  10  11
ATOM     11  C   UNL     1      -3.250   1.126   2.914  1.00  0.00    -0.019 A 
ATOM     12  C   UNL     1      -4.282   1.820   2.289  1.00  0.00     0.007 A 
ATOM     13  C   UNL     1      -3.627   0.015   3.707  1.00  0.00     0.007 A 
ATOM     14  C   UNL     1      -5.629   1.520   2.557  1.00  0.00     0.013 A 
ATOM     15  C   UNL     1      -4.964  -0.323   3.938  1.00  0.00     0.013 A 
ATOM     16  C   UNL     1      -5.985   0.459   3.399  1.00  0.00     0.056 A 
BRANCH  16  17
ATOM     17  C   UNL     1      -7.423   0.197   3.773  1.00  0.00     0.416 C 
ATOM     18  F   UNL     1      -7.739   0.693   5.001  1.00  0.00    -0.166 F 
ATOM     19  F   UNL     1      -8.319   0.746   2.905  1.00  0.00    -0.166 F 
ATOM     20  F   UNL     1      -7.723  -1.132   3.823  1.00  0.00    -0.166 F 
ENDBRANCH  16  17
ENDBRANCH  10  11
BRANCH  10  21
ATOM     21  O   UNL     1      -1.106   0.249   2.503  1.00  0.00    -0.388 OA
ATOM     22  H   UNL     1      -1.300   0.067   1.570  1.00  0.00     0.211 HD
ENDBRANCH  10  21
ENDBRANCH   5  10
ENDBRANCH   3   5
ENDBRANCH   2   3
ENDBRANCH   1   2
BRANCH   1  23
ATOM     23  C   UNL     1      -4.160   5.553   3.104  1.00  0.00     0.275 C 
BRANCH  23  24
ATOM     24  O   UNL     1      -3.335   5.286   4.254  1.00  0.00    -0.458 OA
BRANCH  24  25
ATOM     25  C   UNL     1      -3.865   4.492   5.212  1.00  0.00     0.338 C 
ATOM     26  O   UNL     1      -5.000   4.051   5.253  1.00  0.00    -0.246 OA
BRANCH  25  27
ATOM     27  C   UNL     1      -2.857   4.252   6.270  1.00  0.00     0.060 A 
ATOM     28  C   UNL     1      -1.551   3.872   5.955  1.00  0.00     0.016 A 
ATOM     29  C   UNL     1      -3.235   4.366   7.608  1.00  0.00     0.016 A 
ATOM     30  C   UNL     1      -0.627   3.594   6.960  1.00  0.00     0.010 A 
ATOM     31  C   UNL     1      -2.291   4.150   8.620  1.00  0.00     0.010 A 
ATOM     32  C   UNL     1      -0.979   3.760   8.304  1.00  0.00    -0.014 A 
BRANCH  32  33
ATOM     33  C   UNL     1       0.040   3.564   9.366  1.00  0.00     0.031 A 
ATOM     34  C   UNL     1      -0.086   2.440  10.352  1.00  0.00     0.074 A 
ATOM     35  C   UNL     1       1.087   4.410   9.437  1.00  0.00     0.049 A 
ATOM     36  N   UNL     1       0.650   2.175  11.403  1.00  0.00    -0.248 NA
ATOM     37  C   UNL     1      -1.188   1.491  10.135  1.00  0.00     0.031 C 
ATOM     38  C   UNL     1       1.329   5.528   8.524  1.00  0.00     0.029 A 
ATOM     39  N   UNL     1       2.144   4.459  10.310  1.00  0.00    -0.354 N 
ATOM     40  C   UNL     1       0.081   1.054  11.992  1.00  0.00     0.074 A 
ATOM     41  C   UNL     1      -1.063   0.688  11.183  1.00  0.00     0.031 C 
ATOM     42  C   UNL     1       2.476   6.133   8.865  1.00  0.00     0.029 A 
ATOM     43  C   UNL     1       3.018   5.487  10.056  1.00  0.00     0.049 A 
ATOM     44  H   UNL     1       2.265   3.818  11.048  1.00  0.00     0.167 HD
ATOM     45  C   UNL     1       0.478   0.398  13.109  1.00  0.00     0.037 A 
ATOM     46  C   UNL     1       4.120   5.883  10.720  1.00  0.00     0.037 A 
ATOM     47  C   UNL     1       1.633   0.752  13.894  1.00  0.00     0.049 A 
ATOM     48  C   UNL     1       4.534   5.139  11.956  1.00  0.00     0.074 A 
ATOM     49  C   UNL     1       2.123   0.141  15.037  1.00  0.00     0.029 A 
ATOM     50  N   UNL     1       2.485   1.810  13.613  1.00  0.00    -0.354 N 
ATOM     51  N   UNL     1       3.971   4.099  12.521  1.00  0.00    -0.248 NA
ATOM     52  C   UNL     1       5.728   5.632  12.655  1.00  0.00     0.031 C 
ATOM     53  C   UNL     1       3.252   0.850  15.464  1.00  0.00     0.029 A 
ATOM     54  C   UNL     1       3.489   1.878  14.567  1.00  0.00     0.049 A 
ATOM     55  H   UNL     1       2.390   2.423  12.848  1.00  0.00     0.167 HD
ATOM     56  C   UNL     1       4.738   3.812  13.640  1.00  0.00     0.074 A 
ATOM     57  C   UNL     1       5.826   4.770  13.658  1.00  0.00     0.031 C 
ATOM     58  C   UNL     1       4.553   2.849  14.575  1.00  0.00     0.037 A 
BRANCH  45  59
ATOM     59  C   UNL     1      -0.362  -0.756  13.572  1.00  0.00     0.064 A 
ATOM     60  C   UNL     1      -0.348  -1.993  12.912  1.00  0.00     0.173 A 
ATOM     61  C   UNL     1      -1.160  -0.633  14.720  1.00  0.00     0.173 A 
ATOM     62  F   UNL     1       0.386  -2.158  11.802  1.00  0.00    -0.203 F 
ATOM     63  C   UNL     1      -1.115  -3.060  13.376  1.00  0.00     0.198 A 
ATOM     64  C   UNL     1      -1.907  -1.708  15.194  1.00  0.00     0.198 A 
ATOM     65  F   UNL     1      -1.205   0.529  15.390  1.00  0.00    -0.203 F 
ATOM     66  F   UNL     1      -1.114  -4.223  12.710  1.00  0.00    -0.200 F 
ATOM     67  C   UNL     1      -1.888  -2.919  14.519  1.00  0.00     0.200 A 
ATOM     68  F   UNL     1      -2.645  -1.572  16.305  1.00  0.00    -0.200 F 
ATOM     69  F   UNL     1      -2.619  -3.949  14.968  1.00  0.00    -0.200 F 
ENDBRANCH  45  59
BRANCH  46  70
ATOM     70  C   UNL     1       4.893   7.051  10.228  1.00  0.00     0.064 A 
ATOM     71  C   UNL     1       6.159   6.885   9.652  1.00  0.00     0.173 A 
ATOM     72  C   UNL     1       4.369   8.351  10.292  1.00  0.00     0.173 A 
ATOM     73  F   UNL     1       6.713   5.665   9.592  1.00  0.00    -0.203 F 
ATOM     74  C   UNL     1       6.873   7.976   9.160  1.00  0.00     0.198 A 
ATOM     75  C   UNL     1       5.071   9.437   9.775  1.00  0.00     0.198 A 
ATOM     76  F   UNL     1       3.160   8.562  10.835  1.00  0.00    -0.203 F 
ATOM     77  F   UNL     1       8.095   7.795   8.641  1.00  0.00    -0.200 F 
ATOM     78  C   UNL     1       6.324   9.249   9.213  1.00  0.00     0.200 A 
ATOM     79  F   UNL     1       4.531  10.662   9.815  1.00  0.00    -0.200 F 
ATOM     80  F   UNL     1       7.005  10.295   8.724  1.00  0.00    -0.200 F 
ENDBRANCH  46  70
BRANCH  58  81
ATOM     81  C   UNL     1       5.553   2.792  15.690  1.00  0.00     0.064 A 
ATOM     82  C   UNL     1       5.551   3.744  16.720  1.00  0.00     0.173 A 
ATOM     83  C   UNL     1       6.518   1.775  15.732  1.00  0.00     0.173 A 
ATOM     84  F   UNL     1       4.657   4.745  16.712  1.00  0.00    -0.203 F 
ATOM     85  C   UNL     1       6.500   3.697  17.737  1.00  0.00     0.198 A 
ATOM     86  C   UNL     1       7.451   1.719  16.763  1.00  0.00     0.198 A 
ATOM     87  F   UNL     1       6.558   0.840  14.771  1.00  0.00    -0.203 F 
ATOM     88  F   UNL     1       6.512   4.646  18.684  1.00  0.00    -0.200 F 
ATOM     89  C   UNL     1       7.446   2.684  17.760  1.00  0.00     0.200 A 
ATOM     90  F   UNL     1       8.362   0.736  16.788  1.00  0.00    -0.200 F 
ATOM     91  F   UNL     1       8.363   2.644  18.736  1.00  0.00    -0.200 F 
ENDBRANCH  58  81
ENDBRANCH  32  33
ENDBRANCH  25  27
ENDBRANCH  24  25
ENDBRANCH  23  24
ENDBRANCH   1  23
TORSDOF 18
