REMARK SMILES O=C(OCCOC(=O)C1(NC(=O)c2ccncc2Cl)CCCCC1)c1ccc(-c2c3nc(c(-c4c(F)c(F)c(F)c(F)c4F)c4ccc([nH]4)c(-c4c(F)c(F)c(F)c(F)c4F)c4nc(c(-c5c(F)c(F)c(F)c(F)c5F)c5ccc2[nH]5)C=C4)C=C3)cc1
REMARK SMILES IDX 4 1 3 2 2 3 1 4 25 5 26 6 87 7 27 8 86 9 28 10 29 11 30 12
REMARK SMILES IDX 80 13 31 14 85 15 79 16 81 17 32 18 84 19 78 20 77 21 33 23
REMARK SMILES IDX 65 24 45 25 64 26 46 27 49 28 63 29 82 30 47 31 48 32 62 34
REMARK SMILES IDX 83 35 50 36 34 37 35 38 43 39 36 40 37 41 41 42 44 43 38 44
REMARK SMILES IDX 39 45 42 46 40 47 66 48 67 49 75 50 68 51 69 52 73 53 76 54
REMARK SMILES IDX 70 55 71 56 74 57 72 58 51 59 52 60 60 61 53 62 54 63 58 64
REMARK SMILES IDX 61 65 55 66 56 67 59 68 57 69 5 70 6 71 7 72 8 73 9 74 20 75
REMARK SMILES IDX 24 76 21 77 23 78 22 79 10 80 11 81 12 83 13 84 14 85 18 86
REMARK SMILES IDX 15 87 17 88 19 89 16 90
REMARK H PARENT 81 22 49 33 10 82
REMARK Flexibility Score: inf
ROOT
ATOM      1  C   UNL     1       4.602  -1.366  -0.218  1.00  0.00     0.275 C 
ENDROOT
BRANCH   1   2
ATOM      2  O   UNL     1       3.723  -1.143   0.891  1.00  0.00    -0.458 OA
BRANCH   2   3
ATOM      3  C   UNL     1       3.791  -0.125   1.776  1.00  0.00     0.338 C 
ATOM      4  O   UNL     1       3.214  -0.177   2.861  1.00  0.00    -0.246 OA
BRANCH   3   5
ATOM      5  C   UNL     1       4.386   1.160   1.351  1.00  0.00     0.060 A 
ATOM      6  C   UNL     1       5.658   1.290   0.784  1.00  0.00     0.016 A 
ATOM      7  C   UNL     1       3.602   2.300   1.544  1.00  0.00     0.016 A 
ATOM      8  C   UNL     1       6.090   2.519   0.289  1.00  0.00     0.010 A 
ATOM      9  C   UNL     1       4.036   3.534   1.068  1.00  0.00     0.010 A 
ATOM     10  C   UNL     1       5.281   3.647   0.426  1.00  0.00    -0.014 A 
BRANCH  10  11
ATOM     11  C   UNL     1       5.838   4.987   0.155  1.00  0.00     0.031 A 
ATOM     12  C   UNL     1       6.277   5.779   1.350  1.00  0.00     0.074 A 
ATOM     13  C   UNL     1       5.967   5.480  -1.091  1.00  0.00     0.049 A 
ATOM     14  N   UNL     1       6.838   6.956   1.402  1.00  0.00    -0.248 NA
ATOM     15  C   UNL     1       6.078   5.145   2.667  1.00  0.00     0.031 C 
ATOM     16  C   UNL     1       5.646   4.778  -2.331  1.00  0.00     0.029 A 
ATOM     17  N   UNL     1       6.376   6.719  -1.516  1.00  0.00    -0.354 N 
ATOM     18  C   UNL     1       7.120   7.161   2.743  1.00  0.00     0.074 A 
ATOM     19  C   UNL     1       6.541   6.069   3.487  1.00  0.00     0.031 C 
ATOM     20  C   UNL     1       5.755   5.630  -3.367  1.00  0.00     0.029 A 
ATOM     21  C   UNL     1       6.216   6.919  -2.867  1.00  0.00     0.049 A 
ATOM     22  H   UNL     1       6.749   7.400  -0.911  1.00  0.00     0.167 HD
ATOM     23  C   UNL     1       7.880   8.130   3.297  1.00  0.00     0.037 A 
ATOM     24  C   UNL     1       6.435   8.023  -3.606  1.00  0.00     0.037 A 
ATOM     25  C   UNL     1       8.427   9.222   2.551  1.00  0.00     0.049 A 
ATOM     26  C   UNL     1       7.108   9.195  -2.941  1.00  0.00     0.074 A 
ATOM     27  C   UNL     1       9.216  10.265   2.990  1.00  0.00     0.029 A 
ATOM     28  N   UNL     1       8.213   9.415   1.192  1.00  0.00    -0.354 N 
ATOM     29  N   UNL     1       7.480   9.332  -1.690  1.00  0.00    -0.248 NA
ATOM     30  C   UNL     1       7.459  10.334  -3.799  1.00  0.00     0.031 C 
ATOM     31  C   UNL     1       9.440  11.118   1.903  1.00  0.00     0.029 A 
ATOM     32  C   UNL     1       8.829  10.580   0.779  1.00  0.00     0.049 A 
ATOM     33  H   UNL     1       7.698   8.811   0.609  1.00  0.00     0.167 HD
ATOM     34  C   UNL     1       8.177  10.530  -1.626  1.00  0.00     0.074 A 
ATOM     35  C   UNL     1       8.153  11.093  -2.961  1.00  0.00     0.031 C 
ATOM     36  C   UNL     1       8.805  11.098  -0.567  1.00  0.00     0.037 A 
BRANCH  23  37
ATOM     37  C   UNL     1       8.152   7.995   4.763  1.00  0.00     0.064 A 
ATOM     38  C   UNL     1       8.961   6.954   5.254  1.00  0.00     0.173 A 
ATOM     39  C   UNL     1       7.532   8.839   5.691  1.00  0.00     0.173 A 
ATOM     40  F   UNL     1       9.549   6.097   4.403  1.00  0.00    -0.203 F 
ATOM     41  C   UNL     1       9.094   6.733   6.621  1.00  0.00     0.198 A 
ATOM     42  C   UNL     1       7.692   8.633   7.059  1.00  0.00     0.198 A 
ATOM     43  F   UNL     1       6.741   9.838   5.273  1.00  0.00    -0.203 F 
ATOM     44  F   UNL     1       9.798   5.682   7.063  1.00  0.00    -0.200 F 
ATOM     45  C   UNL     1       8.459   7.573   7.522  1.00  0.00     0.200 A 
ATOM     46  F   UNL     1       7.076   9.442   7.931  1.00  0.00    -0.200 F 
ATOM     47  F   UNL     1       8.567   7.347   8.838  1.00  0.00    -0.200 F 
ENDBRANCH  23  37
BRANCH  24  48
ATOM     48  C   UNL     1       6.083   8.057  -5.051  1.00  0.00     0.064 A 
ATOM     49  C   UNL     1       7.072   8.034  -6.043  1.00  0.00     0.173 A 
ATOM     50  C   UNL     1       4.747   8.159  -5.467  1.00  0.00     0.173 A 
ATOM     51  F   UNL     1       8.365   7.954  -5.697  1.00  0.00    -0.203 F 
ATOM     52  C   UNL     1       6.743   8.145  -7.394  1.00  0.00     0.198 A 
ATOM     53  C   UNL     1       4.417   8.253  -6.819  1.00  0.00     0.198 A 
ATOM     54  F   UNL     1       3.761   8.182  -4.559  1.00  0.00    -0.203 F 
ATOM     55  F   UNL     1       7.713   8.169  -8.318  1.00  0.00    -0.200 F 
ATOM     56  C   UNL     1       5.416   8.255  -7.782  1.00  0.00     0.200 A 
ATOM     57  F   UNL     1       3.133   8.356  -7.190  1.00  0.00    -0.200 F 
ATOM     58  F   UNL     1       5.102   8.376  -9.079  1.00  0.00    -0.200 F 
ENDBRANCH  24  48
BRANCH  36  59
ATOM     59  C   UNL     1       9.573  12.359  -0.821  1.00  0.00     0.064 A 
ATOM     60  C   UNL     1       8.928  13.581  -1.053  1.00  0.00     0.173 A 
ATOM     61  C   UNL     1      10.975  12.351  -0.757  1.00  0.00     0.173 A 
ATOM     62  F   UNL     1       7.590  13.633  -1.140  1.00  0.00    -0.203 F 
ATOM     63  C   UNL     1       9.662  14.750  -1.226  1.00  0.00     0.198 A 
ATOM     64  C   UNL     1      11.703  13.527  -0.897  1.00  0.00     0.198 A 
ATOM     65  F   UNL     1      11.635  11.205  -0.531  1.00  0.00    -0.203 F 
ATOM     66  F   UNL     1       9.029  15.902  -1.486  1.00  0.00    -0.200 F 
ATOM     67  C   UNL     1      11.046  14.724  -1.136  1.00  0.00     0.200 A 
ATOM     68  F   UNL     1      13.038  13.502  -0.792  1.00  0.00    -0.200 F 
ATOM     69  F   UNL     1      11.749  15.855  -1.283  1.00  0.00    -0.200 F 
ENDBRANCH  36  59
ENDBRANCH  10  11
ENDBRANCH   3   5
ENDBRANCH   2   3
ENDBRANCH   1   2
BRANCH   1  70
ATOM     70  C   UNL     1       4.308  -0.648  -1.544  1.00  0.00     0.274 C 
BRANCH  70  71
ATOM     71  O   UNL     1       3.691   0.652  -1.559  1.00  0.00    -0.460 OA
BRANCH  71  72
ATOM     72  C   UNL     1       2.343   0.679  -1.348  1.00  0.00     0.331 C 
ATOM     73  O   UNL     1       1.737  -0.259  -0.841  1.00  0.00    -0.249 OA
BRANCH  72  74
ATOM     74  C   UNL     1       1.640   1.969  -1.898  1.00  0.00     0.138 C 
ATOM     75  C   UNL     1       0.789   2.475  -0.699  1.00  0.00     0.040 C 
ATOM     76  C   UNL     1       2.650   3.052  -2.331  1.00  0.00     0.040 C 
ATOM     77  C   UNL     1       0.270   3.906  -0.802  1.00  0.00     0.003 C 
ATOM     78  C   UNL     1       2.060   4.461  -2.460  1.00  0.00     0.003 C 
ATOM     79  C   UNL     1       1.354   4.897  -1.187  1.00  0.00     0.000 C 
BRANCH  74  80
ATOM     80  N   UNL     1       0.692   1.730  -3.028  1.00  0.00    -0.336 N 
ATOM     81  C   UNL     1       0.818   0.905  -4.115  1.00  0.00     0.253 C 
ATOM     82  H   UNL     1      -0.149   2.241  -2.985  1.00  0.00     0.165 HD
ATOM     83  O   UNL     1       0.510   1.296  -5.239  1.00  0.00    -0.269 OA
BRANCH  81  84
ATOM     84  C   UNL     1       1.246  -0.490  -3.941  1.00  0.00     0.061 A 
ATOM     85  C   UNL     1       2.359  -0.929  -4.663  1.00  0.00     0.035 A 
ATOM     86  C   UNL     1       0.546  -1.376  -3.121  1.00  0.00     0.072 A 
ATOM     87  C   UNL     1       2.790  -2.228  -4.459  1.00  0.00     0.112 A 
ATOM     88  C   UNL     1       1.097  -2.635  -2.941  1.00  0.00     0.132 A 
ATOM     89  Cl  UNL     1      -0.943  -0.989  -2.342  1.00  0.00    -0.082 Cl
ATOM     90  N   UNL     1       2.211  -3.076  -3.582  1.00  0.00    -0.263 NA
ENDBRANCH  81  84
ENDBRANCH  74  80
ENDBRANCH  72  74
ENDBRANCH  71  72
ENDBRANCH  70  71
ENDBRANCH   1  70
TORSDOF 13
