REMARK SMILES O=C(OCCOC(=O)[C@@H](CCO)NC(=O)c1c(F)ccc([N+](=O)[O-])c1F)c1ccc(-c2c3nc(c(-c4c(F)c(F)c(F)c(F)c4F)c4ccc([nH]4)c(-c4c(F)c(F)c(F)c(F)c4F)c4nc(c(-c5c(F)c(F)c(F)c(F)c5F)c5ccc2[nH]5)C=C4)C=C3)cc1
REMARK SMILES IDX 5 1 4 2 3 3 2 4 1 5 27 6 28 7 89 8 29 9 88 10 30 11 31 12
REMARK SMILES IDX 32 13 82 14 33 15 87 16 81 17 83 18 34 19 86 20 80 21 79 22
REMARK SMILES IDX 35 24 67 25 47 26 66 27 48 28 51 29 65 30 84 31 49 32 50 33
REMARK SMILES IDX 64 35 85 36 52 37 36 38 37 39 45 40 38 41 39 42 43 43 46 44
REMARK SMILES IDX 40 45 41 46 44 47 42 48 68 49 69 50 77 51 70 52 71 53 75 54
REMARK SMILES IDX 78 55 72 56 73 57 76 58 74 59 53 60 54 61 62 62 55 63 56 64
REMARK SMILES IDX 60 65 63 66 57 67 58 68 61 69 59 70 6 71 7 72 8 73 9 74
REMARK SMILES IDX 10 75 11 76 12 77 13 79 14 80 15 82 16 83 17 84 25 85 18 86
REMARK SMILES IDX 19 87 21 88 26 89 20 90 22 91 23 92 24 93
REMARK H PARENT 83 23 51 34 12 78 13 81
REMARK Flexibility Score: inf
ROOT
ATOM      1  C   UNL     1       4.093  -2.592  -0.836  1.00  0.00     0.274 C 
ENDROOT
BRANCH   1   2
ATOM      2  C   UNL     1       4.360  -1.831   0.482  1.00  0.00     0.275 C 
BRANCH   2   3
ATOM      3  O   UNL     1       3.151  -1.335   1.058  1.00  0.00    -0.458 OA
BRANCH   3   4
ATOM      4  C   UNL     1       2.665  -0.099   0.872  1.00  0.00     0.338 C 
ATOM      5  O   UNL     1       1.647   0.272   1.450  1.00  0.00    -0.246 OA
BRANCH   4   6
ATOM      6  C   UNL     1       3.252   0.858  -0.097  1.00  0.00     0.060 A 
ATOM      7  C   UNL     1       4.461   0.583  -1.445  1.00  0.00     0.016 A 
ATOM      8  C   UNL     1       2.532   2.504   0.073  1.00  0.00     0.016 A 
ATOM      9  C   UNL     1       4.789   1.876  -2.669  1.00  0.00     0.010 A 
ATOM     10  C   UNL     1       2.887   3.784  -1.134  1.00  0.00     0.010 A 
ATOM     11  C   UNL     1       4.066   3.510  -2.446  1.00  0.00    -0.014 A 
BRANCH  11  12
ATOM     12  C   UNL     1       4.599   4.658  -3.226  1.00  0.00     0.031 A 
ATOM     13  C   UNL     1       5.239   5.827  -2.507  1.00  0.00     0.074 A 
ATOM     14  C   UNL     1       4.605   4.577  -4.569  1.00  0.00     0.049 A 
ATOM     15  N   UNL     1       5.869   6.862  -3.002  1.00  0.00    -0.248 NA
ATOM     16  C   UNL     1       5.228   5.828  -1.036  1.00  0.00     0.031 C 
ATOM     17  C   UNL     1       4.052   3.469  -5.346  1.00  0.00     0.029 A 
ATOM     18  N   UNL     1       5.089   5.428  -5.529  1.00  0.00    -0.354 N 
ATOM     19  C   UNL     1       6.339   7.587  -1.908  1.00  0.00     0.074 A 
ATOM     20  C   UNL     1       5.942   6.892  -0.721  1.00  0.00     0.031 C 
ATOM     21  C   UNL     1       4.249   3.686  -6.653  1.00  0.00     0.029 A 
ATOM     22  C   UNL     1       4.871   4.989  -6.816  1.00  0.00     0.049 A 
ATOM     23  H   UNL     1       5.549   6.272  -5.317  1.00  0.00     0.167 HD
ATOM     24  C   UNL     1       7.012   8.757  -1.886  1.00  0.00     0.037 A 
ATOM     25  C   UNL     1       5.110   5.600  -7.992  1.00  0.00     0.037 A 
ATOM     26  C   UNL     1       7.287   9.502  -3.075  1.00  0.00     0.049 A 
ATOM     27  C   UNL     1       5.737   6.966  -7.934  1.00  0.00     0.074 A 
ATOM     28  C   UNL     1       7.854  10.754  -3.200  1.00  0.00     0.029 A 
ATOM     29  N   UNL     1       6.972   9.060  -4.352  1.00  0.00    -0.354 N 
ATOM     30  N   UNL     1       6.151   7.641  -6.885  1.00  0.00    -0.248 NA
ATOM     31  C   UNL     1       5.919   7.664  -9.210  1.00  0.00     0.031 C 
ATOM     32  C   UNL     1       7.821  11.097  -4.553  1.00  0.00     0.029 A 
ATOM     33  C   UNL     1       7.310  10.027  -5.275  1.00  0.00     0.049 A 
ATOM     34  H   UNL     1       6.568   8.188  -4.566  1.00  0.00     0.167 HD
ATOM     35  C   UNL     1       6.650   8.838  -7.372  1.00  0.00     0.074 A 
ATOM     36  C   UNL     1       6.526   8.775  -8.816  1.00  0.00     0.031 C 
ATOM     37  C   UNL     1       7.153   9.904  -6.701  1.00  0.00     0.037 A 
BRANCH  24  38
ATOM     38  C   UNL     1       7.407   9.325  -0.552  1.00  0.00     0.064 A 
ATOM     39  C   UNL     1       6.754  10.456  -0.037  1.00  0.00     0.173 A 
ATOM     40  C   UNL     1       8.449   8.771   0.207  1.00  0.00     0.173 A 
ATOM     41  F   UNL     1       5.727  11.004  -0.703  1.00  0.00    -0.203 F 
ATOM     42  C   UNL     1       7.155  11.033   1.166  1.00  0.00     0.198 A 
ATOM     43  C   UNL     1       8.832   9.337   1.423  1.00  0.00     0.198 A 
ATOM     44  F   UNL     1       9.073   7.660  -0.213  1.00  0.00    -0.203 F 
ATOM     45  F   UNL     1       6.533  12.129   1.621  1.00  0.00    -0.200 F 
ATOM     46  C   UNL     1       8.196  10.476   1.893  1.00  0.00     0.200 A 
ATOM     47  F   UNL     1       9.813   8.775   2.143  1.00  0.00    -0.200 F 
ATOM     48  F   UNL     1       8.579  11.032   3.051  1.00  0.00    -0.200 F 
ENDBRANCH  24  38
BRANCH  25  49
ATOM     49  C   UNL     1       4.713   4.959  -9.280  1.00  0.00     0.064 A 
ATOM     50  C   UNL     1       3.369   4.656  -9.562  1.00  0.00     0.173 A 
ATOM     51  C   UNL     1       5.661   4.631 -10.260  1.00  0.00     0.173 A 
ATOM     52  F   UNL     1       2.411   4.958  -8.674  1.00  0.00    -0.203 F 
ATOM     53  C   UNL     1       2.997   4.029 -10.751  1.00  0.00     0.198 A 
ATOM     54  C   UNL     1       5.282   4.042 -11.468  1.00  0.00     0.198 A 
ATOM     55  F   UNL     1       6.956   4.918 -10.062  1.00  0.00    -0.203 F 
ATOM     56  F   UNL     1       1.711   3.721 -10.969  1.00  0.00    -0.200 F 
ATOM     57  C   UNL     1       3.953   3.731 -11.707  1.00  0.00     0.200 A 
ATOM     58  F   UNL     1       6.206   3.792 -12.406  1.00  0.00    -0.200 F 
ATOM     59  F   UNL     1       3.592   3.158 -12.864  1.00  0.00    -0.200 F 
ENDBRANCH  25  49
BRANCH  37  60
ATOM     60  C   UNL     1       7.610  11.063  -7.528  1.00  0.00     0.064 A 
ATOM     61  C   UNL     1       8.972  11.390  -7.588  1.00  0.00     0.173 A 
ATOM     62  C   UNL     1       6.698  11.874  -8.216  1.00  0.00     0.173 A 
ATOM     63  F   UNL     1       9.877  10.654  -6.924  1.00  0.00    -0.203 F 
ATOM     64  C   UNL     1       9.405  12.493  -8.311  1.00  0.00     0.198 A 
ATOM     65  C   UNL     1       7.141  12.947  -8.978  1.00  0.00     0.198 A 
ATOM     66  F   UNL     1       5.386  11.593  -8.185  1.00  0.00    -0.203 F 
ATOM     67  F   UNL     1      10.706  12.813  -8.324  1.00  0.00    -0.200 F 
ATOM     68  C   UNL     1       8.492  13.261  -9.018  1.00  0.00     0.200 A 
ATOM     69  F   UNL     1       6.262  13.668  -9.686  1.00  0.00    -0.200 F 
ATOM     70  F   UNL     1       8.915  14.303  -9.745  1.00  0.00    -0.200 F 
ENDBRANCH  37  60
ENDBRANCH  11  12
ENDBRANCH   4   6
ENDBRANCH   3   4
ENDBRANCH   2   3
ENDBRANCH   1   2
BRANCH   1  71
ATOM     71  O   UNL     1       3.664  -1.759  -1.952  1.00  0.00    -0.461 OA
BRANCH  71  72
ATOM     72  C   UNL     1       2.414  -1.220  -1.917  1.00  0.00     0.328 C 
ATOM     73  O   UNL     1       1.479  -1.728  -1.311  1.00  0.00    -0.250 OA
BRANCH  72  74
ATOM     74  C   UNL     1       2.320   0.202  -2.613  1.00  0.00     0.194 C 
BRANCH  74  75
ATOM     75  C   UNL     1       2.854   1.773  -1.913  1.00  0.00     0.065 C 
BRANCH  75  76
ATOM     76  C   UNL     1       4.515   2.442  -0.662  1.00  0.00     0.159 C 
BRANCH  76  77
ATOM     77  O   UNL     1       6.035   2.480  -0.953  1.00  0.00    -0.396 OA
ATOM     78  H   UNL     1       6.392   1.579  -0.923  1.00  0.00     0.210 HD
ENDBRANCH  76  77
ENDBRANCH  75  76
ENDBRANCH  74  75
BRANCH  74  79
ATOM     79  N   UNL     1       2.581   0.183  -4.064  1.00  0.00    -0.338 N 
ATOM     80  C   UNL     1       1.736   0.536  -5.095  1.00  0.00     0.258 C 
ATOM     81  H   UNL     1       3.477  -0.122  -4.332  1.00  0.00     0.164 HD
ATOM     82  O   UNL     1       2.169   0.646  -6.237  1.00  0.00    -0.269 OA
BRANCH  80  83
ATOM     83  C   UNL     1       0.297   0.738  -4.862  1.00  0.00     0.118 A 
ATOM     84  C   UNL     1      -0.206   1.838  -4.169  1.00  0.00     0.139 A 
ATOM     85  C   UNL     1      -0.583  -0.207  -5.393  1.00  0.00     0.216 A 
ATOM     86  F   UNL     1       0.606   2.798  -3.709  1.00  0.00    -0.206 F 
ATOM     87  C   UNL     1      -1.574   1.959  -3.921  1.00  0.00     0.047 A 
ATOM     88  C   UNL     1      -1.956  -0.080  -5.172  1.00  0.00     0.305 A 
ATOM     89  F   UNL     1      -0.078  -1.238  -6.086  1.00  0.00    -0.198 F 
ATOM     90  C   UNL     1      -2.455   0.995  -4.414  1.00  0.00     0.092 A 
BRANCH  88  91
ATOM     91  N   UNL     1      -2.891  -1.063  -5.719  1.00  0.00     0.065 N 
ATOM     92  O   UNL     1      -2.455  -1.952  -6.458  1.00  0.00    -0.258 OA
ATOM     93  O   UNL     1      -4.085  -0.938  -5.411  1.00  0.00    -0.258 OA
ENDBRANCH  88  91
ENDBRANCH  80  83
ENDBRANCH  74  79
ENDBRANCH  72  74
ENDBRANCH  71  72
ENDBRANCH   1  71
TORSDOF 17
