REMARK SMILES COC(=O)c1ccc(Cl)c(-c2ccc(C(=O)OCCOC(=O)c3ccc(-c4c5nc(c(-c6c(F)c(F)c(F)c(F)c6F)c6ccc([nH]6)c(-c6c(F)c(F)c(F)c(F)c6F)c6nc(c(-c7c(F)c(F)c(F)c(F)c7F)c7ccc4[nH]7)C=C6)C=C5)cc3)c(F)c2)c1
REMARK SMILES IDX 18 1 17 2 15 3 16 4 14 5 11 6 12 7 88 8 13 9 86 10 87 11
REMARK SMILES IDX 10 12 5 13 6 14 89 15 7 16 8 17 9 18 3 19 4 20 2 21 1 22
REMARK SMILES IDX 19 23 20 24 21 25 22 26 23 27 24 28 85 29 25 30 84 31 26 32
REMARK SMILES IDX 27 33 28 34 78 35 29 36 83 37 77 38 79 39 30 40 82 41 76 42
REMARK SMILES IDX 75 43 31 45 63 46 43 47 62 48 44 49 47 50 61 51 80 52 45 53
REMARK SMILES IDX 46 54 60 56 81 57 48 58 32 59 33 60 41 61 34 62 35 63 39 64
REMARK SMILES IDX 42 65 36 66 37 67 40 68 38 69 64 70 65 71 73 72 66 73 67 74
REMARK SMILES IDX 71 75 74 76 68 77 69 78 72 79 70 80 49 81 50 82 58 83 51 84
REMARK SMILES IDX 52 85 56 86 59 87 53 88 54 89 57 90 55 91
REMARK H PARENT 79 44 47 55
REMARK Flexibility Score: inf
ROOT
ATOM      1  C   UNL     1       6.820  -5.105   9.947  1.00  0.00     0.275 C 
ENDROOT
BRANCH   1   2
ATOM      2  O   UNL     1       5.802  -4.471   9.147  1.00  0.00    -0.458 OA
BRANCH   2   3
ATOM      3  C   UNL     1       5.251  -5.230   8.172  1.00  0.00     0.341 C 
ATOM      4  O   UNL     1       5.517  -6.397   7.924  1.00  0.00    -0.246 OA
BRANCH   3   5
ATOM      5  C   UNL     1       4.148  -4.523   7.493  1.00  0.00     0.095 A 
ATOM      6  C   UNL     1       2.016  -3.300   6.113  1.00  0.00    -0.014 A 
ATOM      7  C   UNL     1       1.994  -4.673   6.381  1.00  0.00     0.010 A 
ATOM      8  C   UNL     1       3.117  -2.546   6.554  1.00  0.00     0.049 A 
ATOM      9  C   UNL     1       3.063  -5.282   7.033  1.00  0.00     0.019 A 
ATOM     10  C   UNL     1       4.168  -3.155   7.245  1.00  0.00     0.138 A 
ATOM     11  F   UNL     1       5.222  -2.402   7.589  1.00  0.00    -0.206 F 
BRANCH   6  12
ATOM     12  C   UNL     1       0.983  -2.719   5.250  1.00  0.00     0.001 A 
ATOM     13  C   UNL     1       0.409  -1.922   3.012  1.00  0.00     0.060 A 
ATOM     14  C   UNL     1      -0.916  -1.728   3.405  1.00  0.00     0.017 A 
ATOM     15  C   UNL     1       1.343  -2.420   3.924  1.00  0.00     0.026 A 
ATOM     16  C   UNL     1      -1.296  -2.028   4.716  1.00  0.00     0.022 A 
ATOM     17  C   UNL     1      -0.355  -2.516   5.634  1.00  0.00     0.048 A 
ATOM     18  Cl  UNL     1      -0.902  -2.859   7.238  1.00  0.00    -0.084 Cl
BRANCH  13  19
ATOM     19  C   UNL     1       0.892  -1.631   1.645  1.00  0.00     0.337 C 
ATOM     20  O   UNL     1       1.776  -2.262   1.098  1.00  0.00    -0.246 OA
BRANCH  19  21
ATOM     21  O   UNL     1       0.292  -0.506   1.187  1.00  0.00    -0.465 OA
ATOM     22  C   UNL     1       0.867  -0.017  -0.024  1.00  0.00     0.282 C 
ENDBRANCH  19  21
ENDBRANCH  13  19
ENDBRANCH   6  12
ENDBRANCH   3   5
ENDBRANCH   2   3
ENDBRANCH   1   2
BRANCH   1  23
ATOM     23  C   UNL     1       6.286  -5.444  11.338  1.00  0.00     0.275 C 
BRANCH  23  24
ATOM     24  O   UNL     1       5.275  -6.466  11.251  1.00  0.00    -0.458 OA
BRANCH  24  25
ATOM     25  C   UNL     1       4.012  -6.056  11.501  1.00  0.00     0.338 C 
ATOM     26  O   UNL     1       3.635  -4.945  11.832  1.00  0.00    -0.246 OA
BRANCH  25  27
ATOM     27  C   UNL     1       3.073  -7.156  11.241  1.00  0.00     0.060 A 
ATOM     28  C   UNL     1       2.750  -7.443   9.920  1.00  0.00     0.016 A 
ATOM     29  C   UNL     1       2.385  -7.777  12.280  1.00  0.00     0.016 A 
ATOM     30  C   UNL     1       1.670  -8.268   9.622  1.00  0.00     0.010 A 
ATOM     31  C   UNL     1       1.367  -8.692  11.978  1.00  0.00     0.010 A 
ATOM     32  C   UNL     1       0.968  -8.918  10.647  1.00  0.00    -0.014 A 
BRANCH  32  33
ATOM     33  C   UNL     1      -0.201  -9.791  10.328  1.00  0.00     0.031 A 
ATOM     34  C   UNL     1      -1.555  -9.497  10.920  1.00  0.00     0.074 A 
ATOM     35  C   UNL     1      -0.070 -10.833   9.481  1.00  0.00     0.049 A 
ATOM     36  N   UNL     1      -2.645 -10.225  10.905  1.00  0.00    -0.248 NA
ATOM     37  C   UNL     1      -1.702  -8.218  11.632  1.00  0.00     0.031 C 
ATOM     38  C   UNL     1       1.158 -11.203   8.778  1.00  0.00     0.029 A 
ATOM     39  N   UNL     1      -0.987 -11.764   9.054  1.00  0.00    -0.354 N 
ATOM     40  C   UNL     1      -3.585  -9.520  11.648  1.00  0.00     0.074 A 
ATOM     41  C   UNL     1      -2.935  -8.311  12.109  1.00  0.00     0.031 C 
ATOM     42  C   UNL     1       0.907 -12.239   7.965  1.00  0.00     0.029 A 
ATOM     43  C   UNL     1      -0.471 -12.675   8.164  1.00  0.00     0.049 A 
ATOM     44  H   UNL     1      -1.923 -11.776   9.356  1.00  0.00     0.167 HD
ATOM     45  C   UNL     1      -4.872  -9.849  11.916  1.00  0.00     0.037 A 
ATOM     46  C   UNL     1      -1.025 -13.766   7.600  1.00  0.00     0.037 A 
ATOM     47  C   UNL     1      -5.531 -11.027  11.412  1.00  0.00     0.049 A 
ATOM     48  C   UNL     1      -2.431 -14.150   7.962  1.00  0.00     0.074 A 
ATOM     49  C   UNL     1      -6.831 -11.450  11.633  1.00  0.00     0.029 A 
ATOM     50  N   UNL     1      -4.947 -11.961  10.569  1.00  0.00    -0.354 N 
ATOM     51  N   UNL     1      -3.283 -13.525   8.736  1.00  0.00    -0.248 NA
ATOM     52  C   UNL     1      -2.942 -15.406   7.395  1.00  0.00     0.031 C 
ATOM     53  C   UNL     1      -7.021 -12.658  10.956  1.00  0.00     0.029 A 
ATOM     54  C   UNL     1      -5.856 -12.964  10.271  1.00  0.00     0.049 A 
ATOM     55  H   UNL     1      -4.023 -11.918  10.232  1.00  0.00     0.167 HD
ATOM     56  C   UNL     1      -4.432 -14.302   8.744  1.00  0.00     0.074 A 
ATOM     57  C   UNL     1      -4.175 -15.439   7.884  1.00  0.00     0.031 C 
ATOM     58  C   UNL     1      -5.592 -14.091   9.412  1.00  0.00     0.037 A 
BRANCH  45  59
ATOM     59  C   UNL     1      -5.653  -8.938  12.819  1.00  0.00     0.064 A 
ATOM     60  C   UNL     1      -6.016  -9.361  14.108  1.00  0.00     0.173 A 
ATOM     61  C   UNL     1      -6.083  -7.669  12.403  1.00  0.00     0.173 A 
ATOM     62  F   UNL     1      -5.639 -10.569  14.555  1.00  0.00    -0.203 F 
ATOM     63  C   UNL     1      -6.783  -8.551  14.942  1.00  0.00     0.198 A 
ATOM     64  C   UNL     1      -6.824  -6.849  13.251  1.00  0.00     0.198 A 
ATOM     65  F   UNL     1      -5.756  -7.212  11.185  1.00  0.00    -0.203 F 
ATOM     66  F   UNL     1      -7.139  -8.990  16.157  1.00  0.00    -0.200 F 
ATOM     67  C   UNL     1      -7.180  -7.293  14.516  1.00  0.00     0.200 A 
ATOM     68  F   UNL     1      -7.186  -5.623  12.848  1.00  0.00    -0.200 F 
ATOM     69  F   UNL     1      -7.901  -6.507  15.327  1.00  0.00    -0.200 F 
ENDBRANCH  45  59
BRANCH  46  70
ATOM     70  C   UNL     1      -0.224 -14.578   6.646  1.00  0.00     0.064 A 
ATOM     71  C   UNL     1       0.892 -15.316   7.069  1.00  0.00     0.173 A 
ATOM     72  C   UNL     1      -0.529 -14.581   5.279  1.00  0.00     0.173 A 
ATOM     73  F   UNL     1       1.224 -15.347   8.368  1.00  0.00    -0.203 F 
ATOM     74  C   UNL     1       1.698 -15.989   6.154  1.00  0.00     0.198 A 
ATOM     75  C   UNL     1       0.261 -15.280   4.368  1.00  0.00     0.198 A 
ATOM     76  F   UNL     1      -1.603 -13.914   4.831  1.00  0.00    -0.203 F 
ATOM     77  F   UNL     1       2.789 -16.641   6.578  1.00  0.00    -0.200 F 
ATOM     78  C   UNL     1       1.382 -15.971   4.804  1.00  0.00     0.200 A 
ATOM     79  F   UNL     1      -0.061 -15.280   3.067  1.00  0.00    -0.200 F 
ATOM     80  F   UNL     1       2.157 -16.619   3.924  1.00  0.00    -0.200 F 
ENDBRANCH  46  70
BRANCH  58  81
ATOM     81  C   UNL     1      -6.692 -15.093   9.226  1.00  0.00     0.064 A 
ATOM     82  C   UNL     1      -7.842 -14.759   8.494  1.00  0.00     0.173 A 
ATOM     83  C   UNL     1      -6.642 -16.357   9.832  1.00  0.00     0.173 A 
ATOM     84  F   UNL     1      -7.940 -13.560   7.900  1.00  0.00    -0.203 F 
ATOM     85  C   UNL     1      -8.908 -15.647   8.390  1.00  0.00     0.198 A 
ATOM     86  C   UNL     1      -7.700 -17.253   9.704  1.00  0.00     0.198 A 
ATOM     87  F   UNL     1      -5.558 -16.728  10.529  1.00  0.00    -0.203 F 
ATOM     88  F   UNL     1     -10.009 -15.294   7.713  1.00  0.00    -0.200 F 
ATOM     89  C   UNL     1      -8.835 -16.894   8.992  1.00  0.00     0.200 A 
ATOM     90  F   UNL     1      -7.620 -18.467  10.266  1.00  0.00    -0.200 F 
ATOM     91  F   UNL     1      -9.859 -17.752   8.884  1.00  0.00    -0.200 F 
ENDBRANCH  58  81
ENDBRANCH  32  33
ENDBRANCH  25  27
ENDBRANCH  24  25
ENDBRANCH  23  24
ENDBRANCH   1  23
TORSDOF 14
