REMARK SMILES O=C(OCCOC(=O)[C@H](Cc1cccc(Br)c1)CC1CCC1)c1ccc(-c2c3nc(c(-c4c(F)c(F)c(F)c(F)c4F)c4ccc([nH]4)c(-c4c(F)c(F)c(F)c(F)c4F)c4nc(c(-c5c(F)c(F)c(F)c(F)c5F)c5ccc2[nH]5)C=C4)C=C3)cc1
REMARK SMILES IDX 4 1 3 2 2 3 1 4 23 5 24 6 85 7 25 8 84 9 26 10 27 11 28 12
REMARK SMILES IDX 78 13 29 14 83 15 77 16 79 17 30 18 82 19 76 20 75 21 31 23
REMARK SMILES IDX 63 24 43 25 62 26 44 27 47 28 61 29 80 30 45 31 46 32 60 34
REMARK SMILES IDX 81 35 48 36 32 37 33 38 41 39 34 40 35 41 39 42 42 43 36 44
REMARK SMILES IDX 37 45 40 46 38 47 64 48 65 49 73 50 66 51 67 52 71 53 74 54
REMARK SMILES IDX 68 55 69 56 72 57 70 58 49 59 50 60 58 61 51 62 52 63 56 64
REMARK SMILES IDX 59 65 53 66 54 67 57 68 55 69 5 70 6 71 7 72 8 73 9 74 18 75
REMARK SMILES IDX 19 76 20 77 22 78 21 79 10 80 11 81 12 82 17 83 13 84 15 85
REMARK SMILES IDX 14 86 16 87
REMARK H PARENT 79 22 47 33
REMARK Flexibility Score: inf
ROOT
ATOM      1  C   UNL     1       3.289   1.768   5.026  1.00  0.00     0.275 C 
ENDROOT
BRANCH   1   2
ATOM      2  O   UNL     1       2.717   0.606   4.398  1.00  0.00    -0.458 OA
BRANCH   2   3
ATOM      3  C   UNL     1       1.552   0.488   3.716  1.00  0.00     0.338 C 
ATOM      4  O   UNL     1       1.139  -0.631   3.419  1.00  0.00    -0.246 OA
BRANCH   3   5
ATOM      5  C   UNL     1       0.815   1.665   3.171  1.00  0.00     0.060 A 
ATOM      6  C   UNL     1       0.652   2.889   3.823  1.00  0.00     0.016 A 
ATOM      7  C   UNL     1       0.232   1.506   1.904  1.00  0.00     0.016 A 
ATOM      8  C   UNL     1       0.015   3.959   3.192  1.00  0.00     0.010 A 
ATOM      9  C   UNL     1      -0.398   2.575   1.261  1.00  0.00     0.010 A 
ATOM     10  C   UNL     1      -0.518   3.811   1.911  1.00  0.00    -0.014 A 
BRANCH  10  11
ATOM     11  C   UNL     1      -1.383   4.883   1.365  1.00  0.00     0.031 A 
ATOM     12  C   UNL     1      -2.866   4.654   1.386  1.00  0.00     0.074 A 
ATOM     13  C   UNL     1      -0.877   6.059   0.947  1.00  0.00     0.049 A 
ATOM     14  N   UNL     1      -3.833   5.481   1.086  1.00  0.00    -0.248 NA
ATOM     15  C   UNL     1      -3.325   3.332   1.845  1.00  0.00     0.031 C 
ATOM     16  C   UNL     1       0.538   6.428   0.953  1.00  0.00     0.029 A 
ATOM     17  N   UNL     1      -1.498   7.158   0.409  1.00  0.00    -0.354 N 
ATOM     18  C   UNL     1      -5.003   4.801   1.387  1.00  0.00     0.074 A 
ATOM     19  C   UNL     1      -4.639   3.460   1.778  1.00  0.00     0.031 C 
ATOM     20  C   UNL     1       0.685   7.633   0.374  1.00  0.00     0.029 A 
ATOM     21  C   UNL     1      -0.627   8.130  -0.021  1.00  0.00     0.049 A 
ATOM     22  H   UNL     1      -2.477   7.243   0.339  1.00  0.00     0.167 HD
ATOM     23  C   UNL     1      -6.269   5.276   1.403  1.00  0.00     0.037 A 
ATOM     24  C   UNL     1      -0.868   9.287  -0.666  1.00  0.00     0.037 A 
ATOM     25  C   UNL     1      -6.623   6.600   0.978  1.00  0.00     0.049 A 
ATOM     26  C   UNL     1      -2.298   9.724  -0.831  1.00  0.00     0.074 A 
ATOM     27  C   UNL     1      -7.869   7.195   0.947  1.00  0.00     0.029 A 
ATOM     28  N   UNL     1      -5.718   7.528   0.480  1.00  0.00    -0.354 N 
ATOM     29  N   UNL     1      -3.396   9.110  -0.460  1.00  0.00    -0.248 NA
ATOM     30  C   UNL     1      -2.522  11.040  -1.441  1.00  0.00     0.031 C 
ATOM     31  C   UNL     1      -7.726   8.463   0.371  1.00  0.00     0.029 A 
ATOM     32  C   UNL     1      -6.383   8.682   0.104  1.00  0.00     0.049 A 
ATOM     33  H   UNL     1      -4.747   7.386   0.405  1.00  0.00     0.167 HD
ATOM     34  C   UNL     1      -4.433   9.995  -0.712  1.00  0.00     0.074 A 
ATOM     35  C   UNL     1      -3.833  11.179  -1.296  1.00  0.00     0.031 C 
ATOM     36  C   UNL     1      -5.757   9.855  -0.453  1.00  0.00     0.037 A 
BRANCH  23  37
ATOM     37  C   UNL     1      -7.330   4.337   1.891  1.00  0.00     0.064 A 
ATOM     38  C   UNL     1      -7.391   3.938   3.238  1.00  0.00     0.173 A 
ATOM     39  C   UNL     1      -8.258   3.784   1.000  1.00  0.00     0.173 A 
ATOM     40  F   UNL     1      -6.506   4.419   4.125  1.00  0.00    -0.203 F 
ATOM     41  C   UNL     1      -8.313   2.986   3.662  1.00  0.00     0.198 A 
ATOM     42  C   UNL     1      -9.199   2.854   1.435  1.00  0.00     0.198 A 
ATOM     43  F   UNL     1      -8.238   4.126  -0.296  1.00  0.00    -0.203 F 
ATOM     44  F   UNL     1      -8.302   2.566   4.935  1.00  0.00    -0.200 F 
ATOM     45  C   UNL     1      -9.217   2.447   2.761  1.00  0.00     0.200 A 
ATOM     46  F   UNL     1     -10.075   2.334   0.564  1.00  0.00    -0.200 F 
ATOM     47  F   UNL     1     -10.096   1.519   3.167  1.00  0.00    -0.200 F 
ENDBRANCH  23  37
BRANCH  24  48
ATOM     48  C   UNL     1       0.255  10.130  -1.157  1.00  0.00     0.064 A 
ATOM     49  C   UNL     1       0.570  11.356  -0.556  1.00  0.00     0.173 A 
ATOM     50  C   UNL     1       1.013   9.741  -2.273  1.00  0.00     0.173 A 
ATOM     51  F   UNL     1      -0.139  11.784   0.499  1.00  0.00    -0.203 F 
ATOM     52  C   UNL     1       1.579  12.172  -1.066  1.00  0.00     0.198 A 
ATOM     53  C   UNL     1       2.038  10.546  -2.768  1.00  0.00     0.198 A 
ATOM     54  F   UNL     1       0.749   8.582  -2.893  1.00  0.00    -0.203 F 
ATOM     55  F   UNL     1       1.824  13.363  -0.502  1.00  0.00    -0.200 F 
ATOM     56  C   UNL     1       2.314  11.766  -2.170  1.00  0.00     0.200 A 
ATOM     57  F   UNL     1       2.747  10.148  -3.833  1.00  0.00    -0.200 F 
ATOM     58  F   UNL     1       3.278  12.555  -2.665  1.00  0.00    -0.200 F 
ENDBRANCH  24  48
BRANCH  36  59
ATOM     59  C   UNL     1      -6.634  11.044  -0.715  1.00  0.00     0.064 A 
ATOM     60  C   UNL     1      -6.935  11.476  -2.013  1.00  0.00     0.173 A 
ATOM     61  C   UNL     1      -7.211  11.736   0.362  1.00  0.00     0.173 A 
ATOM     62  F   UNL     1      -6.394  10.858  -3.074  1.00  0.00    -0.203 F 
ATOM     63  C   UNL     1      -7.758  12.579  -2.224  1.00  0.00     0.198 A 
ATOM     64  C   UNL     1      -8.063  12.813   0.147  1.00  0.00     0.198 A 
ATOM     65  F   UNL     1      -6.958  11.356   1.624  1.00  0.00    -0.203 F 
ATOM     66  F   UNL     1      -7.987  13.012  -3.471  1.00  0.00    -0.200 F 
ATOM     67  C   UNL     1      -8.328  13.240  -1.145  1.00  0.00     0.200 A 
ATOM     68  F   UNL     1      -8.625  13.439   1.190  1.00  0.00    -0.200 F 
ATOM     69  F   UNL     1      -9.127  14.295  -1.351  1.00  0.00    -0.200 F 
ENDBRANCH  36  59
ENDBRANCH  10  11
ENDBRANCH   3   5
ENDBRANCH   2   3
ENDBRANCH   1   2
BRANCH   1  70
ATOM     70  C   UNL     1       4.108   2.663   4.095  1.00  0.00     0.274 C 
BRANCH  70  71
ATOM     71  O   UNL     1       3.506   2.831   2.799  1.00  0.00    -0.462 OA
BRANCH  71  72
ATOM     72  C   UNL     1       4.131   2.198   1.763  1.00  0.00     0.309 C 
ATOM     73  O   UNL     1       5.184   1.581   1.873  1.00  0.00    -0.252 OA
BRANCH  72  74
ATOM     74  C   UNL     1       3.370   2.385   0.449  1.00  0.00     0.104 C 
BRANCH  74  75
ATOM     75  C   UNL     1       3.666   3.793  -0.103  1.00  0.00     0.019 C 
BRANCH  75  76
ATOM     76  C   UNL     1       2.977   4.102  -1.437  1.00  0.00    -0.010 C 
ATOM     77  C   UNL     1       1.428   4.135  -1.532  1.00  0.00     0.003 C 
ATOM     78  C   UNL     1       2.939   5.614  -1.801  1.00  0.00     0.003 C 
ATOM     79  C   UNL     1       1.556   5.374  -2.430  1.00  0.00     0.001 C 
ENDBRANCH  75  76
ENDBRANCH  74  75
BRANCH  74  80
ATOM     80  C   UNL     1       3.708   1.225  -0.518  1.00  0.00     0.050 C 
BRANCH  80  81
ATOM     81  C   UNL     1       2.564   0.245  -0.700  1.00  0.00    -0.046 A 
ATOM     82  C   UNL     1       1.561   0.494  -1.647  1.00  0.00     0.004 A 
ATOM     83  C   UNL     1       2.489  -0.929   0.061  1.00  0.00     0.019 A 
ATOM     84  C   UNL     1       0.484  -0.380  -1.808  1.00  0.00     0.001 A 
ATOM     85  C   UNL     1       1.430  -1.823  -0.132  1.00  0.00     0.018 A 
ATOM     86  C   UNL     1       0.420  -1.546  -1.051  1.00  0.00     0.016 A 
ATOM     87  Br  UNL     1       1.371  -3.439   0.849  1.00  0.00    -0.051 Br
ENDBRANCH  80  81
ENDBRANCH  74  80
ENDBRANCH  72  74
ENDBRANCH  71  72
ENDBRANCH  70  71
ENDBRANCH   1  70
TORSDOF 15
