REMARK SMILES O=C1NC(=O)/C(=C/c2ccc(OCc3cn(-c4ccc(C(=O)OCCOC(=O)c5ccc(-c6c7nc(c(-c8c(F)c(F)c(F)c(F)c8F)c8ccc([nH]8)c(-c8c(F)c(F)c(F)c(F)c8F)c8nc(c(-c9c(F)c(F)c(F)c(F)c9F)c9ccc6[nH]9)C=C8)C=C7)cc5)cc4)nn3)cc2)S1
REMARK SMILES IDX 23 1 21 2 22 3 20 4 17 5 18 6 93 7 19 8 92 9 16 10 14 11
REMARK SMILES IDX 15 12 95 13 94 14 13 15 12 16 11 17 8 18 9 19 97 20 10 21
REMARK SMILES IDX 96 22 7 23 1 24 2 25 3 26 98 27 4 28 6 30 5 31 24 32 25 33
REMARK SMILES IDX 26 34 27 35 28 36 29 37 30 38 91 39 31 40 90 41 32 42 33 43
REMARK SMILES IDX 34 44 84 45 35 46 89 47 83 48 85 49 36 50 88 51 82 52 81 53
REMARK SMILES IDX 37 55 69 56 49 57 68 58 50 59 53 60 67 61 86 62 51 63 52 64
REMARK SMILES IDX 66 66 87 67 54 68 38 69 39 70 47 71 40 72 41 73 45 74 48 75
REMARK SMILES IDX 42 76 43 77 46 78 44 79 70 80 71 81 79 82 72 83 73 84 77 85
REMARK SMILES IDX 80 86 74 87 75 88 78 89 76 90 55 91 56 92 64 93 57 94 58 95
REMARK SMILES IDX 62 96 65 97 59 98 60 99 63 100 61 101
REMARK H PARENT 3 29 85 54 53 65
REMARK Flexibility Score: inf
ROOT
ATOM      1  O   UNL     1      -8.167   9.850  -0.118  1.00  0.00    -0.458 OA
ENDROOT
BRANCH   1   2
ATOM      2  C   UNL     1      -7.710   9.431   1.088  1.00  0.00     0.338 C 
ATOM      3  O   UNL     1      -8.334   9.417   2.138  1.00  0.00    -0.246 OA
BRANCH   2   4
ATOM      4  C   UNL     1      -6.344   8.880   0.957  1.00  0.00     0.060 A 
ATOM      5  C   UNL     1      -3.739   7.896   0.919  1.00  0.00     0.066 A 
ATOM      6  C   UNL     1      -4.674   7.358   1.816  1.00  0.00     0.029 A 
ATOM      7  C   UNL     1      -4.124   8.872  -0.008  1.00  0.00     0.029 A 
ATOM      8  C   UNL     1      -5.965   7.873   1.854  1.00  0.00     0.018 A 
ATOM      9  C   UNL     1      -5.438   9.346  -0.004  1.00  0.00     0.018 A 
BRANCH   5  10
ATOM     10  N   UNL     1      -2.395   7.482   1.023  1.00  0.00    -0.220 N 
ATOM     11  C   UNL     1      -0.219   7.406   1.171  1.00  0.00     0.120 A 
ATOM     12  C   UNL     1      -1.255   8.185   0.698  1.00  0.00     0.144 A 
ATOM     13  N   UNL     1      -0.747   6.270   1.723  1.00  0.00    -0.131 NA
ATOM     14  N   UNL     1      -2.062   6.328   1.637  1.00  0.00    -0.062 NA
BRANCH  11  15
ATOM     15  C   UNL     1       1.246   7.678   1.264  1.00  0.00     0.289 C 
BRANCH  15  16
ATOM     16  O   UNL     1       2.062   7.006   0.290  1.00  0.00    -0.487 OA
BRANCH  16  17
ATOM     17  C   UNL     1       2.160   5.643   0.357  1.00  0.00     0.119 A 
ATOM     18  C   UNL     1       2.182   2.841   0.130  1.00  0.00    -0.024 A 
ATOM     19  C   UNL     1       2.696   3.634  -0.899  1.00  0.00     0.012 A 
ATOM     20  C   UNL     1       1.748   3.455   1.307  1.00  0.00     0.012 A 
ATOM     21  C   UNL     1       2.678   5.029  -0.785  1.00  0.00     0.047 A 
ATOM     22  C   UNL     1       1.765   4.846   1.429  1.00  0.00     0.047 A 
BRANCH  18  23
ATOM     23  C   UNL     1       2.121   1.384  -0.004  1.00  0.00     0.029 C 
ATOM     24  O   UNL     1      -2.449  -0.732   0.025  1.00  0.00    -0.261 OA
ATOM     25  C   UNL     1      -1.270  -0.444  -0.003  1.00  0.00     0.290 C 
ATOM     26  N   UNL     1      -0.236  -1.328  -0.046  1.00  0.00    -0.282 N 
ATOM     27  S   UNL     1      -0.641   1.191   0.008  1.00  0.00    -0.022 SA
ATOM     28  C   UNL     1       1.032  -0.834  -0.074  1.00  0.00     0.265 C 
ATOM     29  H   UNL     1      -0.401  -2.298  -0.058  1.00  0.00     0.174 HD
ATOM     30  C   UNL     1       0.998   0.652  -0.029  1.00  0.00     0.083 C 
ATOM     31  O   UNL     1       2.044  -1.517  -0.110  1.00  0.00    -0.268 OA
ENDBRANCH  18  23
ENDBRANCH  16  17
ENDBRANCH  15  16
ENDBRANCH  11  15
ENDBRANCH   5  10
ENDBRANCH   2   4
ENDBRANCH   1   2
BRANCH   1  32
ATOM     32  C   UNL     1      -9.570  10.147  -0.159  1.00  0.00     0.275 C 
BRANCH  32  33
ATOM     33  C   UNL     1     -10.387   8.910  -0.509  1.00  0.00     0.275 C 
BRANCH  33  34
ATOM     34  O   UNL     1     -10.417   7.945   0.546  1.00  0.00    -0.458 OA
BRANCH  34  35
ATOM     35  C   UNL     1      -9.518   6.942   0.423  1.00  0.00     0.338 C 
ATOM     36  O   UNL     1      -8.472   6.954  -0.204  1.00  0.00    -0.246 OA
BRANCH  35  37
ATOM     37  C   UNL     1     -10.100   5.704   0.955  1.00  0.00     0.060 A 
ATOM     38  C   UNL     1      -9.252   4.615   1.178  1.00  0.00     0.016 A 
ATOM     39  C   UNL     1     -11.495   5.564   0.984  1.00  0.00     0.016 A 
ATOM     40  C   UNL     1      -9.812   3.359   1.325  1.00  0.00     0.010 A 
ATOM     41  C   UNL     1     -12.050   4.309   1.115  1.00  0.00     0.010 A 
ATOM     42  C   UNL     1     -11.204   3.209   1.236  1.00  0.00    -0.014 A 
BRANCH  42  43
ATOM     43  C   UNL     1     -11.782   1.903   1.518  1.00  0.00     0.031 A 
ATOM     44  C   UNL     1     -11.560   1.511   2.933  1.00  0.00     0.074 A 
ATOM     45  C   UNL     1     -12.545   1.215   0.643  1.00  0.00     0.049 A 
ATOM     46  N   UNL     1     -10.863   0.514   3.362  1.00  0.00    -0.248 NA
ATOM     47  C   UNL     1     -11.994   2.435   3.999  1.00  0.00     0.031 C 
ATOM     48  C   UNL     1     -13.005   1.663  -0.675  1.00  0.00     0.029 A 
ATOM     49  N   UNL     1     -13.160   0.001   0.776  1.00  0.00    -0.354 N 
ATOM     50  C   UNL     1     -10.960   0.557   4.749  1.00  0.00     0.074 A 
ATOM     51  C   UNL     1     -11.489   1.849   5.086  1.00  0.00     0.031 C 
ATOM     52  C   UNL     1     -13.999   0.853  -1.106  1.00  0.00     0.029 A 
ATOM     53  C   UNL     1     -14.164  -0.238  -0.162  1.00  0.00     0.049 A 
ATOM     54  H   UNL     1     -12.915  -0.648   1.475  1.00  0.00     0.167 HD
ATOM     55  C   UNL     1     -10.912  -0.602   5.459  1.00  0.00     0.037 A 
ATOM     56  C   UNL     1     -15.092  -1.231  -0.129  1.00  0.00     0.037 A 
ATOM     57  C   UNL     1     -10.304  -1.645   4.669  1.00  0.00     0.049 A 
ATOM     58  C   UNL     1     -14.572  -2.284   0.771  1.00  0.00     0.074 A 
ATOM     59  C   UNL     1      -9.061  -1.885   4.122  1.00  0.00     0.029 A 
ATOM     60  N   UNL     1     -11.195  -2.430   3.991  1.00  0.00    -0.354 N 
ATOM     61  N   UNL     1     -13.554  -3.043   0.486  1.00  0.00    -0.248 NA
ATOM     62  C   UNL     1     -14.947  -2.242   2.176  1.00  0.00     0.031 C 
ATOM     63  C   UNL     1      -9.305  -2.603   2.911  1.00  0.00     0.029 A 
ATOM     64  C   UNL     1     -10.675  -2.840   2.798  1.00  0.00     0.049 A 
ATOM     65  H   UNL     1     -12.093  -2.667   4.319  1.00  0.00     0.167 HD
ATOM     66  C   UNL     1     -12.883  -3.176   1.687  1.00  0.00     0.074 A 
ATOM     67  C   UNL     1     -13.865  -2.817   2.707  1.00  0.00     0.031 C 
ATOM     68  C   UNL     1     -11.518  -3.252   1.699  1.00  0.00     0.037 A 
BRANCH  55  69
ATOM     69  C   UNL     1     -11.896  -0.929   6.571  1.00  0.00     0.064 A 
ATOM     70  C   UNL     1     -11.768  -2.163   7.242  1.00  0.00     0.173 A 
ATOM     71  C   UNL     1     -13.131  -0.266   6.765  1.00  0.00     0.173 A 
ATOM     72  F   UNL     1     -10.657  -2.901   7.106  1.00  0.00    -0.203 F 
ATOM     73  C   UNL     1     -12.820  -2.720   7.979  1.00  0.00     0.198 A 
ATOM     74  C   UNL     1     -14.157  -0.801   7.541  1.00  0.00     0.198 A 
ATOM     75  F   UNL     1     -13.453   0.862   6.124  1.00  0.00    -0.203 F 
ATOM     76  F   UNL     1     -12.697  -3.954   8.485  1.00  0.00    -0.200 F 
ATOM     77  C   UNL     1     -14.015  -2.040   8.123  1.00  0.00     0.200 A 
ATOM     78  F   UNL     1     -15.319  -0.138   7.641  1.00  0.00    -0.200 F 
ATOM     79  F   UNL     1     -15.045  -2.597   8.774  1.00  0.00    -0.200 F 
ENDBRANCH  55  69
BRANCH  56  80
ATOM     80  C   UNL     1     -16.512  -1.229  -0.572  1.00  0.00     0.064 A 
ATOM     81  C   UNL     1     -17.252  -2.426  -0.649  1.00  0.00     0.173 A 
ATOM     82  C   UNL     1     -17.258  -0.037  -0.624  1.00  0.00     0.173 A 
ATOM     83  F   UNL     1     -16.631  -3.612  -0.567  1.00  0.00    -0.203 F 
ATOM     84  C   UNL     1     -18.650  -2.427  -0.727  1.00  0.00     0.198 A 
ATOM     85  C   UNL     1     -18.653  -0.040  -0.707  1.00  0.00     0.198 A 
ATOM     86  F   UNL     1     -16.660   1.154  -0.491  1.00  0.00    -0.203 F 
ATOM     87  F   UNL     1     -19.321  -3.588  -0.720  1.00  0.00    -0.200 F 
ATOM     88  C   UNL     1     -19.350  -1.234  -0.740  1.00  0.00     0.200 A 
ATOM     89  F   UNL     1     -19.320   1.122  -0.682  1.00  0.00    -0.200 F 
ATOM     90  F   UNL     1     -20.690  -1.232  -0.740  1.00  0.00    -0.200 F 
ENDBRANCH  56  80
BRANCH  68  91
ATOM     91  C   UNL     1     -10.845  -3.663   0.420  1.00  0.00     0.064 A 
ATOM     92  C   UNL     1     -10.907  -2.954  -0.793  1.00  0.00     0.173 A 
ATOM     93  C   UNL     1     -10.049  -4.817   0.452  1.00  0.00     0.173 A 
ATOM     94  F   UNL     1     -11.568  -1.792  -0.885  1.00  0.00    -0.203 F 
ATOM     95  C   UNL     1     -10.254  -3.422  -1.933  1.00  0.00     0.198 A 
ATOM     96  C   UNL     1      -9.362  -5.255  -0.674  1.00  0.00     0.198 A 
ATOM     97  F   UNL     1      -9.917  -5.510   1.594  1.00  0.00    -0.203 F 
ATOM     98  F   UNL     1     -10.361  -2.753  -3.091  1.00  0.00    -0.200 F 
ATOM     99  C   UNL     1      -9.479  -4.569  -1.871  1.00  0.00     0.200 A 
ATOM    100  F   UNL     1      -8.579  -6.339  -0.594  1.00  0.00    -0.200 F 
ATOM    101  F   UNL     1      -8.832  -5.006  -2.960  1.00  0.00    -0.200 F 
ENDBRANCH  68  91
ENDBRANCH  42  43
ENDBRANCH  35  37
ENDBRANCH  34  35
ENDBRANCH  33  34
ENDBRANCH  32  33
ENDBRANCH   1  32
TORSDOF 16
