REMARK SMILES O=C(COCCNC(=O)c1ccn[nH]1)OCCOC(=O)c1ccc(-c2c3nc(c(-c4c(F)c(F)c(F)c(F)c4F)c4ccc([nH]4)c(-c4c(F)c(F)c(F)c(F)c4F)c4nc(c(-c5c(F)c(F)c(F)c(F)c5F)c5ccc2[nH]5)C=C4)C=C3)cc1
REMARK SMILES IDX 15 1 2 2 1 3 3 4 4 5 5 6 6 7 7 8 8 9 9 11 10 12 11 13 14 14
REMARK SMILES IDX 12 15 13 16 16 18 17 19 18 20 19 21 20 22 21 23 22 24 83 25
REMARK SMILES IDX 23 26 82 27 24 28 25 29 26 30 76 31 27 32 81 33 75 34 77 35
REMARK SMILES IDX 28 36 80 37 74 38 73 39 29 41 61 42 41 43 60 44 42 45 45 46
REMARK SMILES IDX 59 47 78 48 43 49 44 50 58 52 79 53 46 54 30 55 31 56 39 57
REMARK SMILES IDX 32 58 33 59 37 60 40 61 34 62 35 63 38 64 36 65 62 66 63 67
REMARK SMILES IDX 71 68 64 69 65 70 69 71 72 72 66 73 67 74 70 75 68 76 47 77
REMARK SMILES IDX 48 78 56 79 49 80 50 81 54 82 57 83 51 84 52 85 55 86 53 87
REMARK H PARENT 7 10 14 17 77 40 45 51
REMARK Flexibility Score: inf
ROOT
ATOM      1  O   UNL     1       3.359  -0.860  -0.885  1.00  0.00    -0.460 OA
ENDROOT
BRANCH   1   2
ATOM      2  C   UNL     1       2.760  -0.619   0.305  1.00  0.00     0.332 C 
ATOM      3  O   UNL     1       1.591  -0.963   0.481  1.00  0.00    -0.250 OA
BRANCH   2   4
ATOM      4  C   UNL     1       3.541   0.100   1.412  1.00  0.00     0.282 C 
BRANCH   4   5
ATOM      5  O   UNL     1       3.819  -0.622   2.599  1.00  0.00    -0.368 OA
BRANCH   5   6
ATOM      6  C   UNL     1       2.683  -0.984   3.391  1.00  0.00     0.182 C 
BRANCH   6   7
ATOM      7  C   UNL     1       2.037   0.210   4.109  1.00  0.00     0.144 C 
BRANCH   7   8
ATOM      8  N   UNL     1       1.034   0.895   3.304  1.00  0.00    -0.348 N 
ATOM      9  C   UNL     1      -0.260   0.538   3.030  1.00  0.00     0.269 C 
ATOM     10  H   UNL     1       1.331   1.741   2.895  1.00  0.00     0.163 HD
ATOM     11  O   UNL     1      -0.831   1.103   2.100  1.00  0.00    -0.268 OA
BRANCH   9  12
ATOM     12  C   UNL     1      -0.900  -0.472   3.817  1.00  0.00     0.122 A 
ATOM     13  C   UNL     1      -0.955  -0.710   5.176  1.00  0.00     0.055 A 
ATOM     14  N   UNL     1      -1.748  -1.393   3.261  1.00  0.00    -0.273 N 
ATOM     15  C   UNL     1      -1.810  -1.817   5.322  1.00  0.00     0.135 A 
ATOM     16  N   UNL     1      -2.276  -2.252   4.152  1.00  0.00    -0.183 NA
ATOM     17  H   UNL     1      -1.952  -1.424   2.298  1.00  0.00     0.190 HD
ENDBRANCH   9  12
ENDBRANCH   7   8
ENDBRANCH   6   7
ENDBRANCH   5   6
ENDBRANCH   4   5
ENDBRANCH   2   4
ENDBRANCH   1   2
BRANCH   1  18
ATOM     18  C   UNL     1       4.713  -0.500  -1.227  1.00  0.00     0.274 C 
BRANCH  18  19
ATOM     19  C   UNL     1       4.774   0.876  -1.893  1.00  0.00     0.275 C 
BRANCH  19  20
ATOM     20  O   UNL     1       4.232   1.896  -1.029  1.00  0.00    -0.458 OA
BRANCH  20  21
ATOM     21  C   UNL     1       2.981   2.320  -1.343  1.00  0.00     0.338 C 
ATOM     22  O   UNL     1       2.308   1.959  -2.295  1.00  0.00    -0.246 OA
BRANCH  21  23
ATOM     23  C   UNL     1       2.460   3.203  -0.273  1.00  0.00     0.060 A 
ATOM     24  C   UNL     1       1.110   3.087   0.071  1.00  0.00     0.016 A 
ATOM     25  C   UNL     1       3.268   4.141   0.381  1.00  0.00     0.016 A 
ATOM     26  C   UNL     1       0.559   3.923   1.045  1.00  0.00     0.010 A 
ATOM     27  C   UNL     1       2.712   4.981   1.357  1.00  0.00     0.010 A 
ATOM     28  C   UNL     1       1.348   4.891   1.682  1.00  0.00    -0.014 A 
BRANCH  28  29
ATOM     29  C   UNL     1       0.707   5.857   2.610  1.00  0.00     0.031 A 
ATOM     30  C   UNL     1       0.231   7.183   2.086  1.00  0.00     0.074 A 
ATOM     31  C   UNL     1       0.499   5.542   3.901  1.00  0.00     0.049 A 
ATOM     32  N   UNL     1      -0.440   8.125   2.700  1.00  0.00    -0.248 NA
ATOM     33  C   UNL     1       0.559   7.490   0.686  1.00  0.00     0.031 C 
ATOM     34  C   UNL     1       0.919   4.301   4.543  1.00  0.00     0.029 A 
ATOM     35  N   UNL     1      -0.125   6.244   4.903  1.00  0.00    -0.354 N 
ATOM     36  C   UNL     1      -0.647   9.119   1.754  1.00  0.00     0.074 A 
ATOM     37  C   UNL     1       0.022   8.693   0.542  1.00  0.00     0.031 C 
ATOM     38  C   UNL     1       0.531   4.319   5.830  1.00  0.00     0.029 A 
ATOM     39  C   UNL     1      -0.149   5.583   6.107  1.00  0.00     0.049 A 
ATOM     40  H   UNL     1      -0.518   7.137   4.771  1.00  0.00     0.167 HD
ATOM     41  C   UNL     1      -1.349  10.271   1.875  1.00  0.00     0.037 A 
ATOM     42  C   UNL     1      -0.659   5.956   7.297  1.00  0.00     0.037 A 
ATOM     43  C   UNL     1      -1.990  10.720   3.083  1.00  0.00     0.049 A 
ATOM     44  C   UNL     1      -1.381   7.273   7.420  1.00  0.00     0.074 A 
ATOM     45  C   UNL     1      -2.719  11.877   3.296  1.00  0.00     0.029 A 
ATOM     46  N   UNL     1      -1.969  10.036   4.289  1.00  0.00    -0.354 N 
ATOM     47  N   UNL     1      -1.623   8.177   6.503  1.00  0.00    -0.248 NA
ATOM     48  C   UNL     1      -1.912   7.614   8.749  1.00  0.00     0.031 C 
ATOM     49  C   UNL     1      -3.103  11.915   4.641  1.00  0.00     0.029 A 
ATOM     50  C   UNL     1      -2.653  10.758   5.255  1.00  0.00     0.049 A 
ATOM     51  H   UNL     1      -1.533   9.166   4.438  1.00  0.00     0.167 HD
ATOM     52  C   UNL     1      -2.354   9.175   7.133  1.00  0.00     0.074 A 
ATOM     53  C   UNL     1      -2.536   8.758   8.507  1.00  0.00     0.031 C 
ATOM     54  C   UNL     1      -2.830  10.336   6.620  1.00  0.00     0.037 A 
BRANCH  41  55
ATOM     55  C   UNL     1      -1.462  11.135   0.655  1.00  0.00     0.064 A 
ATOM     56  C   UNL     1      -2.287  10.768  -0.419  1.00  0.00     0.173 A 
ATOM     57  C   UNL     1      -0.778  12.356   0.575  1.00  0.00     0.173 A 
ATOM     58  F   UNL     1      -2.950   9.603  -0.394  1.00  0.00    -0.203 F 
ATOM     59  C   UNL     1      -2.408  11.586  -1.539  1.00  0.00     0.198 A 
ATOM     60  C   UNL     1      -0.921  13.183  -0.536  1.00  0.00     0.198 A 
ATOM     61  F   UNL     1       0.020  12.752   1.578  1.00  0.00    -0.203 F 
ATOM     62  F   UNL     1      -3.172  11.200  -2.570  1.00  0.00    -0.200 F 
ATOM     63  C   UNL     1      -1.731  12.796  -1.593  1.00  0.00     0.200 A 
ATOM     64  F   UNL     1      -0.275  14.356  -0.584  1.00  0.00    -0.200 F 
ATOM     65  F   UNL     1      -1.855  13.586  -2.668  1.00  0.00    -0.200 F 
ENDBRANCH  41  55
BRANCH  42  66
ATOM     66  C   UNL     1      -0.506   5.074   8.483  1.00  0.00     0.064 A 
ATOM     67  C   UNL     1      -1.614   4.446   9.070  1.00  0.00     0.173 A 
ATOM     68  C   UNL     1       0.746   4.887   9.086  1.00  0.00     0.173 A 
ATOM     69  F   UNL     1      -2.836   4.617   8.545  1.00  0.00    -0.203 F 
ATOM     70  C   UNL     1      -1.479   3.689  10.232  1.00  0.00     0.198 A 
ATOM     71  C   UNL     1       0.884   4.106  10.231  1.00  0.00     0.198 A 
ATOM     72  F   UNL     1       1.837   5.466   8.563  1.00  0.00    -0.203 F 
ATOM     73  F   UNL     1      -2.562   3.148  10.806  1.00  0.00    -0.200 F 
ATOM     74  C   UNL     1      -0.230   3.518  10.810  1.00  0.00     0.200 A 
ATOM     75  F   UNL     1       2.094   3.934  10.780  1.00  0.00    -0.200 F 
ATOM     76  F   UNL     1      -0.102   2.795  11.931  1.00  0.00    -0.200 F 
ENDBRANCH  42  66
BRANCH  54  77
ATOM     77  C   UNL     1      -3.613  11.227   7.543  1.00  0.00     0.064 A 
ATOM     78  C   UNL     1      -2.995  11.930   8.588  1.00  0.00     0.173 A 
ATOM     79  C   UNL     1      -4.996  11.394   7.370  1.00  0.00     0.173 A 
ATOM     80  F   UNL     1      -1.678  11.795   8.805  1.00  0.00    -0.203 F 
ATOM     81  C   UNL     1      -3.736  12.740   9.445  1.00  0.00     0.198 A 
ATOM     82  C   UNL     1      -5.729  12.227   8.211  1.00  0.00     0.198 A 
ATOM     83  F   UNL     1      -5.637  10.751   6.382  1.00  0.00    -0.203 F 
ATOM     84  F   UNL     1      -3.132  13.357  10.470  1.00  0.00    -0.200 F 
ATOM     85  C   UNL     1      -5.101  12.892   9.253  1.00  0.00     0.200 A 
ATOM     86  F   UNL     1      -7.046  12.383   8.016  1.00  0.00    -0.200 F 
ATOM     87  F   UNL     1      -5.813  13.671  10.079  1.00  0.00    -0.200 F 
ENDBRANCH  54  77
ENDBRANCH  28  29
ENDBRANCH  21  23
ENDBRANCH  20  21
ENDBRANCH  19  20
ENDBRANCH  18  19
ENDBRANCH   1  18
TORSDOF 16
