REMARK SMILES O=C(Cc1ccccc1Nc1c(F)cccc1C(F)(F)F)OCCOC(=O)c1ccc(-c2c3nc(c(-c4c(F)c(F)c(F)c(F)c4F)c4ccc([nH]4)c(-c4c(F)c(F)c(F)c(F)c4F)c4nc(c(-c5c(F)c(F)c(F)c(F)c5F)c5ccc2[nH]5)C=C4)C=C3)cc1
REMARK SMILES IDX 23 1 22 2 2 3 1 4 3 5 4 6 5 7 9 8 6 9 8 10 7 11 10 12 11 14
REMARK SMILES IDX 12 15 17 16 13 17 14 18 16 19 15 20 18 21 19 22 20 23 21 24
REMARK SMILES IDX 24 25 25 26 26 27 27 28 28 29 29 30 90 31 30 32 89 33 31 34
REMARK SMILES IDX 32 35 33 36 83 37 34 38 88 39 82 40 84 41 35 42 87 43 81 44
REMARK SMILES IDX 80 45 36 47 68 48 48 49 67 50 49 51 52 52 66 53 85 54 50 55
REMARK SMILES IDX 51 56 65 58 86 59 53 60 37 61 38 62 46 63 39 64 40 65 44 66
REMARK SMILES IDX 47 67 41 68 42 69 45 70 43 71 69 72 70 73 78 74 71 75 72 76
REMARK SMILES IDX 76 77 79 78 73 79 74 80 77 81 75 82 54 83 55 84 63 85 56 86
REMARK SMILES IDX 57 87 61 88 64 89 58 90 59 91 62 92 60 93
REMARK H PARENT 10 13 84 46 52 57
REMARK Flexibility Score: inf
ROOT
ATOM      1  C   UNL     1       4.596  -0.988  -0.561  1.00  0.00     0.274 C 
ENDROOT
BRANCH   1   2
ATOM      2  O   UNL     1       3.272  -1.171  -0.012  1.00  0.00    -0.462 OA
BRANCH   2   3
ATOM      3  C   UNL     1       2.565  -0.229   0.655  1.00  0.00     0.310 C 
ATOM      4  O   UNL     1       1.473  -0.510   1.146  1.00  0.00    -0.252 OA
BRANCH   3   5
ATOM      5  C   UNL     1       3.138   1.158   0.793  1.00  0.00     0.160 C 
BRANCH   5   6
ATOM      6  C   UNL     1       3.992   1.449   2.009  1.00  0.00    -0.013 A 
ATOM      7  C   UNL     1       4.376   0.428   2.895  1.00  0.00     0.006 A 
ATOM      8  C   UNL     1       4.441   2.773   2.246  1.00  0.00     0.042 A 
ATOM      9  C   UNL     1       5.191   0.702   3.992  1.00  0.00     0.000 A 
ATOM     10  C   UNL     1       5.268   3.021   3.352  1.00  0.00     0.026 A 
ATOM     11  C   UNL     1       5.634   1.998   4.223  1.00  0.00     0.002 A 
BRANCH   8  12
ATOM     12  N   UNL     1       4.113   3.810   1.338  1.00  0.00    -0.352 N 
ATOM     13  H   UNL     1       3.558   3.552   0.567  1.00  0.00     0.167 HD
BRANCH  12  14
ATOM     14  C   UNL     1       4.490   5.166   1.408  1.00  0.00     0.087 A 
ATOM     15  C   UNL     1       3.565   6.077   1.938  1.00  0.00     0.147 A 
ATOM     16  C   UNL     1       5.760   5.637   1.044  1.00  0.00     0.082 A 
ATOM     17  F   UNL     1       2.365   5.633   2.346  1.00  0.00    -0.205 F 
ATOM     18  C   UNL     1       3.853   7.426   2.072  1.00  0.00     0.041 A 
ATOM     19  C   UNL     1       6.037   7.018   1.166  1.00  0.00     0.015 A 
ATOM     20  C   UNL     1       5.087   7.909   1.663  1.00  0.00     0.004 A 
BRANCH  16  21
ATOM     21  C   UNL     1       6.861   4.722   0.571  1.00  0.00     0.418 C 
ATOM     22  F   UNL     1       7.753   5.365  -0.241  1.00  0.00    -0.166 F 
ATOM     23  F   UNL     1       7.607   4.238   1.604  1.00  0.00    -0.166 F 
ATOM     24  F   UNL     1       6.449   3.643  -0.150  1.00  0.00    -0.166 F 
ENDBRANCH  16  21
ENDBRANCH  12  14
ENDBRANCH   8  12
ENDBRANCH   5   6
ENDBRANCH   3   5
ENDBRANCH   2   3
ENDBRANCH   1   2
BRANCH   1  25
ATOM     25  C   UNL     1       4.542  -0.735  -2.069  1.00  0.00     0.275 C 
BRANCH  25  26
ATOM     26  O   UNL     1       4.046   0.590  -2.345  1.00  0.00    -0.458 OA
BRANCH  26  27
ATOM     27  C   UNL     1       2.722   0.679  -2.633  1.00  0.00     0.338 C 
ATOM     28  O   UNL     1       1.947  -0.244  -2.774  1.00  0.00    -0.246 OA
BRANCH  27  29
ATOM     29  C   UNL     1       2.295   2.101  -2.583  1.00  0.00     0.060 A 
ATOM     30  C   UNL     1       1.010   2.383  -2.100  1.00  0.00     0.016 A 
ATOM     31  C   UNL     1       3.127   3.147  -2.993  1.00  0.00     0.016 A 
ATOM     32  C   UNL     1       0.541   3.700  -2.062  1.00  0.00     0.010 A 
ATOM     33  C   UNL     1       2.656   4.466  -2.952  1.00  0.00     0.010 A 
ATOM     34  C   UNL     1       1.350   4.752  -2.511  1.00  0.00    -0.014 A 
BRANCH  34  35
ATOM     35  C   UNL     1       0.810   6.133  -2.635  1.00  0.00     0.031 A 
ATOM     36  C   UNL     1       0.434   6.660  -3.992  1.00  0.00     0.074 A 
ATOM     37  C   UNL     1       0.636   6.927  -1.562  1.00  0.00     0.049 A 
ATOM     38  N   UNL     1       0.009   7.854  -4.326  1.00  0.00    -0.248 NA
ATOM     39  C   UNL     1       0.518   5.713  -5.113  1.00  0.00     0.031 C 
ATOM     40  C   UNL     1       0.845   6.536  -0.174  1.00  0.00     0.029 A 
ATOM     41  N   UNL     1       0.271   8.252  -1.483  1.00  0.00    -0.354 N 
ATOM     42  C   UNL     1      -0.284   7.783  -5.679  1.00  0.00     0.074 A 
ATOM     43  C   UNL     1       0.093   6.457  -6.125  1.00  0.00     0.031 C 
ATOM     44  C   UNL     1       0.692   7.616   0.612  1.00  0.00     0.029 A 
ATOM     45  C   UNL     1       0.404   8.776  -0.221  1.00  0.00     0.049 A 
ATOM     46  H   UNL     1      -0.053   8.771  -2.254  1.00  0.00     0.167 HD
ATOM     47  C   UNL     1      -0.863   8.720  -6.467  1.00  0.00     0.037 A 
ATOM     48  C   UNL     1       0.351  10.051   0.207  1.00  0.00     0.037 A 
ATOM     49  C   UNL     1      -1.222  10.046  -6.040  1.00  0.00     0.049 A 
ATOM     50  C   UNL     1      -0.044  11.143  -0.740  1.00  0.00     0.074 A 
ATOM     51  C   UNL     1      -1.863  11.041  -6.760  1.00  0.00     0.029 A 
ATOM     52  N   UNL     1      -0.951  10.575  -4.789  1.00  0.00    -0.354 N 
ATOM     53  N   UNL     1      -0.346  11.062  -2.010  1.00  0.00    -0.248 NA
ATOM     54  C   UNL     1      -0.146  12.497  -0.178  1.00  0.00     0.031 C 
ATOM     55  C   UNL     1      -1.925  12.191  -5.964  1.00  0.00     0.029 A 
ATOM     56  C   UNL     1      -1.372  11.895  -4.730  1.00  0.00     0.049 A 
ATOM     57  H   UNL     1      -0.522  10.085  -4.050  1.00  0.00     0.167 HD
ATOM     58  C   UNL     1      -0.742  12.337  -2.383  1.00  0.00     0.074 A 
ATOM     59  C   UNL     1      -0.600  13.183  -1.217  1.00  0.00     0.031 C 
ATOM     60  C   UNL     1      -1.226  12.748  -3.580  1.00  0.00     0.037 A 
BRANCH  47  61
ATOM     61  C   UNL     1      -1.165   8.332  -7.883  1.00  0.00     0.064 A 
ATOM     62  C   UNL     1      -2.211   7.447  -8.185  1.00  0.00     0.173 A 
ATOM     63  C   UNL     1      -0.447   8.893  -8.947  1.00  0.00     0.173 A 
ATOM     64  F   UNL     1      -2.921   6.878  -7.198  1.00  0.00    -0.203 F 
ATOM     65  C   UNL     1      -2.515   7.123  -9.503  1.00  0.00     0.198 A 
ATOM     66  C   UNL     1      -0.769   8.585 -10.265  1.00  0.00     0.198 A 
ATOM     67  F   UNL     1       0.559   9.748  -8.708  1.00  0.00    -0.203 F 
ATOM     68  F   UNL     1      -3.496   6.249  -9.768  1.00  0.00    -0.200 F 
ATOM     69  C   UNL     1      -1.799   7.698 -10.543  1.00  0.00     0.200 A 
ATOM     70  F   UNL     1      -0.084   9.149 -11.270  1.00  0.00    -0.200 F 
ATOM     71  F   UNL     1      -2.099   7.394 -11.813  1.00  0.00    -0.200 F 
ENDBRANCH  47  61
BRANCH  48  72
ATOM     72  C   UNL     1       0.755  10.400   1.589  1.00  0.00     0.064 A 
ATOM     73  C   UNL     1      -0.180  10.613   2.607  1.00  0.00     0.173 A 
ATOM     74  C   UNL     1       2.110  10.607   1.885  1.00  0.00     0.173 A 
ATOM     75  F   UNL     1      -1.489  10.481   2.350  1.00  0.00    -0.203 F 
ATOM     76  C   UNL     1       0.228  11.016   3.878  1.00  0.00     0.198 A 
ATOM     77  C   UNL     1       2.518  10.988   3.160  1.00  0.00     0.198 A 
ATOM     78  F   UNL     1       3.037  10.441   0.930  1.00  0.00    -0.203 F 
ATOM     79  F   UNL     1      -0.685  11.253   4.829  1.00  0.00    -0.200 F 
ATOM     80  C   UNL     1       1.577  11.196   4.155  1.00  0.00     0.200 A 
ATOM     81  F   UNL     1       3.823  11.153   3.419  1.00  0.00    -0.200 F 
ATOM     82  F   UNL     1       1.968  11.583   5.377  1.00  0.00    -0.200 F 
ENDBRANCH  48  72
BRANCH  60  83
ATOM     83  C   UNL     1      -1.713  14.163  -3.669  1.00  0.00     0.064 A 
ATOM     84  C   UNL     1      -0.834  15.254  -3.679  1.00  0.00     0.173 A 
ATOM     85  C   UNL     1      -3.090  14.426  -3.742  1.00  0.00     0.173 A 
ATOM     86  F   UNL     1       0.490  15.056  -3.582  1.00  0.00    -0.203 F 
ATOM     87  C   UNL     1      -1.317  16.560  -3.734  1.00  0.00     0.198 A 
ATOM     88  C   UNL     1      -3.567  15.730  -3.827  1.00  0.00     0.198 A 
ATOM     89  F   UNL     1      -3.973  13.417  -3.730  1.00  0.00    -0.203 F 
ATOM     90  F   UNL     1      -0.461  17.590  -3.686  1.00  0.00    -0.200 F 
ATOM     91  C   UNL     1      -2.681  16.796  -3.815  1.00  0.00     0.200 A 
ATOM     92  F   UNL     1      -4.886  15.955  -3.911  1.00  0.00    -0.200 F 
ATOM     93  F   UNL     1      -3.143  18.053  -3.867  1.00  0.00    -0.200 F 
ENDBRANCH  60  83
ENDBRANCH  34  35
ENDBRANCH  27  29
ENDBRANCH  26  27
ENDBRANCH  25  26
ENDBRANCH   1  25
TORSDOF 15
