REMARK SMILES C[C@H]1C[N@H+]2CCCC[C@@H]2CN1C(=O)[C@H]([NH3+])CC(=O)OCCOC(=O)c1ccc(-c2c3nc(c(-c4c(F)c(F)c(F)c(F)c4F)c4ccc([nH]4)c(-c4c(F)c(F)c(F)c(F)c4F)c4nc(c(-c5c(F)c(F)c(F)c(F)c5F)c5ccc2[nH]5)C=C4)C=C3)cc1
REMARK SMILES IDX 20 1 19 2 17 3 18 4 16 5 14 6 12 7 13 8 11 9 1 10 2 11 3 12
REMARK SMILES IDX 4 13 10 14 5 15 9 16 6 18 8 19 7 20 15 21 21 25 22 26 23 27
REMARK SMILES IDX 24 28 25 29 26 30 87 31 27 32 86 33 28 34 29 35 30 36 80 37
REMARK SMILES IDX 31 38 85 39 79 40 81 41 32 42 84 43 78 44 77 45 33 47 65 48
REMARK SMILES IDX 45 49 64 50 46 51 49 52 63 53 82 54 47 55 48 56 62 58 83 59
REMARK SMILES IDX 50 60 34 61 35 62 43 63 36 64 37 65 41 66 44 67 38 68 39 69
REMARK SMILES IDX 42 70 40 71 66 72 67 73 75 74 68 75 69 76 73 77 76 78 70 79
REMARK SMILES IDX 71 80 74 81 72 82 51 83 52 84 60 85 53 86 54 87 58 88 61 89
REMARK SMILES IDX 55 90 56 91 59 92 57 93
REMARK H PARENT 4 17 15 22 15 23 15 24 81 46 49 57
REMARK Flexibility Score: inf
ROOT
ATOM      1  C   UNL     1       4.973   1.791  -1.702  1.00  0.00     0.274 C 
ENDROOT
BRANCH   1   2
ATOM      2  O   UNL     1       3.625   2.299  -1.704  1.00  0.00    -0.462 OA
BRANCH   2   3
ATOM      3  C   UNL     1       3.483   3.624  -1.978  1.00  0.00     0.312 C 
ATOM      4  O   UNL     1       4.405   4.401  -2.191  1.00  0.00    -0.252 OA
BRANCH   3   5
ATOM      5  C   UNL     1       2.050   4.062  -1.872  1.00  0.00     0.198 C 
BRANCH   5   6
ATOM      6  C   UNL     1       1.063   3.255  -2.721  1.00  0.00     0.282 C 
BRANCH   6   7
ATOM      7  C   UNL     1      -0.277   4.023  -2.886  1.00  0.00     0.282 C 
ATOM      8  O   UNL     1      -0.476   4.588  -3.967  1.00  0.00    -0.268 OA
BRANCH   7   9
ATOM      9  N   UNL     1      -1.181   4.091  -1.828  1.00  0.00    -0.323 N 
ATOM     10  C   UNL     1      -3.079   4.965  -3.347  1.00  0.00     0.037 C 
ATOM     11  C   UNL     1      -2.526   4.725  -1.937  1.00  0.00     0.137 C 
ATOM     12  C   UNL     1      -3.602   3.892  -1.155  1.00  0.00     0.287 C 
ATOM     13  N   UNL     1      -3.207   3.461   0.208  1.00  0.00    -0.329 N 
ATOM     14  C   UNL     1      -0.857   3.729  -0.447  1.00  0.00     0.185 C 
ATOM     15  C   UNL     1      -4.237   2.584   0.786  1.00  0.00     0.262 C 
ATOM     16  C   UNL     1      -1.903   2.773   0.141  1.00  0.00     0.203 C 
ATOM     17  H   UNL     1      -3.119   4.277   0.813  1.00  0.00     0.348 HD
ATOM     18  C   UNL     1      -3.840   2.085   2.178  1.00  0.00     0.062 C 
ATOM     19  C   UNL     1      -1.442   2.300   1.526  1.00  0.00     0.067 C 
ATOM     20  C   UNL     1      -2.484   1.390   2.159  1.00  0.00     0.012 C 
ENDBRANCH   7   9
ENDBRANCH   6   7
BRANCH   6  21
ATOM     21  N   UNL     1       0.830   1.840  -2.365  1.00  0.00    -0.347 N 
ATOM     22  H   UNL     1       0.340   1.790  -1.472  1.00  0.00     0.345 HD
ATOM     23  H   UNL     1       1.726   1.357  -2.289  1.00  0.00     0.345 HD
ATOM     24  H   UNL     1       0.265   1.396  -3.089  1.00  0.00     0.345 HD
ENDBRANCH   6  21
ENDBRANCH   5   6
ENDBRANCH   3   5
ENDBRANCH   2   3
ENDBRANCH   1   2
BRANCH   1  25
ATOM     25  C   UNL     1       5.356   1.190  -3.057  1.00  0.00     0.275 C 
BRANCH  25  26
ATOM     26  O   UNL     1       5.494   2.205  -4.067  1.00  0.00    -0.458 OA
BRANCH  26  27
ATOM     27  C   UNL     1       4.385   2.427  -4.812  1.00  0.00     0.338 C 
ATOM     28  O   UNL     1       3.323   1.837  -4.741  1.00  0.00    -0.246 OA
BRANCH  27  29
ATOM     29  C   UNL     1       4.605   3.589  -5.686  1.00  0.00     0.060 A 
ATOM     30  C   UNL     1       3.857   4.752  -5.473  1.00  0.00     0.016 A 
ATOM     31  C   UNL     1       5.494   3.499  -6.757  1.00  0.00     0.016 A 
ATOM     32  C   UNL     1       4.000   5.840  -6.333  1.00  0.00     0.010 A 
ATOM     33  C   UNL     1       5.633   4.588  -7.619  1.00  0.00     0.010 A 
ATOM     34  C   UNL     1       4.882   5.761  -7.417  1.00  0.00    -0.014 A 
BRANCH  34  35
ATOM     35  C   UNL     1       5.004   6.875  -8.384  1.00  0.00     0.031 A 
ATOM     36  C   UNL     1       4.381   6.742  -9.741  1.00  0.00     0.074 A 
ATOM     37  C   UNL     1       5.719   7.968  -8.066  1.00  0.00     0.049 A 
ATOM     38  N   UNL     1       4.543   7.487 -10.804  1.00  0.00    -0.248 NA
ATOM     39  C   UNL     1       3.461   5.609  -9.931  1.00  0.00     0.031 C 
ATOM     40  C   UNL     1       6.333   8.226  -6.764  1.00  0.00     0.029 A 
ATOM     41  N   UNL     1       6.077   9.052  -8.829  1.00  0.00    -0.354 N 
ATOM     42  C   UNL     1       3.773   6.897 -11.797  1.00  0.00     0.074 A 
ATOM     43  C   UNL     1       3.143   5.732 -11.212  1.00  0.00     0.031 C 
ATOM     44  C   UNL     1       7.021   9.378  -6.828  1.00  0.00     0.029 A 
ATOM     45  C   UNL     1       6.936   9.909  -8.186  1.00  0.00     0.049 A 
ATOM     46  H   UNL     1       5.751   9.199  -9.746  1.00  0.00     0.167 HD
ATOM     47  C   UNL     1       3.615   7.295 -13.081  1.00  0.00     0.037 A 
ATOM     48  C   UNL     1       7.615  10.973  -8.656  1.00  0.00     0.037 A 
ATOM     49  C   UNL     1       4.224   8.471 -13.644  1.00  0.00     0.049 A 
ATOM     50  C   UNL     1       7.455  11.370 -10.100  1.00  0.00     0.074 A 
ATOM     51  C   UNL     1       4.099   8.976 -14.927  1.00  0.00     0.029 A 
ATOM     52  N   UNL     1       5.071   9.326 -12.956  1.00  0.00    -0.354 N 
ATOM     53  N   UNL     1       6.725  10.812 -11.035  1.00  0.00    -0.248 NA
ATOM     54  C   UNL     1       8.217  12.542 -10.557  1.00  0.00     0.031 C 
ATOM     55  C   UNL     1       4.902  10.116 -15.026  1.00  0.00     0.029 A 
ATOM     56  C   UNL     1       5.492  10.345 -13.793  1.00  0.00     0.049 A 
ATOM     57  H   UNL     1       5.334   9.223 -12.013  1.00  0.00     0.167 HD
ATOM     58  C   UNL     1       6.915  11.577 -12.177  1.00  0.00     0.074 A 
ATOM     59  C   UNL     1       7.828  12.643 -11.821  1.00  0.00     0.031 C 
ATOM     60  C   UNL     1       6.380  11.412 -13.411  1.00  0.00     0.037 A 
BRANCH  47  61
ATOM     61  C   UNL     1       2.776   6.441 -13.981  1.00  0.00     0.064 A 
ATOM     62  C   UNL     1       1.377   6.429 -13.894  1.00  0.00     0.173 A 
ATOM     63  C   UNL     1       3.381   5.675 -14.990  1.00  0.00     0.173 A 
ATOM     64  F   UNL     1       0.754   7.137 -12.941  1.00  0.00    -0.203 F 
ATOM     65  C   UNL     1       0.613   5.672 -14.780  1.00  0.00     0.198 A 
ATOM     66  C   UNL     1       2.613   4.938 -15.887  1.00  0.00     0.198 A 
ATOM     67  F   UNL     1       4.716   5.658 -15.117  1.00  0.00    -0.203 F 
ATOM     68  F   UNL     1      -0.722   5.655 -14.665  1.00  0.00    -0.200 F 
ATOM     69  C   UNL     1       1.231   4.935 -15.780  1.00  0.00     0.200 A 
ATOM     70  F   UNL     1       3.211   4.237 -16.860  1.00  0.00    -0.200 F 
ATOM     71  F   UNL     1       0.493   4.221 -16.640  1.00  0.00    -0.200 F 
ENDBRANCH  47  61
BRANCH  48  72
ATOM     72  C   UNL     1       8.542  11.714  -7.763  1.00  0.00     0.064 A 
ATOM     73  C   UNL     1       8.255  13.019  -7.344  1.00  0.00     0.173 A 
ATOM     74  C   UNL     1       9.741  11.134  -7.319  1.00  0.00     0.173 A 
ATOM     75  F   UNL     1       7.134  13.625  -7.764  1.00  0.00    -0.203 F 
ATOM     76  C   UNL     1       9.139  13.724  -6.529  1.00  0.00     0.198 A 
ATOM     77  C   UNL     1      10.610  11.829  -6.482  1.00  0.00     0.198 A 
ATOM     78  F   UNL     1      10.064   9.888  -7.695  1.00  0.00    -0.203 F 
ATOM     79  F   UNL     1       8.862  14.988  -6.181  1.00  0.00    -0.200 F 
ATOM     80  C   UNL     1      10.312  13.127  -6.094  1.00  0.00     0.200 A 
ATOM     81  F   UNL     1      11.738  11.245  -6.057  1.00  0.00    -0.200 F 
ATOM     82  F   UNL     1      11.161  13.805  -5.310  1.00  0.00    -0.200 F 
ENDBRANCH  48  72
BRANCH  60  83
ATOM     83  C   UNL     1       6.720  12.431 -14.456  1.00  0.00     0.064 A 
ATOM     84  C   UNL     1       7.965  12.436 -15.099  1.00  0.00     0.173 A 
ATOM     85  C   UNL     1       5.758  13.364 -14.869  1.00  0.00     0.173 A 
ATOM     86  F   UNL     1       8.921  11.571 -14.728  1.00  0.00    -0.203 F 
ATOM     87  C   UNL     1       8.238  13.347 -16.116  1.00  0.00     0.198 A 
ATOM     88  C   UNL     1       6.026  14.258 -15.901  1.00  0.00     0.198 A 
ATOM     89  F   UNL     1       4.550  13.393 -14.287  1.00  0.00    -0.203 F 
ATOM     90  F   UNL     1       9.443  13.354 -16.701  1.00  0.00    -0.200 F 
ATOM     91  C   UNL     1       7.266  14.251 -16.522  1.00  0.00     0.200 A 
ATOM     92  F   UNL     1       5.082  15.123 -16.300  1.00  0.00    -0.200 F 
ATOM     93  F   UNL     1       7.526  15.117 -17.511  1.00  0.00    -0.200 F 
ENDBRANCH  60  83
ENDBRANCH  34  35
ENDBRANCH  27  29
ENDBRANCH  26  27
ENDBRANCH  25  26
ENDBRANCH   1  25
TORSDOF 15
