REMARK SMILES CC(C)[C@H](NC(=O)[C@H](Cc1ccccc1)n1c(=O)[nH]c2ccccc2c1=O)C(=O)OCCOC(=O)c1ccc(-c2c3nc(c(-c4c(F)c(F)c(F)c(F)c4F)c4ccc([nH]4)c(-c4c(F)c(F)c(F)c(F)c4F)c4nc(c(-c5c(F)c(F)c(F)c(F)c5F)c5ccc2[nH]5)C=C4)C=C3)cc1
REMARK SMILES IDX 31 1 30 2 28 3 29 4 4 5 2 6 1 7 3 8 5 9 6 10 7 12 8 13 16 14
REMARK SMILES IDX 17 15 26 16 18 17 19 18 25 19 27 20 20 21 24 23 21 24 23 25
REMARK SMILES IDX 22 26 9 27 10 28 11 29 15 30 12 31 14 32 13 33 32 34 33 35
REMARK SMILES IDX 34 36 35 37 36 38 37 39 98 40 38 41 97 42 39 43 40 44 41 45
REMARK SMILES IDX 91 46 42 47 96 48 90 49 92 50 43 51 95 52 89 53 88 54 44 56
REMARK SMILES IDX 76 57 56 58 75 59 57 60 60 61 74 62 93 63 58 64 59 65 73 67
REMARK SMILES IDX 94 68 61 69 45 70 46 71 54 72 47 73 48 74 52 75 55 76 49 77
REMARK SMILES IDX 50 78 53 79 51 80 77 81 78 82 86 83 79 84 80 85 84 86 87 87
REMARK SMILES IDX 81 88 82 89 85 90 83 91 62 92 63 93 71 94 64 95 65 96 69 97
REMARK SMILES IDX 72 98 66 99 67 100 70 101 68 102
REMARK H PARENT 5 11 19 22 92 55 60 66
REMARK Flexibility Score: inf
ROOT
ATOM      1  C   UNL     1       1.786  -2.649   5.866  1.00  0.00     0.274 C 
ENDROOT
BRANCH   1   2
ATOM      2  O   UNL     1       0.552  -1.984   5.508  1.00  0.00    -0.461 OA
BRANCH   2   3
ATOM      3  C   UNL     1      -0.656  -2.616   5.578  1.00  0.00     0.329 C 
ATOM      4  O   UNL     1      -0.828  -3.751   5.997  1.00  0.00    -0.250 OA
BRANCH   3   5
ATOM      5  C   UNL     1      -1.799  -1.624   5.205  1.00  0.00     0.194 C 
BRANCH   5   6
ATOM      6  C   UNL     1      -3.210  -2.158   4.867  1.00  0.00     0.017 C 
ATOM      7  C   UNL     1      -4.313  -1.126   5.152  1.00  0.00     0.010 C 
ATOM      8  C   UNL     1      -3.352  -2.594   3.432  1.00  0.00     0.010 C 
ENDBRANCH   5   6
BRANCH   5   9
ATOM      9  N   UNL     1      -1.392  -0.405   4.530  1.00  0.00    -0.341 N 
ATOM     10  C   UNL     1      -0.455  -0.083   3.616  1.00  0.00     0.244 C 
ATOM     11  H   UNL     1      -1.928   0.373   4.806  1.00  0.00     0.164 HD
ATOM     12  O   UNL     1      -0.088   1.090   3.793  1.00  0.00    -0.273 OA
BRANCH  10  13
ATOM     13  C   UNL     1       0.353  -1.028   2.668  1.00  0.00     0.189 C 
BRANCH  13  14
ATOM     14  N   UNL     1      -0.229  -2.317   2.183  1.00  0.00    -0.247 N 
ATOM     15  C   UNL     1      -1.183  -2.343   1.187  1.00  0.00     0.329 A 
ATOM     16  C   UNL     1       0.323  -3.514   2.638  1.00  0.00     0.264 A 
ATOM     17  O   UNL     1      -1.733  -1.357   0.712  1.00  0.00    -0.248 OA
ATOM     18  N   UNL     1      -1.621  -3.572   0.753  1.00  0.00    -0.307 N 
ATOM     19  C   UNL     1      -0.520  -4.716   2.530  1.00  0.00     0.064 A 
ATOM     20  O   UNL     1       1.454  -3.648   3.090  1.00  0.00    -0.268 OA
ATOM     21  C   UNL     1      -1.434  -4.740   1.490  1.00  0.00     0.055 A 
ATOM     22  H   UNL     1      -2.084  -3.630  -0.114  1.00  0.00     0.171 HD
ATOM     23  C   UNL     1      -0.502  -5.736   3.485  1.00  0.00     0.016 A 
ATOM     24  C   UNL     1      -2.287  -5.830   1.327  1.00  0.00     0.027 A 
ATOM     25  C   UNL     1      -1.416  -6.786   3.379  1.00  0.00     0.001 A 
ATOM     26  C   UNL     1      -2.289  -6.845   2.289  1.00  0.00     0.002 A 
ENDBRANCH  13  14
BRANCH  13  27
ATOM     27  C   UNL     1       1.168  -0.197   1.611  1.00  0.00     0.071 C 
BRANCH  27  28
ATOM     28  C   UNL     1       0.410   0.810   0.765  1.00  0.00    -0.045 A 
ATOM     29  C   UNL     1      -0.093   0.452  -0.485  1.00  0.00     0.004 A 
ATOM     30  C   UNL     1       0.112   2.094   1.250  1.00  0.00     0.004 A 
ATOM     31  C   UNL     1      -1.029   1.264  -1.130  1.00  0.00     0.000 A 
ATOM     32  C   UNL     1      -0.832   2.902   0.618  1.00  0.00     0.000 A 
ATOM     33  C   UNL     1      -1.430   2.469  -0.557  1.00  0.00     0.000 A 
ENDBRANCH  27  28
ENDBRANCH  13  27
ENDBRANCH  10  13
ENDBRANCH   5   9
ENDBRANCH   3   5
ENDBRANCH   2   3
ENDBRANCH   1   2
BRANCH   1  34
ATOM     34  C   UNL     1       2.683  -1.690   6.653  1.00  0.00     0.275 C 
BRANCH  34  35
ATOM     35  O   UNL     1       2.184  -1.559   7.988  1.00  0.00    -0.458 OA
BRANCH  35  36
ATOM     36  C   UNL     1       1.175  -0.673   8.117  1.00  0.00     0.338 C 
ATOM     37  O   UNL     1       0.813   0.196   7.338  1.00  0.00    -0.246 OA
BRANCH  36  38
ATOM     38  C   UNL     1       0.352  -1.155   9.221  1.00  0.00     0.060 A 
ATOM     39  C   UNL     1      -0.925  -1.612   8.895  1.00  0.00     0.016 A 
ATOM     40  C   UNL     1       0.829  -1.222  10.524  1.00  0.00     0.016 A 
ATOM     41  C   UNL     1      -1.757  -2.136   9.856  1.00  0.00     0.010 A 
ATOM     42  C   UNL     1      -0.000  -1.761  11.501  1.00  0.00     0.010 A 
ATOM     43  C   UNL     1      -1.289  -2.217  11.163  1.00  0.00    -0.014 A 
BRANCH  43  44
ATOM     44  C   UNL     1      -2.190  -2.724  12.201  1.00  0.00     0.031 A 
ATOM     45  C   UNL     1      -2.756  -1.749  13.174  1.00  0.00     0.074 A 
ATOM     46  C   UNL     1      -2.483  -4.034  12.232  1.00  0.00     0.049 A 
ATOM     47  N   UNL     1      -3.374  -1.972  14.299  1.00  0.00    -0.248 NA
ATOM     48  C   UNL     1      -2.591  -0.324  12.839  1.00  0.00     0.031 C 
ATOM     49  C   UNL     1      -2.053  -5.022  11.239  1.00  0.00     0.029 A 
ATOM     50  N   UNL     1      -3.197  -4.761  13.143  1.00  0.00    -0.354 N 
ATOM     51  C   UNL     1      -3.632  -0.719  14.831  1.00  0.00     0.074 A 
ATOM     52  C   UNL     1      -3.106   0.263  13.909  1.00  0.00     0.031 C 
ATOM     53  C   UNL     1      -2.493  -6.234  11.610  1.00  0.00     0.029 A 
ATOM     54  C   UNL     1      -3.159  -6.111  12.900  1.00  0.00     0.049 A 
ATOM     55  H   UNL     1      -3.688  -4.357  13.895  1.00  0.00     0.167 HD
ATOM     56  C   UNL     1      -4.246  -0.436  16.001  1.00  0.00     0.037 A 
ATOM     57  C   UNL     1      -3.558  -7.130  13.682  1.00  0.00     0.037 A 
ATOM     58  C   UNL     1      -4.756  -1.455  16.880  1.00  0.00     0.049 A 
ATOM     59  C   UNL     1      -4.146  -6.792  15.025  1.00  0.00     0.074 A 
ATOM     60  C   UNL     1      -5.398  -1.309  18.093  1.00  0.00     0.029 A 
ATOM     61  N   UNL     1      -4.672  -2.820  16.627  1.00  0.00    -0.354 N 
ATOM     62  N   UNL     1      -4.364  -5.612  15.558  1.00  0.00    -0.248 NA
ATOM     63  C   UNL     1      -4.524  -7.919  15.882  1.00  0.00     0.031 C 
ATOM     64  C   UNL     1      -5.650  -2.588  18.602  1.00  0.00     0.029 A 
ATOM     65  C   UNL     1      -5.220  -3.531  17.679  1.00  0.00     0.049 A 
ATOM     66  H   UNL     1      -4.279  -3.221  15.818  1.00  0.00     0.167 HD
ATOM     67  C   UNL     1      -4.917  -5.851  16.806  1.00  0.00     0.074 A 
ATOM     68  C   UNL     1      -5.022  -7.293  16.938  1.00  0.00     0.031 C 
ATOM     69  C   UNL     1      -5.298  -4.969  17.764  1.00  0.00     0.037 A 
BRANCH  56  70
ATOM     70  C   UNL     1      -4.330   1.003  16.410  1.00  0.00     0.064 A 
ATOM     71  C   UNL     1      -5.151   1.923  15.741  1.00  0.00     0.173 A 
ATOM     72  C   UNL     1      -3.568   1.471  17.491  1.00  0.00     0.173 A 
ATOM     73  F   UNL     1      -5.879   1.534  14.684  1.00  0.00    -0.203 F 
ATOM     74  C   UNL     1      -5.187   3.262  16.125  1.00  0.00     0.198 A 
ATOM     75  C   UNL     1      -3.629   2.803  17.891  1.00  0.00     0.198 A 
ATOM     76  F   UNL     1      -2.757   0.636  18.160  1.00  0.00    -0.203 F 
ATOM     77  F   UNL     1      -5.937   4.134  15.437  1.00  0.00    -0.200 F 
ATOM     78  C   UNL     1      -4.433   3.699  17.204  1.00  0.00     0.200 A 
ATOM     79  F   UNL     1      -2.904   3.220  18.938  1.00  0.00    -0.200 F 
ATOM     80  F   UNL     1      -4.472   4.986  17.574  1.00  0.00    -0.200 F 
ENDBRANCH  56  70
BRANCH  57  81
ATOM     81  C   UNL     1      -3.354  -8.534  13.243  1.00  0.00     0.064 A 
ATOM     82  C   UNL     1      -4.445  -9.368  12.968  1.00  0.00     0.173 A 
ATOM     83  C   UNL     1      -2.067  -9.071  13.079  1.00  0.00     0.173 A 
ATOM     84  F   UNL     1      -5.695  -8.909  13.126  1.00  0.00    -0.203 F 
ATOM     85  C   UNL     1      -4.257 -10.689  12.563  1.00  0.00     0.198 A 
ATOM     86  C   UNL     1      -1.880 -10.380  12.643  1.00  0.00     0.198 A 
ATOM     87  F   UNL     1      -0.986  -8.316  13.326  1.00  0.00    -0.203 F 
ATOM     88  F   UNL     1      -5.319 -11.477  12.348  1.00  0.00    -0.200 F 
ATOM     89  C   UNL     1      -2.976 -11.192  12.393  1.00  0.00     0.200 A 
ATOM     90  F   UNL     1      -0.640 -10.855  12.462  1.00  0.00    -0.200 F 
ATOM     91  F   UNL     1      -2.797 -12.459  11.995  1.00  0.00    -0.200 F 
ENDBRANCH  57  81
BRANCH  69  92
ATOM     92  C   UNL     1      -5.877  -5.548  19.019  1.00  0.00     0.064 A 
ATOM     93  C   UNL     1      -5.074  -6.210  19.958  1.00  0.00     0.173 A 
ATOM     94  C   UNL     1      -7.242  -5.394  19.306  1.00  0.00     0.173 A 
ATOM     95  F   UNL     1      -3.767  -6.398  19.717  1.00  0.00    -0.203 F 
ATOM     96  C   UNL     1      -5.622  -6.719  21.131  1.00  0.00     0.198 A 
ATOM     97  C   UNL     1      -7.779  -5.872  20.496  1.00  0.00     0.198 A 
ATOM     98  F   UNL     1      -8.048  -4.761  18.441  1.00  0.00    -0.203 F 
ATOM     99  F   UNL     1      -4.848  -7.393  21.992  1.00  0.00    -0.200 F 
ATOM    100  C   UNL     1      -6.971  -6.540  21.404  1.00  0.00     0.200 A 
ATOM    101  F   UNL     1      -9.077  -5.683  20.766  1.00  0.00    -0.200 F 
ATOM    102  F   UNL     1      -7.494  -7.019  22.540  1.00  0.00    -0.200 F 
ENDBRANCH  69  92
ENDBRANCH  43  44
ENDBRANCH  36  38
ENDBRANCH  35  36
ENDBRANCH  34  35
ENDBRANCH   1  34
TORSDOF 17
