REMARK SMILES O=C(OCCOC(=O)[C@H]1CC(=O)N(c2cccc(OC(F)(F)F)c2)C1)c1ccc(-c2c3nc(c(-c4c(F)c(F)c(F)c(F)c4F)c4ccc([nH]4)c(-c4c(F)c(F)c(F)c(F)c4F)c4nc(c(-c5c(F)c(F)c(F)c(F)c5F)c5ccc2[nH]5)C=C4)C=C3)cc1
REMARK SMILES IDX 5 1 4 2 3 3 2 4 1 5 26 6 27 7 88 8 28 9 87 10 29 11 30 12
REMARK SMILES IDX 31 13 81 14 32 15 86 16 80 17 82 18 33 19 85 20 79 21 78 22
REMARK SMILES IDX 34 24 66 25 46 26 65 27 47 28 50 29 64 30 83 31 48 32 49 33
REMARK SMILES IDX 63 35 84 36 51 37 35 38 36 39 44 40 37 41 38 42 42 43 45 44
REMARK SMILES IDX 39 45 40 46 43 47 41 48 67 49 68 50 76 51 69 52 70 53 74 54
REMARK SMILES IDX 77 55 71 56 72 57 75 58 73 59 52 60 53 61 61 62 54 63 55 64
REMARK SMILES IDX 59 65 62 66 56 67 57 68 60 69 58 70 6 71 7 72 8 73 9 74
REMARK SMILES IDX 10 75 25 76 11 77 13 78 12 79 14 80 15 81 24 82 16 83 18 84
REMARK SMILES IDX 17 85 19 86 20 87 21 88 22 89 23 90
REMARK H PARENT 82 23 50 34
REMARK Flexibility Score: inf
ROOT
ATOM      1  C   UNL     1       4.447   4.818   1.455  1.00  0.00     0.274 C 
ENDROOT
BRANCH   1   2
ATOM      2  C   UNL     1       3.461   5.252   2.547  1.00  0.00     0.275 C 
BRANCH   2   3
ATOM      3  O   UNL     1       2.426   4.313   2.864  1.00  0.00    -0.458 OA
BRANCH   3   4
ATOM      4  C   UNL     1       1.254   4.106   2.223  1.00  0.00     0.338 C 
ATOM      5  O   UNL     1       0.417   3.358   2.724  1.00  0.00    -0.246 OA
BRANCH   4   6
ATOM      6  C   UNL     1       1.013   4.599   0.834  1.00  0.00     0.060 A 
ATOM      7  C   UNL     1       1.454   5.809   0.283  1.00  0.00     0.016 A 
ATOM      8  C   UNL     1       0.275   3.743   0.016  1.00  0.00     0.016 A 
ATOM      9  C   UNL     1       1.302   6.092  -1.084  1.00  0.00     0.010 A 
ATOM     10  C   UNL     1       0.103   4.032  -1.335  1.00  0.00     0.010 A 
ATOM     11  C   UNL     1       0.644   5.192  -1.917  1.00  0.00    -0.014 A 
BRANCH  11  12
ATOM     12  C   UNL     1       0.292   5.528  -3.325  1.00  0.00     0.031 A 
ATOM     13  C   UNL     1      -1.174   5.743  -3.598  1.00  0.00     0.074 A 
ATOM     14  C   UNL     1       1.202   5.565  -4.325  1.00  0.00     0.049 A 
ATOM     15  N   UNL     1      -1.808   5.871  -4.732  1.00  0.00    -0.248 NA
ATOM     16  C   UNL     1      -2.054   5.786  -2.413  1.00  0.00     0.031 C 
ATOM     17  C   UNL     1       2.650   5.393  -4.182  1.00  0.00     0.029 A 
ATOM     18  N   UNL     1       1.033   5.693  -5.688  1.00  0.00    -0.354 N 
ATOM     19  C   UNL     1      -3.149   6.007  -4.389  1.00  0.00     0.074 A 
ATOM     20  C   UNL     1      -3.252   5.832  -2.962  1.00  0.00     0.031 C 
ATOM     21  C   UNL     1       3.221   5.337  -5.403  1.00  0.00     0.029 A 
ATOM     22  C   UNL     1       2.183   5.462  -6.421  1.00  0.00     0.049 A 
ATOM     23  H   UNL     1       0.171   5.928  -6.102  1.00  0.00     0.167 HD
ATOM     24  C   UNL     1      -4.200   6.290  -5.191  1.00  0.00     0.037 A 
ATOM     25  C   UNL     1       2.345   5.307  -7.755  1.00  0.00     0.037 A 
ATOM     26  C   UNL     1      -4.073   6.418  -6.614  1.00  0.00     0.049 A 
ATOM     27  C   UNL     1       1.132   5.452  -8.633  1.00  0.00     0.074 A 
ATOM     28  C   UNL     1      -5.037   6.734  -7.549  1.00  0.00     0.029 A 
ATOM     29  N   UNL     1      -2.891   6.188  -7.307  1.00  0.00    -0.354 N 
ATOM     30  N   UNL     1      -0.117   5.664  -8.297  1.00  0.00    -0.248 NA
ATOM     31  C   UNL     1       1.362   5.362 -10.081  1.00  0.00     0.031 C 
ATOM     32  C   UNL     1      -4.458   6.611  -8.817  1.00  0.00     0.029 A 
ATOM     33  C   UNL     1      -3.114   6.298  -8.665  1.00  0.00     0.049 A 
ATOM     34  H   UNL     1      -2.024   5.977  -6.891  1.00  0.00     0.167 HD
ATOM     35  C   UNL     1      -0.813   5.800  -9.489  1.00  0.00     0.074 A 
ATOM     36  C   UNL     1       0.147   5.594 -10.555  1.00  0.00     0.031 C 
ATOM     37  C   UNL     1      -2.118   6.111  -9.688  1.00  0.00     0.037 A 
BRANCH  24  38
ATOM     38  C   UNL     1      -5.543   6.431  -4.529  1.00  0.00     0.064 A 
ATOM     39  C   UNL     1      -5.802   7.441  -3.584  1.00  0.00     0.173 A 
ATOM     40  C   UNL     1      -6.559   5.497  -4.776  1.00  0.00     0.173 A 
ATOM     41  F   UNL     1      -4.861   8.352  -3.292  1.00  0.00    -0.203 F 
ATOM     42  C   UNL     1      -6.995   7.466  -2.865  1.00  0.00     0.198 A 
ATOM     43  C   UNL     1      -7.768   5.552  -4.085  1.00  0.00     0.198 A 
ATOM     44  F   UNL     1      -6.373   4.512  -5.666  1.00  0.00    -0.203 F 
ATOM     45  F   UNL     1      -7.173   8.377  -1.898  1.00  0.00    -0.200 F 
ATOM     46  C   UNL     1      -7.977   6.522  -3.117  1.00  0.00     0.200 A 
ATOM     47  F   UNL     1      -8.723   4.646  -4.339  1.00  0.00    -0.200 F 
ATOM     48  F   UNL     1      -9.117   6.536  -2.413  1.00  0.00    -0.200 F 
ENDBRANCH  24  38
BRANCH  25  49
ATOM     49  C   UNL     1       3.658   4.942  -8.371  1.00  0.00     0.064 A 
ATOM     50  C   UNL     1       4.627   5.898  -8.694  1.00  0.00     0.173 A 
ATOM     51  C   UNL     1       3.934   3.620  -8.751  1.00  0.00     0.173 A 
ATOM     52  F   UNL     1       4.374   7.198  -8.494  1.00  0.00    -0.203 F 
ATOM     53  C   UNL     1       5.839   5.529  -9.292  1.00  0.00     0.198 A 
ATOM     54  C   UNL     1       5.167   3.237  -9.275  1.00  0.00     0.198 A 
ATOM     55  F   UNL     1       2.962   2.701  -8.720  1.00  0.00    -0.203 F 
ATOM     56  F   UNL     1       6.722   6.471  -9.649  1.00  0.00    -0.200 F 
ATOM     57  C   UNL     1       6.124   4.195  -9.544  1.00  0.00     0.200 A 
ATOM     58  F   UNL     1       5.405   1.947  -9.549  1.00  0.00    -0.200 F 
ATOM     59  F   UNL     1       7.296   3.839 -10.088  1.00  0.00    -0.200 F 
ENDBRANCH  25  49
BRANCH  37  60
ATOM     60  C   UNL     1      -2.543   6.370 -11.100  1.00  0.00     0.064 A 
ATOM     61  C   UNL     1      -2.705   5.342 -12.036  1.00  0.00     0.173 A 
ATOM     62  C   UNL     1      -2.841   7.683 -11.495  1.00  0.00     0.173 A 
ATOM     63  F   UNL     1      -2.409   4.075 -11.708  1.00  0.00    -0.203 F 
ATOM     64  C   UNL     1      -3.132   5.624 -13.330  1.00  0.00     0.198 A 
ATOM     65  C   UNL     1      -3.303   7.956 -12.776  1.00  0.00     0.198 A 
ATOM     66  F   UNL     1      -2.701   8.699 -10.629  1.00  0.00    -0.203 F 
ATOM     67  F   UNL     1      -3.233   4.636 -14.229  1.00  0.00    -0.200 F 
ATOM     68  C   UNL     1      -3.441   6.927 -13.695  1.00  0.00     0.200 A 
ATOM     69  F   UNL     1      -3.614   9.213 -13.120  1.00  0.00    -0.200 F 
ATOM     70  F   UNL     1      -3.864   7.194 -14.938  1.00  0.00    -0.200 F 
ENDBRANCH  37  60
ENDBRANCH  11  12
ENDBRANCH   4   6
ENDBRANCH   3   4
ENDBRANCH   2   3
ENDBRANCH   1   2
BRANCH   1  71
ATOM     71  O   UNL     1       3.904   3.995   0.400  1.00  0.00    -0.462 OA
BRANCH  71  72
ATOM     72  C   UNL     1       4.024   2.653   0.587  1.00  0.00     0.311 C 
ATOM     73  O   UNL     1       4.473   2.148   1.609  1.00  0.00    -0.252 OA
BRANCH  72  74
ATOM     74  C   UNL     1       3.570   1.799  -0.583  1.00  0.00     0.128 C 
ATOM     75  C   UNL     1       2.313   1.006  -0.230  1.00  0.00     0.117 C 
ATOM     76  C   UNL     1       3.239   2.495  -1.888  1.00  0.00     0.141 C 
ATOM     77  C   UNL     1       1.461   1.007  -1.481  1.00  0.00     0.227 C 
ATOM     78  N   UNL     1       2.122   1.759  -2.444  1.00  0.00    -0.311 N 
ATOM     79  O   UNL     1       0.411   0.403  -1.595  1.00  0.00    -0.274 OA
BRANCH  78  80
ATOM     80  C   UNL     1       1.742   1.849  -3.805  1.00  0.00     0.047 A 
ATOM     81  C   UNL     1       2.751   1.753  -4.760  1.00  0.00     0.026 A 
ATOM     82  C   UNL     1       0.406   2.016  -4.234  1.00  0.00     0.073 A 
ATOM     83  C   UNL     1       2.443   1.818  -6.108  1.00  0.00     0.006 A 
ATOM     84  C   UNL     1       0.124   2.249  -5.585  1.00  0.00     0.131 A 
ATOM     85  C   UNL     1       1.148   2.117  -6.517  1.00  0.00     0.047 A 
BRANCH  84  86
ATOM     86  O   UNL     1      -1.036   2.719  -6.127  1.00  0.00    -0.406 OA
BRANCH  86  87
ATOM     87  C   UNL     1      -2.269   2.368  -5.536  1.00  0.00     0.573 C 
ATOM     88  F   UNL     1      -2.435   1.029  -5.561  1.00  0.00    -0.132 F 
ATOM     89  F   UNL     1      -2.372   2.812  -4.267  1.00  0.00    -0.132 F 
ATOM     90  F   UNL     1      -3.266   2.925  -6.261  1.00  0.00    -0.132 F 
ENDBRANCH  86  87
ENDBRANCH  84  86
ENDBRANCH  78  80
ENDBRANCH  72  74
ENDBRANCH  71  72
ENDBRANCH   1  71
TORSDOF 14
