REMARK SMILES CC1(C)CN(C(=O)NC[C@H]2CC[C@@H](C(=O)OCCOC(=O)c3ccc(-c4c5nc(c(-c6c(F)c(F)c(F)c(F)c6F)c6ccc([nH]6)c(-c6c(F)c(F)c(F)c(F)c6F)c6nc(c(-c7c(F)c(F)c(F)c(F)c7F)c7ccc4[nH]7)C=C6)C=C5)cc3)CC2)CCO1
REMARK SMILES IDX 17 1 16 2 14 3 15 4 13 5 10 6 11 7 86 8 12 9 85 10 9 11 8 12
REMARK SMILES IDX 6 13 7 14 5 16 1 17 2 18 3 19 4 20 89 21 88 22 87 23 18 24
REMARK SMILES IDX 19 25 20 26 21 27 22 28 23 29 84 30 24 31 83 32 25 33 26 34
REMARK SMILES IDX 27 35 77 36 28 37 82 38 76 39 78 40 29 41 81 42 75 43 74 44
REMARK SMILES IDX 30 46 62 47 42 48 61 49 43 50 46 51 60 52 79 53 44 54 45 55
REMARK SMILES IDX 59 57 80 58 47 59 31 60 32 61 40 62 33 63 34 64 38 65 41 66
REMARK SMILES IDX 35 67 36 68 39 69 37 70 63 71 64 72 72 73 65 74 66 75 70 76
REMARK SMILES IDX 73 77 67 78 68 79 71 80 69 81 48 82 49 83 57 84 50 85 51 86
REMARK SMILES IDX 55 87 58 88 52 89 53 90 56 91 54 92
REMARK H PARENT 8 15 78 45 46 56
REMARK Flexibility Score: inf
ROOT
ATOM      1  C   UNL     1       3.761   5.909  -3.693  1.00  0.00     0.274 C 
ENDROOT
BRANCH   1   2
ATOM      2  O   UNL     1       2.974   4.873  -4.311  1.00  0.00    -0.462 OA
BRANCH   2   3
ATOM      3  C   UNL     1       1.645   5.117  -4.459  1.00  0.00     0.309 C 
ATOM      4  O   UNL     1       1.063   6.110  -4.038  1.00  0.00    -0.252 OA
BRANCH   3   5
ATOM      5  C   UNL     1       0.932   4.022  -5.249  1.00  0.00     0.099 C 
ATOM      6  C   UNL     1       0.399   1.104  -5.565  1.00  0.00     0.008 C 
ATOM      7  C   UNL     1      -0.649   2.024  -4.915  1.00  0.00     0.006 C 
ATOM      8  C   UNL     1       1.171   1.910  -6.620  1.00  0.00     0.006 C 
ATOM      9  C   UNL     1      -0.091   3.332  -4.347  1.00  0.00     0.015 C 
ATOM     10  C   UNL     1       1.898   3.086  -5.984  1.00  0.00     0.015 C 
BRANCH   6  11
ATOM     11  C   UNL     1       1.375   0.381  -4.604  1.00  0.00     0.121 C 
BRANCH  11  12
ATOM     12  N   UNL     1       1.492   0.983  -3.293  1.00  0.00    -0.338 N 
ATOM     13  C   UNL     1       0.877   0.880  -2.103  1.00  0.00     0.317 C 
ATOM     14  O   UNL     1       1.231   1.716  -1.264  1.00  0.00    -0.249 OA
ATOM     15  H   UNL     1       2.218   1.647  -3.267  1.00  0.00     0.165 HD
BRANCH  13  16
ATOM     16  N   UNL     1      -0.017  -0.103  -1.800  1.00  0.00    -0.320 N 
ATOM     17  C   UNL     1       2.172  -1.140   0.123  1.00  0.00     0.044 C 
ATOM     18  C   UNL     1       0.697  -1.565   0.045  1.00  0.00     0.080 C 
ATOM     19  C   UNL     1       0.260  -2.069   1.424  1.00  0.00     0.044 C 
ATOM     20  C   UNL     1      -0.223  -0.380  -0.377  1.00  0.00     0.156 C 
ATOM     21  O   UNL     1       0.547  -2.701  -0.850  1.00  0.00    -0.372 OA
ATOM     22  C   UNL     1       0.605  -2.377  -2.254  1.00  0.00     0.182 C 
ATOM     23  C   UNL     1      -0.392  -1.266  -2.590  1.00  0.00     0.150 C 
ENDBRANCH  13  16
ENDBRANCH  11  12
ENDBRANCH   6  11
ENDBRANCH   3   5
ENDBRANCH   2   3
ENDBRANCH   1   2
BRANCH   1  24
ATOM     24  C   UNL     1       4.517   6.707  -4.756  1.00  0.00     0.275 C 
BRANCH  24  25
ATOM     25  O   UNL     1       3.589   7.377  -5.631  1.00  0.00    -0.458 OA
BRANCH  25  26
ATOM     26  C   UNL     1       3.519   6.905  -6.893  1.00  0.00     0.338 C 
ATOM     27  O   UNL     1       4.191   6.019  -7.407  1.00  0.00    -0.246 OA
BRANCH  26  28
ATOM     28  C   UNL     1       2.414   7.568  -7.594  1.00  0.00     0.060 A 
ATOM     29  C   UNL     1       1.122   7.088  -7.397  1.00  0.00     0.016 A 
ATOM     30  C   UNL     1       2.651   8.587  -8.513  1.00  0.00     0.016 A 
ATOM     31  C   UNL     1       0.057   7.588  -8.133  1.00  0.00     0.010 A 
ATOM     32  C   UNL     1       1.571   9.137  -9.213  1.00  0.00     0.010 A 
ATOM     33  C   UNL     1       0.268   8.633  -9.036  1.00  0.00    -0.014 A 
BRANCH  33  34
ATOM     34  C   UNL     1      -0.876   9.182  -9.802  1.00  0.00     0.031 A 
ATOM     35  C   UNL     1      -0.930   9.012 -11.291  1.00  0.00     0.074 A 
ATOM     36  C   UNL     1      -1.877   9.810  -9.156  1.00  0.00     0.049 A 
ATOM     37  N   UNL     1      -1.740   9.562 -12.158  1.00  0.00    -0.248 NA
ATOM     38  C   UNL     1       0.061   8.100 -11.885  1.00  0.00     0.031 C 
ATOM     39  C   UNL     1      -1.979   9.972  -7.704  1.00  0.00     0.029 A 
ATOM     40  N   UNL     1      -3.002  10.431  -9.638  1.00  0.00    -0.354 N 
ATOM     41  C   UNL     1      -1.333   9.098 -13.401  1.00  0.00     0.074 A 
ATOM     42  C   UNL     1      -0.205   8.218 -13.179  1.00  0.00     0.031 C 
ATOM     43  C   UNL     1      -3.108  10.636  -7.414  1.00  0.00     0.029 A 
ATOM     44  C   UNL     1      -3.768  11.014  -8.659  1.00  0.00     0.049 A 
ATOM     45  H   UNL     1      -3.237  10.456 -10.594  1.00  0.00     0.167 HD
ATOM     46  C   UNL     1      -1.855   9.389 -14.615  1.00  0.00     0.037 A 
ATOM     47  C   UNL     1      -4.850  11.808  -8.756  1.00  0.00     0.037 A 
ATOM     48  C   UNL     1      -2.997  10.240 -14.823  1.00  0.00     0.049 A 
ATOM     49  C   UNL     1      -5.366  12.172 -10.120  1.00  0.00     0.074 A 
ATOM     50  C   UNL     1      -3.600  10.603 -16.014  1.00  0.00     0.029 A 
ATOM     51  N   UNL     1      -3.717  10.851 -13.807  1.00  0.00    -0.354 N 
ATOM     52  N   UNL     1      -4.937  11.786 -11.296  1.00  0.00    -0.248 NA
ATOM     53  C   UNL     1      -6.501  13.104 -10.170  1.00  0.00     0.031 C 
ATOM     54  C   UNL     1      -4.669  11.458 -15.721  1.00  0.00     0.029 A 
ATOM     55  C   UNL     1      -4.750  11.600 -14.345  1.00  0.00     0.049 A 
ATOM     56  H   UNL     1      -3.522  10.765 -12.846  1.00  0.00     0.167 HD
ATOM     57  C   UNL     1      -5.748  12.420 -12.225  1.00  0.00     0.074 A 
ATOM     58  C   UNL     1      -6.711  13.200 -11.476  1.00  0.00     0.031 C 
ATOM     59  C   UNL     1      -5.695  12.369 -13.578  1.00  0.00     0.037 A 
BRANCH  46  60
ATOM     60  C   UNL     1      -1.177   8.810 -15.819  1.00  0.00     0.064 A 
ATOM     61  C   UNL     1      -1.329   7.463 -16.175  1.00  0.00     0.173 A 
ATOM     62  C   UNL     1      -0.401   9.630 -16.653  1.00  0.00     0.173 A 
ATOM     63  F   UNL     1      -2.048   6.637 -15.401  1.00  0.00    -0.203 F 
ATOM     64  C   UNL     1      -0.717   6.954 -17.318  1.00  0.00     0.198 A 
ATOM     65  C   UNL     1       0.192   9.122 -17.805  1.00  0.00     0.198 A 
ATOM     66  F   UNL     1      -0.227  10.926 -16.354  1.00  0.00    -0.203 F 
ATOM     67  F   UNL     1      -0.850   5.656 -17.625  1.00  0.00    -0.200 F 
ATOM     68  C   UNL     1       0.036   7.784 -18.135  1.00  0.00     0.200 A 
ATOM     69  F   UNL     1       0.914   9.927 -18.597  1.00  0.00    -0.200 F 
ATOM     70  F   UNL     1       0.617   7.293 -19.239  1.00  0.00    -0.200 F 
ENDBRANCH  46  60
BRANCH  47  71
ATOM     71  C   UNL     1      -5.479  12.360  -7.529  1.00  0.00     0.064 A 
ATOM     72  C   UNL     1      -6.754  11.947  -7.123  1.00  0.00     0.173 A 
ATOM     73  C   UNL     1      -4.820  13.317  -6.742  1.00  0.00     0.173 A 
ATOM     74  F   UNL     1      -7.435  11.056  -7.859  1.00  0.00    -0.203 F 
ATOM     75  C   UNL     1      -7.351  12.478  -5.981  1.00  0.00     0.198 A 
ATOM     76  C   UNL     1      -5.406  13.826  -5.586  1.00  0.00     0.198 A 
ATOM     77  F   UNL     1      -3.599  13.749  -7.092  1.00  0.00    -0.203 F 
ATOM     78  F   UNL     1      -8.589  12.097  -5.637  1.00  0.00    -0.200 F 
ATOM     79  C   UNL     1      -6.674  13.411  -5.210  1.00  0.00     0.200 A 
ATOM     80  F   UNL     1      -4.744  14.720  -4.839  1.00  0.00    -0.200 F 
ATOM     81  F   UNL     1      -7.248  13.917  -4.110  1.00  0.00    -0.200 F 
ENDBRANCH  47  71
BRANCH  59  82
ATOM     82  C   UNL     1      -6.716  13.167 -14.327  1.00  0.00     0.064 A 
ATOM     83  C   UNL     1      -6.606  14.559 -14.448  1.00  0.00     0.173 A 
ATOM     84  C   UNL     1      -7.795  12.531 -14.957  1.00  0.00     0.173 A 
ATOM     85  F   UNL     1      -5.599  15.211 -13.847  1.00  0.00    -0.203 F 
ATOM     86  C   UNL     1      -7.551  15.290 -15.162  1.00  0.00     0.198 A 
ATOM     87  C   UNL     1      -8.727  13.262 -15.688  1.00  0.00     0.198 A 
ATOM     88  F   UNL     1      -7.940  11.200 -14.870  1.00  0.00    -0.203 F 
ATOM     89  F   UNL     1      -7.449  16.624 -15.235  1.00  0.00    -0.200 F 
ATOM     90  C   UNL     1      -8.607  14.641 -15.785  1.00  0.00     0.200 A 
ATOM     91  F   UNL     1      -9.742  12.634 -16.296  1.00  0.00    -0.200 F 
ATOM     92  F   UNL     1      -9.515  15.346 -16.474  1.00  0.00    -0.200 F 
ENDBRANCH  59  82
ENDBRANCH  33  34
ENDBRANCH  26  28
ENDBRANCH  25  26
ENDBRANCH  24  25
ENDBRANCH   1  24
TORSDOF 14
