REMARK SMILES C[C@@H](C(=O)OCCOC(=O)c1ccc(-c2c3nc(c(-c4c(F)c(F)c(F)c(F)c4F)c4ccc([nH]4)c(-c4c(F)c(F)c(F)c(F)c4F)c4nc(c(-c5c(F)c(F)c(F)c(F)c5F)c5ccc2[nH]5)C=C4)C=C3)cc1)c1ccc(C[SiH](C)C)cc1
REMARK SMILES IDX 6 1 5 2 3 3 4 4 2 5 1 6 74 7 75 8 83 9 76 10 82 11 77 12
REMARK SMILES IDX 78 13 79 14 80 15 81 16 7 18 8 19 9 20 10 21 11 22 12 23
REMARK SMILES IDX 73 24 13 25 72 26 14 27 15 28 16 29 66 30 17 31 71 32 65 33
REMARK SMILES IDX 67 34 18 35 70 36 64 37 63 38 19 40 51 41 31 42 50 43 32 44
REMARK SMILES IDX 35 45 49 46 68 47 33 48 34 49 48 51 69 52 36 53 20 54 21 55
REMARK SMILES IDX 29 56 22 57 23 58 27 59 30 60 24 61 25 62 28 63 26 64 52 65
REMARK SMILES IDX 53 66 61 67 54 68 55 69 59 70 62 71 56 72 57 73 60 74 58 75
REMARK SMILES IDX 37 76 38 77 46 78 39 79 40 80 44 81 47 82 41 83 42 84 45 85
REMARK SMILES IDX 43 86
REMARK H PARENT 79 17 67 39 35 50
REMARK Flexibility Score: inf
ROOT
ATOM      1  C   UNL     1       2.766   2.975  -2.170  1.00  0.00     0.274 C 
ENDROOT
BRANCH   1   2
ATOM      2  O   UNL     1       2.318   2.075  -1.133  1.00  0.00    -0.462 OA
BRANCH   2   3
ATOM      3  C   UNL     1       1.276   2.499  -0.361  1.00  0.00     0.313 C 
ATOM      4  O   UNL     1       0.764   3.608  -0.473  1.00  0.00    -0.252 OA
BRANCH   3   5
ATOM      5  C   UNL     1       0.866   1.459   0.707  1.00  0.00     0.126 C 
ATOM      6  C   UNL     1       1.503   0.087   0.439  1.00  0.00     0.025 C 
BRANCH   5   7
ATOM      7  C   UNL     1      -0.654   1.406   0.922  1.00  0.00    -0.034 A 
ATOM      8  C   UNL     1      -1.338   2.570   1.310  1.00  0.00     0.005 A 
ATOM      9  C   UNL     1      -1.425   0.250   0.732  1.00  0.00     0.005 A 
ATOM     10  C   UNL     1      -2.735   2.602   1.419  1.00  0.00     0.004 A 
ATOM     11  C   UNL     1      -2.821   0.273   0.878  1.00  0.00     0.004 A 
ATOM     12  C   UNL     1      -3.502   1.453   1.210  1.00  0.00    -0.051 A 
BRANCH  12  13
ATOM     13  C   UNL     1      -5.017   1.477   1.145  1.00  0.00     0.021 C 
BRANCH  13  14
ATOM     14  Si  UNL     1      -6.054   2.335   2.459  1.00  0.00     0.035 Si
ATOM     15  C   UNL     1      -5.724   4.167   2.568  1.00  0.00    -0.013 C 
ATOM     16  C   UNL     1      -7.867   2.091   2.052  1.00  0.00    -0.013 C 
ATOM     17  H   UNL     1      -5.705   1.758   3.709  1.00  0.00     0.014 H 
ENDBRANCH  13  14
ENDBRANCH  12  13
ENDBRANCH   5   7
ENDBRANCH   3   5
ENDBRANCH   2   3
ENDBRANCH   1   2
BRANCH   1  18
ATOM     18  C   UNL     1       2.271   2.492  -3.530  1.00  0.00     0.275 C 
BRANCH  18  19
ATOM     19  O   UNL     1       0.836   2.579  -3.555  1.00  0.00    -0.458 OA
BRANCH  19  20
ATOM     20  C   UNL     1       0.176   1.487  -3.999  1.00  0.00     0.338 C 
ATOM     21  O   UNL     1       0.651   0.463  -4.462  1.00  0.00    -0.246 OA
BRANCH  20  22
ATOM     22  C   UNL     1      -1.270   1.711  -3.839  1.00  0.00     0.060 A 
ATOM     23  C   UNL     1      -1.778   2.050  -2.589  1.00  0.00     0.016 A 
ATOM     24  C   UNL     1      -2.135   1.501  -4.913  1.00  0.00     0.016 A 
ATOM     25  C   UNL     1      -3.155   2.121  -2.396  1.00  0.00     0.010 A 
ATOM     26  C   UNL     1      -3.518   1.637  -4.728  1.00  0.00     0.010 A 
ATOM     27  C   UNL     1      -4.046   1.913  -3.455  1.00  0.00    -0.014 A 
BRANCH  27  28
ATOM     28  C   UNL     1      -5.515   1.899  -3.201  1.00  0.00     0.031 A 
ATOM     29  C   UNL     1      -6.308   0.645  -3.458  1.00  0.00     0.074 A 
ATOM     30  C   UNL     1      -6.143   2.971  -2.676  1.00  0.00     0.049 A 
ATOM     31  N   UNL     1      -7.606   0.466  -3.454  1.00  0.00    -0.248 NA
ATOM     32  C   UNL     1      -5.538  -0.572  -3.760  1.00  0.00     0.031 C 
ATOM     33  C   UNL     1      -5.501   4.226  -2.287  1.00  0.00     0.029 A 
ATOM     34  N   UNL     1      -7.466   3.164  -2.356  1.00  0.00    -0.354 N 
ATOM     35  C   UNL     1      -7.808  -0.859  -3.818  1.00  0.00     0.074 A 
ATOM     36  C   UNL     1      -6.500  -1.446  -4.019  1.00  0.00     0.031 C 
ATOM     37  C   UNL     1      -6.418   5.038  -1.739  1.00  0.00     0.029 A 
ATOM     38  C   UNL     1      -7.728   4.399  -1.816  1.00  0.00     0.049 A 
ATOM     39  H   UNL     1      -8.160   2.481  -2.501  1.00  0.00     0.167 HD
ATOM     40  C   UNL     1      -8.977  -1.523  -3.981  1.00  0.00     0.037 A 
ATOM     41  C   UNL     1      -8.895   4.969  -1.459  1.00  0.00     0.037 A 
ATOM     42  C   UNL     1     -10.277  -0.965  -3.720  1.00  0.00     0.049 A 
ATOM     43  C   UNL     1     -10.184   4.226  -1.683  1.00  0.00     0.074 A 
ATOM     44  C   UNL     1     -11.519  -1.560  -3.870  1.00  0.00     0.029 A 
ATOM     45  N   UNL     1     -10.502   0.311  -3.230  1.00  0.00    -0.354 N 
ATOM     46  N   UNL     1     -10.371   3.008  -2.125  1.00  0.00    -0.248 NA
ATOM     47  C   UNL     1     -11.427   4.955  -1.387  1.00  0.00     0.031 C 
ATOM     48  C   UNL     1     -12.498  -0.633  -3.492  1.00  0.00     0.029 A 
ATOM     49  C   UNL     1     -11.863   0.526  -3.078  1.00  0.00     0.049 A 
ATOM     50  H   UNL     1      -9.800   0.969  -3.021  1.00  0.00     0.167 HD
ATOM     51  C   UNL     1     -11.746   2.824  -2.163  1.00  0.00     0.074 A 
ATOM     52  C   UNL     1     -12.348   4.045  -1.670  1.00  0.00     0.031 C 
ATOM     53  C   UNL     1     -12.448   1.744  -2.583  1.00  0.00     0.037 A 
BRANCH  40  54
ATOM     54  C   UNL     1      -8.908  -2.923  -4.511  1.00  0.00     0.064 A 
ATOM     55  C   UNL     1      -8.523  -4.004  -3.707  1.00  0.00     0.173 A 
ATOM     56  C   UNL     1      -9.273  -3.186  -5.840  1.00  0.00     0.173 A 
ATOM     57  F   UNL     1      -8.150  -3.800  -2.434  1.00  0.00    -0.203 F 
ATOM     58  C   UNL     1      -8.489  -5.298  -4.221  1.00  0.00     0.198 A 
ATOM     59  C   UNL     1      -9.259  -4.483  -6.344  1.00  0.00     0.198 A 
ATOM     60  F   UNL     1      -9.653  -2.184  -6.648  1.00  0.00    -0.203 F 
ATOM     61  F   UNL     1      -8.084  -6.314  -3.446  1.00  0.00    -0.200 F 
ATOM     62  C   UNL     1      -8.863  -5.537  -5.535  1.00  0.00     0.200 A 
ATOM     63  F   UNL     1      -9.629  -4.713  -7.612  1.00  0.00    -0.200 F 
ATOM     64  F   UNL     1      -8.834  -6.784  -6.026  1.00  0.00    -0.200 F 
ENDBRANCH  40  54
BRANCH  41  65
ATOM     65  C   UNL     1      -8.909   6.341  -0.889  1.00  0.00     0.064 A 
ATOM     66  C   UNL     1      -9.256   6.556   0.451  1.00  0.00     0.173 A 
ATOM     67  C   UNL     1      -8.595   7.461  -1.672  1.00  0.00     0.173 A 
ATOM     68  F   UNL     1      -9.591   5.517   1.231  1.00  0.00    -0.203 F 
ATOM     69  C   UNL     1      -9.301   7.842   0.984  1.00  0.00     0.198 A 
ATOM     70  C   UNL     1      -8.612   8.744  -1.131  1.00  0.00     0.198 A 
ATOM     71  F   UNL     1      -8.264   7.307  -2.963  1.00  0.00    -0.203 F 
ATOM     72  F   UNL     1      -9.679   8.026   2.256  1.00  0.00    -0.200 F 
ATOM     73  C   UNL     1      -8.972   8.935   0.194  1.00  0.00     0.200 A 
ATOM     74  F   UNL     1      -8.284   9.795  -1.895  1.00  0.00    -0.200 F 
ATOM     75  F   UNL     1      -9.011  10.171   0.708  1.00  0.00    -0.200 F 
ENDBRANCH  41  65
BRANCH  53  76
ATOM     76  C   UNL     1     -13.943   1.827  -2.517  1.00  0.00     0.064 A 
ATOM     77  C   UNL     1     -14.673   2.578  -3.449  1.00  0.00     0.173 A 
ATOM     78  C   UNL     1     -14.654   1.119  -1.537  1.00  0.00     0.173 A 
ATOM     79  F   UNL     1     -14.035   3.285  -4.394  1.00  0.00    -0.203 F 
ATOM     80  C   UNL     1     -16.063   2.631  -3.392  1.00  0.00     0.198 A 
ATOM     81  C   UNL     1     -16.045   1.157  -1.496  1.00  0.00     0.198 A 
ATOM     82  F   UNL     1     -14.000   0.383  -0.626  1.00  0.00    -0.203 F 
ATOM     83  F   UNL     1     -16.739   3.384  -4.271  1.00  0.00    -0.200 F 
ATOM     84  C   UNL     1     -16.748   1.917  -2.420  1.00  0.00     0.200 A 
ATOM     85  F   UNL     1     -16.707   0.461  -0.562  1.00  0.00    -0.200 F 
ATOM     86  F   UNL     1     -18.086   1.966  -2.370  1.00  0.00    -0.200 F 
ENDBRANCH  53  76
ENDBRANCH  27  28
ENDBRANCH  20  22
ENDBRANCH  19  20
ENDBRANCH  18  19
ENDBRANCH   1  18
TORSDOF 14
