REMARK SMILES C[C@]12c3ccccc3[C@](C)(c3ccccc31)[C@@H]1C(=O)N(c3ccc(C(=O)OCCOC(=O)c4ccc(-c5c6nc(c(-c7c(F)c(F)c(F)c(F)c7F)c7ccc([nH]7)c(-c7c(F)c(F)c(F)c(F)c7F)c7nc(c(-c8c(F)c(F)c(F)c(F)c8F)c8ccc5[nH]8)C=C7)C=C6)cc4)cc3)C(=O)[C@H]12
REMARK SMILES IDX 29 1 28 2 27 3 25 4 26 5 24 6 21 7 22 8 97 9 23 10 96 11
REMARK SMILES IDX 20 12 1 13 2 14 16 15 3 16 100 17 15 18 11 19 8 20 4 21
REMARK SMILES IDX 17 22 98 23 14 24 12 25 9 26 7 27 5 28 18 29 99 30 13 31
REMARK SMILES IDX 10 32 6 33 19 34 30 35 31 36 32 37 33 38 34 39 95 40 35 41
REMARK SMILES IDX 94 42 36 43 37 44 38 45 88 46 39 47 93 48 87 49 89 50 40 51
REMARK SMILES IDX 92 52 86 53 85 54 41 56 73 57 53 58 72 59 54 60 57 61 71 62
REMARK SMILES IDX 90 63 55 64 56 65 70 67 91 68 58 69 42 70 43 71 51 72 44 73
REMARK SMILES IDX 45 74 49 75 52 76 46 77 47 78 50 79 48 80 74 81 75 82 83 83
REMARK SMILES IDX 76 84 77 85 81 86 84 87 78 88 79 89 82 90 80 91 59 92 60 93
REMARK SMILES IDX 68 94 61 95 62 96 66 97 69 98 63 99 64 100 67 101 65 102
REMARK H PARENT 89 55 57 66
REMARK Flexibility Score: inf
ROOT
ATOM      1  C   UNL     1       0.361  10.741   3.399  1.00  0.00     0.275 C 
ENDROOT
BRANCH   1   2
ATOM      2  C   UNL     1      -0.293  10.169   4.660  1.00  0.00     0.275 C 
BRANCH   2   3
ATOM      3  O   UNL     1      -0.239   8.727   4.670  1.00  0.00    -0.458 OA
BRANCH   3   4
ATOM      4  C   UNL     1      -1.395   8.077   4.390  1.00  0.00     0.338 C 
ATOM      5  O   UNL     1      -2.479   8.587   4.155  1.00  0.00    -0.246 OA
BRANCH   4   6
ATOM      6  C   UNL     1      -1.142   6.621   4.246  1.00  0.00     0.060 A 
ATOM      7  C   UNL     1      -0.618   3.926   3.724  1.00  0.00     0.052 A 
ATOM      8  C   UNL     1      -1.593   4.593   2.989  1.00  0.00     0.028 A 
ATOM      9  C   UNL     1       0.063   4.588   4.755  1.00  0.00     0.028 A 
ATOM     10  C   UNL     1      -1.902   5.912   3.305  1.00  0.00     0.018 A 
ATOM     11  C   UNL     1      -0.165   5.949   4.986  1.00  0.00     0.018 A 
BRANCH   7  12
ATOM     12  N   UNL     1      -0.361   2.580   3.450  1.00  0.00    -0.250 N 
ATOM     13  C   UNL     1       0.933  -0.138   0.074  1.00  0.00     0.022 C 
ATOM     14  C   UNL     1       0.614  -0.517   1.519  1.00  0.00     0.030 C 
ATOM     15  C   UNL     1       1.807  -1.083   2.336  1.00  0.00    -0.033 A 
ATOM     16  C   UNL     1      -0.494  -1.606   1.671  1.00  0.00    -0.033 A 
ATOM     17  C   UNL     1      -0.079   0.637   2.288  1.00  0.00     0.108 C 
ATOM     18  C   UNL     1       3.110  -1.247   1.880  1.00  0.00     0.005 A 
ATOM     19  C   UNL     1       1.469  -1.490   3.676  1.00  0.00    -0.033 A 
ATOM     20  C   UNL     1      -0.869  -1.850   3.037  1.00  0.00    -0.033 A 
ATOM     21  C   UNL     1      -1.119  -2.292   0.632  1.00  0.00     0.005 A 
ATOM     22  C   UNL     1       0.102   0.397   3.791  1.00  0.00     0.108 C 
ATOM     23  C   UNL     1       0.160   2.115   2.238  1.00  0.00     0.238 C 
ATOM     24  C   UNL     1       4.067  -1.800   2.736  1.00  0.00     0.000 A 
ATOM     25  C   UNL     1       2.428  -2.050   4.513  1.00  0.00     0.005 A 
ATOM     26  C   UNL     1       0.008  -1.115   4.083  1.00  0.00     0.030 C 
ATOM     27  C   UNL     1      -1.881  -2.764   3.316  1.00  0.00     0.005 A 
ATOM     28  C   UNL     1      -2.122  -3.211   0.936  1.00  0.00     0.000 A 
ATOM     29  C   UNL     1      -0.657   1.553   4.349  1.00  0.00     0.238 C 
ATOM     30  O   UNL     1       0.587   2.747   1.289  1.00  0.00    -0.274 OA
ATOM     31  C   UNL     1       3.729  -2.201   4.036  1.00  0.00     0.000 A 
ATOM     32  C   UNL     1      -0.354  -1.387   5.541  1.00  0.00     0.022 C 
ATOM     33  C   UNL     1      -2.505  -3.439   2.263  1.00  0.00     0.000 A 
ATOM     34  O   UNL     1      -1.272   1.591   5.394  1.00  0.00    -0.274 OA
ENDBRANCH   7  12
ENDBRANCH   4   6
ENDBRANCH   3   4
ENDBRANCH   2   3
ENDBRANCH   1   2
BRANCH   1  35
ATOM     35  O   UNL     1      -0.470  10.515   2.245  1.00  0.00    -0.458 OA
BRANCH  35  36
ATOM     36  C   UNL     1      -0.050   9.548   1.398  1.00  0.00     0.338 C 
ATOM     37  O   UNL     1       0.961   8.873   1.474  1.00  0.00    -0.246 OA
BRANCH  36  38
ATOM     38  C   UNL     1      -1.093   9.323   0.387  1.00  0.00     0.060 A 
ATOM     39  C   UNL     1      -1.099   9.983  -0.837  1.00  0.00     0.016 A 
ATOM     40  C   UNL     1      -2.048   8.351   0.659  1.00  0.00     0.016 A 
ATOM     41  C   UNL     1      -2.100   9.675  -1.769  1.00  0.00     0.010 A 
ATOM     42  C   UNL     1      -2.997   7.989  -0.292  1.00  0.00     0.010 A 
ATOM     43  C   UNL     1      -3.055   8.668  -1.512  1.00  0.00    -0.014 A 
BRANCH  43  44
ATOM     44  C   UNL     1      -4.104   8.318  -2.509  1.00  0.00     0.031 A 
ATOM     45  C   UNL     1      -5.569   8.474  -2.182  1.00  0.00     0.074 A 
ATOM     46  C   UNL     1      -3.741   7.821  -3.707  1.00  0.00     0.049 A 
ATOM     47  N   UNL     1      -6.614   8.253  -2.942  1.00  0.00    -0.248 NA
ATOM     48  C   UNL     1      -5.912   8.903  -0.816  1.00  0.00     0.031 C 
ATOM     49  C   UNL     1      -2.367   7.527  -4.115  1.00  0.00     0.029 A 
ATOM     50  N   UNL     1      -4.492   7.486  -4.807  1.00  0.00    -0.354 N 
ATOM     51  C   UNL     1      -7.726   8.507  -2.148  1.00  0.00     0.074 A 
ATOM     52  C   UNL     1      -7.236   8.832  -0.828  1.00  0.00     0.031 C 
ATOM     53  C   UNL     1      -2.365   7.120  -5.394  1.00  0.00     0.029 A 
ATOM     54  C   UNL     1      -3.739   7.094  -5.888  1.00  0.00     0.049 A 
ATOM     55  H   UNL     1      -5.476   7.523  -4.821  1.00  0.00     0.167 HD
ATOM     56  C   UNL     1      -9.036   8.509  -2.496  1.00  0.00     0.037 A 
ATOM     57  C   UNL     1      -4.111   6.770  -7.142  1.00  0.00     0.037 A 
ATOM     58  C   UNL     1      -9.522   8.231  -3.821  1.00  0.00     0.049 A 
ATOM     59  C   UNL     1      -5.567   6.820  -7.516  1.00  0.00     0.074 A 
ATOM     60  C   UNL     1     -10.823   8.284  -4.291  1.00  0.00     0.029 A 
ATOM     61  N   UNL     1      -8.726   7.853  -4.891  1.00  0.00    -0.354 N 
ATOM     62  N   UNL     1      -6.599   7.149  -6.778  1.00  0.00    -0.248 NA
ATOM     63  C   UNL     1      -5.910   6.460  -8.899  1.00  0.00     0.031 C 
ATOM     64  C   UNL     1     -10.819   7.904  -5.636  1.00  0.00     0.029 A 
ATOM     65  C   UNL     1      -9.510   7.655  -6.016  1.00  0.00     0.049 A 
ATOM     66  H   UNL     1      -7.748   7.741  -4.857  1.00  0.00     0.167 HD
ATOM     67  C   UNL     1      -7.707   7.051  -7.607  1.00  0.00     0.074 A 
ATOM     68  C   UNL     1      -7.221   6.655  -8.912  1.00  0.00     0.031 C 
ATOM     69  C   UNL     1      -9.012   7.265  -7.310  1.00  0.00     0.037 A 
BRANCH  56  70
ATOM     70  C   UNL     1     -10.044   8.867  -1.441  1.00  0.00     0.064 A 
ATOM     71  C   UNL     1     -10.155  10.179  -0.954  1.00  0.00     0.173 A 
ATOM     72  C   UNL     1     -10.962   7.915  -0.972  1.00  0.00     0.173 A 
ATOM     73  F   UNL     1      -9.300  11.127  -1.368  1.00  0.00    -0.203 F 
ATOM     74  C   UNL     1     -11.132  10.519  -0.023  1.00  0.00     0.198 A 
ATOM     75  C   UNL     1     -11.957   8.266  -0.062  1.00  0.00     0.198 A 
ATOM     76  F   UNL     1     -10.910   6.649  -1.413  1.00  0.00    -0.203 F 
ATOM     77  F   UNL     1     -11.196  11.771   0.452  1.00  0.00    -0.200 F 
ATOM     78  C   UNL     1     -12.039   9.566   0.415  1.00  0.00     0.200 A 
ATOM     79  F   UNL     1     -12.844   7.348   0.346  1.00  0.00    -0.200 F 
ATOM     80  F   UNL     1     -12.991   9.900   1.296  1.00  0.00    -0.200 F 
ENDBRANCH  56  70
BRANCH  57  81
ATOM     81  C   UNL     1      -3.073   6.437  -8.152  1.00  0.00     0.064 A 
ATOM     82  C   UNL     1      -2.783   7.324  -9.198  1.00  0.00     0.173 A 
ATOM     83  C   UNL     1      -2.334   5.247  -8.080  1.00  0.00     0.173 A 
ATOM     84  F   UNL     1      -3.476   8.465  -9.319  1.00  0.00    -0.203 F 
ATOM     85  C   UNL     1      -1.799   7.030 -10.139  1.00  0.00     0.198 A 
ATOM     86  C   UNL     1      -1.331   4.967  -9.007  1.00  0.00     0.198 A 
ATOM     87  F   UNL     1      -2.570   4.368  -7.096  1.00  0.00    -0.203 F 
ATOM     88  F   UNL     1      -1.565   7.880 -11.148  1.00  0.00    -0.200 F 
ATOM     89  C   UNL     1      -1.068   5.856 -10.038  1.00  0.00     0.200 A 
ATOM     90  F   UNL     1      -0.618   3.838  -8.898  1.00  0.00    -0.200 F 
ATOM     91  F   UNL     1      -0.114   5.580 -10.937  1.00  0.00    -0.200 F 
ENDBRANCH  57  81
BRANCH  69  92
ATOM     92  C   UNL     1     -10.015   7.085  -8.411  1.00  0.00     0.064 A 
ATOM     93  C   UNL     1     -10.367   5.811  -8.876  1.00  0.00     0.173 A 
ATOM     94  C   UNL     1     -10.687   8.193  -8.951  1.00  0.00     0.173 A 
ATOM     95  F   UNL     1      -9.744   4.722  -8.399  1.00  0.00    -0.203 F 
ATOM     96  C   UNL     1     -11.347   5.651  -9.852  1.00  0.00     0.198 A 
ATOM     97  C   UNL     1     -11.685   8.028  -9.906  1.00  0.00     0.198 A 
ATOM     98  F   UNL     1     -10.392   9.433  -8.532  1.00  0.00    -0.203 F 
ATOM     99  F   UNL     1     -11.645   4.426 -10.305  1.00  0.00    -0.200 F 
ATOM    100  C   UNL     1     -12.011   6.758 -10.359  1.00  0.00     0.200 A 
ATOM    101  F   UNL     1     -12.337   9.097 -10.384  1.00  0.00    -0.200 F 
ATOM    102  F   UNL     1     -12.966   6.601 -11.286  1.00  0.00    -0.200 F 
ENDBRANCH  69  92
ENDBRANCH  43  44
ENDBRANCH  36  38
ENDBRANCH  35  36
ENDBRANCH   1  35
TORSDOF 12
