REMARK SMILES O=C(CNC(=O)c1cccs1)N[C@@H]1C=C[C@H](C(=O)OCCOC(=O)c2ccc(-c3c4nc(c(-c5c(F)c(F)c(F)c(F)c5F)c5ccc([nH]5)c(-c5c(F)c(F)c(F)c(F)c5F)c5nc(c(-c6c(F)c(F)c(F)c(F)c6F)c6ccc3[nH]6)C=C5)C=C4)cc2)C1
REMARK SMILES IDX 20 1 19 2 17 3 18 4 16 5 13 6 14 7 88 8 15 9 12 10 1 11 2 12
REMARK SMILES IDX 3 14 4 15 5 16 6 18 7 19 8 20 11 21 9 22 10 23 21 24 22 25
REMARK SMILES IDX 23 26 24 27 25 28 26 29 87 30 27 31 86 32 28 33 29 34 30 35
REMARK SMILES IDX 80 36 31 37 85 38 79 39 81 40 32 41 84 42 78 43 77 44 33 46
REMARK SMILES IDX 65 47 45 48 64 49 46 50 49 51 63 52 82 53 47 54 48 55 62 57
REMARK SMILES IDX 83 58 50 59 34 60 35 61 43 62 36 63 37 64 41 65 44 66 38 67
REMARK SMILES IDX 39 68 42 69 40 70 66 71 67 72 75 73 68 74 69 75 73 76 76 77
REMARK SMILES IDX 70 78 71 79 74 80 72 81 51 82 52 83 60 84 53 85 54 86 58 87
REMARK SMILES IDX 61 88 55 89 56 90 59 91 57 92
REMARK H PARENT 12 13 4 17 81 45 49 56
REMARK Flexibility Score: inf
ROOT
ATOM      1  C   UNL     1      -0.112   4.661  -5.389  1.00  0.00     0.274 C 
ENDROOT
BRANCH   1   2
ATOM      2  O   UNL     1      -0.067   3.792  -4.242  1.00  0.00    -0.462 OA
BRANCH   2   3
ATOM      3  C   UNL     1       1.103   3.765  -3.546  1.00  0.00     0.312 C 
ATOM      4  O   UNL     1       2.128   4.340  -3.893  1.00  0.00    -0.252 OA
BRANCH   3   5
ATOM      5  C   UNL     1       0.942   3.071  -2.193  1.00  0.00     0.124 C 
ATOM      6  C   UNL     1       2.129   0.944  -1.893  1.00  0.00     0.106 C 
ATOM      7  C   UNL     1       0.653   0.748  -1.976  1.00  0.00    -0.006 C 
ATOM      8  C   UNL     1       2.263   2.459  -1.694  1.00  0.00     0.048 C 
ATOM      9  C   UNL     1       0.006   1.901  -2.167  1.00  0.00    -0.014 C 
BRANCH   6  10
ATOM     10  N   UNL     1       2.685   0.496  -3.144  1.00  0.00    -0.348 N 
ATOM     11  O   UNL     1       4.831   0.300  -2.367  1.00  0.00    -0.273 OA
ATOM     12  C   UNL     1       4.015   0.172  -3.276  1.00  0.00     0.239 C 
ATOM     13  H   UNL     1       2.095   0.418  -3.928  1.00  0.00     0.164 HD
BRANCH  12  14
ATOM     14  C   UNL     1       4.437  -0.203  -4.700  1.00  0.00     0.216 C 
BRANCH  14  15
ATOM     15  N   UNL     1       3.333  -0.782  -5.460  1.00  0.00    -0.342 N 
ATOM     16  C   UNL     1       2.728  -0.340  -6.610  1.00  0.00     0.261 C 
ATOM     17  H   UNL     1       2.966  -1.617  -5.091  1.00  0.00     0.164 HD
ATOM     18  O   UNL     1       1.651  -0.863  -6.899  1.00  0.00    -0.268 OA
BRANCH  16  19
ATOM     19  C   UNL     1       3.361   0.699  -7.399  1.00  0.00     0.092 A 
ATOM     20  C   UNL     1       4.689   0.873  -7.742  1.00  0.00     0.025 A 
ATOM     21  S   UNL     1       2.374   1.913  -8.105  1.00  0.00    -0.139 S 
ATOM     22  C   UNL     1       4.901   2.039  -8.534  1.00  0.00     0.012 A 
ATOM     23  C   UNL     1       3.723   2.696  -8.805  1.00  0.00     0.065 A 
ENDBRANCH  16  19
ENDBRANCH  14  15
ENDBRANCH  12  14
ENDBRANCH   6  10
ENDBRANCH   3   5
ENDBRANCH   2   3
ENDBRANCH   1   2
BRANCH   1  24
ATOM     24  C   UNL     1      -0.831   5.971  -5.049  1.00  0.00     0.275 C 
BRANCH  24  25
ATOM     25  O   UNL     1      -0.049   6.808  -4.173  1.00  0.00    -0.458 OA
BRANCH  25  26
ATOM     26  C   UNL     1      -0.247   6.611  -2.849  1.00  0.00     0.338 C 
ATOM     27  O   UNL     1      -1.012   5.822  -2.322  1.00  0.00    -0.246 OA
BRANCH  26  28
ATOM     28  C   UNL     1       0.710   7.423  -2.080  1.00  0.00     0.060 A 
ATOM     29  C   UNL     1       1.608   6.766  -1.233  1.00  0.00     0.016 A 
ATOM     30  C   UNL     1       0.678   8.817  -2.135  1.00  0.00     0.016 A 
ATOM     31  C   UNL     1       2.479   7.498  -0.434  1.00  0.00     0.010 A 
ATOM     32  C   UNL     1       1.561   9.553  -1.339  1.00  0.00     0.010 A 
ATOM     33  C   UNL     1       2.464   8.897  -0.483  1.00  0.00    -0.014 A 
BRANCH  33  34
ATOM     34  C   UNL     1       3.399   9.675   0.362  1.00  0.00     0.031 A 
ATOM     35  C   UNL     1       2.893  10.405   1.569  1.00  0.00     0.074 A 
ATOM     36  C   UNL     1       4.703   9.717   0.036  1.00  0.00     0.049 A 
ATOM     37  N   UNL     1       3.527  11.229   2.363  1.00  0.00    -0.248 NA
ATOM     38  C   UNL     1       1.486  10.179   1.933  1.00  0.00     0.031 C 
ATOM     39  C   UNL     1       5.314   9.003  -1.085  1.00  0.00     0.029 A 
ATOM     40  N   UNL     1       5.746  10.398   0.610  1.00  0.00    -0.354 N 
ATOM     41  C   UNL     1       2.596  11.633   3.309  1.00  0.00     0.074 A 
ATOM     42  C   UNL     1       1.349  10.975   2.984  1.00  0.00     0.031 C 
ATOM     43  C   UNL     1       6.625   9.290  -1.122  1.00  0.00     0.029 A 
ATOM     44  C   UNL     1       6.932  10.248  -0.064  1.00  0.00     0.049 A 
ATOM     45  H   UNL     1       5.653  10.942   1.426  1.00  0.00     0.167 HD
ATOM     46  C   UNL     1       2.774  12.477   4.353  1.00  0.00     0.037 A 
ATOM     47  C   UNL     1       8.122  10.849   0.125  1.00  0.00     0.037 A 
ATOM     48  C   UNL     1       4.024  13.116   4.675  1.00  0.00     0.049 A 
ATOM     49  C   UNL     1       8.267  11.851   1.236  1.00  0.00     0.074 A 
ATOM     50  C   UNL     1       4.314  13.962   5.731  1.00  0.00     0.029 A 
ATOM     51  N   UNL     1       5.190  12.983   3.936  1.00  0.00    -0.354 N 
ATOM     52  N   UNL     1       7.384  12.230   2.127  1.00  0.00    -0.248 NA
ATOM     53  C   UNL     1       9.569  12.523   1.357  1.00  0.00     0.031 C 
ATOM     54  C   UNL     1       5.645  14.377   5.605  1.00  0.00     0.029 A 
ATOM     55  C   UNL     1       6.194  13.758   4.494  1.00  0.00     0.049 A 
ATOM     56  H   UNL     1       5.290  12.420   3.135  1.00  0.00     0.167 HD
ATOM     57  C   UNL     1       8.023  13.173   2.920  1.00  0.00     0.074 A 
ATOM     58  C   UNL     1       9.374  13.297   2.415  1.00  0.00     0.031 C 
ATOM     59  C   UNL     1       7.531  13.875   3.970  1.00  0.00     0.037 A 
BRANCH  46  60
ATOM     60  C   UNL     1       1.582  12.784   5.209  1.00  0.00     0.064 A 
ATOM     61  C   UNL     1       1.066  11.851   6.119  1.00  0.00     0.173 A 
ATOM     62  C   UNL     1       0.975  14.048   5.146  1.00  0.00     0.173 A 
ATOM     63  F   UNL     1       1.605  10.625   6.207  1.00  0.00    -0.203 F 
ATOM     64  C   UNL     1      -0.027  12.164   6.922  1.00  0.00     0.198 A 
ATOM     65  C   UNL     1      -0.104  14.366   5.967  1.00  0.00     0.198 A 
ATOM     66  F   UNL     1       1.434  14.977   4.295  1.00  0.00    -0.203 F 
ATOM     67  F   UNL     1      -0.527  11.245   7.759  1.00  0.00    -0.200 F 
ATOM     68  C   UNL     1      -0.607  13.423   6.850  1.00  0.00     0.200 A 
ATOM     69  F   UNL     1      -0.656  15.585   5.903  1.00  0.00    -0.200 F 
ATOM     70  F   UNL     1      -1.655  13.725   7.628  1.00  0.00    -0.200 F 
ENDBRANCH  46  60
BRANCH  47  71
ATOM     71  C   UNL     1       9.252  10.550  -0.790  1.00  0.00     0.064 A 
ATOM     72  C   UNL     1      10.375   9.841  -0.343  1.00  0.00     0.173 A 
ATOM     73  C   UNL     1       9.230  10.963  -2.131  1.00  0.00     0.173 A 
ATOM     74  F   UNL     1      10.453   9.449   0.937  1.00  0.00    -0.203 F 
ATOM     75  C   UNL     1      11.437   9.563  -1.201  1.00  0.00     0.198 A 
ATOM     76  C   UNL     1      10.280  10.662  -2.994  1.00  0.00     0.198 A 
ATOM     77  F   UNL     1       8.180  11.649  -2.605  1.00  0.00    -0.203 F 
ATOM     78  F   UNL     1      12.516   8.916  -0.740  1.00  0.00    -0.200 F 
ATOM     79  C   UNL     1      11.386   9.967  -2.527  1.00  0.00     0.200 A 
ATOM     80  F   UNL     1      10.222  11.045  -4.277  1.00  0.00    -0.200 F 
ATOM     81  F   UNL     1      12.405   9.694  -3.353  1.00  0.00    -0.200 F 
ENDBRANCH  47  71
BRANCH  59  82
ATOM     82  C   UNL     1       8.463  14.835   4.647  1.00  0.00     0.064 A 
ATOM     83  C   UNL     1       8.796  16.063   4.059  1.00  0.00     0.173 A 
ATOM     84  C   UNL     1       8.985  14.547   5.917  1.00  0.00     0.173 A 
ATOM     85  F   UNL     1       8.335  16.374   2.838  1.00  0.00    -0.203 F 
ATOM     86  C   UNL     1       9.632  16.964   4.713  1.00  0.00     0.198 A 
ATOM     87  C   UNL     1       9.801  15.461   6.578  1.00  0.00     0.198 A 
ATOM     88  F   UNL     1       8.691  13.387   6.522  1.00  0.00    -0.203 F 
ATOM     89  F   UNL     1       9.966  18.118   4.118  1.00  0.00    -0.200 F 
ATOM     90  C   UNL     1      10.126  16.667   5.974  1.00  0.00     0.200 A 
ATOM     91  F   UNL     1      10.269  15.177   7.801  1.00  0.00    -0.200 F 
ATOM     92  F   UNL     1      10.922  17.540   6.606  1.00  0.00    -0.200 F 
ENDBRANCH  59  82
ENDBRANCH  33  34
ENDBRANCH  26  28
ENDBRANCH  25  26
ENDBRANCH  24  25
ENDBRANCH   1  24
TORSDOF 15
