REMARK SMILES C[C@@H]1OCC[C@@H]1c1nnc(-c2cccc(C(=O)OCCOC(=O)c3ccc(-c4c5nc(c(-c6c(F)c(F)c(F)c(F)c6F)c6ccc([nH]6)c(-c6c(F)c(F)c(F)c(F)c6F)c6nc(c(-c7c(F)c(F)c(F)c(F)c7F)c7ccc4[nH]7)C=C6)C=C5)cc3)c2)o1
REMARK SMILES IDX 19 1 18 2 16 3 17 4 15 5 11 6 12 7 87 8 13 9 14 10 10 11
REMARK SMILES IDX 7 12 8 13 88 14 9 15 6 16 1 17 2 18 3 19 4 20 5 21 20 22
REMARK SMILES IDX 21 23 22 24 23 25 24 26 25 27 86 28 26 29 85 30 27 31 28 32
REMARK SMILES IDX 29 33 79 34 30 35 84 36 78 37 80 38 31 39 83 40 77 41 76 42
REMARK SMILES IDX 32 44 64 45 44 46 63 47 45 48 48 49 62 50 81 51 46 52 47 53
REMARK SMILES IDX 61 55 82 56 49 57 33 58 34 59 42 60 35 61 36 62 40 63 43 64
REMARK SMILES IDX 37 65 38 66 41 67 39 68 65 69 66 70 74 71 67 72 68 73 72 74
REMARK SMILES IDX 75 75 69 76 70 77 73 78 71 79 50 80 51 81 59 82 52 83 53 84
REMARK SMILES IDX 57 85 60 86 54 87 55 88 58 89 56 90
REMARK H PARENT 80 43 48 54
REMARK Flexibility Score: inf
ROOT
ATOM      1  C   UNL     1       7.518   2.984  -3.120  1.00  0.00     0.275 C 
ENDROOT
BRANCH   1   2
ATOM      2  O   UNL     1       6.436   3.365  -2.247  1.00  0.00    -0.458 OA
BRANCH   2   3
ATOM      3  C   UNL     1       6.787   3.738  -0.987  1.00  0.00     0.338 C 
ATOM      4  O   UNL     1       7.908   3.759  -0.523  1.00  0.00    -0.246 OA
BRANCH   3   5
ATOM      5  C   UNL     1       5.601   4.259  -0.255  1.00  0.00     0.060 A 
ATOM      6  C   UNL     1       3.212   4.455   0.111  1.00  0.00     0.040 A 
ATOM      7  C   UNL     1       3.442   5.444   1.075  1.00  0.00     0.014 A 
ATOM      8  C   UNL     1       4.295   3.884  -0.577  1.00  0.00     0.029 A 
ATOM      9  C   UNL     1       4.744   5.795   1.423  1.00  0.00     0.002 A 
ATOM     10  C   UNL     1       5.819   5.175   0.786  1.00  0.00     0.016 A 
BRANCH   6  11
ATOM     11  C   UNL     1       1.873   3.951  -0.090  1.00  0.00     0.247 A 
ATOM     12  C   UNL     1       0.369   2.459   0.048  1.00  0.00     0.222 A 
ATOM     13  N   UNL     1      -0.234   3.563  -0.345  1.00  0.00    -0.112 NA
ATOM     14  O   UNL     1       1.707   2.636   0.242  1.00  0.00    -0.420 OA
ATOM     15  N   UNL     1       0.745   4.540  -0.416  1.00  0.00    -0.108 NA
BRANCH  12  16
ATOM     16  C   UNL     1      -0.206   1.147   0.404  1.00  0.00     0.109 C 
ATOM     17  C   UNL     1       1.751  -0.160  -0.735  1.00  0.00     0.039 C 
ATOM     18  C   UNL     1       0.731  -0.062   0.399  1.00  0.00     0.127 C 
ATOM     19  O   UNL     1      -0.135  -1.213   0.269  1.00  0.00    -0.378 OA
ATOM     20  C   UNL     1      -1.432  -0.772  -0.158  1.00  0.00     0.161 C 
ATOM     21  C   UNL     1      -1.311   0.691  -0.524  1.00  0.00     0.044 C 
ENDBRANCH  12  16
ENDBRANCH   6  11
ENDBRANCH   3   5
ENDBRANCH   2   3
ENDBRANCH   1   2
BRANCH   1  22
ATOM     22  C   UNL     1       7.812   4.089  -4.136  1.00  0.00     0.275 C 
BRANCH  22  23
ATOM     23  O   UNL     1       8.338   5.249  -3.463  1.00  0.00    -0.458 OA
BRANCH  23  24
ATOM     24  C   UNL     1       7.581   6.366  -3.542  1.00  0.00     0.338 C 
ATOM     25  O   UNL     1       6.545   6.530  -4.163  1.00  0.00    -0.246 OA
BRANCH  24  26
ATOM     26  C   UNL     1       8.139   7.393  -2.651  1.00  0.00     0.060 A 
ATOM     27  C   UNL     1       7.745   7.372  -1.316  1.00  0.00     0.016 A 
ATOM     28  C   UNL     1       8.909   8.445  -3.141  1.00  0.00     0.016 A 
ATOM     29  C   UNL     1       8.075   8.421  -0.465  1.00  0.00     0.010 A 
ATOM     30  C   UNL     1       9.277   9.485  -2.275  1.00  0.00     0.010 A 
ATOM     31  C   UNL     1       8.833   9.500  -0.938  1.00  0.00    -0.014 A 
BRANCH  31  32
ATOM     32  C   UNL     1       9.050  10.681  -0.058  1.00  0.00     0.031 A 
ATOM     33  C   UNL     1       8.397  11.996  -0.396  1.00  0.00     0.074 A 
ATOM     34  C   UNL     1       9.763  10.570   1.080  1.00  0.00     0.049 A 
ATOM     35  N   UNL     1       8.514  13.160   0.196  1.00  0.00    -0.248 NA
ATOM     36  C   UNL     1       7.495  12.004  -1.558  1.00  0.00     0.031 C 
ATOM     37  C   UNL     1      10.403   9.346   1.560  1.00  0.00     0.029 A 
ATOM     38  N   UNL     1      10.052  11.500   2.049  1.00  0.00    -0.354 N 
ATOM     39  C   UNL     1       7.742  14.043  -0.548  1.00  0.00     0.074 A 
ATOM     40  C   UNL     1       7.165  13.285  -1.637  1.00  0.00     0.031 C 
ATOM     41  C   UNL     1      10.982   9.591   2.747  1.00  0.00     0.029 A 
ATOM     42  C   UNL     1      10.803  11.000   3.085  1.00  0.00     0.049 A 
ATOM     43  H   UNL     1       9.749  12.435   2.006  1.00  0.00     0.167 HD
ATOM     44  C   UNL     1       7.530  15.365  -0.341  1.00  0.00     0.037 A 
ATOM     45  C   UNL     1      11.308  11.613   4.173  1.00  0.00     0.037 A 
ATOM     46  C   UNL     1       8.057  16.113   0.771  1.00  0.00     0.049 A 
ATOM     47  C   UNL     1      11.061  13.083   4.378  1.00  0.00     0.074 A 
ATOM     48  C   UNL     1       7.900  17.457   1.061  1.00  0.00     0.029 A 
ATOM     49  N   UNL     1       8.829  15.573   1.788  1.00  0.00    -0.354 N 
ATOM     50  N   UNL     1      10.373  13.918   3.640  1.00  0.00    -0.248 NA
ATOM     51  C   UNL     1      11.670  13.696   5.568  1.00  0.00     0.031 C 
ATOM     52  C   UNL     1       8.598  17.736   2.242  1.00  0.00     0.029 A 
ATOM     53  C   UNL     1       9.155  16.557   2.708  1.00  0.00     0.049 A 
ATOM     54  H   UNL     1       9.104  14.629   1.849  1.00  0.00     0.167 HD
ATOM     55  C   UNL     1      10.451  15.148   4.280  1.00  0.00     0.074 A 
ATOM     56  C   UNL     1      11.235  14.945   5.481  1.00  0.00     0.031 C 
ATOM     57  C   UNL     1       9.926  16.339   3.904  1.00  0.00     0.037 A 
BRANCH  44  58
ATOM     58  C   UNL     1       6.712  16.101  -1.361  1.00  0.00     0.064 A 
ATOM     59  C   UNL     1       5.322  15.937  -1.456  1.00  0.00     0.173 A 
ATOM     60  C   UNL     1       7.329  17.004  -2.240  1.00  0.00     0.173 A 
ATOM     61  F   UNL     1       4.688  15.074  -0.649  1.00  0.00    -0.203 F 
ATOM     62  C   UNL     1       4.584  16.633  -2.410  1.00  0.00     0.198 A 
ATOM     63  C   UNL     1       6.584  17.718  -3.175  1.00  0.00     0.198 A 
ATOM     64  F   UNL     1       8.655  17.200  -2.187  1.00  0.00    -0.203 F 
ATOM     65  F   UNL     1       3.264  16.428  -2.514  1.00  0.00    -0.200 F 
ATOM     66  C   UNL     1       5.214  17.527  -3.264  1.00  0.00     0.200 A 
ATOM     67  F   UNL     1       7.194  18.589  -3.991  1.00  0.00    -0.200 F 
ATOM     68  F   UNL     1       4.501  18.199  -4.178  1.00  0.00    -0.200 F 
ENDBRANCH  44  58
BRANCH  45  69
ATOM     69  C   UNL     1      12.113  10.838   5.154  1.00  0.00     0.064 A 
ATOM     70  C   UNL     1      11.629  10.582   6.444  1.00  0.00     0.173 A 
ATOM     71  C   UNL     1      13.388  10.353   4.826  1.00  0.00     0.173 A 
ATOM     72  F   UNL     1      10.428  11.050   6.814  1.00  0.00    -0.203 F 
ATOM     73  C   UNL     1      12.395   9.882   7.373  1.00  0.00     0.198 A 
ATOM     74  C   UNL     1      14.141   9.628   5.746  1.00  0.00     0.198 A 
ATOM     75  F   UNL     1      13.898  10.576   3.606  1.00  0.00    -0.203 F 
ATOM     76  F   UNL     1      11.928   9.689   8.614  1.00  0.00    -0.200 F 
ATOM     77  C   UNL     1      13.647   9.399   7.022  1.00  0.00     0.200 A 
ATOM     78  F   UNL     1      15.345   9.155   5.399  1.00  0.00    -0.200 F 
ATOM     79  F   UNL     1      14.382   8.723   7.915  1.00  0.00    -0.200 F 
ENDBRANCH  45  69
BRANCH  57  80
ATOM     80  C   UNL     1      10.151  17.506   4.820  1.00  0.00     0.064 A 
ATOM     81  C   UNL     1      11.405  18.125   4.930  1.00  0.00     0.173 A 
ATOM     82  C   UNL     1       9.094  18.022   5.585  1.00  0.00     0.173 A 
ATOM     83  F   UNL     1      12.451  17.659   4.231  1.00  0.00    -0.203 F 
ATOM     84  C   UNL     1      11.600  19.198   5.795  1.00  0.00     0.198 A 
ATOM     85  C   UNL     1       9.286  19.111   6.429  1.00  0.00     0.198 A 
ATOM     86  F   UNL     1       7.874  17.469   5.511  1.00  0.00    -0.203 F 
ATOM     87  F   UNL     1      12.818  19.742   5.922  1.00  0.00    -0.200 F 
ATOM     88  C   UNL     1      10.540  19.693   6.540  1.00  0.00     0.200 A 
ATOM     89  F   UNL     1       8.259  19.594   7.142  1.00  0.00    -0.200 F 
ATOM     90  F   UNL     1      10.729  20.725   7.374  1.00  0.00    -0.200 F 
ENDBRANCH  57  80
ENDBRANCH  31  32
ENDBRANCH  24  26
ENDBRANCH  23  24
ENDBRANCH  22  23
ENDBRANCH   1  22
TORSDOF 13
