REMARK SMILES CCc1noc(C[N@@H+]2CC[C@H](Cc3cccc(C(=O)OCCOC(=O)c4ccc(-c5c6nc(c(-c7c(F)c(F)c(F)c(F)c7F)c7ccc([nH]7)c(-c7c(F)c(F)c(F)c(F)c7F)c7nc(c(-c8c(F)c(F)c(F)c(F)c8F)c8ccc5[nH]8)C=C7)C=C6)cc4)c3)C2)n1
REMARK SMILES IDX 20 1 18 2 19 3 17 4 13 5 14 6 89 7 15 8 16 9 12 10 11 11
REMARK SMILES IDX 8 12 9 13 90 14 10 16 7 17 6 18 3 19 4 20 91 21 5 22 2 23
REMARK SMILES IDX 1 24 21 25 22 26 23 27 24 28 25 29 26 30 27 31 88 32 28 33
REMARK SMILES IDX 87 34 29 35 30 36 31 37 81 38 32 39 86 40 80 41 82 42 33 43
REMARK SMILES IDX 85 44 79 45 78 46 34 48 66 49 46 50 65 51 47 52 50 53 64 54
REMARK SMILES IDX 83 55 48 56 49 57 63 59 84 60 51 61 35 62 36 63 44 64 37 65
REMARK SMILES IDX 38 66 42 67 45 68 39 69 40 70 43 71 41 72 67 73 68 74 76 75
REMARK SMILES IDX 69 76 70 77 74 78 77 79 71 80 72 81 75 82 73 83 52 84 53 85
REMARK SMILES IDX 61 86 54 87 55 88 59 89 62 90 56 91 57 92 60 93 58 94
REMARK H PARENT 8 15 82 47 50 58
REMARK Flexibility Score: inf
ROOT
ATOM      1  O   UNL     1       7.885  -3.599  -1.517  1.00  0.00    -0.458 OA
ENDROOT
BRANCH   1   2
ATOM      2  C   UNL     1       6.814  -4.434  -1.487  1.00  0.00     0.338 C 
ATOM      3  O   UNL     1       6.839  -5.641  -1.374  1.00  0.00    -0.246 OA
BRANCH   2   4
ATOM      4  C   UNL     1       5.553  -3.643  -1.514  1.00  0.00     0.060 A 
ATOM      5  C   UNL     1       4.326  -1.606  -1.960  1.00  0.00    -0.047 A 
ATOM      6  C   UNL     1       3.155  -2.218  -1.491  1.00  0.00     0.004 A 
ATOM      7  C   UNL     1       5.535  -2.309  -1.920  1.00  0.00     0.019 A 
ATOM      8  C   UNL     1       3.170  -3.542  -1.066  1.00  0.00     0.001 A 
ATOM      9  C   UNL     1       4.358  -4.266  -1.124  1.00  0.00     0.016 A 
BRANCH   5  10
ATOM     10  C   UNL     1       4.264  -0.274  -2.666  1.00  0.00     0.045 C 
BRANCH  10  11
ATOM     11  C   UNL     1       4.502  -0.451  -4.176  1.00  0.00     0.054 C 
ATOM     12  N   UNL     1       3.272   0.422  -6.064  1.00  0.00    -0.327 N 
ATOM     13  C   UNL     1       3.361  -1.031  -6.205  1.00  0.00     0.263 C 
ATOM     14  C   UNL     1       4.205   0.810  -4.995  1.00  0.00     0.266 C 
ATOM     15  H   UNL     1       3.543   0.870  -6.939  1.00  0.00     0.348 HD
ATOM     16  C   UNL     1       3.648  -1.550  -4.816  1.00  0.00     0.071 C 
BRANCH  12  17
ATOM     17  C   UNL     1       1.896   0.930  -5.876  1.00  0.00     0.364 C 
BRANCH  17  18
ATOM     18  C   UNL     1       1.236   0.713  -4.552  1.00  0.00     0.281 A 
ATOM     19  C   UNL     1       0.447   0.769  -2.613  1.00  0.00     0.171 A 
ATOM     20  N   UNL     1      -0.034  -0.382  -3.104  1.00  0.00    -0.062 NA
ATOM     21  N   UNL     1       1.240   1.477  -3.479  1.00  0.00    -0.191 NA
ATOM     22  O   UNL     1       0.484  -0.417  -4.403  1.00  0.00    -0.333 OA
BRANCH  19  23
ATOM     23  C   UNL     1       0.127   1.262  -1.250  1.00  0.00     0.078 C 
ATOM     24  C   UNL     1       0.750   0.429  -0.141  1.00  0.00     0.012 C 
ENDBRANCH  19  23
ENDBRANCH  17  18
ENDBRANCH  12  17
ENDBRANCH  10  11
ENDBRANCH   5  10
ENDBRANCH   2   4
ENDBRANCH   1   2
BRANCH   1  25
ATOM     25  C   UNL     1       9.178  -4.208  -1.354  1.00  0.00     0.275 C 
BRANCH  25  26
ATOM     26  C   UNL     1       9.701  -3.996   0.067  1.00  0.00     0.275 C 
BRANCH  26  27
ATOM     27  O   UNL     1       8.926  -4.754   1.017  1.00  0.00    -0.458 OA
BRANCH  27  28
ATOM     28  C   UNL     1       8.044  -4.034   1.747  1.00  0.00     0.338 C 
ATOM     29  O   UNL     1       7.879  -2.826   1.739  1.00  0.00    -0.246 OA
BRANCH  28  30
ATOM     30  C   UNL     1       7.166  -4.939   2.502  1.00  0.00     0.060 A 
ATOM     31  C   UNL     1       5.907  -5.193   1.967  1.00  0.00     0.016 A 
ATOM     32  C   UNL     1       7.490  -5.399   3.775  1.00  0.00     0.016 A 
ATOM     33  C   UNL     1       4.939  -5.861   2.705  1.00  0.00     0.010 A 
ATOM     34  C   UNL     1       6.529  -6.109   4.509  1.00  0.00     0.010 A 
ATOM     35  C   UNL     1       5.232  -6.317   3.994  1.00  0.00    -0.014 A 
BRANCH  35  36
ATOM     36  C   UNL     1       4.144  -6.897   4.828  1.00  0.00     0.031 A 
ATOM     37  C   UNL     1       3.702  -6.182   6.076  1.00  0.00     0.074 A 
ATOM     38  C   UNL     1       3.506  -8.020   4.448  1.00  0.00     0.049 A 
ATOM     39  N   UNL     1       2.873  -6.573   7.012  1.00  0.00    -0.248 NA
ATOM     40  C   UNL     1       4.280  -4.850   6.305  1.00  0.00     0.031 C 
ATOM     41  C   UNL     1       3.783  -8.778   3.228  1.00  0.00     0.029 A 
ATOM     42  N   UNL     1       2.486  -8.717   5.050  1.00  0.00    -0.354 N 
ATOM     43  C   UNL     1       2.872  -5.560   7.963  1.00  0.00     0.074 A 
ATOM     44  C   UNL     1       3.794  -4.545   7.499  1.00  0.00     0.031 C 
ATOM     45  C   UNL     1       2.944  -9.824   3.163  1.00  0.00     0.029 A 
ATOM     46  C   UNL     1       2.122  -9.852   4.369  1.00  0.00     0.049 A 
ATOM     47  H   UNL     1       2.057  -8.430   5.888  1.00  0.00     0.167 HD
ATOM     48  C   UNL     1       2.164  -5.482   9.116  1.00  0.00     0.037 A 
ATOM     49  C   UNL     1       1.254 -10.829   4.697  1.00  0.00     0.037 A 
ATOM     50  C   UNL     1       1.213  -6.473   9.552  1.00  0.00     0.049 A 
ATOM     51  C   UNL     1       0.500 -10.740   5.995  1.00  0.00     0.074 A 
ATOM     52  C   UNL     1       0.447  -6.489  10.705  1.00  0.00     0.029 A 
ATOM     53  N   UNL     1       0.888  -7.620   8.841  1.00  0.00    -0.354 N 
ATOM     54  N   UNL     1       0.549  -9.811   6.918  1.00  0.00    -0.248 NA
ATOM     55  C   UNL     1      -0.424 -11.841   6.300  1.00  0.00     0.031 C 
ATOM     56  C   UNL     1      -0.313  -7.665  10.710  1.00  0.00     0.029 A 
ATOM     57  C   UNL     1      -0.061  -8.355   9.535  1.00  0.00     0.049 A 
ATOM     58  H   UNL     1       1.274  -7.875   7.972  1.00  0.00     0.167 HD
ATOM     59  C   UNL     1      -0.345 -10.204   7.905  1.00  0.00     0.074 A 
ATOM     60  C   UNL     1      -0.939 -11.447   7.457  1.00  0.00     0.031 C 
ATOM     61  C   UNL     1      -0.645  -9.591   9.077  1.00  0.00     0.037 A 
BRANCH  48  62
ATOM     62  C   UNL     1       2.430  -4.301  10.007  1.00  0.00     0.064 A 
ATOM     63  C   UNL     1       2.040  -3.000   9.656  1.00  0.00     0.173 A 
ATOM     64  C   UNL     1       3.094  -4.478  11.231  1.00  0.00     0.173 A 
ATOM     65  F   UNL     1       1.416  -2.773   8.491  1.00  0.00    -0.203 F 
ATOM     66  C   UNL     1       2.344  -1.915  10.476  1.00  0.00     0.198 A 
ATOM     67  C   UNL     1       3.365  -3.395  12.065  1.00  0.00     0.198 A 
ATOM     68  F   UNL     1       3.483  -5.701  11.621  1.00  0.00    -0.203 F 
ATOM     69  F   UNL     1       2.022  -0.673  10.088  1.00  0.00    -0.200 F 
ATOM     70  C   UNL     1       3.002  -2.114  11.681  1.00  0.00     0.200 A 
ATOM     71  F   UNL     1       3.988  -3.592  13.235  1.00  0.00    -0.200 F 
ATOM     72  F   UNL     1       3.296  -1.069  12.466  1.00  0.00    -0.200 F 
ENDBRANCH  48  62
BRANCH  49  73
ATOM     73  C   UNL     1       1.087 -11.995   3.789  1.00  0.00     0.064 A 
ATOM     74  C   UNL     1      -0.102 -12.200   3.079  1.00  0.00     0.173 A 
ATOM     75  C   UNL     1       2.127 -12.919   3.601  1.00  0.00     0.173 A 
ATOM     76  F   UNL     1      -1.135 -11.361   3.246  1.00  0.00    -0.203 F 
ATOM     77  C   UNL     1      -0.248 -13.287   2.218  1.00  0.00     0.198 A 
ATOM     78  C   UNL     1       1.992 -13.986   2.717  1.00  0.00     0.198 A 
ATOM     79  F   UNL     1       3.286 -12.770   4.260  1.00  0.00    -0.203 F 
ATOM     80  F   UNL     1      -1.409 -13.480   1.578  1.00  0.00    -0.200 F 
ATOM     81  C   UNL     1       0.803 -14.172   2.030  1.00  0.00     0.200 A 
ATOM     82  F   UNL     1       3.015 -14.830   2.527  1.00  0.00    -0.200 F 
ATOM     83  F   UNL     1       0.667 -15.208   1.191  1.00  0.00    -0.200 F 
ENDBRANCH  49  73
BRANCH  61  84
ATOM     84  C   UNL     1      -1.688 -10.238   9.941  1.00  0.00     0.064 A 
ATOM     85  C   UNL     1      -1.435 -11.427  10.640  1.00  0.00     0.173 A 
ATOM     86  C   UNL     1      -2.950  -9.643  10.094  1.00  0.00     0.173 A 
ATOM     87  F   UNL     1      -0.250 -12.044  10.516  1.00  0.00    -0.203 F 
ATOM     88  C   UNL     1      -2.416 -12.013  11.436  1.00  0.00     0.198 A 
ATOM     89  C   UNL     1      -3.919 -10.215  10.914  1.00  0.00     0.198 A 
ATOM     90  F   UNL     1      -3.242  -8.501   9.453  1.00  0.00    -0.203 F 
ATOM     91  F   UNL     1      -2.170 -13.177  12.053  1.00  0.00    -0.200 F 
ATOM     92  C   UNL     1      -3.654 -11.403  11.577  1.00  0.00     0.200 A 
ATOM     93  F   UNL     1      -5.110  -9.618  11.059  1.00  0.00    -0.200 F 
ATOM     94  F   UNL     1      -4.596 -11.967  12.346  1.00  0.00    -0.200 F 
ENDBRANCH  61  84
ENDBRANCH  35  36
ENDBRANCH  28  30
ENDBRANCH  27  28
ENDBRANCH  26  27
ENDBRANCH  25  26
ENDBRANCH   1  25
TORSDOF 16
