REMARK SMILES C[C@](NC(=O)NCCC[NH3+])(C(=O)OCCOC(=O)c1ccc(-c2c3nc(c(-c4c(F)c(F)c(F)c(F)c4F)c4ccc([nH]4)c(-c4c(F)c(F)c(F)c(F)c4F)c4nc(c(-c5c(F)c(F)c(F)c(F)c5F)c5ccc2[nH]5)C=C4)C=C3)cc1)C(F)(F)F
REMARK SMILES IDX 13 1 11 2 12 3 2 4 1 5 82 6 83 7 84 8 85 9 3 10 4 11 5 13
REMARK SMILES IDX 6 14 7 16 8 17 9 18 10 19 14 23 15 24 16 25 17 26 18 27
REMARK SMILES IDX 19 28 20 29 81 30 21 31 80 32 22 33 23 34 24 35 74 36 25 37
REMARK SMILES IDX 79 38 73 39 75 40 26 41 78 42 72 43 71 44 27 46 59 47 39 48
REMARK SMILES IDX 58 49 40 50 43 51 57 52 76 53 41 54 42 55 56 57 77 58 44 59
REMARK SMILES IDX 28 60 29 61 37 62 30 63 31 64 35 65 38 66 32 67 33 68 36 69
REMARK SMILES IDX 34 70 60 71 61 72 69 73 62 74 63 75 67 76 70 77 64 78 65 79
REMARK SMILES IDX 68 80 66 81 45 82 46 83 54 84 47 85 48 86 52 87 55 88 49 89
REMARK SMILES IDX 50 90 53 91 51 92
REMARK H PARENT 3 12 6 15 10 20 10 21 10 22 75 45 43 56
REMARK Flexibility Score: inf
ROOT
ATOM      1  O   UNL     1      -1.797   0.488   0.571  1.00  0.00    -0.460 OA
ENDROOT
BRANCH   1   2
ATOM      2  C   UNL     1      -1.214  -0.121   1.647  1.00  0.00     0.341 C 
ATOM      3  O   UNL     1      -1.835  -0.817   2.444  1.00  0.00    -0.249 OA
BRANCH   2   4
ATOM      4  C   UNL     1       0.258   0.287   1.851  1.00  0.00     0.232 C 
ATOM      5  C   UNL     1       0.222   1.098   3.159  1.00  0.00     0.058 C 
BRANCH   4   6
ATOM      6  C   UNL     1       0.983  -1.074   1.938  1.00  0.00     0.422 C 
ATOM      7  F   UNL     1       0.850  -1.762   0.776  1.00  0.00    -0.168 F 
ATOM      8  F   UNL     1       2.312  -0.975   2.154  1.00  0.00    -0.168 F 
ATOM      9  F   UNL     1       0.511  -1.859   2.933  1.00  0.00    -0.168 F 
ENDBRANCH   4   6
BRANCH   4  10
ATOM     10  N   UNL     1       0.731   1.120   0.706  1.00  0.00    -0.315 N 
ATOM     11  C   UNL     1       1.944   1.493   0.280  1.00  0.00     0.315 C 
ATOM     12  H   UNL     1      -0.002   1.467   0.148  1.00  0.00     0.166 HD
ATOM     13  O   UNL     1       2.058   1.814  -0.903  1.00  0.00    -0.249 OA
ATOM     14  N   UNL     1       3.040   1.536   1.050  1.00  0.00    -0.338 N 
ATOM     15  H   UNL     1       3.881   1.483   0.542  1.00  0.00     0.165 HD
BRANCH  14  16
ATOM     16  C   UNL     1       3.232   1.644   2.485  1.00  0.00     0.123 C 
BRANCH  16  17
ATOM     17  C   UNL     1       4.665   1.383   2.940  1.00  0.00     0.082 C 
BRANCH  17  18
ATOM     18  C   UNL     1       5.462   2.648   3.245  1.00  0.00     0.260 C 
BRANCH  18  19
ATOM     19  N   UNL     1       4.869   3.417   4.337  1.00  0.00    -0.358 N 
ATOM     20  H   UNL     1       3.927   3.708   4.076  1.00  0.00     0.344 HD
ATOM     21  H   UNL     1       5.441   4.241   4.522  1.00  0.00     0.344 HD
ATOM     22  H   UNL     1       4.826   2.838   5.176  1.00  0.00     0.344 HD
ENDBRANCH  18  19
ENDBRANCH  17  18
ENDBRANCH  16  17
ENDBRANCH  14  16
ENDBRANCH   4  10
ENDBRANCH   2   4
ENDBRANCH   1   2
BRANCH   1  23
ATOM     23  C   UNL     1      -3.241   0.428   0.544  1.00  0.00     0.274 C 
BRANCH  23  24
ATOM     24  C   UNL     1      -3.768  -0.696  -0.345  1.00  0.00     0.275 C 
BRANCH  24  25
ATOM     25  O   UNL     1      -3.328  -1.972   0.150  1.00  0.00    -0.458 OA
BRANCH  25  26
ATOM     26  C   UNL     1      -2.626  -2.725  -0.726  1.00  0.00     0.338 C 
ATOM     27  O   UNL     1      -2.365  -2.465  -1.887  1.00  0.00    -0.246 OA
BRANCH  26  28
ATOM     28  C   UNL     1      -2.153  -3.953  -0.066  1.00  0.00     0.060 A 
ATOM     29  C   UNL     1      -1.220  -3.849   0.959  1.00  0.00     0.016 A 
ATOM     30  C   UNL     1      -2.496  -5.204  -0.571  1.00  0.00     0.016 A 
ATOM     31  C   UNL     1      -0.534  -4.972   1.407  1.00  0.00     0.010 A 
ATOM     32  C   UNL     1      -1.883  -6.349  -0.046  1.00  0.00     0.010 A 
ATOM     33  C   UNL     1      -0.862  -6.242   0.916  1.00  0.00    -0.014 A 
BRANCH  33  34
ATOM     34  C   UNL     1      -0.087  -7.436   1.355  1.00  0.00     0.031 A 
ATOM     35  C   UNL     1       0.652  -8.265   0.338  1.00  0.00     0.074 A 
ATOM     36  C   UNL     1       0.002  -7.762   2.660  1.00  0.00     0.049 A 
ATOM     37  N   UNL     1       1.204  -9.445   0.471  1.00  0.00    -0.248 NA
ATOM     38  C   UNL     1       0.779  -7.694  -1.013  1.00  0.00     0.031 C 
ATOM     39  C   UNL     1      -0.592  -7.011   3.766  1.00  0.00     0.029 A 
ATOM     40  N   UNL     1       0.646  -8.806   3.279  1.00  0.00    -0.354 N 
ATOM     41  C   UNL     1       1.677  -9.786  -0.789  1.00  0.00     0.074 A 
ATOM     42  C   UNL     1       1.365  -8.684  -1.673  1.00  0.00     0.031 C 
ATOM     43  C   UNL     1      -0.246  -7.587   4.927  1.00  0.00     0.029 A 
ATOM     44  C   UNL     1       0.511  -8.802   4.646  1.00  0.00     0.049 A 
ATOM     45  H   UNL     1       1.155  -9.492   2.790  1.00  0.00     0.167 HD
ATOM     46  C   UNL     1       2.305 -10.923  -1.172  1.00  0.00     0.037 A 
ATOM     47  C   UNL     1       0.911  -9.697   5.568  1.00  0.00     0.037 A 
ATOM     48  C   UNL     1       2.678 -11.986  -0.277  1.00  0.00     0.049 A 
ATOM     49  C   UNL     1       1.601 -10.955   5.119  1.00  0.00     0.074 A 
ATOM     50  C   UNL     1       3.296 -13.190  -0.570  1.00  0.00     0.029 A 
ATOM     51  N   UNL     1       2.495 -11.955   1.097  1.00  0.00    -0.354 N 
ATOM     52  N   UNL     1       1.933 -11.327   3.907  1.00  0.00    -0.248 NA
ATOM     53  C   UNL     1       1.940 -11.932   6.163  1.00  0.00     0.031 C 
ATOM     54  C   UNL     1       3.473 -13.895   0.627  1.00  0.00     0.029 A 
ATOM     55  C   UNL     1       2.992 -13.117   1.667  1.00  0.00     0.049 A 
ATOM     56  H   UNL     1       2.075 -11.217   1.595  1.00  0.00     0.167 HD
ATOM     57  C   UNL     1       2.513 -12.580   4.040  1.00  0.00     0.074 A 
ATOM     58  C   UNL     1       2.518 -12.892   5.455  1.00  0.00     0.031 C 
ATOM     59  C   UNL     1       2.984 -13.407   3.076  1.00  0.00     0.037 A 
BRANCH  46  60
ATOM     60  C   UNL     1       2.592 -11.098  -2.633  1.00  0.00     0.064 A 
ATOM     61  C   UNL     1       3.640 -10.422  -3.272  1.00  0.00     0.173 A 
ATOM     62  C   UNL     1       1.824 -11.992  -3.395  1.00  0.00     0.173 A 
ATOM     63  F   UNL     1       4.392  -9.545  -2.589  1.00  0.00    -0.203 F 
ATOM     64  C   UNL     1       3.898 -10.621  -4.626  1.00  0.00     0.198 A 
ATOM     65  C   UNL     1       2.099 -12.206  -4.743  1.00  0.00     0.198 A 
ATOM     66  F   UNL     1       0.812 -12.667  -2.829  1.00  0.00    -0.203 F 
ATOM     67  F   UNL     1       4.884  -9.940  -5.226  1.00  0.00    -0.200 F 
ATOM     68  C   UNL     1       3.133 -11.518  -5.358  1.00  0.00     0.200 A 
ATOM     69  F   UNL     1       1.364 -13.080  -5.445  1.00  0.00    -0.200 F 
ATOM     70  F   UNL     1       3.389 -11.714  -6.659  1.00  0.00    -0.200 F 
ENDBRANCH  46  60
BRANCH  47  71
ATOM     71  C   UNL     1       0.617  -9.463   7.006  1.00  0.00     0.064 A 
ATOM     72  C   UNL     1       1.646  -9.194   7.918  1.00  0.00     0.173 A 
ATOM     73  C   UNL     1      -0.697  -9.505   7.496  1.00  0.00     0.173 A 
ATOM     74  F   UNL     1       2.921  -9.175   7.503  1.00  0.00    -0.203 F 
ATOM     75  C   UNL     1       1.372  -8.982   9.268  1.00  0.00     0.198 A 
ATOM     76  C   UNL     1      -0.972  -9.263   8.839  1.00  0.00     0.198 A 
ATOM     77  F   UNL     1      -1.716  -9.764   6.664  1.00  0.00    -0.203 F 
ATOM     78  F   UNL     1       2.377  -8.767  10.127  1.00  0.00    -0.200 F 
ATOM     79  C   UNL     1       0.063  -9.008   9.726  1.00  0.00     0.200 A 
ATOM     80  F   UNL     1      -2.239  -9.278   9.274  1.00  0.00    -0.200 F 
ATOM     81  F   UNL     1      -0.200  -8.797  11.022  1.00  0.00    -0.200 F 
ENDBRANCH  47  71
BRANCH  59  82
ATOM     82  C   UNL     1       3.548 -14.719   3.525  1.00  0.00     0.064 A 
ATOM     83  C   UNL     1       2.711 -15.772   3.922  1.00  0.00     0.173 A 
ATOM     84  C   UNL     1       4.933 -14.933   3.539  1.00  0.00     0.173 A 
ATOM     85  F   UNL     1       1.380 -15.605   3.941  1.00  0.00    -0.203 F 
ATOM     86  C   UNL     1       3.243 -16.988   4.339  1.00  0.00     0.198 A 
ATOM     87  C   UNL     1       5.461 -16.158   3.938  1.00  0.00     0.198 A 
ATOM     88  F   UNL     1       5.772 -13.956   3.166  1.00  0.00    -0.203 F 
ATOM     89  F   UNL     1       2.428 -17.968   4.753  1.00  0.00    -0.200 F 
ATOM     90  C   UNL     1       4.617 -17.181   4.342  1.00  0.00     0.200 A 
ATOM     91  F   UNL     1       6.788 -16.346   3.937  1.00  0.00    -0.200 F 
ATOM     92  F   UNL     1       5.128 -18.352   4.746  1.00  0.00    -0.200 F 
ENDBRANCH  59  82
ENDBRANCH  33  34
ENDBRANCH  26  28
ENDBRANCH  25  26
ENDBRANCH  24  25
ENDBRANCH  23  24
ENDBRANCH   1  23
TORSDOF 17
