REMARK SMILES CC#CC[C@H](C(=O)OCCOC(=O)c1ccc(-c2c3nc(c(-c4c(F)c(F)c(F)c(F)c4F)c4ccc([nH]4)c(-c4c(F)c(F)c(F)c(F)c4F)c4nc(c(-c5c(F)c(F)c(F)c(F)c5F)c5ccc2[nH]5)C=C4)C=C3)cc1)c1cccc(Br)c1
REMARK SMILES IDX 9 1 8 2 6 3 7 4 5 5 4 6 3 7 1 8 2 9 77 10 78 11 83 12 79 13
REMARK SMILES IDX 81 14 80 15 82 16 10 17 11 18 12 19 13 20 14 21 15 22 76 23
REMARK SMILES IDX 16 24 75 25 17 26 18 27 19 28 69 29 20 30 74 31 68 32 70 33
REMARK SMILES IDX 21 34 73 35 67 36 66 37 22 39 54 40 34 41 53 42 35 43 38 44
REMARK SMILES IDX 52 45 71 46 36 47 37 48 51 50 72 51 39 52 23 53 24 54 32 55
REMARK SMILES IDX 25 56 26 57 30 58 33 59 27 60 28 61 31 62 29 63 55 64 56 65
REMARK SMILES IDX 64 66 57 67 58 68 62 69 65 70 59 71 60 72 63 73 61 74 40 75
REMARK SMILES IDX 41 76 49 77 42 78 43 79 47 80 50 81 44 82 45 83 48 84 46 85
REMARK H PARENT 70 38 38 49
REMARK Flexibility Score: inf
ROOT
ATOM      1  C   UNL     1       0.365   2.923  -1.901  1.00  0.00     0.274 C 
ENDROOT
BRANCH   1   2
ATOM      2  O   UNL     1       0.333   3.432  -0.551  1.00  0.00    -0.462 OA
BRANCH   2   3
ATOM      3  C   UNL     1      -0.267   4.644  -0.372  1.00  0.00     0.314 C 
ATOM      4  O   UNL     1      -0.735   5.310  -1.288  1.00  0.00    -0.252 OA
BRANCH   3   5
ATOM      5  C   UNL     1      -0.396   5.002   1.116  1.00  0.00     0.141 C 
BRANCH   5   6
ATOM      6  C   UNL     1       0.859   4.632   1.888  1.00  0.00     0.109 C 
BRANCH   6   7
ATOM      7  C   UNL     1       0.769   4.974   3.366  1.00  0.00    -0.102 C 
ATOM      8  C   UNL     1       0.602   5.611   6.112  1.00  0.00     0.107 C 
ATOM      9  C   UNL     1       0.692   5.268   4.634  1.00  0.00    -0.107 C 
ENDBRANCH   6   7
ENDBRANCH   5   6
BRANCH   5  10
ATOM     10  C   UNL     1      -0.810   6.462   1.315  1.00  0.00    -0.032 A 
ATOM     11  C   UNL     1      -0.041   7.522   0.808  1.00  0.00     0.005 A 
ATOM     12  C   UNL     1      -1.994   6.764   2.009  1.00  0.00     0.020 A 
ATOM     13  C   UNL     1      -0.464   8.845   0.963  1.00  0.00     0.001 A 
ATOM     14  C   UNL     1      -2.417   8.086   2.146  1.00  0.00     0.018 A 
ATOM     15  C   UNL     1      -1.658   9.129   1.624  1.00  0.00     0.016 A 
ATOM     16  Br  UNL     1      -4.048   8.457   3.028  1.00  0.00    -0.051 Br
ENDBRANCH   5  10
ENDBRANCH   3   5
ENDBRANCH   2   3
ENDBRANCH   1   2
BRANCH   1  17
ATOM     17  C   UNL     1      -0.671   1.812  -2.098  1.00  0.00     0.275 C 
BRANCH  17  18
ATOM     18  O   UNL     1      -2.017   2.316  -1.984  1.00  0.00    -0.458 OA
BRANCH  18  19
ATOM     19  C   UNL     1      -2.558   2.213  -0.749  1.00  0.00     0.338 C 
ATOM     20  O   UNL     1      -2.054   1.715   0.244  1.00  0.00    -0.246 OA
BRANCH  19  21
ATOM     21  C   UNL     1      -3.817   2.970  -0.688  1.00  0.00     0.060 A 
ATOM     22  C   UNL     1      -3.796   4.169   0.020  1.00  0.00     0.016 A 
ATOM     23  C   UNL     1      -5.017   2.476  -1.191  1.00  0.00     0.016 A 
ATOM     24  C   UNL     1      -4.962   4.866   0.280  1.00  0.00     0.010 A 
ATOM     25  C   UNL     1      -6.197   3.199  -0.965  1.00  0.00     0.010 A 
ATOM     26  C   UNL     1      -6.177   4.389  -0.212  1.00  0.00    -0.014 A 
BRANCH  26  27
ATOM     27  C   UNL     1      -7.412   5.128   0.135  1.00  0.00     0.031 A 
ATOM     28  C   UNL     1      -8.390   4.529   1.102  1.00  0.00     0.074 A 
ATOM     29  C   UNL     1      -7.603   6.374  -0.337  1.00  0.00     0.049 A 
ATOM     30  N   UNL     1      -9.570   4.964   1.460  1.00  0.00    -0.248 NA
ATOM     31  C   UNL     1      -7.983   3.277   1.759  1.00  0.00     0.031 C 
ATOM     32  C   UNL     1      -6.671   7.104  -1.197  1.00  0.00     0.029 A 
ATOM     33  N   UNL     1      -8.635   7.255  -0.139  1.00  0.00    -0.354 N 
ATOM     34  C   UNL     1     -10.065   4.021   2.348  1.00  0.00     0.074 A 
ATOM     35  C   UNL     1      -9.056   2.992   2.484  1.00  0.00     0.031 C 
ATOM     36  C   UNL     1      -7.161   8.331  -1.432  1.00  0.00     0.029 A 
ATOM     37  C   UNL     1      -8.471   8.447  -0.798  1.00  0.00     0.049 A 
ATOM     38  H   UNL     1      -9.418   7.052   0.422  1.00  0.00     0.167 HD
ATOM     39  C   UNL     1     -11.259   4.015   2.985  1.00  0.00     0.037 A 
ATOM     40  C   UNL     1      -9.301   9.501  -0.907  1.00  0.00     0.037 A 
ATOM     41  C   UNL     1     -12.241   5.061   2.876  1.00  0.00     0.049 A 
ATOM     42  C   UNL     1     -10.644   9.445  -0.236  1.00  0.00     0.074 A 
ATOM     43  C   UNL     1     -13.495   5.135   3.455  1.00  0.00     0.029 A 
ATOM     44  N   UNL     1     -12.065   6.229   2.149  1.00  0.00    -0.354 N 
ATOM     45  N   UNL     1     -11.147   8.506   0.528  1.00  0.00    -0.248 NA
ATOM     46  C   UNL     1     -11.544  10.584  -0.461  1.00  0.00     0.031 C 
ATOM     47  C   UNL     1     -14.089   6.338   3.059  1.00  0.00     0.029 A 
ATOM     48  C   UNL     1     -13.192   7.027   2.258  1.00  0.00     0.049 A 
ATOM     49  H   UNL     1     -11.259   6.457   1.632  1.00  0.00     0.167 HD
ATOM     50  C   UNL     1     -12.417   8.940   0.878  1.00  0.00     0.074 A 
ATOM     51  C   UNL     1     -12.601  10.237   0.261  1.00  0.00     0.031 C 
ATOM     52  C   UNL     1     -13.351   8.315   1.636  1.00  0.00     0.037 A 
BRANCH  39  53
ATOM     53  C   UNL     1     -11.589   2.814   3.816  1.00  0.00     0.064 A 
ATOM     54  C   UNL     1     -11.028   2.616   5.085  1.00  0.00     0.173 A 
ATOM     55  C   UNL     1     -12.500   1.860   3.340  1.00  0.00     0.173 A 
ATOM     56  F   UNL     1     -10.136   3.491   5.574  1.00  0.00    -0.203 F 
ATOM     57  C   UNL     1     -11.356   1.493   5.842  1.00  0.00     0.198 A 
ATOM     58  C   UNL     1     -12.841   0.750   4.107  1.00  0.00     0.198 A 
ATOM     59  F   UNL     1     -13.061   2.006   2.130  1.00  0.00    -0.203 F 
ATOM     60  F   UNL     1     -10.782   1.302   7.038  1.00  0.00    -0.200 F 
ATOM     61  C   UNL     1     -12.266   0.566   5.355  1.00  0.00     0.200 A 
ATOM     62  F   UNL     1     -13.723  -0.142   3.637  1.00  0.00    -0.200 F 
ATOM     63  F   UNL     1     -12.582  -0.512   6.086  1.00  0.00    -0.200 F 
ENDBRANCH  39  53
BRANCH  40  64
ATOM     64  C   UNL     1      -8.902  10.674  -1.724  1.00  0.00     0.064 A 
ATOM     65  C   UNL     1      -8.613  11.907  -1.125  1.00  0.00     0.173 A 
ATOM     66  C   UNL     1      -8.801  10.585  -3.121  1.00  0.00     0.173 A 
ATOM     67  F   UNL     1      -8.724  12.049   0.203  1.00  0.00    -0.203 F 
ATOM     68  C   UNL     1      -8.244  13.009  -1.894  1.00  0.00     0.198 A 
ATOM     69  C   UNL     1      -8.407  11.680  -3.885  1.00  0.00     0.198 A 
ATOM     70  F   UNL     1      -9.073   9.427  -3.741  1.00  0.00    -0.203 F 
ATOM     71  F   UNL     1      -8.008  14.188  -1.302  1.00  0.00    -0.200 F 
ATOM     72  C   UNL     1      -8.134  12.893  -3.272  1.00  0.00     0.200 A 
ATOM     73  F   UNL     1      -8.294  11.560  -5.215  1.00  0.00    -0.200 F 
ATOM     74  F   UNL     1      -7.774  13.952  -4.010  1.00  0.00    -0.200 F 
ENDBRANCH  40  64
BRANCH  52  75
ATOM     75  C   UNL     1     -14.646   9.036   1.848  1.00  0.00     0.064 A 
ATOM     76  C   UNL     1     -15.620   9.093   0.842  1.00  0.00     0.173 A 
ATOM     77  C   UNL     1     -14.930   9.642   3.080  1.00  0.00     0.173 A 
ATOM     78  F   UNL     1     -15.384   8.541  -0.358  1.00  0.00    -0.203 F 
ATOM     79  C   UNL     1     -16.830   9.747   1.057  1.00  0.00     0.198 A 
ATOM     80  C   UNL     1     -16.148  10.277   3.299  1.00  0.00     0.198 A 
ATOM     81  F   UNL     1     -14.028   9.610   4.073  1.00  0.00    -0.203 F 
ATOM     82  F   UNL     1     -17.735   9.820   0.071  1.00  0.00    -0.200 F 
ATOM     83  C   UNL     1     -17.095  10.333   2.286  1.00  0.00     0.200 A 
ATOM     84  F   UNL     1     -16.406  10.838   4.488  1.00  0.00    -0.200 F 
ATOM     85  F   UNL     1     -18.261  10.959   2.493  1.00  0.00    -0.200 F 
ENDBRANCH  52  75
ENDBRANCH  26  27
ENDBRANCH  19  21
ENDBRANCH  18  19
ENDBRANCH  17  18
ENDBRANCH   1  17
TORSDOF 14
