REMARK SMILES CO[C@H]1C[C@H](C(=O)OCCOC(=O)c2ccc(-c3c4nc(c(-c5c(F)c(F)c(F)c(F)c5F)c5ccc([nH]5)c(-c5c(F)c(F)c(F)c(F)c5F)c5nc(c(-c6c(F)c(F)c(F)c(F)c6F)c6ccc3[nH]6)C=C5)C=C4)cc2)N(C(=O)CCSCC(N)=O)C1
REMARK SMILES IDX 6 1 7 2 5 3 3 4 4 5 87 6 77 7 2 8 1 9 78 10 79 11 80 12
REMARK SMILES IDX 81 13 82 14 83 15 84 16 85 17 86 18 8 21 9 22 10 23 11 24
REMARK SMILES IDX 12 25 13 26 14 27 15 28 76 29 16 30 75 31 17 32 18 33 19 34
REMARK SMILES IDX 69 35 20 36 74 37 68 38 70 39 21 40 73 41 67 42 66 43 22 45
REMARK SMILES IDX 54 46 34 47 53 48 35 49 38 50 52 51 71 52 36 53 37 54 51 56
REMARK SMILES IDX 72 57 39 58 23 59 24 60 32 61 25 62 26 63 30 64 33 65 27 66
REMARK SMILES IDX 28 67 31 68 29 69 55 70 56 71 64 72 57 73 58 74 62 75 65 76
REMARK SMILES IDX 59 77 60 78 63 79 61 80 40 81 41 82 49 83 42 84 43 85 47 86
REMARK SMILES IDX 50 87 44 88 45 89 48 90 46 91
REMARK H PARENT 85 19 85 20 70 44 38 55
REMARK Flexibility Score: inf
ROOT
ATOM      1  C   UNL     1      -1.701  -1.563  -1.968  1.00  0.00     0.329 C 
ATOM      2  O   UNL     1      -2.813  -1.960  -2.295  1.00  0.00    -0.250 OA
ENDROOT
BRANCH   1   3
ATOM      3  C   UNL     1      -0.488  -1.665  -2.908  1.00  0.00     0.197 C 
ATOM      4  C   UNL     1       1.522  -1.603  -1.623  1.00  0.00     0.140 C 
ATOM      5  C   UNL     1       0.668  -0.751  -2.557  1.00  0.00     0.071 C 
ATOM      6  C   UNL     1       1.355  -3.018  -2.205  1.00  0.00     0.152 C 
ATOM      7  N   UNL     1       0.091  -3.003  -2.938  1.00  0.00    -0.326 N 
BRANCH   4   8
ATOM      8  O   UNL     1       2.885  -1.195  -1.629  1.00  0.00    -0.380 OA
ATOM      9  C   UNL     1       3.066   0.134  -1.146  1.00  0.00     0.195 C 
ENDBRANCH   4   8
BRANCH   7  10
ATOM     10  C   UNL     1      -0.355  -4.103  -3.637  1.00  0.00     0.224 C 
ATOM     11  O   UNL     1       0.292  -5.153  -3.641  1.00  0.00    -0.275 OA
BRANCH  10  12
ATOM     12  C   UNL     1      -1.682  -4.027  -4.380  1.00  0.00     0.111 C 
BRANCH  12  13
ATOM     13  C   UNL     1      -2.686  -5.119  -3.991  1.00  0.00     0.080 C 
BRANCH  13  14
ATOM     14  S   UNL     1      -3.453  -5.088  -2.320  1.00  0.00    -0.152 SA
BRANCH  14  15
ATOM     15  C   UNL     1      -1.971  -5.082  -1.293  1.00  0.00     0.169 C 
BRANCH  15  16
ATOM     16  C   UNL     1      -2.166  -5.543   0.132  1.00  0.00     0.227 C 
ATOM     17  N   UNL     1      -1.078  -6.218   0.628  1.00  0.00    -0.369 N 
ATOM     18  O   UNL     1      -3.124  -5.289   0.849  1.00  0.00    -0.274 OA
ATOM     19  H   UNL     1      -0.312  -6.417   0.041  1.00  0.00     0.159 HD
ATOM     20  H   UNL     1      -1.063  -6.503   1.570  1.00  0.00     0.159 HD
ENDBRANCH  15  16
ENDBRANCH  14  15
ENDBRANCH  13  14
ENDBRANCH  12  13
ENDBRANCH  10  12
ENDBRANCH   7  10
ENDBRANCH   1   3
BRANCH   1  21
ATOM     21  O   UNL     1      -1.410  -1.066  -0.738  1.00  0.00    -0.461 OA
BRANCH  21  22
ATOM     22  C   UNL     1      -2.524  -0.990   0.180  1.00  0.00     0.274 C 
BRANCH  22  23
ATOM     23  C   UNL     1      -3.215   0.380   0.145  1.00  0.00     0.275 C 
BRANCH  23  24
ATOM     24  O   UNL     1      -3.919   0.614  -1.091  1.00  0.00    -0.458 OA
BRANCH  24  25
ATOM     25  C   UNL     1      -3.185   1.168  -2.080  1.00  0.00     0.338 C 
ATOM     26  O   UNL     1      -2.017   1.536  -2.017  1.00  0.00    -0.246 OA
BRANCH  25  27
ATOM     27  C   UNL     1      -3.900   1.057  -3.359  1.00  0.00     0.060 A 
ATOM     28  C   UNL     1      -3.296   0.286  -4.356  1.00  0.00     0.016 A 
ATOM     29  C   UNL     1      -5.087   1.733  -3.621  1.00  0.00     0.016 A 
ATOM     30  C   UNL     1      -3.867   0.148  -5.605  1.00  0.00     0.010 A 
ATOM     31  C   UNL     1      -5.653   1.630  -4.897  1.00  0.00     0.010 A 
ATOM     32  C   UNL     1      -5.039   0.843  -5.890  1.00  0.00    -0.014 A 
BRANCH  32  33
ATOM     33  C   UNL     1      -5.511   0.857  -7.286  1.00  0.00     0.031 A 
ATOM     34  C   UNL     1      -5.204   2.057  -8.126  1.00  0.00     0.074 A 
ATOM     35  C   UNL     1      -6.121  -0.221  -7.806  1.00  0.00     0.049 A 
ATOM     36  N   UNL     1      -5.617   2.358  -9.327  1.00  0.00    -0.248 NA
ATOM     37  C   UNL     1      -4.298   3.054  -7.530  1.00  0.00     0.031 C 
ATOM     38  C   UNL     1      -6.346  -1.485  -7.105  1.00  0.00     0.029 A 
ATOM     39  N   UNL     1      -6.666  -0.420  -9.046  1.00  0.00    -0.354 N 
ATOM     40  C   UNL     1      -5.054   3.592  -9.617  1.00  0.00     0.074 A 
ATOM     41  C   UNL     1      -4.271   3.988  -8.467  1.00  0.00     0.031 C 
ATOM     42  C   UNL     1      -7.005  -2.323  -7.921  1.00  0.00     0.029 A 
ATOM     43  C   UNL     1      -7.301  -1.630  -9.172  1.00  0.00     0.049 A 
ATOM     44  H   UNL     1      -6.609   0.240  -9.775  1.00  0.00     0.167 HD
ATOM     45  C   UNL     1      -5.194   4.327 -10.744  1.00  0.00     0.037 A 
ATOM     46  C   UNL     1      -8.076  -2.093 -10.170  1.00  0.00     0.037 A 
ATOM     47  C   UNL     1      -5.976   3.902 -11.875  1.00  0.00     0.049 A 
ATOM     48  C   UNL     1      -8.308  -1.210 -11.368  1.00  0.00     0.074 A 
ATOM     49  C   UNL     1      -6.209   4.567 -13.064  1.00  0.00     0.029 A 
ATOM     50  N   UNL     1      -6.655   2.693 -11.950  1.00  0.00    -0.354 N 
ATOM     51  N   UNL     1      -7.820  -0.020 -11.628  1.00  0.00    -0.248 NA
ATOM     52  C   UNL     1      -9.206  -1.728 -12.408  1.00  0.00     0.031 C 
ATOM     53  C   UNL     1      -7.075   3.786 -13.835  1.00  0.00     0.029 A 
ATOM     54  C   UNL     1      -7.330   2.603 -13.155  1.00  0.00     0.049 A 
ATOM     55  H   UNL     1      -6.657   2.002 -11.249  1.00  0.00     0.167 HD
ATOM     56  C   UNL     1      -8.327   0.341 -12.869  1.00  0.00     0.074 A 
ATOM     57  C   UNL     1      -9.150  -0.765 -13.316  1.00  0.00     0.031 C 
ATOM     58  C   UNL     1      -8.131   1.481 -13.577  1.00  0.00     0.037 A 
BRANCH  45  59
ATOM     59  C   UNL     1      -4.544   5.678 -10.775  1.00  0.00     0.064 A 
ATOM     60  C   UNL     1      -3.152   5.837 -10.837  1.00  0.00     0.173 A 
ATOM     61  C   UNL     1      -5.335   6.838 -10.744  1.00  0.00     0.173 A 
ATOM     62  F   UNL     1      -2.349   4.762 -10.844  1.00  0.00    -0.203 F 
ATOM     63  C   UNL     1      -2.575   7.105 -10.838  1.00  0.00     0.198 A 
ATOM     64  C   UNL     1      -4.756   8.103 -10.778  1.00  0.00     0.198 A 
ATOM     65  F   UNL     1      -6.671   6.744 -10.679  1.00  0.00    -0.203 F 
ATOM     66  F   UNL     1      -1.240   7.232 -10.840  1.00  0.00    -0.200 F 
ATOM     67  C   UNL     1      -3.377   8.236 -10.816  1.00  0.00     0.200 A 
ATOM     68  F   UNL     1      -5.534   9.194 -10.765  1.00  0.00    -0.200 F 
ATOM     69  F   UNL     1      -2.820   9.455 -10.820  1.00  0.00    -0.200 F 
ENDBRANCH  45  59
BRANCH  46  70
ATOM     70  C   UNL     1      -8.728  -3.425 -10.054  1.00  0.00     0.064 A 
ATOM     71  C   UNL     1      -8.390  -4.474 -10.919  1.00  0.00     0.173 A 
ATOM     72  C   UNL     1      -9.717  -3.671  -9.088  1.00  0.00     0.173 A 
ATOM     73  F   UNL     1      -7.470  -4.283 -11.876  1.00  0.00    -0.203 F 
ATOM     74  C   UNL     1      -9.028  -5.711 -10.835  1.00  0.00     0.198 A 
ATOM     75  C   UNL     1     -10.331  -4.917  -8.984  1.00  0.00     0.198 A 
ATOM     76  F   UNL     1     -10.083  -2.700  -8.239  1.00  0.00    -0.203 F 
ATOM     77  F   UNL     1      -8.722  -6.680 -11.708  1.00  0.00    -0.200 F 
ATOM     78  C   UNL     1      -9.993  -5.933  -9.864  1.00  0.00     0.200 A 
ATOM     79  F   UNL     1     -11.254  -5.130  -8.036  1.00  0.00    -0.200 F 
ATOM     80  F   UNL     1     -10.604  -7.123  -9.784  1.00  0.00    -0.200 F 
ENDBRANCH  46  70
BRANCH  58  81
ATOM     81  C   UNL     1      -8.779   1.568 -14.929  1.00  0.00     0.064 A 
ATOM     82  C   UNL     1     -10.164   1.722 -15.077  1.00  0.00     0.173 A 
ATOM     83  C   UNL     1      -7.990   1.546 -16.090  1.00  0.00     0.173 A 
ATOM     84  F   UNL     1     -10.962   1.733 -13.998  1.00  0.00    -0.203 F 
ATOM     85  C   UNL     1     -10.740   1.825 -16.340  1.00  0.00     0.198 A 
ATOM     86  C   UNL     1      -8.566   1.685 -17.349  1.00  0.00     0.198 A 
ATOM     87  F   UNL     1      -6.659   1.410 -16.002  1.00  0.00    -0.203 F 
ATOM     88  F   UNL     1     -12.071   1.921 -16.461  1.00  0.00    -0.200 F 
ATOM     89  C   UNL     1      -9.940   1.816 -17.473  1.00  0.00     0.200 A 
ATOM     90  F   UNL     1      -7.790   1.695 -18.441  1.00  0.00    -0.200 F 
ATOM     91  F   UNL     1     -10.496   1.929 -18.688  1.00  0.00    -0.200 F 
ENDBRANCH  58  81
ENDBRANCH  32  33
ENDBRANCH  25  27
ENDBRANCH  24  25
ENDBRANCH  23  24
ENDBRANCH  22  23
ENDBRANCH  21  22
ENDBRANCH   1  21
TORSDOF 18
