REMARK SMILES Cc1occc1C(=O)NN1C(=O)/C(=C\c2ccc(O[C@H](C)C(=O)OCCOC(=O)c3ccc(-c4c5nc(c(-c6c(F)c(F)c(F)c(F)c6F)c6ccc([nH]6)c(-c6c(F)c(F)c(F)c(F)c6F)c6nc(c(-c7c(F)c(F)c(F)c(F)c7F)c7ccc4[nH]7)C=C6)C=C5)cc3)cc2)SC1=S
REMARK SMILES IDX 24 1 22 2 23 3 20 4 21 5 19 6 18 7 15 8 16 9 94 10 17 11
REMARK SMILES IDX 93 12 14 13 10 14 11 15 96 16 12 17 13 18 95 19 97 20 9 21
REMARK SMILES IDX 7 22 8 23 6 25 1 26 2 27 3 28 4 29 5 30 25 31 26 32 27 33
REMARK SMILES IDX 28 34 29 35 30 36 31 37 92 38 32 39 91 40 33 41 34 42 35 43
REMARK SMILES IDX 85 44 36 45 90 46 84 47 86 48 37 49 89 50 83 51 82 52 38 54
REMARK SMILES IDX 70 55 50 56 69 57 51 58 54 59 68 60 87 61 52 62 53 63 67 65
REMARK SMILES IDX 88 66 55 67 39 68 40 69 48 70 41 71 42 72 46 73 49 74 43 75
REMARK SMILES IDX 44 76 47 77 45 78 71 79 72 80 80 81 73 82 74 83 78 84 81 85
REMARK SMILES IDX 75 86 76 87 79 88 77 89 56 90 57 91 65 92 58 93 59 94 63 95
REMARK SMILES IDX 66 96 60 97 61 98 64 99 62 100
REMARK H PARENT 9 24 86 53 54 64
REMARK Flexibility Score: inf
ROOT
ATOM      1  O   UNL     1       5.685  -2.717  -6.588  1.00  0.00    -0.459 OA
ENDROOT
BRANCH   1   2
ATOM      2  C   UNL     1       5.423  -3.934  -7.135  1.00  0.00     0.347 C 
ATOM      3  O   UNL     1       5.062  -4.111  -8.295  1.00  0.00    -0.248 OA
BRANCH   2   4
ATOM      4  C   UNL     1       5.599  -5.084  -6.147  1.00  0.00     0.279 C 
ATOM      5  C   UNL     1       6.939  -5.145  -5.408  1.00  0.00     0.066 C 
BRANCH   4   6
ATOM      6  O   UNL     1       4.411  -5.279  -5.387  1.00  0.00    -0.479 OA
BRANCH   6   7
ATOM      7  C   UNL     1       4.212  -4.737  -4.160  1.00  0.00     0.120 A 
ATOM      8  C   UNL     1       3.748  -4.091  -1.468  1.00  0.00    -0.024 A 
ATOM      9  C   UNL     1       4.752  -3.444  -2.193  1.00  0.00     0.012 A 
ATOM     10  C   UNL     1       2.876  -4.945  -2.147  1.00  0.00     0.012 A 
ATOM     11  C   UNL     1       4.967  -3.750  -3.541  1.00  0.00     0.047 A 
ATOM     12  C   UNL     1       3.129  -5.287  -3.475  1.00  0.00     0.047 A 
BRANCH   8  13
ATOM     13  C   UNL     1       3.679  -3.874  -0.017  1.00  0.00     0.029 C 
ATOM     14  N   UNL     1       3.242  -6.925   1.910  1.00  0.00    -0.198 N 
ATOM     15  C   UNL     1       3.575  -6.312   0.714  1.00  0.00     0.285 C 
ATOM     16  C   UNL     1       3.362  -6.187   3.067  1.00  0.00     0.168 C 
ATOM     17  O   UNL     1       3.827  -6.911  -0.321  1.00  0.00    -0.266 OA
ATOM     18  C   UNL     1       3.638  -4.835   0.919  1.00  0.00     0.082 C 
ATOM     19  S   UNL     1       3.625  -4.497   2.622  1.00  0.00    -0.052 SA
ATOM     20  S   UNL     1       3.307  -6.720   4.643  1.00  0.00    -0.050 S 
BRANCH  14  21
ATOM     21  N   UNL     1       3.076  -8.305   1.876  1.00  0.00    -0.254 N 
ATOM     22  C   UNL     1       1.894  -9.004   1.970  1.00  0.00     0.273 C 
ATOM     23  O   UNL     1       1.934 -10.209   1.710  1.00  0.00    -0.267 OA
ATOM     24  H   UNL     1       3.895  -8.842   1.773  1.00  0.00     0.192 HD
BRANCH  22  25
ATOM     25  C   UNL     1       0.662  -8.408   2.472  1.00  0.00     0.082 A 
ATOM     26  C   UNL     1       0.256  -6.025   1.351  1.00  0.00     0.088 C 
ATOM     27  C   UNL     1       0.031  -7.196   2.220  1.00  0.00     0.113 A 
ATOM     28  O   UNL     1      -1.129  -7.111   2.937  1.00  0.00    -0.469 OA
ATOM     29  C   UNL     1      -1.294  -8.278   3.597  1.00  0.00     0.196 A 
ATOM     30  C   UNL     1      -0.245  -9.116   3.331  1.00  0.00     0.056 A 
ENDBRANCH  22  25
ENDBRANCH  14  21
ENDBRANCH   8  13
ENDBRANCH   6   7
ENDBRANCH   4   6
ENDBRANCH   2   4
ENDBRANCH   1   2
BRANCH   1  31
ATOM     31  C   UNL     1       5.481  -1.588  -7.459  1.00  0.00     0.274 C 
BRANCH  31  32
ATOM     32  C   UNL     1       6.784  -1.120  -8.117  1.00  0.00     0.275 C 
BRANCH  32  33
ATOM     33  O   UNL     1       7.321  -2.100  -9.025  1.00  0.00    -0.458 OA
BRANCH  33  34
ATOM     34  C   UNL     1       8.192  -2.973  -8.469  1.00  0.00     0.338 C 
ATOM     35  O   UNL     1       8.587  -2.989  -7.315  1.00  0.00    -0.246 OA
BRANCH  34  36
ATOM     36  C   UNL     1       8.514  -4.044  -9.423  1.00  0.00     0.060 A 
ATOM     37  C   UNL     1       8.142  -5.347  -9.083  1.00  0.00     0.016 A 
ATOM     38  C   UNL     1       9.258  -3.801 -10.577  1.00  0.00     0.016 A 
ATOM     39  C   UNL     1       8.530  -6.420  -9.872  1.00  0.00     0.010 A 
ATOM     40  C   UNL     1       9.639  -4.881 -11.382  1.00  0.00     0.010 A 
ATOM     41  C   UNL     1       9.290  -6.196 -11.023  1.00  0.00    -0.014 A 
BRANCH  41  42
ATOM     42  C   UNL     1       9.754  -7.357 -11.814  1.00  0.00     0.031 A 
ATOM     43  C   UNL     1      11.187  -7.789 -11.731  1.00  0.00     0.074 A 
ATOM     44  C   UNL     1       8.874  -8.049 -12.559  1.00  0.00     0.049 A 
ATOM     45  N   UNL     1      11.808  -8.728 -12.397  1.00  0.00    -0.248 NA
ATOM     46  C   UNL     1      12.034  -7.072 -10.765  1.00  0.00     0.031 C 
ATOM     47  C   UNL     1       7.443  -7.760 -12.659  1.00  0.00     0.029 A 
ATOM     48  N   UNL     1       9.055  -9.139 -13.371  1.00  0.00    -0.354 N 
ATOM     49  C   UNL     1      13.122  -8.699 -11.951  1.00  0.00     0.074 A 
ATOM     50  C   UNL     1      13.213  -7.645 -10.963  1.00  0.00     0.031 C 
ATOM     51  C   UNL     1       6.875  -8.652 -13.487  1.00  0.00     0.029 A 
ATOM     52  C   UNL     1       7.909  -9.540 -14.011  1.00  0.00     0.049 A 
ATOM     53  H   UNL     1       9.923  -9.589 -13.485  1.00  0.00     0.167 HD
ATOM     54  C   UNL     1      14.156  -9.483 -12.337  1.00  0.00     0.037 A 
ATOM     55  C   UNL     1       7.724 -10.496 -14.939  1.00  0.00     0.037 A 
ATOM     56  C   UNL     1      14.053 -10.541 -13.307  1.00  0.00     0.049 A 
ATOM     57  C   UNL     1       8.903 -11.311 -15.395  1.00  0.00     0.074 A 
ATOM     58  C   UNL     1      15.042 -11.393 -13.766  1.00  0.00     0.029 A 
ATOM     59  N   UNL     1      12.883 -10.893 -13.966  1.00  0.00    -0.354 N 
ATOM     60  N   UNL     1      10.149 -11.260 -14.992  1.00  0.00    -0.248 NA
ATOM     61  C   UNL     1       8.651 -12.311 -16.442  1.00  0.00     0.031 C 
ATOM     62  C   UNL     1      14.478 -12.238 -14.729  1.00  0.00     0.029 A 
ATOM     63  C   UNL     1      13.130 -11.938 -14.841  1.00  0.00     0.049 A 
ATOM     64  H   UNL     1      12.008 -10.463 -13.831  1.00  0.00     0.167 HD
ATOM     65  C   UNL     1      10.827 -12.225 -15.722  1.00  0.00     0.074 A 
ATOM     66  C   UNL     1       9.849 -12.860 -16.582  1.00  0.00     0.031 C 
ATOM     67  C   UNL     1      12.141 -12.555 -15.686  1.00  0.00     0.037 A 
BRANCH  54  68
ATOM     68  C   UNL     1      15.498  -9.201 -11.733  1.00  0.00     0.064 A 
ATOM     69  C   UNL     1      15.803  -9.558 -10.412  1.00  0.00     0.173 A 
ATOM     70  C   UNL     1      16.503  -8.592 -12.499  1.00  0.00     0.173 A 
ATOM     71  F   UNL     1      14.870 -10.128  -9.634  1.00  0.00    -0.203 F 
ATOM     72  C   UNL     1      17.061  -9.297  -9.873  1.00  0.00     0.198 A 
ATOM     73  C   UNL     1      17.766  -8.353 -11.965  1.00  0.00     0.198 A 
ATOM     74  F   UNL     1      16.261  -8.232 -13.769  1.00  0.00    -0.203 F 
ATOM     75  F   UNL     1      17.320  -9.612  -8.596  1.00  0.00    -0.200 F 
ATOM     76  C   UNL     1      18.042  -8.701 -10.651  1.00  0.00     0.200 A 
ATOM     77  F   UNL     1      18.715  -7.783 -12.720  1.00  0.00    -0.200 F 
ATOM     78  F   UNL     1      19.253  -8.454 -10.132  1.00  0.00    -0.200 F 
ENDBRANCH  54  68
BRANCH  55  79
ATOM     79  C   UNL     1       6.375 -10.709 -15.521  1.00  0.00     0.064 A 
ATOM     80  C   UNL     1       5.643 -11.870 -15.242  1.00  0.00     0.173 A 
ATOM     81  C   UNL     1       5.794  -9.756 -16.371  1.00  0.00     0.173 A 
ATOM     82  F   UNL     1       6.169 -12.821 -14.457  1.00  0.00    -0.203 F 
ATOM     83  C   UNL     1       4.382 -12.074 -15.799  1.00  0.00     0.198 A 
ATOM     84  C   UNL     1       4.523  -9.949 -16.906  1.00  0.00     0.198 A 
ATOM     85  F   UNL     1       6.458  -8.630 -16.671  1.00  0.00    -0.203 F 
ATOM     86  F   UNL     1       3.717 -13.210 -15.548  1.00  0.00    -0.200 F 
ATOM     87  C   UNL     1       3.821 -11.111 -16.625  1.00  0.00     0.200 A 
ATOM     88  F   UNL     1       3.981  -9.012 -17.696  1.00  0.00    -0.200 F 
ATOM     89  F   UNL     1       2.607 -11.307 -17.157  1.00  0.00    -0.200 F 
ENDBRANCH  55  79
BRANCH  67  90
ATOM     90  C   UNL     1      12.589 -13.665 -16.588  1.00  0.00     0.064 A 
ATOM     91  C   UNL     1      12.734 -13.470 -17.969  1.00  0.00     0.173 A 
ATOM     92  C   UNL     1      12.911 -14.924 -16.061  1.00  0.00     0.173 A 
ATOM     93  F   UNL     1      12.422 -12.288 -18.521  1.00  0.00    -0.203 F 
ATOM     94  C   UNL     1      13.167 -14.505 -18.794  1.00  0.00     0.198 A 
ATOM     95  C   UNL     1      13.366 -15.949 -16.884  1.00  0.00     0.198 A 
ATOM     96  F   UNL     1      12.793 -15.155 -14.745  1.00  0.00    -0.203 F 
ATOM     97  F   UNL     1      13.261 -14.311 -20.116  1.00  0.00    -0.200 F 
ATOM     98  C   UNL     1      13.488 -15.741 -18.250  1.00  0.00     0.200 A 
ATOM     99  F   UNL     1      13.685 -17.139 -16.358  1.00  0.00    -0.200 F 
ATOM    100  F   UNL     1      13.909 -16.734 -19.045  1.00  0.00    -0.200 F 
ENDBRANCH  67  90
ENDBRANCH  41  42
ENDBRANCH  34  36
ENDBRANCH  33  34
ENDBRANCH  32  33
ENDBRANCH  31  32
ENDBRANCH   1  31
TORSDOF 16
