REMARK SMILES CC[C@@H](Sc1nnc2ccc3ccccc3n12)C(=O)Nc1cccc(C(=O)OCCOC(=O)c2ccc(-c3c4nc(c(-c5c(F)c(F)c(F)c(F)c5F)c5ccc([nH]5)c(-c5c(F)c(F)c(F)c(F)c5F)c5nc(c(-c6c(F)c(F)c(F)c(F)c6F)c6ccc3[nH]6)C=C5)C=C4)cc2)c1
REMARK SMILES IDX 29 1 28 2 26 3 27 4 25 5 21 6 22 7 97 8 23 9 24 10 20 11
REMARK SMILES IDX 18 12 19 13 3 15 2 16 1 17 4 18 5 19 6 20 17 21 7 22 8 23
REMARK SMILES IDX 16 24 9 25 11 26 15 27 10 28 12 29 14 30 13 31 30 32 31 33
REMARK SMILES IDX 32 34 33 35 34 36 35 37 96 38 36 39 95 40 37 41 38 42 39 43
REMARK SMILES IDX 89 44 40 45 94 46 88 47 90 48 41 49 93 50 87 51 86 52 42 54
REMARK SMILES IDX 74 55 54 56 73 57 55 58 58 59 72 60 91 61 56 62 57 63 71 65
REMARK SMILES IDX 92 66 59 67 43 68 44 69 52 70 45 71 46 72 50 73 53 74 47 75
REMARK SMILES IDX 48 76 51 77 49 78 75 79 76 80 84 81 77 82 78 83 82 84 85 85
REMARK SMILES IDX 79 86 80 87 83 88 81 89 60 90 61 91 69 92 62 93 63 94 67 95
REMARK SMILES IDX 70 96 64 97 65 98 68 99 66 100
REMARK H PARENT 20 14 90 53 58 64
REMARK Flexibility Score: inf
ROOT
ATOM      1  C   UNL     1      -5.795   1.037  -5.833  1.00  0.00     0.275 C 
ENDROOT
BRANCH   1   2
ATOM      2  O   UNL     1      -4.649   1.513  -5.077  1.00  0.00    -0.458 OA
BRANCH   2   3
ATOM      3  C   UNL     1      -4.898   1.732  -3.765  1.00  0.00     0.338 C 
ATOM      4  O   UNL     1      -5.992   1.582  -3.233  1.00  0.00    -0.246 OA
BRANCH   3   5
ATOM      5  C   UNL     1      -3.702   2.109  -2.957  1.00  0.00     0.062 A 
ATOM      6  C   UNL     1      -1.544   3.007  -2.419  1.00  0.00     0.042 A 
ATOM      7  C   UNL     1      -1.772   2.841  -1.052  1.00  0.00     0.026 A 
ATOM      8  C   UNL     1      -2.542   2.739  -3.378  1.00  0.00     0.041 A 
ATOM      9  C   UNL     1      -2.892   2.174  -0.633  1.00  0.00     0.003 A 
ATOM     10  C   UNL     1      -3.800   1.792  -1.605  1.00  0.00     0.016 A 
BRANCH   6  11
ATOM     11  N   UNL     1      -0.284   3.445  -2.817  1.00  0.00    -0.325 N 
ATOM     12  C   UNL     1       0.940   2.928  -2.453  1.00  0.00     0.237 C 
ATOM     13  O   UNL     1       1.929   3.646  -2.650  1.00  0.00    -0.273 OA
ATOM     14  H   UNL     1      -0.265   4.215  -3.430  1.00  0.00     0.169 HD
BRANCH  12  15
ATOM     15  C   UNL     1       1.133   1.470  -1.910  1.00  0.00     0.144 C 
BRANCH  15  16
ATOM     16  C   UNL     1       0.764   1.275  -0.426  1.00  0.00     0.021 C 
ATOM     17  C   UNL     1       1.491   0.163   0.319  1.00  0.00     0.005 C 
ENDBRANCH  15  16
BRANCH  15  18
ATOM     18  S   UNL     1       0.307   0.299  -3.080  1.00  0.00    -0.072 SA
BRANCH  18  19
ATOM     19  C   UNL     1       1.147  -1.191  -2.825  1.00  0.00     0.196 A 
ATOM     20  N   UNL     1       2.261  -1.301  -2.135  1.00  0.00    -0.122 NA
ATOM     21  N   UNL     1       0.667  -2.451  -3.132  1.00  0.00    -0.270 N 
ATOM     22  N   UNL     1       2.412  -2.617  -1.781  1.00  0.00    -0.129 NA
ATOM     23  C   UNL     1       1.418  -3.292  -2.318  1.00  0.00     0.161 A 
ATOM     24  C   UNL     1      -0.326  -2.943  -4.018  1.00  0.00     0.057 A 
ATOM     25  C   UNL     1       1.052  -4.653  -2.193  1.00  0.00     0.050 A 
ATOM     26  C   UNL     1      -0.661  -4.308  -3.892  1.00  0.00    -0.001 A 
ATOM     27  C   UNL     1      -0.904  -2.178  -5.028  1.00  0.00     0.027 A 
ATOM     28  C   UNL     1       0.038  -5.151  -2.915  1.00  0.00     0.014 A 
ATOM     29  C   UNL     1      -1.637  -4.867  -4.725  1.00  0.00     0.010 A 
ATOM     30  C   UNL     1      -1.833  -2.769  -5.892  1.00  0.00     0.002 A 
ATOM     31  C   UNL     1      -2.226  -4.094  -5.721  1.00  0.00     0.001 A 
ENDBRANCH  18  19
ENDBRANCH  15  18
ENDBRANCH  12  15
ENDBRANCH   6  11
ENDBRANCH   3   5
ENDBRANCH   2   3
ENDBRANCH   1   2
BRANCH   1  32
ATOM     32  C   UNL     1      -5.691  -0.451  -6.207  1.00  0.00     0.275 C 
BRANCH  32  33
ATOM     33  O   UNL     1      -5.928  -1.299  -5.070  1.00  0.00    -0.458 OA
BRANCH  33  34
ATOM     34  C   UNL     1      -4.822  -1.496  -4.315  1.00  0.00     0.338 C 
ATOM     35  O   UNL     1      -3.693  -1.183  -4.636  1.00  0.00    -0.246 OA
BRANCH  34  36
ATOM     36  C   UNL     1      -5.166  -1.800  -2.910  1.00  0.00     0.060 A 
ATOM     37  C   UNL     1      -6.489  -1.750  -2.459  1.00  0.00     0.016 A 
ATOM     38  C   UNL     1      -4.105  -1.662  -2.017  1.00  0.00     0.016 A 
ATOM     39  C   UNL     1      -6.750  -1.223  -1.196  1.00  0.00     0.010 A 
ATOM     40  C   UNL     1      -4.372  -1.150  -0.764  1.00  0.00     0.010 A 
ATOM     41  C   UNL     1      -5.684  -0.783  -0.412  1.00  0.00    -0.014 A 
BRANCH  41  42
ATOM     42  C   UNL     1      -5.891  -0.036   0.838  1.00  0.00     0.031 A 
ATOM     43  C   UNL     1      -5.742  -0.944   1.986  1.00  0.00     0.074 A 
ATOM     44  C   UNL     1      -6.079   1.290   1.068  1.00  0.00     0.049 A 
ATOM     45  N   UNL     1      -6.727  -1.564   2.541  1.00  0.00    -0.248 NA
ATOM     46  C   UNL     1      -4.413  -1.401   2.409  1.00  0.00     0.031 C 
ATOM     47  C   UNL     1      -6.124   2.437   0.155  1.00  0.00     0.029 A 
ATOM     48  N   UNL     1      -6.186   1.917   2.283  1.00  0.00    -0.354 N 
ATOM     49  C   UNL     1      -6.152  -2.335   3.528  1.00  0.00     0.074 A 
ATOM     50  C   UNL     1      -4.749  -2.412   3.215  1.00  0.00     0.031 C 
ATOM     51  C   UNL     1      -5.927   3.596   0.833  1.00  0.00     0.029 A 
ATOM     52  C   UNL     1      -6.040   3.305   2.247  1.00  0.00     0.049 A 
ATOM     53  H   UNL     1      -6.352   1.425   3.119  1.00  0.00     0.167 HD
ATOM     54  C   UNL     1      -6.821  -2.570   4.685  1.00  0.00     0.037 A 
ATOM     55  C   UNL     1      -6.143   4.172   3.285  1.00  0.00     0.037 A 
ATOM     56  C   UNL     1      -8.199  -2.142   4.586  1.00  0.00     0.049 A 
ATOM     57  C   UNL     1      -7.013   3.510   4.277  1.00  0.00     0.074 A 
ATOM     58  C   UNL     1      -9.286  -2.489   3.808  1.00  0.00     0.029 A 
ATOM     59  N   UNL     1      -8.481  -0.904   5.107  1.00  0.00    -0.354 N 
ATOM     60  N   UNL     1      -8.281   3.281   4.086  1.00  0.00    -0.248 NA
ATOM     61  C   UNL     1      -6.389   2.757   5.350  1.00  0.00     0.031 C 
ATOM     62  C   UNL     1     -10.010  -1.276   3.595  1.00  0.00     0.029 A 
ATOM     63  C   UNL     1      -9.366  -0.252   4.288  1.00  0.00     0.049 A 
ATOM     64  H   UNL     1      -8.105  -0.540   5.941  1.00  0.00     0.167 HD
ATOM     65  C   UNL     1      -8.492   2.049   4.675  1.00  0.00     0.074 A 
ATOM     66  C   UNL     1      -7.350   1.857   5.564  1.00  0.00     0.031 C 
ATOM     67  C   UNL     1      -9.415   1.189   4.157  1.00  0.00     0.037 A 
BRANCH  54  68
ATOM     68  C   UNL     1      -6.140  -2.779   6.008  1.00  0.00     0.064 A 
ATOM     69  C   UNL     1      -6.896  -3.268   7.087  1.00  0.00     0.173 A 
ATOM     70  C   UNL     1      -4.855  -2.289   6.332  1.00  0.00     0.173 A 
ATOM     71  F   UNL     1      -8.148  -3.708   6.896  1.00  0.00    -0.203 F 
ATOM     72  C   UNL     1      -6.411  -3.236   8.396  1.00  0.00     0.198 A 
ATOM     73  C   UNL     1      -4.349  -2.322   7.627  1.00  0.00     0.198 A 
ATOM     74  F   UNL     1      -4.086  -1.649   5.443  1.00  0.00    -0.203 F 
ATOM     75  F   UNL     1      -7.209  -3.604   9.407  1.00  0.00    -0.200 F 
ATOM     76  C   UNL     1      -5.136  -2.771   8.664  1.00  0.00     0.200 A 
ATOM     77  F   UNL     1      -3.122  -1.838   7.866  1.00  0.00    -0.200 F 
ATOM     78  F   UNL     1      -4.686  -2.702   9.923  1.00  0.00    -0.200 F 
ENDBRANCH  54  68
BRANCH  55  79
ATOM     79  C   UNL     1      -5.423   5.426   3.619  1.00  0.00     0.064 A 
ATOM     80  C   UNL     1      -5.913   6.289   4.619  1.00  0.00     0.173 A 
ATOM     81  C   UNL     1      -4.081   5.606   3.242  1.00  0.00     0.173 A 
ATOM     82  F   UNL     1      -7.175   6.167   5.056  1.00  0.00    -0.203 F 
ATOM     83  C   UNL     1      -5.091   7.223   5.257  1.00  0.00     0.198 A 
ATOM     84  C   UNL     1      -3.260   6.544   3.879  1.00  0.00     0.198 A 
ATOM     85  F   UNL     1      -3.516   4.797   2.334  1.00  0.00    -0.203 F 
ATOM     86  F   UNL     1      -5.573   7.957   6.271  1.00  0.00    -0.200 F 
ATOM     87  C   UNL     1      -3.759   7.335   4.902  1.00  0.00     0.200 A 
ATOM     88  F   UNL     1      -1.961   6.621   3.556  1.00  0.00    -0.200 F 
ATOM     89  F   UNL     1      -2.947   8.165   5.573  1.00  0.00    -0.200 F 
ENDBRANCH  55  79
BRANCH  67  90
ATOM     90  C   UNL     1     -10.447   1.766   3.221  1.00  0.00     0.064 A 
ATOM     91  C   UNL     1     -10.169   2.317   1.957  1.00  0.00     0.173 A 
ATOM     92  C   UNL     1     -11.794   1.661   3.590  1.00  0.00     0.173 A 
ATOM     93  F   UNL     1      -8.917   2.389   1.495  1.00  0.00    -0.203 F 
ATOM     94  C   UNL     1     -11.192   2.766   1.120  1.00  0.00     0.198 A 
ATOM     95  C   UNL     1     -12.815   2.077   2.739  1.00  0.00     0.198 A 
ATOM     96  F   UNL     1     -12.125   1.113   4.769  1.00  0.00    -0.203 F 
ATOM     97  F   UNL     1     -10.899   3.298  -0.076  1.00  0.00    -0.200 F 
ATOM     98  C   UNL     1     -12.514   2.636   1.508  1.00  0.00     0.200 A 
ATOM     99  F   UNL     1     -14.094   1.913   3.104  1.00  0.00    -0.200 F 
ATOM    100  F   UNL     1     -13.499   3.029   0.688  1.00  0.00    -0.200 F 
ENDBRANCH  67  90
ENDBRANCH  41  42
ENDBRANCH  34  36
ENDBRANCH  33  34
ENDBRANCH  32  33
ENDBRANCH   1  32
TORSDOF 16
