REMARK SMILES Cc1ccc(S(=O)(=O)N[C@H]2C=C[C@@H](C(=O)OCCOC(=O)c3ccc(-c4c5nc(c(-c6c(F)c(F)c(F)c(F)c6F)c6ccc([nH]6)c(-c6c(F)c(F)c(F)c(F)c6F)c6nc(c(-c7c(F)c(F)c(F)c(F)c7F)c7ccc4[nH]7)C=C6)C=C5)cc3)C2)c(C)c1
REMARK SMILES IDX 17 1 16 2 14 3 15 4 13 5 10 6 11 7 85 8 12 9 9 10 6 12 7 13
REMARK SMILES IDX 8 14 5 15 1 16 2 17 3 18 88 19 4 20 86 21 87 22 18 23 19 24
REMARK SMILES IDX 20 25 21 26 22 27 23 28 84 29 24 30 83 31 25 32 26 33 27 34
REMARK SMILES IDX 77 35 28 36 82 37 76 38 78 39 29 40 81 41 75 42 74 43 30 45
REMARK SMILES IDX 62 46 42 47 61 48 43 49 46 50 60 51 79 52 44 53 45 54 59 56
REMARK SMILES IDX 80 57 47 58 31 59 32 60 40 61 33 62 34 63 38 64 41 65 35 66
REMARK SMILES IDX 36 67 39 68 37 69 63 70 64 71 72 72 65 73 66 74 70 75 73 76
REMARK SMILES IDX 67 77 68 78 71 79 69 80 48 81 49 82 57 83 50 84 51 85 55 86
REMARK SMILES IDX 58 87 52 88 53 89 56 90 54 91
REMARK H PARENT 9 11 78 44 46 55
REMARK Flexibility Score: inf
ROOT
ATOM      1  C   UNL     1      -5.609  -7.151   3.466  1.00  0.00     0.274 C 
ENDROOT
BRANCH   1   2
ATOM      2  O   UNL     1      -4.586  -6.268   2.974  1.00  0.00    -0.462 OA
BRANCH   2   3
ATOM      3  C   UNL     1      -3.728  -5.750   3.889  1.00  0.00     0.312 C 
ATOM      4  O   UNL     1      -3.828  -5.901   5.103  1.00  0.00    -0.252 OA
BRANCH   3   5
ATOM      5  C   UNL     1      -2.562  -5.001   3.259  1.00  0.00     0.123 C 
ATOM      6  C   UNL     1      -1.840  -3.725   1.310  1.00  0.00     0.093 C 
ATOM      7  C   UNL     1      -2.170  -2.846   2.467  1.00  0.00    -0.011 C 
ATOM      8  C   UNL     1      -2.406  -5.085   1.740  1.00  0.00     0.043 C 
ATOM      9  C   UNL     1      -2.594  -3.535   3.530  1.00  0.00    -0.015 C 
BRANCH   6  10
ATOM     10  N   UNL     1      -2.455  -3.342   0.052  1.00  0.00    -0.204 NA
ATOM     11  H   UNL     1      -1.828  -3.697  -0.670  1.00  0.00     0.142 HD
BRANCH  10  12
ATOM     12  S   UNL     1      -2.836  -1.791  -0.425  1.00  0.00     0.241 S 
ATOM     13  O   UNL     1      -3.739  -1.250   0.573  1.00  0.00    -0.207 OA
ATOM     14  O   UNL     1      -3.216  -1.890  -1.813  1.00  0.00    -0.207 OA
BRANCH  12  15
ATOM     15  C   UNL     1      -1.300  -0.883  -0.369  1.00  0.00     0.085 A 
ATOM     16  C   UNL     1       2.492   1.130   0.036  1.00  0.00     0.044 C 
ATOM     17  C   UNL     1       1.181   0.416  -0.105  1.00  0.00    -0.051 A 
ATOM     18  C   UNL     1       1.133  -0.951  -0.375  1.00  0.00     0.005 A 
ATOM     19  C   UNL     1      -0.019   1.134  -0.015  1.00  0.00     0.008 A 
ATOM     20  C   UNL     1      -0.098  -1.595  -0.516  1.00  0.00     0.022 A 
ATOM     21  C   UNL     1      -1.272   0.506  -0.156  1.00  0.00    -0.031 A 
ATOM     22  C   UNL     1      -2.485   1.394  -0.097  1.00  0.00     0.046 C 
ENDBRANCH  12  15
ENDBRANCH  10  12
ENDBRANCH   6  10
ENDBRANCH   3   5
ENDBRANCH   2   3
ENDBRANCH   1   2
BRANCH   1  23
ATOM     23  C   UNL     1      -5.266  -8.606   3.133  1.00  0.00     0.275 C 
BRANCH  23  24
ATOM     24  O   UNL     1      -4.095  -9.063   3.842  1.00  0.00    -0.458 OA
BRANCH  24  25
ATOM     25  C   UNL     1      -2.927  -8.899   3.181  1.00  0.00     0.338 C 
ATOM     26  O   UNL     1      -2.761  -8.422   2.070  1.00  0.00    -0.246 OA
BRANCH  25  27
ATOM     27  C   UNL     1      -1.792  -9.252   4.047  1.00  0.00     0.060 A 
ATOM     28  C   UNL     1      -0.944  -8.219   4.441  1.00  0.00     0.016 A 
ATOM     29  C   UNL     1      -1.476 -10.573   4.354  1.00  0.00     0.016 A 
ATOM     30  C   UNL     1       0.242  -8.488   5.109  1.00  0.00     0.010 A 
ATOM     31  C   UNL     1      -0.295 -10.846   5.060  1.00  0.00     0.010 A 
ATOM     32  C   UNL     1       0.580  -9.806   5.428  1.00  0.00    -0.014 A 
BRANCH  32  33
ATOM     33  C   UNL     1       1.871 -10.073   6.111  1.00  0.00     0.031 A 
ATOM     34  C   UNL     1       2.971 -10.795   5.385  1.00  0.00     0.074 A 
ATOM     35  C   UNL     1       2.072  -9.614   7.361  1.00  0.00     0.049 A 
ATOM     36  N   UNL     1       4.130 -11.204   5.834  1.00  0.00    -0.248 NA
ATOM     37  C   UNL     1       2.739 -11.095   3.963  1.00  0.00     0.031 C 
ATOM     38  C   UNL     1       1.105  -8.840   8.143  1.00  0.00     0.029 A 
ATOM     39  N   UNL     1       3.158  -9.724   8.193  1.00  0.00    -0.354 N 
ATOM     40  C   UNL     1       4.754 -11.827   4.762  1.00  0.00     0.074 A 
ATOM     41  C   UNL     1       3.839 -11.761   3.642  1.00  0.00     0.031 C 
ATOM     42  C   UNL     1       1.644  -8.538   9.335  1.00  0.00     0.029 A 
ATOM     43  C   UNL     1       2.964  -9.152   9.427  1.00  0.00     0.049 A 
ATOM     44  H   UNL     1       3.996 -10.170   7.931  1.00  0.00     0.167 HD
ATOM     45  C   UNL     1       5.983 -12.396   4.718  1.00  0.00     0.037 A 
ATOM     46  C   UNL     1       3.745  -9.159  10.523  1.00  0.00     0.037 A 
ATOM     47  C   UNL     1       6.895 -12.441   5.832  1.00  0.00     0.049 A 
ATOM     48  C   UNL     1       5.071  -9.871  10.467  1.00  0.00     0.074 A 
ATOM     49  C   UNL     1       8.154 -13.012   5.895  1.00  0.00     0.029 A 
ATOM     50  N   UNL     1       6.646 -11.884   7.078  1.00  0.00    -0.354 N 
ATOM     51  N   UNL     1       5.639 -10.485   9.458  1.00  0.00    -0.248 NA
ATOM     52  C   UNL     1       5.861  -9.895  11.706  1.00  0.00     0.031 C 
ATOM     53  C   UNL     1       8.652 -12.834   7.190  1.00  0.00     0.029 A 
ATOM     54  C   UNL     1       7.725 -12.108   7.919  1.00  0.00     0.049 A 
ATOM     55  H   UNL     1       5.826 -11.401   7.327  1.00  0.00     0.167 HD
ATOM     56  C   UNL     1       6.861 -10.943   9.931  1.00  0.00     0.074 A 
ATOM     57  C   UNL     1       6.962 -10.517  11.311  1.00  0.00     0.031 C 
ATOM     58  C   UNL     1       7.814 -11.658   9.283  1.00  0.00     0.037 A 
BRANCH  45  59
ATOM     59  C   UNL     1       6.412 -13.037   3.431  1.00  0.00     0.064 A 
ATOM     60  C   UNL     1       6.770 -12.273   2.311  1.00  0.00     0.173 A 
ATOM     61  C   UNL     1       6.529 -14.433   3.337  1.00  0.00     0.173 A 
ATOM     62  F   UNL     1       6.662 -10.936   2.343  1.00  0.00    -0.203 F 
ATOM     63  C   UNL     1       7.216 -12.883   1.140  1.00  0.00     0.198 A 
ATOM     64  C   UNL     1       7.000 -15.037   2.175  1.00  0.00     0.198 A 
ATOM     65  F   UNL     1       6.204 -15.210   4.382  1.00  0.00    -0.203 F 
ATOM     66  F   UNL     1       7.520 -12.135   0.071  1.00  0.00    -0.200 F 
ATOM     67  C   UNL     1       7.340 -14.263   1.077  1.00  0.00     0.200 A 
ATOM     68  F   UNL     1       7.132 -16.370   2.121  1.00  0.00    -0.200 F 
ATOM     69  F   UNL     1       7.784 -14.847  -0.045  1.00  0.00    -0.200 F 
ENDBRANCH  45  59
BRANCH  46  70
ATOM     70  C   UNL     1       3.284  -8.515  11.782  1.00  0.00     0.064 A 
ATOM     71  C   UNL     1       3.956  -7.409  12.320  1.00  0.00     0.173 A 
ATOM     72  C   UNL     1       2.188  -9.021  12.498  1.00  0.00     0.173 A 
ATOM     73  F   UNL     1       5.025  -6.902  11.687  1.00  0.00    -0.203 F 
ATOM     74  C   UNL     1       3.571  -6.855  13.539  1.00  0.00     0.198 A 
ATOM     75  C   UNL     1       1.782  -8.444  13.699  1.00  0.00     0.198 A 
ATOM     76  F   UNL     1       1.510 -10.079  12.031  1.00  0.00    -0.203 F 
ATOM     77  F   UNL     1       4.274  -5.840  14.062  1.00  0.00    -0.200 F 
ATOM     78  C   UNL     1       2.482  -7.370  14.226  1.00  0.00     0.200 A 
ATOM     79  F   UNL     1       0.721  -8.938  14.352  1.00  0.00    -0.200 F 
ATOM     80  F   UNL     1       2.117  -6.842  15.402  1.00  0.00    -0.200 F 
ENDBRANCH  46  70
BRANCH  58  81
ATOM     81  C   UNL     1       9.067 -11.976  10.046  1.00  0.00     0.064 A 
ATOM     82  C   UNL     1       9.077 -12.914  11.089  1.00  0.00     0.173 A 
ATOM     83  C   UNL     1      10.277 -11.350   9.711  1.00  0.00     0.173 A 
ATOM     84  F   UNL     1       7.942 -13.526  11.458  1.00  0.00    -0.203 F 
ATOM     85  C   UNL     1      10.248 -13.191  11.789  1.00  0.00     0.198 A 
ATOM     86  C   UNL     1      11.452 -11.654  10.391  1.00  0.00     0.198 A 
ATOM     87  F   UNL     1      10.321 -10.451   8.717  1.00  0.00    -0.203 F 
ATOM     88  F   UNL     1      10.224 -14.050  12.817  1.00  0.00    -0.200 F 
ATOM     89  C   UNL     1      11.435 -12.566  11.435  1.00  0.00     0.200 A 
ATOM     90  F   UNL     1      12.601 -11.060  10.040  1.00  0.00    -0.200 F 
ATOM     91  F   UNL     1      12.562 -12.838  12.107  1.00  0.00    -0.200 F 
ENDBRANCH  58  81
ENDBRANCH  32  33
ENDBRANCH  25  27
ENDBRANCH  24  25
ENDBRANCH  23  24
ENDBRANCH   1  23
TORSDOF 14
