REMARK SMILES CC1=NN(c2ccc(Cl)c(C(=O)OCCOC(=O)c3ccc(-c4c5nc(c(-c6c(F)c(F)c(F)c(F)c6F)c6ccc([nH]6)c(-c6c(F)c(F)c(F)c(F)c6F)c6nc(c(-c7c(F)c(F)c(F)c(F)c7F)c7ccc4[nH]7)C=C6)C=C5)cc3)c2)C(=O)/C1=C\c1ccc(N(C)C)c(Br)c1
REMARK SMILES IDX 14 1 13 2 11 3 12 4 10 5 5 6 6 7 82 8 7 9 8 10 9 11 4 12
REMARK SMILES IDX 1 13 2 14 3 15 85 16 83 17 86 18 84 19 87 20 88 21 96 22
REMARK SMILES IDX 89 23 94 24 90 25 95 26 91 27 92 28 93 29 15 30 16 31 17 32
REMARK SMILES IDX 18 33 19 34 20 35 81 36 21 37 80 38 22 39 23 40 24 41 74 42
REMARK SMILES IDX 25 43 79 44 73 45 75 46 26 47 78 48 72 49 71 50 27 52 59 53
REMARK SMILES IDX 39 54 58 55 40 56 43 57 57 58 76 59 41 60 42 61 56 63 77 64
REMARK SMILES IDX 44 65 28 66 29 67 37 68 30 69 31 70 35 71 38 72 32 73 33 74
REMARK SMILES IDX 36 75 34 76 60 77 61 78 69 79 62 80 63 81 67 82 70 83 64 84
REMARK SMILES IDX 65 85 68 86 66 87 45 88 46 89 54 90 47 91 48 92 52 93 55 94
REMARK SMILES IDX 49 95 50 96 53 97 51 98
REMARK H PARENT 75 51 43 62
REMARK Flexibility Score: inf
ROOT
ATOM      1  C   UNL     1       2.073   7.648   2.978  1.00  0.00     0.275 C 
ENDROOT
BRANCH   1   2
ATOM      2  O   UNL     1       2.070   6.844   1.780  1.00  0.00    -0.458 OA
BRANCH   2   3
ATOM      3  C   UNL     1       2.259   5.517   1.959  1.00  0.00     0.339 C 
ATOM      4  O   UNL     1       2.356   4.933   3.028  1.00  0.00    -0.246 OA
BRANCH   3   5
ATOM      5  C   UNL     1       2.257   4.783   0.679  1.00  0.00     0.080 A 
ATOM      6  C   UNL     1       1.565   2.734  -0.452  1.00  0.00     0.070 A 
ATOM      7  C   UNL     1       2.491   2.997  -1.460  1.00  0.00     0.030 A 
ATOM      8  C   UNL     1       1.441   3.642   0.600  1.00  0.00     0.045 A 
ATOM      9  C   UNL     1       3.256   4.170  -1.429  1.00  0.00     0.023 A 
ATOM     10  C   UNL     1       3.157   5.058  -0.351  1.00  0.00     0.055 A 
ATOM     11  Cl  UNL     1       4.243   6.399  -0.324  1.00  0.00    -0.083 Cl
BRANCH   6  12
ATOM     12  N   UNL     1       0.845   1.527  -0.408  1.00  0.00    -0.196 N 
ATOM     13  C   UNL     1      -2.278  -0.185   0.156  1.00  0.00     0.069 C 
ATOM     14  C   UNL     1      -0.876   0.277  -0.069  1.00  0.00     0.071 C 
ATOM     15  N   UNL     1      -0.499   1.532  -0.045  1.00  0.00    -0.169 NA
ATOM     16  C   UNL     1       0.258  -0.634  -0.311  1.00  0.00     0.065 C 
ATOM     17  C   UNL     1       1.393   0.262  -0.652  1.00  0.00     0.280 C 
ATOM     18  C   UNL     1       0.277  -1.952  -0.074  1.00  0.00     0.024 C 
ATOM     19  O   UNL     1       2.507  -0.055  -1.002  1.00  0.00    -0.267 OA
BRANCH  18  20
ATOM     20  C   UNL     1       1.537  -2.691   0.032  1.00  0.00    -0.024 A 
ATOM     21  C   UNL     1       2.009  -3.502  -0.982  1.00  0.00     0.010 A 
ATOM     22  C   UNL     1       2.324  -2.531   1.172  1.00  0.00     0.026 A 
ATOM     23  C   UNL     1       3.277  -4.100  -0.866  1.00  0.00     0.028 A 
ATOM     24  C   UNL     1       3.589  -3.145   1.295  1.00  0.00     0.041 A 
ATOM     25  C   UNL     1       4.134  -3.946   0.258  1.00  0.00     0.051 A 
ATOM     26  Br  UNL     1       4.385  -2.788   2.998  1.00  0.00    -0.049 Br
BRANCH  25  27
ATOM     27  N   UNL     1       5.384  -4.573   0.258  1.00  0.00    -0.377 N 
ATOM     28  C   UNL     1       5.812  -5.461  -0.825  1.00  0.00     0.143 C 
ATOM     29  C   UNL     1       6.470  -4.172   1.148  1.00  0.00     0.143 C 
ENDBRANCH  25  27
ENDBRANCH  18  20
ENDBRANCH   6  12
ENDBRANCH   3   5
ENDBRANCH   2   3
ENDBRANCH   1   2
BRANCH   1  30
ATOM     30  C   UNL     1       0.668   8.151   3.298  1.00  0.00     0.275 C 
BRANCH  30  31
ATOM     31  O   UNL     1      -0.173   7.051   3.690  1.00  0.00    -0.458 OA
BRANCH  31  32
ATOM     32  C   UNL     1      -1.056   6.643   2.752  1.00  0.00     0.338 C 
ATOM     33  O   UNL     1      -1.265   7.133   1.656  1.00  0.00    -0.246 OA
BRANCH  32  34
ATOM     34  C   UNL     1      -1.739   5.424   3.205  1.00  0.00     0.060 A 
ATOM     35  C   UNL     1      -1.029   4.230   3.206  1.00  0.00     0.016 A 
ATOM     36  C   UNL     1      -3.112   5.421   3.426  1.00  0.00     0.016 A 
ATOM     37  C   UNL     1      -1.705   3.016   3.263  1.00  0.00     0.010 A 
ATOM     38  C   UNL     1      -3.771   4.202   3.633  1.00  0.00     0.010 A 
ATOM     39  C   UNL     1      -3.086   2.978   3.497  1.00  0.00    -0.014 A 
BRANCH  39  40
ATOM     40  C   UNL     1      -3.815   1.676   3.561  1.00  0.00     0.031 A 
ATOM     41  C   UNL     1      -5.012   1.431   2.675  1.00  0.00     0.074 A 
ATOM     42  C   UNL     1      -3.411   0.700   4.400  1.00  0.00     0.049 A 
ATOM     43  N   UNL     1      -5.900   0.467   2.725  1.00  0.00    -0.248 NA
ATOM     44  C   UNL     1      -5.250   2.402   1.596  1.00  0.00     0.031 C 
ATOM     45  C   UNL     1      -2.243   0.764   5.281  1.00  0.00     0.029 A 
ATOM     46  N   UNL     1      -3.941  -0.544   4.653  1.00  0.00    -0.354 N 
ATOM     47  C   UNL     1      -6.835   0.758   1.738  1.00  0.00     0.074 A 
ATOM     48  C   UNL     1      -6.405   1.983   1.099  1.00  0.00     0.031 C 
ATOM     49  C   UNL     1      -2.122  -0.394   5.945  1.00  0.00     0.029 A 
ATOM     50  C   UNL     1      -3.262  -1.242   5.624  1.00  0.00     0.049 A 
ATOM     51  H   UNL     1      -4.731  -0.899   4.185  1.00  0.00     0.167 HD
ATOM     52  C   UNL     1      -7.949   0.065   1.398  1.00  0.00     0.037 A 
ATOM     53  C   UNL     1      -3.550  -2.407   6.235  1.00  0.00     0.037 A 
ATOM     54  C   UNL     1      -8.342  -1.186   1.995  1.00  0.00     0.049 A 
ATOM     55  C   UNL     1      -4.812  -3.135   5.869  1.00  0.00     0.074 A 
ATOM     56  C   UNL     1      -9.444  -1.973   1.706  1.00  0.00     0.029 A 
ATOM     57  N   UNL     1      -7.637  -1.841   2.993  1.00  0.00    -0.354 N 
ATOM     58  N   UNL     1      -5.716  -2.825   4.973  1.00  0.00    -0.248 NA
ATOM     59  C   UNL     1      -5.103  -4.368   6.614  1.00  0.00     0.031 C 
ATOM     60  C   UNL     1      -9.424  -3.087   2.552  1.00  0.00     0.029 A 
ATOM     61  C   UNL     1      -8.283  -3.019   3.334  1.00  0.00     0.049 A 
ATOM     62  H   UNL     1      -6.800  -1.518   3.399  1.00  0.00     0.167 HD
ATOM     63  C   UNL     1      -6.672  -3.829   5.034  1.00  0.00     0.074 A 
ATOM     64  C   UNL     1      -6.226  -4.771   6.039  1.00  0.00     0.031 C 
ATOM     65  C   UNL     1      -7.819  -3.956   4.324  1.00  0.00     0.037 A 
BRANCH  52  66
ATOM     66  C   UNL     1      -8.848   0.652   0.346  1.00  0.00     0.064 A 
ATOM     67  C   UNL     1      -8.487   0.678  -1.009  1.00  0.00     0.173 A 
ATOM     68  C   UNL     1     -10.116   1.144   0.695  1.00  0.00     0.173 A 
ATOM     69  F   UNL     1      -7.284   0.229  -1.396  1.00  0.00    -0.203 F 
ATOM     70  C   UNL     1      -9.352   1.196  -1.971  1.00  0.00     0.198 A 
ATOM     71  C   UNL     1     -10.989   1.633  -0.272  1.00  0.00     0.198 A 
ATOM     72  F   UNL     1     -10.515   1.133   1.976  1.00  0.00    -0.203 F 
ATOM     73  F   UNL     1      -8.970   1.247  -3.255  1.00  0.00    -0.200 F 
ATOM     74  C   UNL     1     -10.605   1.665  -1.603  1.00  0.00     0.200 A 
ATOM     75  F   UNL     1     -12.206   2.070   0.084  1.00  0.00    -0.200 F 
ATOM     76  F   UNL     1     -11.440   2.150  -2.532  1.00  0.00    -0.200 F 
ENDBRANCH  52  66
BRANCH  53  77
ATOM     77  C   UNL     1      -2.650  -2.933   7.297  1.00  0.00     0.064 A 
ATOM     78  C   UNL     1      -1.924  -4.116   7.106  1.00  0.00     0.173 A 
ATOM     79  C   UNL     1      -2.505  -2.271   8.527  1.00  0.00     0.173 A 
ATOM     80  F   UNL     1      -2.050  -4.799   5.959  1.00  0.00    -0.203 F 
ATOM     81  C   UNL     1      -1.101  -4.625   8.109  1.00  0.00     0.198 A 
ATOM     82  C   UNL     1      -1.655  -2.762   9.514  1.00  0.00     0.198 A 
ATOM     83  F   UNL     1      -3.180  -1.136   8.762  1.00  0.00    -0.203 F 
ATOM     84  F   UNL     1      -0.459  -5.786   7.919  1.00  0.00    -0.200 F 
ATOM     85  C   UNL     1      -0.961  -3.944   9.308  1.00  0.00     0.200 A 
ATOM     86  F   UNL     1      -1.512  -2.092  10.665  1.00  0.00    -0.200 F 
ATOM     87  F   UNL     1      -0.165  -4.432  10.270  1.00  0.00    -0.200 F 
ENDBRANCH  53  77
BRANCH  65  88
ATOM     88  C   UNL     1      -8.645  -5.184   4.572  1.00  0.00     0.064 A 
ATOM     89  C   UNL     1      -9.383  -5.350   5.753  1.00  0.00     0.173 A 
ATOM     90  C   UNL     1      -8.716  -6.195   3.603  1.00  0.00     0.173 A 
ATOM     91  F   UNL     1      -9.332  -4.419   6.718  1.00  0.00    -0.203 F 
ATOM     92  C   UNL     1     -10.141  -6.499   5.966  1.00  0.00     0.198 A 
ATOM     93  C   UNL     1      -9.498  -7.328   3.806  1.00  0.00     0.198 A 
ATOM     94  F   UNL     1      -8.031  -6.081   2.455  1.00  0.00    -0.203 F 
ATOM     95  F   UNL     1     -10.797  -6.661   7.123  1.00  0.00    -0.200 F 
ATOM     96  C   UNL     1     -10.203  -7.483   4.990  1.00  0.00     0.200 A 
ATOM     97  F   UNL     1      -9.565  -8.273   2.858  1.00  0.00    -0.200 F 
ATOM     98  F   UNL     1     -10.936  -8.586   5.195  1.00  0.00    -0.200 F 
ENDBRANCH  65  88
ENDBRANCH  39  40
ENDBRANCH  32  34
ENDBRANCH  31  32
ENDBRANCH  30  31
ENDBRANCH   1  30
TORSDOF 14
