REMARK SMILES COc1ccc(-n2ccnc2C[N@@H+]2CCn3nc(C(=O)OCCOC(=O)c4ccc(-c5c6nc(c(-c7c(F)c(F)c(F)c(F)c7F)c7ccc([nH]7)c(-c7c(F)c(F)c(F)c(F)c7F)c7nc(c(-c8c(F)c(F)c(F)c(F)c8F)c8ccc5[nH]8)C=C7)C=C6)cc4)cc3C2)cc1
REMARK SMILES IDX 22 1 21 2 19 3 20 4 18 5 13 6 14 7 92 8 15 10 91 11 16 12
REMARK SMILES IDX 90 13 17 14 12 15 11 16 7 17 8 18 9 19 10 20 6 21 3 22 4 23
REMARK SMILES IDX 94 24 5 25 93 26 2 27 1 28 23 29 24 30 25 31 26 32 27 33
REMARK SMILES IDX 28 34 89 35 29 36 88 37 30 38 31 39 32 40 82 41 33 42 87 43
REMARK SMILES IDX 81 44 83 45 34 46 86 47 80 48 79 49 35 51 67 52 47 53 66 54
REMARK SMILES IDX 48 55 51 56 65 57 84 58 49 59 50 60 64 62 85 63 52 64 36 65
REMARK SMILES IDX 37 66 45 67 38 68 39 69 43 70 46 71 40 72 41 73 44 74 42 75
REMARK SMILES IDX 68 76 69 77 77 78 70 79 71 80 75 81 78 82 72 83 73 84 76 85
REMARK SMILES IDX 74 86 53 87 54 88 62 89 55 90 56 91 60 92 63 93 57 94 58 95
REMARK SMILES IDX 61 96 59 97
REMARK H PARENT 13 9 83 50 51 61
REMARK Flexibility Score: inf
ROOT
ATOM      1  C   UNL     1       0.324  -0.131  -5.197  1.00  0.00     0.275 C 
ENDROOT
BRANCH   1   2
ATOM      2  O   UNL     1       0.535   1.253  -4.753  1.00  0.00    -0.457 OA
BRANCH   2   3
ATOM      3  C   UNL     1       0.675   1.456  -3.236  1.00  0.00     0.358 C 
ATOM      4  O   UNL     1       1.046   0.279  -2.883  1.00  0.00    -0.244 OA
BRANCH   3   5
ATOM      5  C   UNL     1       0.230   3.127  -2.089  1.00  0.00     0.170 A 
ATOM      6  N   UNL     1       1.103   7.049  -2.401  1.00  0.00    -0.322 N 
ATOM      7  C   UNL     1       2.280   6.498  -1.668  1.00  0.00     0.286 C 
ATOM      8  C   UNL     1      -0.154   6.849  -1.649  1.00  0.00     0.319 C 
ATOM      9  H   UNL     1       1.361   8.034  -2.466  1.00  0.00     0.348 HD
ATOM     10  C   UNL     1       1.991   5.530  -0.491  1.00  0.00     0.206 C 
ATOM     11  C   UNL     1      -0.250   5.393  -1.442  1.00  0.00     0.094 A 
ATOM     12  N   UNL     1       0.761   4.817  -0.772  1.00  0.00    -0.257 N 
ATOM     13  C   UNL     1      -0.810   4.362  -2.162  1.00  0.00     0.067 A 
ATOM     14  N   UNL     1       0.719   3.503  -0.787  1.00  0.00    -0.165 NA
BRANCH   6  15
ATOM     15  C   UNL     1       0.886   6.622  -3.815  1.00  0.00     0.339 C 
BRANCH  15  16
ATOM     16  C   UNL     1       1.896   5.792  -4.547  1.00  0.00     0.168 A 
ATOM     17  N   UNL     1       1.904   4.397  -4.703  1.00  0.00    -0.299 N 
ATOM     18  C   UNL     1       3.041   4.131  -5.441  1.00  0.00     0.113 A 
ATOM     19  C   UNL     1       3.592   5.337  -5.788  1.00  0.00     0.132 A 
ATOM     20  N   UNL     1       2.885   6.352  -5.229  1.00  0.00    -0.236 NA
BRANCH  17  21
ATOM     21  C   UNL     1       1.244   3.394  -3.931  1.00  0.00     0.047 A 
ATOM     22  C   UNL     1      -0.266   1.197  -1.412  1.00  0.00     0.119 A 
ATOM     23  C   UNL     1      -1.276   1.837  -2.804  1.00  0.00     0.048 A 
ATOM     24  C   UNL     1       1.539   1.584  -1.341  1.00  0.00     0.048 A 
ATOM     25  C   UNL     1      -0.523   2.960  -4.063  1.00  0.00     0.030 A 
ATOM     26  C   UNL     1       2.251   2.684  -2.618  1.00  0.00     0.030 A 
BRANCH  22  27
ATOM     27  O   UNL     1      -0.864   0.313  -0.556  1.00  0.00    -0.497 OA
ATOM     28  C   UNL     1       0.067  -0.223   0.378  1.00  0.00     0.278 C 
ENDBRANCH  22  27
ENDBRANCH  17  21
ENDBRANCH  15  16
ENDBRANCH   6  15
ENDBRANCH   3   5
ENDBRANCH   2   3
ENDBRANCH   1   2
BRANCH   1  29
ATOM     29  C   UNL     1       1.579  -0.910  -5.604  1.00  0.00     0.275 C 
BRANCH  29  30
ATOM     30  O   UNL     1       2.437  -1.145  -4.500  1.00  0.00    -0.458 OA
BRANCH  30  31
ATOM     31  C   UNL     1       3.236  -0.096  -4.213  1.00  0.00     0.338 C 
ATOM     32  O   UNL     1       3.395   0.923  -4.864  1.00  0.00    -0.246 OA
BRANCH  31  33
ATOM     33  C   UNL     1       4.013  -0.410  -3.017  1.00  0.00     0.060 A 
ATOM     34  C   UNL     1       4.706   0.632  -2.400  1.00  0.00     0.016 A 
ATOM     35  C   UNL     1       4.491  -1.699  -2.952  1.00  0.00     0.016 A 
ATOM     36  C   UNL     1       6.061   0.549  -2.350  1.00  0.00     0.010 A 
ATOM     37  C   UNL     1       5.776  -1.816  -2.544  1.00  0.00     0.010 A 
ATOM     38  C   UNL     1       6.583  -0.689  -2.631  1.00  0.00    -0.014 A 
BRANCH  38  39
ATOM     39  C   UNL     1       8.002  -0.846  -2.776  1.00  0.00     0.031 A 
ATOM     40  C   UNL     1       8.615  -0.861  -1.427  1.00  0.00     0.074 A 
ATOM     41  C   UNL     1       8.525  -1.029  -4.009  1.00  0.00     0.049 A 
ATOM     42  N   UNL     1       9.271   0.096  -0.855  1.00  0.00    -0.248 NA
ATOM     43  C   UNL     1       8.139  -1.885  -0.471  1.00  0.00     0.031 C 
ATOM     44  C   UNL     1       7.866  -1.145  -5.322  1.00  0.00     0.029 A 
ATOM     45  N   UNL     1       9.824  -1.278  -4.327  1.00  0.00    -0.354 N 
ATOM     46  C   UNL     1       9.494  -0.363   0.441  1.00  0.00     0.074 A 
ATOM     47  C   UNL     1       8.489  -1.344   0.693  1.00  0.00     0.031 C 
ATOM     48  C   UNL     1       8.710  -1.736  -6.206  1.00  0.00     0.029 A 
ATOM     49  C   UNL     1       9.993  -1.920  -5.562  1.00  0.00     0.049 A 
ATOM     50  H   UNL     1      10.577  -1.029  -3.743  1.00  0.00     0.167 HD
ATOM     51  C   UNL     1      10.715  -0.224   1.025  1.00  0.00     0.037 A 
ATOM     52  C   UNL     1      11.109  -2.638  -5.868  1.00  0.00     0.037 A 
ATOM     53  C   UNL     1      11.477   0.777   0.324  1.00  0.00     0.049 A 
ATOM     54  C   UNL     1      12.157  -2.180  -4.893  1.00  0.00     0.074 A 
ATOM     55  C   UNL     1      11.303   2.131   0.120  1.00  0.00     0.029 A 
ATOM     56  N   UNL     1      12.308   0.333  -0.678  1.00  0.00    -0.354 N 
ATOM     57  N   UNL     1      12.598  -0.945  -4.869  1.00  0.00    -0.248 NA
ATOM     58  C   UNL     1      12.202  -2.889  -3.612  1.00  0.00     0.031 C 
ATOM     59  C   UNL     1      11.631   2.334  -1.251  1.00  0.00     0.029 A 
ATOM     60  C   UNL     1      12.125   1.138  -1.774  1.00  0.00     0.049 A 
ATOM     61  H   UNL     1      12.926  -0.431  -0.619  1.00  0.00     0.167 HD
ATOM     62  C   UNL     1      12.571  -0.586  -3.525  1.00  0.00     0.074 A 
ATOM     63  C   UNL     1      12.326  -1.834  -2.796  1.00  0.00     0.031 C 
ATOM     64  C   UNL     1      12.415   0.712  -3.125  1.00  0.00     0.037 A 
BRANCH  51  65
ATOM     65  C   UNL     1      11.374  -1.268   1.899  1.00  0.00     0.064 A 
ATOM     66  C   UNL     1      12.611  -0.946   2.488  1.00  0.00     0.173 A 
ATOM     67  C   UNL     1      11.021  -2.637   1.956  1.00  0.00     0.173 A 
ATOM     68  F   UNL     1      13.044   0.324   2.511  1.00  0.00    -0.203 F 
ATOM     69  C   UNL     1      13.471  -1.926   2.988  1.00  0.00     0.198 A 
ATOM     70  C   UNL     1      11.860  -3.607   2.498  1.00  0.00     0.198 A 
ATOM     71  F   UNL     1       9.906  -3.131   1.411  1.00  0.00    -0.203 F 
ATOM     72  F   UNL     1      14.691  -1.581   3.418  1.00  0.00    -0.200 F 
ATOM     73  C   UNL     1      13.101  -3.258   2.980  1.00  0.00     0.200 A 
ATOM     74  F   UNL     1      11.481  -4.893   2.471  1.00  0.00    -0.200 F 
ATOM     75  F   UNL     1      13.948  -4.207   3.396  1.00  0.00    -0.200 F 
ENDBRANCH  51  65
BRANCH  52  76
ATOM     76  C   UNL     1      11.167  -3.945  -6.578  1.00  0.00     0.064 A 
ATOM     77  C   UNL     1      12.355  -4.453  -7.133  1.00  0.00     0.173 A 
ATOM     78  C   UNL     1      10.086  -4.848  -6.505  1.00  0.00     0.173 A 
ATOM     79  F   UNL     1      13.454  -3.687  -7.190  1.00  0.00    -0.203 F 
ATOM     80  C   UNL     1      12.448  -5.779  -7.589  1.00  0.00     0.198 A 
ATOM     81  C   UNL     1      10.180  -6.165  -6.958  1.00  0.00     0.198 A 
ATOM     82  F   UNL     1       8.941  -4.496  -5.906  1.00  0.00    -0.203 F 
ATOM     83  F   UNL     1      13.608  -6.242  -8.079  1.00  0.00    -0.200 F 
ATOM     84  C   UNL     1      11.362  -6.634  -7.495  1.00  0.00     0.200 A 
ATOM     85  F   UNL     1       9.133  -6.991  -6.817  1.00  0.00    -0.200 F 
ATOM     86  F   UNL     1      11.464  -7.914  -7.881  1.00  0.00    -0.200 F 
ENDBRANCH  52  76
BRANCH  64  87
ATOM     87  C   UNL     1      12.397   1.799  -4.168  1.00  0.00     0.064 A 
ATOM     88  C   UNL     1      11.356   2.004  -5.094  1.00  0.00     0.173 A 
ATOM     89  C   UNL     1      13.361   2.807  -4.061  1.00  0.00     0.173 A 
ATOM     90  F   UNL     1      10.334   1.145  -5.183  1.00  0.00    -0.203 F 
ATOM     91  C   UNL     1      11.304   3.149  -5.890  1.00  0.00     0.198 A 
ATOM     92  C   UNL     1      13.288   3.965  -4.828  1.00  0.00     0.198 A 
ATOM     93  F   UNL     1      14.334   2.703  -3.144  1.00  0.00    -0.203 F 
ATOM     94  F   UNL     1      10.294   3.324  -6.757  1.00  0.00    -0.200 F 
ATOM     95  C   UNL     1      12.267   4.133  -5.750  1.00  0.00     0.200 A 
ATOM     96  F   UNL     1      14.185   4.941  -4.638  1.00  0.00    -0.200 F 
ATOM     97  F   UNL     1      12.195   5.258  -6.476  1.00  0.00    -0.200 F 
ENDBRANCH  64  87
ENDBRANCH  38  39
ENDBRANCH  31  33
ENDBRANCH  30  31
ENDBRANCH  29  30
ENDBRANCH   1  29
TORSDOF 15
