REMARK SMILES O=C(OCCOC(=O)c1cc(S(=O)(=O)Nc2cc(F)ccc2F)cc2c1OCCO2)c1ccc(-c2c3nc(c(-c4c(F)c(F)c(F)c(F)c4F)c4ccc([nH]4)c(-c4c(F)c(F)c(F)c(F)c4F)c4nc(c(-c5c(F)c(F)c(F)c(F)c5F)c5ccc2[nH]5)C=C4)C=C3)cc1
REMARK SMILES IDX 5 1 4 2 3 3 2 4 1 5 31 6 32 7 93 8 33 9 92 10 34 11 35 12
REMARK SMILES IDX 36 13 86 14 37 15 91 16 85 17 87 18 38 19 90 20 84 21 83 22
REMARK SMILES IDX 39 24 71 25 51 26 70 27 52 28 55 29 69 30 88 31 53 32 54 33
REMARK SMILES IDX 68 35 89 36 56 37 40 38 41 39 49 40 42 41 43 42 47 43 50 44
REMARK SMILES IDX 44 45 45 46 48 47 46 48 72 49 73 50 81 51 74 52 75 53 79 54
REMARK SMILES IDX 82 55 76 56 77 57 80 58 78 59 57 60 58 61 66 62 59 63 60 64
REMARK SMILES IDX 64 65 67 66 61 67 62 68 65 69 63 70 6 71 7 72 8 73 9 74
REMARK SMILES IDX 10 75 26 76 11 77 25 78 27 79 24 80 30 81 28 82 29 83 12 84
REMARK SMILES IDX 13 85 14 86 15 87 16 89 17 90 22 91 18 92 21 93 23 94 19 95
REMARK SMILES IDX 20 96
REMARK H PARENT 87 23 55 34 15 88
REMARK Flexibility Score: inf
ROOT
ATOM      1  C   UNL     1       3.933   2.023   1.120  1.00  0.00     0.275 C 
ENDROOT
BRANCH   1   2
ATOM      2  C   UNL     1       4.543   1.633  -0.238  1.00  0.00     0.275 C 
BRANCH   2   3
ATOM      3  O   UNL     1       3.836   0.685  -1.058  1.00  0.00    -0.458 OA
BRANCH   3   4
ATOM      4  C   UNL     1       3.167  -0.361  -0.533  1.00  0.00     0.338 C 
ATOM      5  O   UNL     1       1.954  -0.463  -0.660  1.00  0.00    -0.246 OA
BRANCH   4   6
ATOM      6  C   UNL     1       3.951  -1.473   0.083  1.00  0.00     0.060 A 
ATOM      7  C   UNL     1       5.203  -1.330   0.676  1.00  0.00     0.016 A 
ATOM      8  C   UNL     1       3.320  -2.724   0.159  1.00  0.00     0.016 A 
ATOM      9  C   UNL     1       5.801  -2.398   1.334  1.00  0.00     0.010 A 
ATOM     10  C   UNL     1       3.885  -3.784   0.862  1.00  0.00     0.010 A 
ATOM     11  C   UNL     1       5.137  -3.623   1.447  1.00  0.00    -0.014 A 
BRANCH  11  12
ATOM     12  C   UNL     1       5.804  -4.720   2.170  1.00  0.00     0.031 A 
ATOM     13  C   UNL     1       6.394  -5.845   1.400  1.00  0.00     0.074 A 
ATOM     14  C   UNL     1       5.965  -4.617   3.501  1.00  0.00     0.049 A 
ATOM     15  N   UNL     1       7.204  -6.778   1.818  1.00  0.00    -0.248 NA
ATOM     16  C   UNL     1       6.050  -5.927  -0.027  1.00  0.00     0.031 C 
ATOM     17  C   UNL     1       5.415  -3.529   4.298  1.00  0.00     0.029 A 
ATOM     18  N   UNL     1       6.650  -5.379   4.407  1.00  0.00    -0.354 N 
ATOM     19  C   UNL     1       7.488  -7.543   0.701  1.00  0.00     0.074 A 
ATOM     20  C   UNL     1       6.719  -7.007  -0.400  1.00  0.00     0.031 C 
ATOM     21  C   UNL     1       5.817  -3.663   5.568  1.00  0.00     0.029 A 
ATOM     22  C   UNL     1       6.627  -4.863   5.681  1.00  0.00     0.049 A 
ATOM     23  H   UNL     1       7.113  -6.215   4.171  1.00  0.00     0.167 HD
ATOM     24  C   UNL     1       8.343  -8.585   0.614  1.00  0.00     0.037 A 
ATOM     25  C   UNL     1       7.207  -5.293   6.816  1.00  0.00     0.037 A 
ATOM     26  C   UNL     1       9.061  -9.106   1.746  1.00  0.00     0.049 A 
ATOM     27  C   UNL     1       8.102  -6.487   6.712  1.00  0.00     0.074 A 
ATOM     28  C   UNL     1       9.939 -10.170   1.796  1.00  0.00     0.029 A 
ATOM     29  N   UNL     1       8.960  -8.602   3.041  1.00  0.00    -0.354 N 
ATOM     30  N   UNL     1       8.408  -7.179   5.640  1.00  0.00    -0.248 NA
ATOM     31  C   UNL     1       8.747  -6.952   7.942  1.00  0.00     0.031 C 
ATOM     32  C   UNL     1      10.323 -10.347   3.130  1.00  0.00     0.029 A 
ATOM     33  C   UNL     1       9.737  -9.355   3.904  1.00  0.00     0.049 A 
ATOM     34  H   UNL     1       8.417  -7.824   3.303  1.00  0.00     0.167 HD
ATOM     35  C   UNL     1       9.293  -8.155   6.055  1.00  0.00     0.074 A 
ATOM     36  C   UNL     1       9.486  -7.955   7.482  1.00  0.00     0.031 C 
ATOM     37  C   UNL     1       9.893  -9.125   5.323  1.00  0.00     0.037 A 
BRANCH  24  38
ATOM     38  C   UNL     1       8.485  -9.228  -0.732  1.00  0.00     0.064 A 
ATOM     39  C   UNL     1       7.960 -10.506  -0.966  1.00  0.00     0.173 A 
ATOM     40  C   UNL     1       9.091  -8.559  -1.809  1.00  0.00     0.173 A 
ATOM     41  F   UNL     1       7.364 -11.184   0.025  1.00  0.00    -0.203 F 
ATOM     42  C   UNL     1       8.025 -11.087  -2.230  1.00  0.00     0.198 A 
ATOM     43  C   UNL     1       9.126  -9.131  -3.079  1.00  0.00     0.198 A 
ATOM     44  F   UNL     1       9.584  -7.322  -1.646  1.00  0.00    -0.203 F 
ATOM     45  F   UNL     1       7.516 -12.310  -2.429  1.00  0.00    -0.200 F 
ATOM     46  C   UNL     1       8.597 -10.395  -3.287  1.00  0.00     0.200 A 
ATOM     47  F   UNL     1       9.644  -8.444  -4.107  1.00  0.00    -0.200 F 
ATOM     48  F   UNL     1       8.622 -10.940  -4.511  1.00  0.00    -0.200 F 
ENDBRANCH  24  38
BRANCH  25  49
ATOM     49  C   UNL     1       6.982  -4.545   8.082  1.00  0.00     0.064 A 
ATOM     50  C   UNL     1       5.710  -4.502   8.677  1.00  0.00     0.173 A 
ATOM     51  C   UNL     1       7.991  -3.760   8.657  1.00  0.00     0.173 A 
ATOM     52  F   UNL     1       4.702  -5.216   8.156  1.00  0.00    -0.203 F 
ATOM     53  C   UNL     1       5.447  -3.675   9.768  1.00  0.00     0.198 A 
ATOM     54  C   UNL     1       7.733  -2.952   9.766  1.00  0.00     0.198 A 
ATOM     55  F   UNL     1       9.223  -3.761   8.129  1.00  0.00    -0.203 F 
ATOM     56  F   UNL     1       4.206  -3.600  10.267  1.00  0.00    -0.200 F 
ATOM     57  C   UNL     1       6.459  -2.900  10.312  1.00  0.00     0.200 A 
ATOM     58  F   UNL     1       8.713  -2.205  10.291  1.00  0.00    -0.200 F 
ATOM     59  F   UNL     1       6.202  -2.089  11.347  1.00  0.00    -0.200 F 
ENDBRANCH  25  49
BRANCH  37  60
ATOM     60  C   UNL     1      10.821 -10.042   6.053  1.00  0.00     0.064 A 
ATOM     61  C   UNL     1      12.202  -9.976   5.820  1.00  0.00     0.173 A 
ATOM     62  C   UNL     1      10.337 -11.043   6.905  1.00  0.00     0.173 A 
ATOM     63  F   UNL     1      12.707  -9.033   5.010  1.00  0.00    -0.203 F 
ATOM     64  C   UNL     1      13.065 -10.901   6.395  1.00  0.00     0.198 A 
ATOM     65  C   UNL     1      11.207 -11.948   7.503  1.00  0.00     0.198 A 
ATOM     66  F   UNL     1       9.024 -11.129   7.170  1.00  0.00    -0.203 F 
ATOM     67  F   UNL     1      14.376 -10.848   6.124  1.00  0.00    -0.200 F 
ATOM     68  C   UNL     1      12.567 -11.885   7.236  1.00  0.00     0.200 A 
ATOM     69  F   UNL     1      10.730 -12.882   8.336  1.00  0.00    -0.200 F 
ATOM     70  F   UNL     1      13.401 -12.774   7.792  1.00  0.00    -0.200 F 
ENDBRANCH  37  60
ENDBRANCH  11  12
ENDBRANCH   4   6
ENDBRANCH   3   4
ENDBRANCH   2   3
ENDBRANCH   1   2
BRANCH   1  71
ATOM     71  O   UNL     1       3.473   0.906   1.899  1.00  0.00    -0.458 OA
BRANCH  71  72
ATOM     72  C   UNL     1       2.144   0.879   2.200  1.00  0.00     0.342 C 
ATOM     73  O   UNL     1       1.300   1.701   1.882  1.00  0.00    -0.246 OA
BRANCH  72  74
ATOM     74  C   UNL     1       1.825  -0.394   2.878  1.00  0.00     0.107 A 
ATOM     75  C   UNL     1       0.912  -1.281   2.268  1.00  0.00     0.042 A 
ATOM     76  C   UNL     1       2.448  -0.723   4.087  1.00  0.00     0.175 A 
ATOM     77  C   UNL     1       0.700  -2.542   2.828  1.00  0.00     0.092 A 
ATOM     78  C   UNL     1       2.171  -1.961   4.673  1.00  0.00     0.163 A 
ATOM     79  O   UNL     1       3.285   0.198   4.664  1.00  0.00    -0.485 OA
ATOM     80  C   UNL     1       1.332  -2.877   4.036  1.00  0.00     0.072 A 
ATOM     81  O   UNL     1       2.720  -2.366   5.862  1.00  0.00    -0.486 OA
ATOM     82  C   UNL     1       4.084  -0.358   5.709  1.00  0.00     0.271 C 
ATOM     83  C   UNL     1       3.257  -1.267   6.602  1.00  0.00     0.271 C 
BRANCH  77  84
ATOM     84  S   UNL     1      -0.294  -3.824   2.079  1.00  0.00     0.262 S 
ATOM     85  O   UNL     1       0.627  -4.688   1.372  1.00  0.00    -0.201 OA
ATOM     86  O   UNL     1      -1.129  -4.343   3.144  1.00  0.00    -0.201 OA
BRANCH  84  87
ATOM     87  N   UNL     1      -1.366  -3.143   1.001  1.00  0.00    -0.277 N 
ATOM     88  H   UNL     1      -2.320  -3.162   1.245  1.00  0.00     0.180 HD
BRANCH  87  89
ATOM     89  C   UNL     1      -1.029  -2.536  -0.242  1.00  0.00     0.087 A 
ATOM     90  C   UNL     1      -0.095  -3.070  -1.123  1.00  0.00     0.069 A 
ATOM     91  C   UNL     1      -1.704  -1.363  -0.604  1.00  0.00     0.147 A 
ATOM     92  C   UNL     1       0.243  -2.362  -2.277  1.00  0.00     0.125 A 
ATOM     93  C   UNL     1      -1.377  -0.664  -1.763  1.00  0.00     0.044 A 
ATOM     94  F   UNL     1      -2.668  -0.883   0.197  1.00  0.00    -0.205 F 
ATOM     95  F   UNL     1       1.221  -2.829  -3.066  1.00  0.00    -0.207 F 
ATOM     96  C   UNL     1      -0.375  -1.156  -2.595  1.00  0.00     0.042 A 
ENDBRANCH  87  89
ENDBRANCH  84  87
ENDBRANCH  77  84
ENDBRANCH  72  74
ENDBRANCH  71  72
ENDBRANCH   1  71
TORSDOF 14
