REMARK SMILES CCOc1c(Br)cc(CCC(=O)OCCOC(=O)c2ccc(-c3c4nc(c(-c5c(F)c(F)c(F)c(F)c5F)c5ccc([nH]5)c(-c5c(F)c(F)c(F)c(F)c5F)c5nc(c(-c6c(F)c(F)c(F)c(F)c6F)c6ccc3[nH]6)C=C5)C=C4)cc2)cc1OC
REMARK SMILES IDX 14 1 13 2 11 3 12 4 10 5 9 6 8 7 4 8 5 9 83 10 6 11 7 12
REMARK SMILES IDX 82 13 3 14 2 15 1 16 84 17 85 18 15 19 16 20 17 21 18 22
REMARK SMILES IDX 19 23 20 24 81 25 21 26 80 27 22 28 23 29 24 30 74 31 25 32
REMARK SMILES IDX 79 33 73 34 75 35 26 36 78 37 72 38 71 39 27 41 59 42 39 43
REMARK SMILES IDX 58 44 40 45 43 46 57 47 76 48 41 49 42 50 56 52 77 53 44 54
REMARK SMILES IDX 28 55 29 56 37 57 30 58 31 59 35 60 38 61 32 62 33 63 36 64
REMARK SMILES IDX 34 65 60 66 61 67 69 68 62 69 63 70 67 71 70 72 64 73 65 74
REMARK SMILES IDX 68 75 66 76 45 77 46 78 54 79 47 80 48 81 52 82 55 83 49 84
REMARK SMILES IDX 50 85 53 86 51 87
REMARK H PARENT 75 40 43 51
REMARK Flexibility Score: inf
ROOT
ATOM      1  C   UNL     1       5.843  -0.828   0.678  1.00  0.00     0.274 C 
ENDROOT
BRANCH   1   2
ATOM      2  O   UNL     1       5.805   0.555   0.277  1.00  0.00    -0.462 OA
BRANCH   2   3
ATOM      3  C   UNL     1       6.905   1.306   0.523  1.00  0.00     0.306 C 
ATOM      4  O   UNL     1       7.911   0.908   1.097  1.00  0.00    -0.252 OA
BRANCH   3   5
ATOM      5  C   UNL     1       6.742   2.739   0.062  1.00  0.00     0.127 C 
BRANCH   5   6
ATOM      6  C   UNL     1       6.305   2.905  -1.397  1.00  0.00     0.047 C 
BRANCH   6   7
ATOM      7  C   UNL     1       4.819   2.713  -1.576  1.00  0.00    -0.042 A 
ATOM      8  C   UNL     1       2.069   2.167  -1.486  1.00  0.00     0.175 A 
ATOM      9  C   UNL     1       2.949   1.258  -2.085  1.00  0.00     0.064 A 
ATOM     10  C   UNL     1       2.545   3.424  -1.087  1.00  0.00     0.162 A 
ATOM     11  Br  UNL     1       2.358  -0.408  -2.780  1.00  0.00    -0.047 Br
ATOM     12  C   UNL     1       4.315   1.535  -2.136  1.00  0.00     0.023 A 
ATOM     13  C   UNL     1       3.920   3.675  -1.101  1.00  0.00     0.054 A 
BRANCH   8  14
ATOM     14  O   UNL     1       0.763   1.794  -1.289  1.00  0.00    -0.489 OA
BRANCH  14  15
ATOM     15  C   UNL     1       0.482   1.579   0.105  1.00  0.00     0.226 C 
ATOM     16  C   UNL     1       0.680   0.121   0.485  1.00  0.00     0.049 C 
ENDBRANCH  14  15
ENDBRANCH   8  14
BRANCH  10  17
ATOM     17  O   UNL     1       1.786   4.449  -0.587  1.00  0.00    -0.493 OA
ATOM     18  C   UNL     1       0.540   4.653  -1.251  1.00  0.00     0.278 C 
ENDBRANCH  10  17
ENDBRANCH   6   7
ENDBRANCH   5   6
ENDBRANCH   3   5
ENDBRANCH   2   3
ENDBRANCH   1   2
BRANCH   1  19
ATOM     19  C   UNL     1       6.251  -1.737  -0.483  1.00  0.00     0.275 C 
BRANCH  19  20
ATOM     20  O   UNL     1       7.654  -1.598  -0.775  1.00  0.00    -0.458 OA
BRANCH  20  21
ATOM     21  C   UNL     1       7.959  -0.814  -1.830  1.00  0.00     0.338 C 
ATOM     22  O   UNL     1       7.192  -0.268  -2.607  1.00  0.00    -0.246 OA
BRANCH  21  23
ATOM     23  C   UNL     1       9.408  -0.596  -1.867  1.00  0.00     0.060 A 
ATOM     24  C   UNL     1       9.898   0.678  -1.567  1.00  0.00     0.016 A 
ATOM     25  C   UNL     1      10.269  -1.621  -2.263  1.00  0.00     0.016 A 
ATOM     26  C   UNL     1      11.263   0.934  -1.654  1.00  0.00     0.010 A 
ATOM     27  C   UNL     1      11.638  -1.363  -2.349  1.00  0.00     0.010 A 
ATOM     28  C   UNL     1      12.140  -0.084  -2.051  1.00  0.00    -0.014 A 
BRANCH  28  29
ATOM     29  C   UNL     1      13.586   0.197  -2.185  1.00  0.00     0.031 A 
ATOM     30  C   UNL     1      14.190   0.369  -3.546  1.00  0.00     0.074 A 
ATOM     31  C   UNL     1      14.350   0.288  -1.081  1.00  0.00     0.049 A 
ATOM     32  N   UNL     1      15.444   0.532  -3.882  1.00  0.00    -0.248 NA
ATOM     33  C   UNL     1      13.256   0.353  -4.683  1.00  0.00     0.031 C 
ATOM     34  C   UNL     1      13.861   0.168   0.292  1.00  0.00     0.029 A 
ATOM     35  N   UNL     1      15.699   0.491  -0.943  1.00  0.00    -0.354 N 
ATOM     36  C   UNL     1      15.453   0.623  -5.267  1.00  0.00     0.074 A 
ATOM     37  C   UNL     1      14.083   0.479  -5.712  1.00  0.00     0.031 C 
ATOM     38  C   UNL     1      14.899   0.292   1.136  1.00  0.00     0.029 A 
ATOM     39  C   UNL     1      16.125   0.460   0.361  1.00  0.00     0.049 A 
ATOM     40  H   UNL     1      16.302   0.644  -1.706  1.00  0.00     0.167 HD
ATOM     41  C   UNL     1      16.513   0.812  -6.088  1.00  0.00     0.037 A 
ATOM     42  C   UNL     1      17.370   0.532   0.867  1.00  0.00     0.037 A 
ATOM     43  C   UNL     1      17.872   0.959  -5.636  1.00  0.00     0.049 A 
ATOM     44  C   UNL     1      18.535   0.691  -0.071  1.00  0.00     0.074 A 
ATOM     45  C   UNL     1      19.015   1.170  -6.387  1.00  0.00     0.029 A 
ATOM     46  N   UNL     1      18.270   0.908  -4.307  1.00  0.00    -0.354 N 
ATOM     47  N   UNL     1      18.537   0.785  -1.379  1.00  0.00    -0.248 NA
ATOM     48  C   UNL     1      19.871   0.752   0.537  1.00  0.00     0.031 C 
ATOM     49  C   UNL     1      20.110   1.208  -5.516  1.00  0.00     0.029 A 
ATOM     50  C   UNL     1      19.644   1.064  -4.218  1.00  0.00     0.049 A 
ATOM     51  H   UNL     1      17.665   0.780  -3.541  1.00  0.00     0.167 HD
ATOM     52  C   UNL     1      19.866   0.937  -1.749  1.00  0.00     0.074 A 
ATOM     53  C   UNL     1      20.642   0.936  -0.526  1.00  0.00     0.031 C 
ATOM     54  C   UNL     1      20.396   1.064  -2.990  1.00  0.00     0.037 A 
BRANCH  41  55
ATOM     55  C   UNL     1      16.248   0.846  -7.563  1.00  0.00     0.064 A 
ATOM     56  C   UNL     1      15.623   1.943  -8.174  1.00  0.00     0.173 A 
ATOM     57  C   UNL     1      16.653  -0.220  -8.381  1.00  0.00     0.173 A 
ATOM     58  F   UNL     1      15.204   2.980  -7.433  1.00  0.00    -0.203 F 
ATOM     59  C   UNL     1      15.396   1.963  -9.548  1.00  0.00     0.198 A 
ATOM     60  C   UNL     1      16.446  -0.185  -9.758  1.00  0.00     0.198 A 
ATOM     61  F   UNL     1      17.257  -1.291  -7.846  1.00  0.00    -0.203 F 
ATOM     62  F   UNL     1      14.762   3.005 -10.105  1.00  0.00    -0.200 F 
ATOM     63  C   UNL     1      15.813   0.903 -10.339  1.00  0.00     0.200 A 
ATOM     64  F   UNL     1      16.858  -1.206 -10.522  1.00  0.00    -0.200 F 
ATOM     65  F   UNL     1      15.598   0.927 -11.662  1.00  0.00    -0.200 F 
ENDBRANCH  41  55
BRANCH  42  66
ATOM     66  C   UNL     1      17.577   0.440   2.335  1.00  0.00     0.064 A 
ATOM     67  C   UNL     1      17.990   1.555   3.075  1.00  0.00     0.173 A 
ATOM     68  C   UNL     1      17.364  -0.762   3.025  1.00  0.00     0.173 A 
ATOM     69  F   UNL     1      18.230   2.720   2.455  1.00  0.00    -0.203 F 
ATOM     70  C   UNL     1      18.195   1.468   4.451  1.00  0.00     0.198 A 
ATOM     71  C   UNL     1      17.545  -0.841   4.404  1.00  0.00     0.198 A 
ATOM     72  F   UNL     1      16.970  -1.858   2.361  1.00  0.00    -0.203 F 
ATOM     73  F   UNL     1      18.629   2.539   5.130  1.00  0.00    -0.200 F 
ATOM     74  C   UNL     1      17.966   0.272   5.115  1.00  0.00     0.200 A 
ATOM     75  F   UNL     1      17.313  -1.996   5.043  1.00  0.00    -0.200 F 
ATOM     76  F   UNL     1      18.160   0.191   6.438  1.00  0.00    -0.200 F 
ENDBRANCH  42  66
BRANCH  54  77
ATOM     77  C   UNL     1      21.882   1.243  -3.083  1.00  0.00     0.064 A 
ATOM     78  C   UNL     1      22.764   0.174  -2.864  1.00  0.00     0.173 A 
ATOM     79  C   UNL     1      22.427   2.488  -3.430  1.00  0.00     0.173 A 
ATOM     80  F   UNL     1      22.290  -1.031  -2.514  1.00  0.00    -0.203 F 
ATOM     81  C   UNL     1      24.141   0.352  -2.970  1.00  0.00     0.198 A 
ATOM     82  C   UNL     1      23.802   2.656  -3.559  1.00  0.00     0.198 A 
ATOM     83  F   UNL     1      21.624   3.539  -3.653  1.00  0.00    -0.203 F 
ATOM     84  F   UNL     1      24.968  -0.671  -2.716  1.00  0.00    -0.200 F 
ATOM     85  C   UNL     1      24.658   1.590  -3.323  1.00  0.00     0.200 A 
ATOM     86  F   UNL     1      24.300   3.849  -3.910  1.00  0.00    -0.200 F 
ATOM     87  F   UNL     1      25.983   1.758  -3.428  1.00  0.00    -0.200 F 
ENDBRANCH  54  77
ENDBRANCH  28  29
ENDBRANCH  21  23
ENDBRANCH  20  21
ENDBRANCH  19  20
ENDBRANCH   1  19
TORSDOF 16
