REMARK SMILES O=C(OCCOC(=O)[C@H]1CC[C@@H]2CCCC[C@H]2N1C(=O)Cn1cnnn1)c1ccc(-c2c3nc(c(-c4c(F)c(F)c(F)c(F)c4F)c4ccc([nH]4)c(-c4c(F)c(F)c(F)c(F)c4F)c4nc(c(-c5c(F)c(F)c(F)c(F)c5F)c5ccc2[nH]5)C=C4)C=C3)cc1
REMARK SMILES IDX 5 1 4 2 3 3 2 4 1 5 27 6 28 7 89 8 29 9 88 10 30 11 31 12
REMARK SMILES IDX 32 13 82 14 33 15 87 16 81 17 83 18 34 19 86 20 80 21 79 22
REMARK SMILES IDX 35 24 67 25 47 26 66 27 48 28 51 29 65 30 84 31 49 32 50 33
REMARK SMILES IDX 64 35 85 36 52 37 36 38 37 39 45 40 38 41 39 42 43 43 46 44
REMARK SMILES IDX 40 45 41 46 44 47 42 48 68 49 69 50 77 51 70 52 71 53 75 54
REMARK SMILES IDX 78 55 72 56 73 57 76 58 74 59 53 60 54 61 62 62 55 63 56 64
REMARK SMILES IDX 60 65 63 66 57 67 58 68 61 69 59 70 6 71 7 72 8 73 9 74
REMARK SMILES IDX 10 75 18 76 11 77 17 78 12 79 16 80 13 81 15 82 14 83 19 84
REMARK SMILES IDX 20 85 21 86 22 87 23 88 26 89 24 90 25 91
REMARK H PARENT 83 23 51 34
REMARK Flexibility Score: inf
ROOT
ATOM      1  C   UNL     1      -0.470  -0.646  -2.489  1.00  0.00     0.274 C 
ENDROOT
BRANCH   1   2
ATOM      2  C   UNL     1      -1.124  -0.967  -1.132  1.00  0.00     0.275 C 
BRANCH   2   3
ATOM      3  O   UNL     1      -0.250  -0.702  -0.037  1.00  0.00    -0.458 OA
BRANCH   3   4
ATOM      4  C   UNL     1      -0.091   0.619   0.181  1.00  0.00     0.338 C 
ATOM      5  O   UNL     1      -0.711   1.515  -0.378  1.00  0.00    -0.246 OA
BRANCH   4   6
ATOM      6  C   UNL     1       1.014   0.882   1.098  1.00  0.00     0.060 A 
ATOM      7  C   UNL     1       1.802  -0.159   1.581  1.00  0.00     0.016 A 
ATOM      8  C   UNL     1       1.270   2.213   1.454  1.00  0.00     0.016 A 
ATOM      9  C   UNL     1       2.774   0.138   2.507  1.00  0.00     0.010 A 
ATOM     10  C   UNL     1       2.301   2.523   2.306  1.00  0.00     0.010 A 
ATOM     11  C   UNL     1       2.999   1.476   2.875  1.00  0.00    -0.014 A 
BRANCH  11  12
ATOM     12  C   UNL     1       4.107   1.748   3.760  1.00  0.00     0.031 A 
ATOM     13  C   UNL     1       5.376   1.230   3.208  1.00  0.00     0.074 A 
ATOM     14  C   UNL     1       3.978   2.379   4.939  1.00  0.00     0.049 A 
ATOM     15  N   UNL     1       5.927   0.107   3.527  1.00  0.00    -0.248 NA
ATOM     16  C   UNL     1       5.938   1.852   2.000  1.00  0.00     0.031 C 
ATOM     17  C   UNL     1       2.839   3.125   5.473  1.00  0.00     0.029 A 
ATOM     18  N   UNL     1       4.910   2.498   5.922  1.00  0.00    -0.354 N 
ATOM     19  C   UNL     1       7.049  -0.006   2.721  1.00  0.00     0.074 A 
ATOM     20  C   UNL     1       6.884   0.967   1.673  1.00  0.00     0.031 C 
ATOM     21  C   UNL     1       3.225   3.803   6.581  1.00  0.00     0.029 A 
ATOM     22  C   UNL     1       4.579   3.406   6.922  1.00  0.00     0.049 A 
ATOM     23  H   UNL     1       5.749   1.984   5.925  1.00  0.00     0.167 HD
ATOM     24  C   UNL     1       8.133  -0.676   3.198  1.00  0.00     0.037 A 
ATOM     25  C   UNL     1       5.404   3.805   7.923  1.00  0.00     0.037 A 
ATOM     26  C   UNL     1       7.738  -1.562   4.276  1.00  0.00     0.049 A 
ATOM     27  C   UNL     1       6.439   2.744   8.081  1.00  0.00     0.074 A 
ATOM     28  C   UNL     1       6.862  -2.627   4.386  1.00  0.00     0.029 A 
ATOM     29  N   UNL     1       7.950  -1.124   5.562  1.00  0.00    -0.354 N 
ATOM     30  N   UNL     1       6.167   1.546   8.523  1.00  0.00    -0.248 NA
ATOM     31  C   UNL     1       7.640   2.852   7.266  1.00  0.00     0.031 C 
ATOM     32  C   UNL     1       6.235  -2.465   5.659  1.00  0.00     0.029 A 
ATOM     33  C   UNL     1       6.822  -1.373   6.298  1.00  0.00     0.049 A 
ATOM     34  H   UNL     1       8.774  -0.703   5.897  1.00  0.00     0.167 HD
ATOM     35  C   UNL     1       6.876   0.695   7.688  1.00  0.00     0.074 A 
ATOM     36  C   UNL     1       7.816   1.559   6.973  1.00  0.00     0.031 C 
ATOM     37  C   UNL     1       6.427  -0.571   7.433  1.00  0.00     0.037 A 
BRANCH  24  38
ATOM     38  C   UNL     1       9.548  -0.154   3.059  1.00  0.00     0.064 A 
ATOM     39  C   UNL     1      10.587  -0.883   3.674  1.00  0.00     0.173 A 
ATOM     40  C   UNL     1       9.887   1.160   2.666  1.00  0.00     0.173 A 
ATOM     41  F   UNL     1      10.389  -2.147   4.079  1.00  0.00    -0.203 F 
ATOM     42  C   UNL     1      11.812  -0.295   3.995  1.00  0.00     0.198 A 
ATOM     43  C   UNL     1      11.125   1.729   2.950  1.00  0.00     0.198 A 
ATOM     44  F   UNL     1       9.020   1.993   2.084  1.00  0.00    -0.203 F 
ATOM     45  F   UNL     1      12.708  -0.981   4.716  1.00  0.00    -0.200 F 
ATOM     46  C   UNL     1      12.073   1.017   3.649  1.00  0.00     0.200 A 
ATOM     47  F   UNL     1      11.350   3.008   2.615  1.00  0.00    -0.200 F 
ATOM     48  F   UNL     1      13.213   1.609   4.024  1.00  0.00    -0.200 F 
ENDBRANCH  24  38
BRANCH  25  49
ATOM     49  C   UNL     1       5.581   5.173   8.469  1.00  0.00     0.064 A 
ATOM     50  C   UNL     1       6.320   5.392   9.645  1.00  0.00     0.173 A 
ATOM     51  C   UNL     1       5.288   6.313   7.695  1.00  0.00     0.173 A 
ATOM     52  F   UNL     1       6.683   4.357  10.415  1.00  0.00    -0.203 F 
ATOM     53  C   UNL     1       6.765   6.669  10.006  1.00  0.00     0.198 A 
ATOM     54  C   UNL     1       5.730   7.586   8.058  1.00  0.00     0.198 A 
ATOM     55  F   UNL     1       4.653   6.201   6.520  1.00  0.00    -0.203 F 
ATOM     56  F   UNL     1       7.523   6.829  11.101  1.00  0.00    -0.200 F 
ATOM     57  C   UNL     1       6.480   7.763   9.206  1.00  0.00     0.200 A 
ATOM     58  F   UNL     1       5.482   8.630   7.254  1.00  0.00    -0.200 F 
ATOM     59  F   UNL     1       6.962   8.975   9.515  1.00  0.00    -0.200 F 
ENDBRANCH  25  49
BRANCH  37  60
ATOM     60  C   UNL     1       5.309  -1.100   8.289  1.00  0.00     0.064 A 
ATOM     61  C   UNL     1       4.015  -0.552   8.342  1.00  0.00     0.173 A 
ATOM     62  C   UNL     1       5.532  -2.292   8.992  1.00  0.00     0.173 A 
ATOM     63  F   UNL     1       3.691   0.527   7.618  1.00  0.00    -0.203 F 
ATOM     64  C   UNL     1       3.009  -1.147   9.106  1.00  0.00     0.198 A 
ATOM     65  C   UNL     1       4.518  -2.903   9.722  1.00  0.00     0.198 A 
ATOM     66  F   UNL     1       6.731  -2.891   8.932  1.00  0.00    -0.203 F 
ATOM     67  F   UNL     1       1.786  -0.598   9.154  1.00  0.00    -0.200 F 
ATOM     68  C   UNL     1       3.261  -2.324   9.791  1.00  0.00     0.200 A 
ATOM     69  F   UNL     1       4.754  -4.069  10.339  1.00  0.00    -0.200 F 
ATOM     70  F   UNL     1       2.287  -2.917  10.495  1.00  0.00    -0.200 F 
ENDBRANCH  37  60
ENDBRANCH  11  12
ENDBRANCH   4   6
ENDBRANCH   3   4
ENDBRANCH   2   3
ENDBRANCH   1   2
BRANCH   1  71
ATOM     71  O   UNL     1       0.743   0.141  -2.347  1.00  0.00    -0.461 OA
BRANCH  71  72
ATOM     72  C   UNL     1       0.808   1.333  -3.012  1.00  0.00     0.328 C 
ATOM     73  O   UNL     1      -0.022   1.701  -3.827  1.00  0.00    -0.250 OA
BRANCH  72  74
ATOM     74  C   UNL     1       2.125   2.084  -2.693  1.00  0.00     0.195 C 
ATOM     75  C   UNL     1       2.798   2.123  -4.095  1.00  0.00     0.037 C 
ATOM     76  N   UNL     1       2.332   3.436  -2.030  1.00  0.00    -0.324 N 
ATOM     77  C   UNL     1       4.256   2.542  -4.066  1.00  0.00     0.008 C 
ATOM     78  C   UNL     1       3.826   3.764  -1.917  1.00  0.00     0.089 C 
ATOM     79  C   UNL     1       4.416   3.879  -3.345  1.00  0.00     0.012 C 
ATOM     80  C   UNL     1       4.272   4.975  -1.054  1.00  0.00     0.025 C 
ATOM     81  C   UNL     1       5.894   4.296  -3.396  1.00  0.00     0.006 C 
ATOM     82  C   UNL     1       5.756   5.320  -1.147  1.00  0.00     0.002 C 
ATOM     83  C   UNL     1       6.160   5.554  -2.589  1.00  0.00     0.000 C 
BRANCH  76  84
ATOM     84  C   UNL     1       1.432   4.172  -1.266  1.00  0.00     0.245 C 
ATOM     85  O   UNL     1       1.863   4.866  -0.324  1.00  0.00    -0.273 OA
BRANCH  84  86
ATOM     86  C   UNL     1      -0.074   4.237  -1.327  1.00  0.00     0.248 C 
BRANCH  86  87
ATOM     87  N   UNL     1      -0.819   4.059  -2.538  1.00  0.00    -0.223 N 
ATOM     88  C   UNL     1      -1.937   3.282  -2.669  1.00  0.00     0.246 A 
ATOM     89  N   UNL     1      -0.843   5.024  -3.472  1.00  0.00    -0.045 NA
ATOM     90  N   UNL     1      -2.621   3.698  -3.707  1.00  0.00    -0.117 NA
ATOM     91  N   UNL     1      -1.927   4.778  -4.197  1.00  0.00    -0.024 NA
ENDBRANCH  86  87
ENDBRANCH  84  86
ENDBRANCH  76  84
ENDBRANCH  72  74
ENDBRANCH  71  72
ENDBRANCH   1  71
TORSDOF 14
