REMARK SMILES CC(C)N1C[C@@]2(CCCN(c3ccc(C(=O)OCCOC(=O)c4ccc(-c5c6nc(c(-c7c(F)c(F)c(F)c(F)c7F)c7ccc([nH]7)c(-c7c(F)c(F)c(F)c(F)c7F)c7nc(c(-c8c(F)c(F)c(F)c(F)c8F)c8ccc5[nH]8)C=C7)C=C6)cc4)cn3)C2)CCC1=O
REMARK SMILES IDX 18 1 17 2 15 3 16 4 14 5 11 6 12 7 87 8 13 9 86 10 10 11
REMARK SMILES IDX 4 12 5 13 91 14 6 15 90 16 92 17 7 18 88 19 89 20 8 21 9 22
REMARK SMILES IDX 2 23 1 24 3 25 19 26 20 27 21 28 22 29 23 30 24 31 85 32
REMARK SMILES IDX 25 33 84 34 26 35 27 36 28 37 78 38 29 39 83 40 77 41 79 42
REMARK SMILES IDX 30 43 82 44 76 45 75 46 31 48 63 49 43 50 62 51 44 52 47 53
REMARK SMILES IDX 61 54 80 55 45 56 46 57 60 59 81 60 48 61 32 62 33 63 41 64
REMARK SMILES IDX 34 65 35 66 39 67 42 68 36 69 37 70 40 71 38 72 64 73 65 74
REMARK SMILES IDX 73 75 66 76 67 77 71 78 74 79 68 80 69 81 72 82 70 83 49 84
REMARK SMILES IDX 50 85 58 86 51 87 52 88 56 89 59 90 53 91 54 92 57 93 55 94
REMARK H PARENT 79 47 47 58
REMARK Flexibility Score: inf
ROOT
ATOM      1  C   UNL     1      -7.582   3.237   4.196  1.00  0.00     0.275 C 
ENDROOT
BRANCH   1   2
ATOM      2  O   UNL     1      -6.754   2.731   3.131  1.00  0.00    -0.458 OA
BRANCH   2   3
ATOM      3  C   UNL     1      -6.589   3.568   2.086  1.00  0.00     0.339 C 
ATOM      4  O   UNL     1      -7.051   4.691   1.950  1.00  0.00    -0.246 OA
BRANCH   3   5
ATOM      5  C   UNL     1      -5.781   2.932   1.051  1.00  0.00     0.078 A 
ATOM      6  C   UNL     1      -4.229   1.924  -1.007  1.00  0.00     0.128 A 
ATOM      7  C   UNL     1      -5.617   1.755  -1.020  1.00  0.00     0.048 A 
ATOM      8  N   UNL     1      -3.644   2.628  -0.016  1.00  0.00    -0.238 NA
ATOM      9  C   UNL     1      -6.399   2.238   0.028  1.00  0.00     0.021 A 
ATOM     10  C   UNL     1      -4.414   3.110   0.986  1.00  0.00     0.129 A 
BRANCH   6  11
ATOM     11  N   UNL     1      -3.392   1.281  -1.899  1.00  0.00    -0.356 N 
ATOM     12  N   UNL     1      -0.808  -1.230   0.771  1.00  0.00    -0.340 N 
ATOM     13  C   UNL     1      -1.407  -1.661  -0.492  1.00  0.00     0.128 C 
ATOM     14  C   UNL     1      -1.611  -0.928   1.868  1.00  0.00     0.222 C 
ATOM     15  C   UNL     1      -2.653  -0.865  -0.919  1.00  0.00     0.006 C 
ATOM     16  C   UNL     1      -2.989  -0.387   1.550  1.00  0.00     0.101 C 
ATOM     17  O   UNL     1      -1.236  -0.951   3.038  1.00  0.00    -0.275 OA
ATOM     18  C   UNL     1      -3.275  -1.557  -2.171  1.00  0.00     0.012 C 
ATOM     19  C   UNL     1      -2.242   0.587  -1.307  1.00  0.00     0.127 C 
ATOM     20  C   UNL     1      -3.612  -0.957   0.288  1.00  0.00     0.020 C 
ATOM     21  C   UNL     1      -4.300  -0.718  -2.949  1.00  0.00     0.022 C 
ATOM     22  C   UNL     1      -3.852   0.727  -3.160  1.00  0.00     0.118 C 
BRANCH  12  23
ATOM     23  C   UNL     1       0.669  -1.250   0.836  1.00  0.00     0.078 C 
ATOM     24  C   UNL     1       1.219  -0.004   0.134  1.00  0.00     0.031 C 
ATOM     25  C   UNL     1       1.306  -1.367   2.223  1.00  0.00     0.031 C 
ENDBRANCH  12  23
ENDBRANCH   6  11
ENDBRANCH   3   5
ENDBRANCH   2   3
ENDBRANCH   1   2
BRANCH   1  26
ATOM     26  C   UNL     1      -6.745   3.749   5.370  1.00  0.00     0.275 C 
BRANCH  26  27
ATOM     27  O   UNL     1      -5.975   4.910   5.002  1.00  0.00    -0.458 OA
BRANCH  27  28
ATOM     28  C   UNL     1      -4.694   4.644   4.662  1.00  0.00     0.338 C 
ATOM     29  O   UNL     1      -4.137   3.561   4.656  1.00  0.00    -0.246 OA
BRANCH  28  30
ATOM     30  C   UNL     1      -4.031   5.844   4.136  1.00  0.00     0.060 A 
ATOM     31  C   UNL     1      -4.101   6.063   2.766  1.00  0.00     0.016 A 
ATOM     32  C   UNL     1      -3.154   6.589   4.920  1.00  0.00     0.016 A 
ATOM     33  C   UNL     1      -3.202   6.915   2.147  1.00  0.00     0.010 A 
ATOM     34  C   UNL     1      -2.355   7.566   4.310  1.00  0.00     0.010 A 
ATOM     35  C   UNL     1      -2.349   7.718   2.910  1.00  0.00    -0.014 A 
BRANCH  35  36
ATOM     36  C   UNL     1      -1.479   8.710   2.221  1.00  0.00     0.031 A 
ATOM     37  C   UNL     1       0.011   8.694   2.420  1.00  0.00     0.074 A 
ATOM     38  C   UNL     1      -2.034   9.613   1.385  1.00  0.00     0.049 A 
ATOM     39  N   UNL     1       0.904   9.579   2.052  1.00  0.00    -0.248 NA
ATOM     40  C   UNL     1       0.574   7.540   3.137  1.00  0.00     0.031 C 
ATOM     41  C   UNL     1      -3.460   9.700   1.056  1.00  0.00     0.029 A 
ATOM     42  N   UNL     1      -1.470  10.624   0.648  1.00  0.00    -0.354 N 
ATOM     43  C   UNL     1       2.120   9.120   2.542  1.00  0.00     0.074 A 
ATOM     44  C   UNL     1       1.853   7.879   3.237  1.00  0.00     0.031 C 
ATOM     45  C   UNL     1      -3.650  10.666   0.150  1.00  0.00     0.029 A 
ATOM     46  C   UNL     1      -2.386  11.353  -0.071  1.00  0.00     0.049 A 
ATOM     47  H   UNL     1      -0.503  10.809   0.635  1.00  0.00     0.167 HD
ATOM     48  C   UNL     1       3.343   9.692   2.424  1.00  0.00     0.037 A 
ATOM     49  C   UNL     1      -2.247  12.489  -0.779  1.00  0.00     0.037 A 
ATOM     50  C   UNL     1       3.598  10.904   1.685  1.00  0.00     0.049 A 
ATOM     51  C   UNL     1      -0.894  13.133  -0.843  1.00  0.00     0.074 A 
ATOM     52  C   UNL     1       4.801  11.559   1.489  1.00  0.00     0.029 A 
ATOM     53  N   UNL     1       2.630  11.639   1.012  1.00  0.00    -0.354 N 
ATOM     54  N   UNL     1       0.241  12.725  -0.329  1.00  0.00    -0.248 NA
ATOM     55  C   UNL     1      -0.805  14.407  -1.565  1.00  0.00     0.031 C 
ATOM     56  C   UNL     1       4.553  12.717   0.744  1.00  0.00     0.029 A 
ATOM     57  C   UNL     1       3.206  12.754   0.422  1.00  0.00     0.049 A 
ATOM     58  H   UNL     1       1.676  11.402   0.961  1.00  0.00     0.167 HD
ATOM     59  C   UNL     1       1.181  13.682  -0.676  1.00  0.00     0.074 A 
ATOM     60  C   UNL     1       0.488  14.679  -1.467  1.00  0.00     0.031 C 
ATOM     61  C   UNL     1       2.499  13.734  -0.363  1.00  0.00     0.037 A 
BRANCH  48  62
ATOM     62  C   UNL     1       4.493   9.047   3.145  1.00  0.00     0.064 A 
ATOM     63  C   UNL     1       5.040   7.821   2.740  1.00  0.00     0.173 A 
ATOM     64  C   UNL     1       5.085   9.695   4.241  1.00  0.00     0.173 A 
ATOM     65  F   UNL     1       4.508   7.153   1.705  1.00  0.00    -0.203 F 
ATOM     66  C   UNL     1       6.117   7.255   3.420  1.00  0.00     0.198 A 
ATOM     67  C   UNL     1       6.182   9.143   4.899  1.00  0.00     0.198 A 
ATOM     68  F   UNL     1       4.609  10.874   4.668  1.00  0.00    -0.203 F 
ATOM     69  F   UNL     1       6.593   6.060   3.043  1.00  0.00    -0.200 F 
ATOM     70  C   UNL     1       6.692   7.920   4.493  1.00  0.00     0.200 A 
ATOM     71  F   UNL     1       6.745   9.797   5.924  1.00  0.00    -0.200 F 
ATOM     72  F   UNL     1       7.734   7.380   5.139  1.00  0.00    -0.200 F 
ENDBRANCH  48  62
BRANCH  49  73
ATOM     73  C   UNL     1      -3.435  13.115  -1.418  1.00  0.00     0.064 A 
ATOM     74  C   UNL     1      -3.543  13.208  -2.811  1.00  0.00     0.173 A 
ATOM     75  C   UNL     1      -4.492  13.626  -0.647  1.00  0.00     0.173 A 
ATOM     76  F   UNL     1      -2.549  12.758  -3.592  1.00  0.00    -0.203 F 
ATOM     77  C   UNL     1      -4.656  13.797  -3.409  1.00  0.00     0.198 A 
ATOM     78  C   UNL     1      -5.621  14.179  -1.246  1.00  0.00     0.198 A 
ATOM     79  F   UNL     1      -4.441  13.564   0.692  1.00  0.00    -0.203 F 
ATOM     80  F   UNL     1      -4.713  13.916  -4.742  1.00  0.00    -0.200 F 
ATOM     81  C   UNL     1      -5.698  14.273  -2.627  1.00  0.00     0.200 A 
ATOM     82  F   UNL     1      -6.633  14.618  -0.486  1.00  0.00    -0.200 F 
ATOM     83  F   UNL     1      -6.772  14.828  -3.203  1.00  0.00    -0.200 F 
ENDBRANCH  49  73
BRANCH  61  84
ATOM     84  C   UNL     1       3.280  14.892  -0.911  1.00  0.00     0.064 A 
ATOM     85  C   UNL     1       3.102  16.197  -0.426  1.00  0.00     0.173 A 
ATOM     86  C   UNL     1       4.231  14.690  -1.923  1.00  0.00     0.173 A 
ATOM     87  F   UNL     1       2.191  16.445   0.526  1.00  0.00    -0.203 F 
ATOM     88  C   UNL     1       3.826  17.260  -0.957  1.00  0.00     0.198 A 
ATOM     89  C   UNL     1       4.977  15.750  -2.426  1.00  0.00     0.198 A 
ATOM     90  F   UNL     1       4.441  13.461  -2.418  1.00  0.00    -0.203 F 
ATOM     91  F   UNL     1       3.599  18.507  -0.520  1.00  0.00    -0.200 F 
ATOM     92  C   UNL     1       4.768  17.035  -1.950  1.00  0.00     0.200 A 
ATOM     93  F   UNL     1       5.896  15.529  -3.377  1.00  0.00    -0.200 F 
ATOM     94  F   UNL     1       5.467  18.060  -2.457  1.00  0.00    -0.200 F 
ENDBRANCH  61  84
ENDBRANCH  35  36
ENDBRANCH  28  30
ENDBRANCH  27  28
ENDBRANCH  26  27
ENDBRANCH   1  26
TORSDOF 13
