REMARK SMILES O=C(OCCOC(=O)[C@]1([NH2+]C2CC2)CCC[C@H](SC[C@H](O)CO)C1)c1ccc(-c2c3nc(c(-c4c(F)c(F)c(F)c(F)c4F)c4ccc([nH]4)c(-c4c(F)c(F)c(F)c(F)c4F)c4nc(c(-c5c(F)c(F)c(F)c(F)c5F)c5ccc2[nH]5)C=C4)C=C3)cc1
REMARK SMILES IDX 6 1 5 2 4 3 3 4 2 5 1 6 25 7 26 8 87 9 27 10 86 11 28 12
REMARK SMILES IDX 29 13 30 14 80 15 31 16 85 17 79 18 81 19 32 20 84 21 78 22
REMARK SMILES IDX 77 23 33 25 65 26 45 27 64 28 46 29 49 30 63 31 82 32 47 33
REMARK SMILES IDX 48 34 62 36 83 37 50 38 34 39 35 40 43 41 36 42 37 43 41 44
REMARK SMILES IDX 44 45 38 46 39 47 42 48 40 49 66 50 67 51 75 52 68 53 69 54
REMARK SMILES IDX 73 55 76 56 70 57 71 58 74 59 72 60 51 61 52 62 60 63 53 64
REMARK SMILES IDX 54 65 58 66 61 67 55 68 56 69 59 70 57 71 7 72 8 73 9 74
REMARK SMILES IDX 14 75 24 76 15 77 17 78 16 79 10 80 11 83 12 84 13 85 18 86
REMARK SMILES IDX 19 87 20 88 22 89 23 90 21 92
REMARK H PARENT 81 24 49 35 10 81 10 82 23 91 21 93
REMARK Flexibility Score: inf
ROOT
ATOM      1  O   UNL     1       5.700   5.468   7.218  1.00  0.00    -0.457 OA
ENDROOT
BRANCH   1   2
ATOM      2  C   UNL     1       5.134   5.803   8.478  1.00  0.00     0.274 C 
BRANCH   2   3
ATOM      3  C   UNL     1       3.727   5.215   8.478  1.00  0.00     0.275 C 
BRANCH   3   4
ATOM      4  O   UNL     1       3.728   3.764   8.403  1.00  0.00    -0.458 OA
BRANCH   4   5
ATOM      5  C   UNL     1       3.851   2.918   7.351  1.00  0.00     0.338 C 
ATOM      6  O   UNL     1       4.059   1.725   7.571  1.00  0.00    -0.246 OA
BRANCH   5   7
ATOM      7  C   UNL     1       3.728   3.325   5.916  1.00  0.00     0.060 A 
ATOM      8  C   UNL     1       2.844   4.294   5.450  1.00  0.00     0.016 A 
ATOM      9  C   UNL     1       4.464   2.595   4.954  1.00  0.00     0.016 A 
ATOM     10  C   UNL     1       2.792   4.605   4.077  1.00  0.00     0.010 A 
ATOM     11  C   UNL     1       4.388   2.881   3.574  1.00  0.00     0.010 A 
ATOM     12  C   UNL     1       3.571   3.917   3.121  1.00  0.00    -0.014 A 
BRANCH  12  13
ATOM     13  C   UNL     1       3.313   4.206   1.675  1.00  0.00     0.031 A 
ATOM     14  C   UNL     1       1.988   3.773   1.132  1.00  0.00     0.074 A 
ATOM     15  C   UNL     1       4.134   4.929   0.885  1.00  0.00     0.049 A 
ATOM     16  N   UNL     1       1.386   4.119   0.026  1.00  0.00    -0.248 NA
ATOM     17  C   UNL     1       1.251   2.800   1.953  1.00  0.00     0.031 C 
ATOM     18  C   UNL     1       5.502   5.291   1.199  1.00  0.00     0.029 A 
ATOM     19  N   UNL     1       3.923   5.545  -0.331  1.00  0.00    -0.354 N 
ATOM     20  C   UNL     1       0.198   3.408   0.019  1.00  0.00     0.074 A 
ATOM     21  C   UNL     1       0.153   2.629   1.238  1.00  0.00     0.031 C 
ATOM     22  C   UNL     1       5.946   6.215   0.333  1.00  0.00     0.029 A 
ATOM     23  C   UNL     1       4.934   6.415  -0.695  1.00  0.00     0.049 A 
ATOM     24  H   UNL     1       3.128   5.380  -0.887  1.00  0.00     0.167 HD
ATOM     25  C   UNL     1      -0.753   3.370  -0.942  1.00  0.00     0.037 A 
ATOM     26  C   UNL     1       5.044   7.254  -1.746  1.00  0.00     0.037 A 
ATOM     27  C   UNL     1      -0.647   4.046  -2.204  1.00  0.00     0.049 A 
ATOM     28  C   UNL     1       3.971   7.197  -2.803  1.00  0.00     0.074 A 
ATOM     29  C   UNL     1      -1.498   3.986  -3.291  1.00  0.00     0.029 A 
ATOM     30  N   UNL     1       0.404   4.881  -2.561  1.00  0.00    -0.354 N 
ATOM     31  N   UNL     1       2.840   6.535  -2.794  1.00  0.00    -0.248 NA
ATOM     32  C   UNL     1       4.219   7.946  -4.043  1.00  0.00     0.031 C 
ATOM     33  C   UNL     1      -0.936   4.746  -4.324  1.00  0.00     0.029 A 
ATOM     34  C   UNL     1       0.232   5.330  -3.859  1.00  0.00     0.049 A 
ATOM     35  H   UNL     1       1.160   5.118  -1.977  1.00  0.00     0.167 HD
ATOM     36  C   UNL     1       2.257   6.761  -4.032  1.00  0.00     0.074 A 
ATOM     37  C   UNL     1       3.128   7.672  -4.745  1.00  0.00     0.031 C 
ATOM     38  C   UNL     1       1.120   6.233  -4.548  1.00  0.00     0.037 A 
BRANCH  25  39
ATOM     39  C   UNL     1      -1.912   2.461  -0.674  1.00  0.00     0.064 A 
ATOM     40  C   UNL     1      -2.876   2.769   0.299  1.00  0.00     0.173 A 
ATOM     41  C   UNL     1      -1.991   1.216  -1.313  1.00  0.00     0.173 A 
ATOM     42  F   UNL     1      -2.814   3.931   0.966  1.00  0.00    -0.203 F 
ATOM     43  C   UNL     1      -3.849   1.839   0.655  1.00  0.00     0.198 A 
ATOM     44  C   UNL     1      -2.982   0.301  -0.973  1.00  0.00     0.198 A 
ATOM     45  F   UNL     1      -1.081   0.871  -2.236  1.00  0.00    -0.203 F 
ATOM     46  F   UNL     1      -4.707   2.117   1.647  1.00  0.00    -0.200 F 
ATOM     47  C   UNL     1      -3.900   0.607   0.021  1.00  0.00     0.200 A 
ATOM     48  F   UNL     1      -3.027  -0.891  -1.583  1.00  0.00    -0.200 F 
ATOM     49  F   UNL     1      -4.818  -0.298   0.386  1.00  0.00    -0.200 F 
ENDBRANCH  25  39
BRANCH  26  50
ATOM     50  C   UNL     1       6.210   8.180  -1.905  1.00  0.00     0.064 A 
ATOM     51  C   UNL     1       6.022   9.572  -1.963  1.00  0.00     0.173 A 
ATOM     52  C   UNL     1       7.523   7.710  -2.056  1.00  0.00     0.173 A 
ATOM     53  F   UNL     1       4.786  10.085  -1.863  1.00  0.00    -0.203 F 
ATOM     54  C   UNL     1       7.091  10.446  -2.176  1.00  0.00     0.198 A 
ATOM     55  C   UNL     1       8.597   8.586  -2.226  1.00  0.00     0.198 A 
ATOM     56  F   UNL     1       7.772   6.393  -2.034  1.00  0.00    -0.203 F 
ATOM     57  F   UNL     1       6.867  11.763  -2.287  1.00  0.00    -0.200 F 
ATOM     58  C   UNL     1       8.379   9.952  -2.297  1.00  0.00     0.200 A 
ATOM     59  F   UNL     1       9.842   8.101  -2.327  1.00  0.00    -0.200 F 
ATOM     60  F   UNL     1       9.407  10.789  -2.495  1.00  0.00    -0.200 F 
ENDBRANCH  26  50
BRANCH  38  61
ATOM     61  C   UNL     1       0.755   6.631  -5.946  1.00  0.00     0.064 A 
ATOM     62  C   UNL     1       1.466   6.150  -7.056  1.00  0.00     0.173 A 
ATOM     63  C   UNL     1      -0.351   7.461  -6.179  1.00  0.00     0.173 A 
ATOM     64  F   UNL     1       2.542   5.367  -6.883  1.00  0.00    -0.203 F 
ATOM     65  C   UNL     1       1.091   6.500  -8.350  1.00  0.00     0.198 A 
ATOM     66  C   UNL     1      -0.740   7.785  -7.475  1.00  0.00     0.198 A 
ATOM     67  F   UNL     1      -1.062   7.944  -5.149  1.00  0.00    -0.203 F 
ATOM     68  F   UNL     1       1.807   6.063  -9.395  1.00  0.00    -0.200 F 
ATOM     69  C   UNL     1      -0.017   7.309  -8.558  1.00  0.00     0.200 A 
ATOM     70  F   UNL     1      -1.817   8.556  -7.675  1.00  0.00    -0.200 F 
ATOM     71  F   UNL     1      -0.384   7.635  -9.805  1.00  0.00    -0.200 F 
ENDBRANCH  38  61
ENDBRANCH  12  13
ENDBRANCH   5   7
ENDBRANCH   4   5
ENDBRANCH   3   4
ENDBRANCH   2   3
ENDBRANCH   1   2
BRANCH   1  72
ATOM     72  C   UNL     1       6.989   5.827   6.970  1.00  0.00     0.368 C 
ATOM     73  O   UNL     1       7.742   6.357   7.776  1.00  0.00    -0.245 OA
BRANCH  72  74
ATOM     74  C   UNL     1       7.346   5.408   5.523  1.00  0.00     0.195 C 
ATOM     75  C   UNL     1       8.621   6.066   4.965  1.00  0.00     0.081 C 
ATOM     76  C   UNL     1       6.149   5.751   4.606  1.00  0.00     0.095 C 
ATOM     77  C   UNL     1       8.441   7.539   4.595  1.00  0.00     0.008 C 
ATOM     78  C   UNL     1       5.965   7.201   4.148  1.00  0.00     0.053 C 
ATOM     79  C   UNL     1       7.288   7.746   3.617  1.00  0.00     0.015 C 
BRANCH  74  80
ATOM     80  N   UNL     1       7.502   3.913   5.482  1.00  0.00    -0.330 N 
ATOM     81  H   UNL     1       7.854   3.662   4.558  1.00  0.00     0.347 HD
ATOM     82  H   UNL     1       6.579   3.536   5.696  1.00  0.00     0.347 HD
BRANCH  80  83
ATOM     83  C   UNL     1       8.408   3.328   6.480  1.00  0.00     0.183 C 
ATOM     84  C   UNL     1       7.866   2.269   7.402  1.00  0.00     0.071 C 
ATOM     85  C   UNL     1       8.829   1.890   6.319  1.00  0.00     0.071 C 
ENDBRANCH  80  83
ENDBRANCH  74  80
BRANCH  78  86
ATOM     86  S   UNL     1       5.308   8.305   5.462  1.00  0.00    -0.156 SA
BRANCH  86  87
ATOM     87  C   UNL     1       3.513   8.200   5.138  1.00  0.00     0.104 C 
BRANCH  87  88
ATOM     88  C   UNL     1       2.667   8.600   6.355  1.00  0.00     0.149 C 
BRANCH  88  89
ATOM     89  C   UNL     1       2.860  10.049   6.820  1.00  0.00     0.188 C 
BRANCH  89  90
ATOM     90  O   UNL     1       2.066  10.285   7.986  1.00  0.00    -0.394 OA
ATOM     91  H   UNL     1       1.131  10.135   7.776  1.00  0.00     0.210 HD
ENDBRANCH  89  90
ENDBRANCH  88  89
BRANCH  88  92
ATOM     92  O   UNL     1       1.271   8.401   6.056  1.00  0.00    -0.390 OA
ATOM     93  H   UNL     1       1.010   8.986   5.328  1.00  0.00     0.211 HD
ENDBRANCH  88  92
ENDBRANCH  87  88
ENDBRANCH  86  87
ENDBRANCH  78  86
ENDBRANCH  72  74
ENDBRANCH   1  72
TORSDOF 19
