REMARK SMILES CCCOc1cc(NC[C@H]2CC[C@@H](C(=O)OCCOC(=O)c3ccc(-c4c5nc(c(-c6c(F)c(F)c(F)c(F)c6F)c6ccc([nH]6)c(-c6c(F)c(F)c(F)c(F)c6F)c6nc(c(-c7c(F)c(F)c(F)c(F)c7F)c7ccc4[nH]7)C=C6)C=C5)cc3)O2)ncn1
REMARK SMILES IDX 14 1 15 2 13 3 10 4 11 5 85 6 12 7 9 8 8 9 7 11 5 12 6 13
REMARK SMILES IDX 88 14 87 15 86 16 4 17 3 18 2 19 1 20 16 21 17 22 18 23
REMARK SMILES IDX 19 24 20 25 21 26 22 27 23 28 84 29 24 30 83 31 25 32 26 33
REMARK SMILES IDX 27 34 77 35 28 36 82 37 76 38 78 39 29 40 81 41 75 42 74 43
REMARK SMILES IDX 30 45 62 46 42 47 61 48 43 49 46 50 60 51 79 52 44 53 45 54
REMARK SMILES IDX 59 56 80 57 47 58 31 59 32 60 40 61 33 62 34 63 38 64 41 65
REMARK SMILES IDX 35 66 36 67 39 68 37 69 63 70 64 71 72 72 65 73 66 74 70 75
REMARK SMILES IDX 73 76 67 77 68 78 71 79 69 80 48 81 49 82 57 83 50 84 51 85
REMARK SMILES IDX 55 86 58 87 52 88 53 89 56 90 54 91
REMARK H PARENT 8 10 78 44 46 55
REMARK Flexibility Score: inf
ROOT
ATOM      1  C   UNL     1       5.471  -6.849  -1.959  1.00  0.00     0.335 C 
ATOM      2  O   UNL     1       5.623  -7.835  -2.673  1.00  0.00    -0.249 OA
ENDROOT
BRANCH   1   3
ATOM      3  C   UNL     1       4.862  -5.536  -2.470  1.00  0.00     0.228 C 
ATOM      4  C   UNL     1       3.257  -4.037  -1.613  1.00  0.00     0.138 C 
ATOM      5  C   UNL     1       4.473  -3.253  -2.089  1.00  0.00     0.037 C 
ATOM      6  O   UNL     1       3.472  -5.366  -2.145  1.00  0.00    -0.361 OA
ATOM      7  C   UNL     1       5.577  -4.278  -2.004  1.00  0.00     0.047 C 
BRANCH   4   8
ATOM      8  C   UNL     1       3.067  -4.152  -0.083  1.00  0.00     0.146 C 
BRANCH   8   9
ATOM      9  N   UNL     1       3.510  -2.977   0.642  1.00  0.00    -0.367 N 
ATOM     10  H   UNL     1       4.436  -2.946   0.975  1.00  0.00     0.162 HD
BRANCH   9  11
ATOM     11  C   UNL     1       2.680  -1.899   0.883  1.00  0.00     0.133 A 
ATOM     12  C   UNL     1       2.447   0.362   1.429  1.00  0.00     0.218 A 
ATOM     13  C   UNL     1       3.250  -0.750   1.383  1.00  0.00     0.115 A 
ATOM     14  N   UNL     1       1.143   0.369   1.134  1.00  0.00    -0.202 NA
ATOM     15  C   UNL     1       0.670  -0.812   0.722  1.00  0.00     0.228 A 
ATOM     16  N   UNL     1       1.385  -1.938   0.537  1.00  0.00    -0.219 NA
BRANCH  12  17
ATOM     17  O   UNL     1       3.020   1.559   1.786  1.00  0.00    -0.478 OA
BRANCH  17  18
ATOM     18  C   UNL     1       3.342   2.327   0.614  1.00  0.00     0.231 C 
BRANCH  18  19
ATOM     19  C   UNL     1       4.744   1.978   0.096  1.00  0.00     0.038 C 
ATOM     20  C   UNL     1       4.728   1.028  -1.098  1.00  0.00     0.007 C 
ENDBRANCH  18  19
ENDBRANCH  17  18
ENDBRANCH  12  17
ENDBRANCH   9  11
ENDBRANCH   8   9
ENDBRANCH   4   8
ENDBRANCH   1   3
BRANCH   1  21
ATOM     21  O   UNL     1       5.794  -6.798  -0.636  1.00  0.00    -0.460 OA
BRANCH  21  22
ATOM     22  C   UNL     1       6.391  -7.986  -0.075  1.00  0.00     0.274 C 
BRANCH  22  23
ATOM     23  C   UNL     1       5.398  -8.771   0.784  1.00  0.00     0.275 C 
BRANCH  23  24
ATOM     24  O   UNL     1       4.342  -9.333  -0.015  1.00  0.00    -0.458 OA
BRANCH  24  25
ATOM     25  C   UNL     1       3.228  -8.567  -0.098  1.00  0.00     0.338 C 
ATOM     26  O   UNL     1       3.016  -7.513   0.474  1.00  0.00    -0.246 OA
BRANCH  25  27
ATOM     27  C   UNL     1       2.304  -9.137  -1.092  1.00  0.00     0.060 A 
ATOM     28  C   UNL     1       1.922  -8.323  -2.159  1.00  0.00     0.016 A 
ATOM     29  C   UNL     1       1.751 -10.410  -0.943  1.00  0.00     0.016 A 
ATOM     30  C   UNL     1       0.972  -8.761  -3.072  1.00  0.00     0.010 A 
ATOM     31  C   UNL     1       0.795 -10.856  -1.865  1.00  0.00     0.010 A 
ATOM     32  C   UNL     1       0.389 -10.025  -2.924  1.00  0.00    -0.014 A 
BRANCH  32  33
ATOM     33  C   UNL     1      -0.678 -10.422  -3.870  1.00  0.00     0.031 A 
ATOM     34  C   UNL     1      -2.118 -10.354  -3.451  1.00  0.00     0.074 A 
ATOM     35  C   UNL     1      -0.353 -10.755  -5.132  1.00  0.00     0.049 A 
ATOM     36  N   UNL     1      -3.197 -10.586  -4.156  1.00  0.00    -0.248 NA
ATOM     37  C   UNL     1      -2.380  -9.974  -2.055  1.00  0.00     0.031 C 
ATOM     38  C   UNL     1       1.010 -10.824  -5.658  1.00  0.00     0.029 A 
ATOM     39  N   UNL     1      -1.145 -11.077  -6.204  1.00  0.00    -0.354 N 
ATOM     40  C   UNL     1      -4.263 -10.382  -3.292  1.00  0.00     0.074 A 
ATOM     41  C   UNL     1      -3.703 -10.038  -2.002  1.00  0.00     0.031 C 
ATOM     42  C   UNL     1       0.959 -11.150  -6.960  1.00  0.00     0.029 A 
ATOM     43  C   UNL     1      -0.436 -11.335  -7.350  1.00  0.00     0.049 A 
ATOM     44  H   UNL     1      -2.128 -11.120  -6.156  1.00  0.00     0.167 HD
ATOM     45  C   UNL     1      -5.590 -10.465  -3.556  1.00  0.00     0.037 A 
ATOM     46  C   UNL     1      -0.867 -11.679  -8.578  1.00  0.00     0.037 A 
ATOM     47  C   UNL     1      -6.145 -10.799  -4.842  1.00  0.00     0.049 A 
ATOM     48  C   UNL     1      -2.345 -11.788  -8.835  1.00  0.00     0.074 A 
ATOM     49  C   UNL     1      -7.475 -10.902  -5.210  1.00  0.00     0.029 A 
ATOM     50  N   UNL     1      -5.395 -11.085  -5.974  1.00  0.00    -0.354 N 
ATOM     51  N   UNL     1      -3.346 -11.578  -8.016  1.00  0.00    -0.248 NA
ATOM     52  C   UNL     1      -2.751 -12.174 -10.194  1.00  0.00     0.031 C 
ATOM     53  C   UNL     1      -7.531 -11.286  -6.554  1.00  0.00     0.029 A 
ATOM     54  C   UNL     1      -6.235 -11.379  -7.037  1.00  0.00     0.049 A 
ATOM     55  H   UNL     1      -4.412 -11.079  -6.016  1.00  0.00     0.167 HD
ATOM     56  C   UNL     1      -4.498 -11.784  -8.761  1.00  0.00     0.074 A 
ATOM     57  C   UNL     1      -4.072 -12.116 -10.105  1.00  0.00     0.031 C 
ATOM     58  C   UNL     1      -5.794 -11.709  -8.368  1.00  0.00     0.037 A 
BRANCH  45  59
ATOM     59  C   UNL     1      -6.535 -10.208  -2.420  1.00  0.00     0.064 A 
ATOM     60  C   UNL     1      -6.751  -8.915  -1.920  1.00  0.00     0.173 A 
ATOM     61  C   UNL     1      -7.260 -11.264  -1.847  1.00  0.00     0.173 A 
ATOM     62  F   UNL     1      -6.072  -7.874  -2.426  1.00  0.00    -0.203 F 
ATOM     63  C   UNL     1      -7.642  -8.692  -0.873  1.00  0.00     0.198 A 
ATOM     64  C   UNL     1      -8.168 -11.034  -0.817  1.00  0.00     0.198 A 
ATOM     65  F   UNL     1      -7.092 -12.518  -2.292  1.00  0.00    -0.203 F 
ATOM     66  F   UNL     1      -7.804  -7.455  -0.385  1.00  0.00    -0.200 F 
ATOM     67  C   UNL     1      -8.354  -9.750  -0.327  1.00  0.00     0.200 A 
ATOM     68  F   UNL     1      -8.862 -12.056  -0.297  1.00  0.00    -0.200 F 
ATOM     69  F   UNL     1      -9.215  -9.533   0.676  1.00  0.00    -0.200 F 
ENDBRANCH  45  59
BRANCH  46  70
ATOM     70  C   UNL     1       0.116 -11.932  -9.661  1.00  0.00     0.064 A 
ATOM     71  C   UNL     1       0.243 -11.052 -10.743  1.00  0.00     0.173 A 
ATOM     72  C   UNL     1       0.944 -13.064  -9.637  1.00  0.00     0.173 A 
ATOM     73  F   UNL     1      -0.544  -9.969 -10.822  1.00  0.00    -0.203 F 
ATOM     74  C   UNL     1       1.151 -11.302 -11.770  1.00  0.00     0.198 A 
ATOM     75  C   UNL     1       1.870 -13.299 -10.650  1.00  0.00     0.198 A 
ATOM     76  F   UNL     1       0.859 -13.937  -8.622  1.00  0.00    -0.203 F 
ATOM     77  F   UNL     1       1.223 -10.467 -12.816  1.00  0.00    -0.200 F 
ATOM     78  C   UNL     1       1.968 -12.422 -11.720  1.00  0.00     0.200 A 
ATOM     79  F   UNL     1       2.663 -14.378 -10.593  1.00  0.00    -0.200 F 
ATOM     80  F   UNL     1       2.842 -12.661 -12.706  1.00  0.00    -0.200 F 
ENDBRANCH  46  70
BRANCH  58  81
ATOM     81  C   UNL     1      -6.838 -11.967  -9.415  1.00  0.00     0.064 A 
ATOM     82  C   UNL     1      -7.071 -13.256  -9.917  1.00  0.00     0.173 A 
ATOM     83  C   UNL     1      -7.617 -10.914  -9.916  1.00  0.00     0.173 A 
ATOM     84  F   UNL     1      -6.340 -14.293  -9.480  1.00  0.00    -0.203 F 
ATOM     85  C   UNL     1      -8.023 -13.475 -10.909  1.00  0.00     0.198 A 
ATOM     86  C   UNL     1      -8.588 -11.142 -10.888  1.00  0.00     0.198 A 
ATOM     87  F   UNL     1      -7.438  -9.664  -9.464  1.00  0.00    -0.203 F 
ATOM     88  F   UNL     1      -8.190 -14.705 -11.414  1.00  0.00    -0.200 F 
ATOM     89  C   UNL     1      -8.783 -12.419 -11.390  1.00  0.00     0.200 A 
ATOM     90  F   UNL     1      -9.328 -10.123 -11.346  1.00  0.00    -0.200 F 
ATOM     91  F   UNL     1      -9.696 -12.632 -12.348  1.00  0.00    -0.200 F 
ENDBRANCH  58  81
ENDBRANCH  32  33
ENDBRANCH  25  27
ENDBRANCH  24  25
ENDBRANCH  23  24
ENDBRANCH  22  23
ENDBRANCH  21  22
ENDBRANCH   1  21
TORSDOF 17
