REMARK SMILES CO/N=C1\CN(c2nc3c(cc2F)c(=O)c(C(=O)OCCOC(=O)c2ccc(-c4c5nc(c(-c6c(F)c(F)c(F)c(F)c6F)c6ccc([nH]6)c(-c6c(F)c(F)c(F)c(F)c6F)c6nc(c(-c7c(F)c(F)c(F)c(F)c7F)c7ccc4[nH]7)C=C6)C=C5)cc2)cn3C2CC2)C[C@H]1C[NH3+]
REMARK SMILES IDX 20 1 19 2 17 3 18 4 16 5 7 6 8 7 12 8 9 9 11 10 13 11 10 12
REMARK SMILES IDX 89 13 14 14 88 15 15 16 6 17 3 18 4 19 5 20 94 21 93 22 2 23
REMARK SMILES IDX 1 24 95 25 96 26 90 30 91 31 92 32 21 33 22 34 23 35 24 36
REMARK SMILES IDX 25 37 26 38 87 39 27 40 86 41 28 42 29 43 30 44 80 45 31 46
REMARK SMILES IDX 85 47 79 48 81 49 32 50 84 51 78 52 77 53 33 55 65 56 45 57
REMARK SMILES IDX 64 58 46 59 49 60 63 61 82 62 47 63 48 64 62 66 83 67 50 68
REMARK SMILES IDX 34 69 35 70 43 71 36 72 37 73 41 74 44 75 38 76 39 77 42 78
REMARK SMILES IDX 40 79 66 80 67 81 75 82 68 83 69 84 73 85 76 86 70 87 71 88
REMARK SMILES IDX 74 89 72 90 51 91 52 92 60 93 53 94 54 95 58 96 61 97 55 98
REMARK SMILES IDX 56 99 59 100 57 101
REMARK H PARENT 96 27 96 28 96 29 81 54 49 65
REMARK Flexibility Score: inf
ROOT
ATOM      1  C   UNL     1      -0.182 -12.786   5.004  1.00  0.00     0.275 C 
ENDROOT
BRANCH   1   2
ATOM      2  O   UNL     1      -0.155 -11.600   4.188  1.00  0.00    -0.458 OA
BRANCH   2   3
ATOM      3  C   UNL     1      -1.089 -11.512   3.213  1.00  0.00     0.343 C 
ATOM      4  O   UNL     1      -1.968 -12.331   2.982  1.00  0.00    -0.246 OA
BRANCH   3   5
ATOM      5  C   UNL     1      -0.983 -10.231   2.497  1.00  0.00     0.124 A 
ATOM      6  C   UNL     1       0.076  -6.242  -0.432  1.00  0.00     0.167 A 
ATOM      7  N   UNL     1      -1.053  -6.715   0.144  1.00  0.00    -0.210 NA
ATOM      8  C   UNL     1       1.324  -6.801  -0.129  1.00  0.00     0.166 A 
ATOM      9  C   UNL     1      -0.987  -7.809   0.948  1.00  0.00     0.146 A 
ATOM     10  C   UNL     1       1.416  -7.882   0.727  1.00  0.00     0.059 A 
ATOM     11  F   UNL     1       2.456  -6.291  -0.636  1.00  0.00    -0.203 F 
ATOM     12  C   UNL     1       0.241  -8.408   1.253  1.00  0.00     0.069 A 
ATOM     13  N   UNL     1      -2.186  -8.401   1.450  1.00  0.00    -0.328 N 
ATOM     14  C   UNL     1       0.299  -9.625   2.088  1.00  0.00     0.205 A 
ATOM     15  C   UNL     1      -2.110  -9.589   2.150  1.00  0.00     0.107 A 
ATOM     16  O   UNL     1       1.383 -10.127   2.362  1.00  0.00    -0.288 OA
BRANCH   6  17
ATOM     17  N   UNL     1      -0.074  -5.193  -1.307  1.00  0.00    -0.348 N 
ATOM     18  N   UNL     1       0.638  -1.712  -1.540  1.00  0.00    -0.094 NA
ATOM     19  C   UNL     1       0.364  -2.969  -1.713  1.00  0.00     0.087 C 
ATOM     20  C   UNL     1      -0.334  -3.884  -0.735  1.00  0.00     0.173 C 
ATOM     21  C   UNL     1       0.746  -3.675  -2.990  1.00  0.00     0.113 C 
ATOM     22  C   UNL     1       0.588  -5.150  -2.603  1.00  0.00     0.134 C 
BRANCH  18  23
ATOM     23  O   UNL     1       0.200  -1.282  -0.280  1.00  0.00    -0.399 OA
ATOM     24  C   UNL     1       0.787  -0.013  -0.013  1.00  0.00     0.315 C 
ENDBRANCH  18  23
BRANCH  21  25
ATOM     25  C   UNL     1      -0.183  -3.275  -4.136  1.00  0.00     0.270 C 
BRANCH  25  26
ATOM     26  N   UNL     1       0.185  -1.968  -4.679  1.00  0.00    -0.357 N 
ATOM     27  H   UNL     1       0.107  -1.261  -3.947  1.00  0.00     0.344 HD
ATOM     28  H   UNL     1      -0.442  -1.731  -5.449  1.00  0.00     0.344 HD
ATOM     29  H   UNL     1       1.146  -2.000  -5.020  1.00  0.00     0.344 HD
ENDBRANCH  25  26
ENDBRANCH  21  25
ENDBRANCH   6  17
BRANCH  13  30
ATOM     30  C   UNL     1      -3.479  -7.718   1.193  1.00  0.00     0.089 C 
ATOM     31  C   UNL     1      -4.856  -8.267   1.461  1.00  0.00     0.027 C 
ATOM     32  C   UNL     1      -4.304  -7.183   2.338  1.00  0.00     0.027 C 
ENDBRANCH  13  30
ENDBRANCH   3   5
ENDBRANCH   2   3
ENDBRANCH   1   2
BRANCH   1  33
ATOM     33  C   UNL     1      -0.779 -12.470   6.371  1.00  0.00     0.275 C 
BRANCH  33  34
ATOM     34  O   UNL     1      -2.172 -12.137   6.220  1.00  0.00    -0.458 OA
BRANCH  34  35
ATOM     35  C   UNL     1      -2.509 -10.860   6.507  1.00  0.00     0.338 C 
ATOM     36  O   UNL     1      -1.792  -9.973   6.934  1.00  0.00    -0.246 OA
BRANCH  35  37
ATOM     37  C   UNL     1      -3.935 -10.652   6.207  1.00  0.00     0.060 A 
ATOM     38  C   UNL     1      -4.413 -10.874   4.917  1.00  0.00     0.016 A 
ATOM     39  C   UNL     1      -4.772 -10.111   7.182  1.00  0.00     0.016 A 
ATOM     40  C   UNL     1      -5.700 -10.468   4.573  1.00  0.00     0.010 A 
ATOM     41  C   UNL     1      -6.093  -9.785   6.856  1.00  0.00     0.010 A 
ATOM     42  C   UNL     1      -6.558  -9.918   5.536  1.00  0.00    -0.014 A 
BRANCH  42  43
ATOM     43  C   UNL     1      -7.907  -9.419   5.148  1.00  0.00     0.031 A 
ATOM     44  C   UNL     1      -8.254  -7.965   5.338  1.00  0.00     0.074 A 
ATOM     45  C   UNL     1      -8.810 -10.245   4.581  1.00  0.00     0.049 A 
ATOM     46  N   UNL     1      -9.413  -7.367   5.224  1.00  0.00    -0.248 NA
ATOM     47  C   UNL     1      -7.151  -7.063   5.708  1.00  0.00     0.031 C 
ATOM     48  C   UNL     1      -8.588 -11.655   4.262  1.00  0.00     0.029 A 
ATOM     49  N   UNL     1     -10.093 -10.008   4.150  1.00  0.00    -0.354 N 
ATOM     50  C   UNL     1      -9.188  -6.036   5.553  1.00  0.00     0.074 A 
ATOM     51  C   UNL     1      -7.784  -5.910   5.875  1.00  0.00     0.031 C 
ATOM     52  C   UNL     1      -9.671 -12.141   3.636  1.00  0.00     0.029 A 
ATOM     53  C   UNL     1     -10.698 -11.107   3.591  1.00  0.00     0.049 A 
ATOM     54  H   UNL     1     -10.536  -9.133   4.234  1.00  0.00     0.167 HD
ATOM     55  C   UNL     1     -10.074  -5.012   5.578  1.00  0.00     0.037 A 
ATOM     56  C   UNL     1     -11.951 -11.274   3.125  1.00  0.00     0.037 A 
ATOM     57  C   UNL     1     -11.460  -5.125   5.209  1.00  0.00     0.049 A 
ATOM     58  C   UNL     1     -12.931 -10.139   3.226  1.00  0.00     0.074 A 
ATOM     59  C   UNL     1     -12.445  -4.152   5.239  1.00  0.00     0.029 A 
ATOM     60  N   UNL     1     -12.050  -6.276   4.712  1.00  0.00    -0.354 N 
ATOM     61  N   UNL     1     -12.736  -8.913   3.644  1.00  0.00    -0.248 NA
ATOM     62  C   UNL     1     -14.316 -10.423   2.821  1.00  0.00     0.031 C 
ATOM     63  C   UNL     1     -13.636  -4.720   4.776  1.00  0.00     0.029 A 
ATOM     64  C   UNL     1     -13.385  -6.037   4.429  1.00  0.00     0.049 A 
ATOM     65  H   UNL     1     -11.590  -7.136   4.580  1.00  0.00     0.167 HD
ATOM     66  C   UNL     1     -13.966  -8.278   3.547  1.00  0.00     0.074 A 
ATOM     67  C   UNL     1     -14.899  -9.246   3.010  1.00  0.00     0.031 C 
ATOM     68  C   UNL     1     -14.295  -7.008   3.884  1.00  0.00     0.037 A 
BRANCH  55  69
ATOM     69  C   UNL     1      -9.582  -3.671   6.033  1.00  0.00     0.064 A 
ATOM     70  C   UNL     1      -8.807  -2.853   5.200  1.00  0.00     0.173 A 
ATOM     71  C   UNL     1      -9.957  -3.168   7.288  1.00  0.00     0.173 A 
ATOM     72  F   UNL     1      -8.412  -3.296   3.997  1.00  0.00    -0.203 F 
ATOM     73  C   UNL     1      -8.418  -1.580   5.610  1.00  0.00     0.198 A 
ATOM     74  C   UNL     1      -9.585  -1.886   7.686  1.00  0.00     0.198 A 
ATOM     75  F   UNL     1     -10.703  -3.911   8.119  1.00  0.00    -0.203 F 
ATOM     76  F   UNL     1      -7.658  -0.822   4.808  1.00  0.00    -0.200 F 
ATOM     77  C   UNL     1      -8.816  -1.094   6.847  1.00  0.00     0.200 A 
ATOM     78  F   UNL     1      -9.980  -1.415   8.877  1.00  0.00    -0.200 F 
ATOM     79  F   UNL     1      -8.456   0.138   7.232  1.00  0.00    -0.200 F 
ENDBRANCH  55  69
BRANCH  56  80
ATOM     80  C   UNL     1     -12.361 -12.579   2.544  1.00  0.00     0.064 A 
ATOM     81  C   UNL     1     -12.641 -12.696   1.176  1.00  0.00     0.173 A 
ATOM     82  C   UNL     1     -12.488 -13.728   3.338  1.00  0.00     0.173 A 
ATOM     83  F   UNL     1     -12.563 -11.617   0.382  1.00  0.00    -0.203 F 
ATOM     84  C   UNL     1     -13.037 -13.912   0.625  1.00  0.00     0.198 A 
ATOM     85  C   UNL     1     -12.856 -14.950   2.781  1.00  0.00     0.198 A 
ATOM     86  F   UNL     1     -12.238 -13.666   4.654  1.00  0.00    -0.203 F 
ATOM     87  F   UNL     1     -13.335 -13.989  -0.680  1.00  0.00    -0.200 F 
ATOM     88  C   UNL     1     -13.136 -15.040   1.426  1.00  0.00     0.200 A 
ATOM     89  F   UNL     1     -12.940 -16.039   3.556  1.00  0.00    -0.200 F 
ATOM     90  F   UNL     1     -13.510 -16.212   0.894  1.00  0.00    -0.200 F 
ENDBRANCH  56  80
BRANCH  68  91
ATOM     91  C   UNL     1     -15.714  -6.582   3.663  1.00  0.00     0.064 A 
ATOM     92  C   UNL     1     -16.739  -6.986   4.530  1.00  0.00     0.173 A 
ATOM     93  C   UNL     1     -16.041  -5.715   2.611  1.00  0.00     0.173 A 
ATOM     94  F   UNL     1     -16.475  -7.826   5.542  1.00  0.00    -0.203 F 
ATOM     95  C   UNL     1     -18.046  -6.545   4.344  1.00  0.00     0.198 A 
ATOM     96  C   UNL     1     -17.345  -5.259   2.440  1.00  0.00     0.198 A 
ATOM     97  F   UNL     1     -15.092  -5.298   1.759  1.00  0.00    -0.203 F 
ATOM     98  F   UNL     1     -19.017  -6.965   5.166  1.00  0.00    -0.200 F 
ATOM     99  C   UNL     1     -18.346  -5.677   3.304  1.00  0.00     0.200 A 
ATOM    100  F   UNL     1     -17.632  -4.413   1.441  1.00  0.00    -0.200 F 
ATOM    101  F   UNL     1     -19.603  -5.245   3.132  1.00  0.00    -0.200 F 
ENDBRANCH  68  91
ENDBRANCH  42  43
ENDBRANCH  35  37
ENDBRANCH  34  35
ENDBRANCH  33  34
ENDBRANCH   1  33
TORSDOF 16
