REMARK SMILES CCN(Cc1c(C)nn(CC)c1C)C(=O)Cn1ccc(C(=O)OCCOC(=O)c2ccc(-c3c4nc(c(-c5c(F)c(F)c(F)c(F)c5F)c5ccc([nH]5)c(-c5c(F)c(F)c(F)c(F)c5F)c5nc(c(-c6c(F)c(F)c(F)c(F)c6F)c6ccc3[nH]6)C=C5)C=C4)cc2)n1
REMARK SMILES IDX 21 1 22 2 20 3 17 4 18 5 92 6 19 7 16 8 14 9 15 10 3 11 2 12
REMARK SMILES IDX 1 13 4 14 5 15 6 16 12 17 7 18 8 19 9 20 13 21 10 22 11 23
REMARK SMILES IDX 23 24 24 25 25 26 26 27 27 28 28 29 29 30 30 31 91 32 31 33
REMARK SMILES IDX 90 34 32 35 33 36 34 37 84 38 35 39 89 40 83 41 85 42 36 43
REMARK SMILES IDX 88 44 82 45 81 46 37 48 69 49 49 50 68 51 50 52 53 53 67 54
REMARK SMILES IDX 86 55 51 56 52 57 66 59 87 60 54 61 38 62 39 63 47 64 40 65
REMARK SMILES IDX 41 66 45 67 48 68 42 69 43 70 46 71 44 72 70 73 71 74 79 75
REMARK SMILES IDX 72 76 73 77 77 78 80 79 74 80 75 81 78 82 76 83 55 84 56 85
REMARK SMILES IDX 64 86 57 87 58 88 62 89 65 90 59 91 60 92 63 93 61 94
REMARK H PARENT 85 47 53 58
REMARK Flexibility Score: inf
ROOT
ATOM      1  C   UNL     1       2.106   7.423   2.682  1.00  0.00     0.358 C 
ATOM      2  O   UNL     1       1.279   8.198   2.204  1.00  0.00    -0.244 OA
ENDROOT
BRANCH   1   3
ATOM      3  C   UNL     1       2.152   6.002   2.325  1.00  0.00     0.170 A 
ATOM      4  N   UNL     1       2.606   3.920   2.381  1.00  0.00    -0.262 N 
ATOM      5  C   UNL     1       2.050   4.119   1.150  1.00  0.00     0.110 A 
ATOM      6  N   UNL     1       2.717   5.056   3.098  1.00  0.00    -0.165 NA
ATOM      7  C   UNL     1       1.663   5.435   1.117  1.00  0.00     0.057 A 
BRANCH   4   8
ATOM      8  C   UNL     1       3.018   2.674   3.004  1.00  0.00     0.244 C 
BRANCH   8   9
ATOM      9  C   UNL     1       2.440   1.429   2.368  1.00  0.00     0.244 C 
ATOM     10  O   UNL     1       3.219   0.586   1.905  1.00  0.00    -0.273 OA
BRANCH   9  11
ATOM     11  N   UNL     1       1.061   1.227   2.317  1.00  0.00    -0.337 N 
BRANCH  11  12
ATOM     12  C   UNL     1       0.580   0.091   1.523  1.00  0.00     0.116 C 
ATOM     13  C   UNL     1       0.824   0.262   0.028  1.00  0.00     0.027 C 
ENDBRANCH  11  12
BRANCH  11  14
ATOM     14  C   UNL     1       0.049   2.070   2.980  1.00  0.00     0.159 C 
BRANCH  14  15
ATOM     15  C   UNL     1       0.187   2.031   4.468  1.00  0.00     0.015 A 
ATOM     16  C   UNL     1       0.211   3.144   5.363  1.00  0.00     0.065 A 
ATOM     17  C   UNL     1       0.291   0.923   5.300  1.00  0.00     0.041 A 
ATOM     18  C   UNL     1       0.098   4.599   5.082  1.00  0.00     0.069 C 
ATOM     19  N   UNL     1       0.375   2.755   6.630  1.00  0.00    -0.178 NA
ATOM     20  N   UNL     1       0.469   1.419   6.566  1.00  0.00    -0.270 N 
ATOM     21  C   UNL     1       0.261  -0.530   4.996  1.00  0.00     0.067 C 
BRANCH  20  22
ATOM     22  C   UNL     1       0.738   0.688   7.791  1.00  0.00     0.141 C 
ATOM     23  C   UNL     1       2.160   0.892   8.285  1.00  0.00     0.029 C 
ENDBRANCH  20  22
ENDBRANCH  14  15
ENDBRANCH  11  14
ENDBRANCH   9  11
ENDBRANCH   8   9
ENDBRANCH   4   8
ENDBRANCH   1   3
BRANCH   1  24
ATOM     24  O   UNL     1       3.148   7.806   3.479  1.00  0.00    -0.457 OA
BRANCH  24  25
ATOM     25  C   UNL     1       3.439   9.210   3.491  1.00  0.00     0.275 C 
BRANCH  25  26
ATOM     26  C   UNL     1       4.365   9.588   2.340  1.00  0.00     0.275 C 
BRANCH  26  27
ATOM     27  O   UNL     1       3.688   9.576   1.080  1.00  0.00    -0.458 OA
BRANCH  27  28
ATOM     28  C   UNL     1       3.874   8.461   0.339  1.00  0.00     0.338 C 
ATOM     29  O   UNL     1       4.272   7.377   0.727  1.00  0.00    -0.246 OA
BRANCH  28  30
ATOM     30  C   UNL     1       3.730   8.785  -1.084  1.00  0.00     0.060 A 
ATOM     31  C   UNL     1       3.759   7.726  -1.998  1.00  0.00     0.016 A 
ATOM     32  C   UNL     1       3.830  10.119  -1.504  1.00  0.00     0.016 A 
ATOM     33  C   UNL     1       4.029   8.002  -3.324  1.00  0.00     0.010 A 
ATOM     34  C   UNL     1       4.109  10.392  -2.825  1.00  0.00     0.010 A 
ATOM     35  C   UNL     1       4.269   9.328  -3.709  1.00  0.00    -0.014 A 
BRANCH  35  36
ATOM     36  C   UNL     1       4.621   9.581  -5.093  1.00  0.00     0.031 A 
ATOM     37  C   UNL     1       3.519   9.353  -6.057  1.00  0.00     0.074 A 
ATOM     38  C   UNL     1       5.809  10.095  -5.463  1.00  0.00     0.049 A 
ATOM     39  N   UNL     1       3.486   8.519  -7.042  1.00  0.00    -0.248 NA
ATOM     40  C   UNL     1       2.257  10.075  -5.832  1.00  0.00     0.031 C 
ATOM     41  C   UNL     1       6.872  10.637  -4.614  1.00  0.00     0.029 A 
ATOM     42  N   UNL     1       6.267  10.331  -6.723  1.00  0.00    -0.354 N 
ATOM     43  C   UNL     1       2.253   8.705  -7.658  1.00  0.00     0.074 A 
ATOM     44  C   UNL     1       1.492   9.583  -6.807  1.00  0.00     0.031 C 
ATOM     45  C   UNL     1       7.743  11.329  -5.384  1.00  0.00     0.029 A 
ATOM     46  C   UNL     1       7.371  11.166  -6.780  1.00  0.00     0.049 A 
ATOM     47  H   UNL     1       5.850   9.941  -7.525  1.00  0.00     0.167 HD
ATOM     48  C   UNL     1       2.018   8.273  -8.925  1.00  0.00     0.037 A 
ATOM     49  C   UNL     1       7.886  11.735  -7.897  1.00  0.00     0.037 A 
ATOM     50  C   UNL     1       2.977   7.286  -9.339  1.00  0.00     0.049 A 
ATOM     51  C   UNL     1       7.398  10.958  -9.065  1.00  0.00     0.074 A 
ATOM     52  C   UNL     1       3.310   6.018  -8.903  1.00  0.00     0.029 A 
ATOM     53  N   UNL     1       4.015   7.687 -10.143  1.00  0.00    -0.354 N 
ATOM     54  N   UNL     1       7.775   9.742  -9.342  1.00  0.00    -0.248 NA
ATOM     55  C   UNL     1       6.159  11.386  -9.699  1.00  0.00     0.031 C 
ATOM     56  C   UNL     1       4.722   5.926  -9.073  1.00  0.00     0.029 A 
ATOM     57  C   UNL     1       5.159   7.123  -9.640  1.00  0.00     0.049 A 
ATOM     58  H   UNL     1       3.949   8.271 -10.933  1.00  0.00     0.167 HD
ATOM     59  C   UNL     1       6.630   9.119  -9.815  1.00  0.00     0.074 A 
ATOM     60  C   UNL     1       5.700  10.203 -10.113  1.00  0.00     0.031 C 
ATOM     61  C   UNL     1       6.446   7.776  -9.653  1.00  0.00     0.037 A 
BRANCH  48  62
ATOM     62  C   UNL     1       1.124   8.985  -9.901  1.00  0.00     0.064 A 
ATOM     63  C   UNL     1       0.767   8.351 -11.106  1.00  0.00     0.173 A 
ATOM     64  C   UNL     1       0.858  10.370  -9.832  1.00  0.00     0.173 A 
ATOM     65  F   UNL     1       1.003   7.043 -11.285  1.00  0.00    -0.203 F 
ATOM     66  C   UNL     1       0.244   9.067 -12.185  1.00  0.00     0.198 A 
ATOM     67  C   UNL     1       0.285  11.070 -10.891  1.00  0.00     0.198 A 
ATOM     68  F   UNL     1       1.245  11.115  -8.789  1.00  0.00    -0.203 F 
ATOM     69  F   UNL     1       0.032   8.447 -13.354  1.00  0.00    -0.200 F 
ATOM     70  C   UNL     1       0.007  10.426 -12.078  1.00  0.00     0.200 A 
ATOM     71  F   UNL     1       0.084  12.390 -10.776  1.00  0.00    -0.200 F 
ATOM     72  F   UNL     1      -0.437  11.124 -13.131  1.00  0.00    -0.200 F 
ENDBRANCH  48  62
BRANCH  49  73
ATOM     73  C   UNL     1       8.520  13.065  -8.042  1.00  0.00     0.064 A 
ATOM     74  C   UNL     1       9.280  13.385  -9.178  1.00  0.00     0.173 A 
ATOM     75  C   UNL     1       8.164  14.139  -7.203  1.00  0.00     0.173 A 
ATOM     76  F   UNL     1       9.623  12.428 -10.053  1.00  0.00    -0.203 F 
ATOM     77  C   UNL     1       9.638  14.705  -9.473  1.00  0.00     0.198 A 
ATOM     78  C   UNL     1       8.529  15.454  -7.492  1.00  0.00     0.198 A 
ATOM     79  F   UNL     1       7.371  13.949  -6.139  1.00  0.00    -0.203 F 
ATOM     80  F   UNL     1      10.306  14.981 -10.601  1.00  0.00    -0.200 F 
ATOM     81  C   UNL     1       9.253  15.739  -8.635  1.00  0.00     0.200 A 
ATOM     82  F   UNL     1       8.119  16.448  -6.692  1.00  0.00    -0.200 F 
ATOM     83  F   UNL     1       9.541  17.010  -8.948  1.00  0.00    -0.200 F 
ENDBRANCH  49  73
BRANCH  61  84
ATOM     84  C   UNL     1       7.627   6.960  -9.211  1.00  0.00     0.064 A 
ATOM     85  C   UNL     1       8.277   7.127  -7.975  1.00  0.00     0.173 A 
ATOM     86  C   UNL     1       8.029   5.883 -10.011  1.00  0.00     0.173 A 
ATOM     87  F   UNL     1       7.882   8.066  -7.108  1.00  0.00    -0.203 F 
ATOM     88  C   UNL     1       9.317   6.284  -7.587  1.00  0.00     0.198 A 
ATOM     89  C   UNL     1       9.041   5.019  -9.603  1.00  0.00     0.198 A 
ATOM     90  F   UNL     1       7.404   5.639 -11.174  1.00  0.00    -0.203 F 
ATOM     91  F   UNL     1       9.934   6.475  -6.412  1.00  0.00    -0.200 F 
ATOM     92  C   UNL     1       9.693   5.226  -8.399  1.00  0.00     0.200 A 
ATOM     93  F   UNL     1       9.366   3.967 -10.368  1.00  0.00    -0.200 F 
ATOM     94  F   UNL     1      10.666   4.391  -8.008  1.00  0.00    -0.200 F 
ENDBRANCH  61  84
ENDBRANCH  35  36
ENDBRANCH  28  30
ENDBRANCH  27  28
ENDBRANCH  26  27
ENDBRANCH  25  26
ENDBRANCH  24  25
ENDBRANCH   1  24
TORSDOF 18
