REMARK SMILES COc1cc2c(cc1OC)-c1c(c(C(=O)Nc3ccc(C(=O)OCCOC(=O)c4ccc(-c5c6nc(c(-c7c(F)c(F)c(F)c(F)c7F)c7ccc([nH]7)c(-c7c(F)c(F)c(F)c(F)c7F)c7nc(c(-c8c(F)c(F)c(F)c(F)c8F)c8ccc5[nH]8)C=C7)C=C6)cc4)cc3)nn1-c1ccc(F)cc1)C2
REMARK SMILES IDX 24 1 23 2 21 3 22 4 20 5 17 6 18 7 93 8 19 9 92 10 16 11
REMARK SMILES IDX 14 12 15 13 13 15 3 16 4 17 8 18 5 19 7 20 6 21 103 22 11 23
REMARK SMILES IDX 12 24 95 25 94 26 2 27 1 28 9 29 10 30 96 31 97 32 102 33
REMARK SMILES IDX 98 34 101 35 99 36 100 37 25 38 26 39 27 40 28 41 29 42
REMARK SMILES IDX 30 43 91 44 31 45 90 46 32 47 33 48 34 49 84 50 35 51 89 52
REMARK SMILES IDX 83 53 85 54 36 55 88 56 82 57 81 58 37 60 69 61 49 62 68 63
REMARK SMILES IDX 50 64 53 65 67 66 86 67 51 68 52 69 66 71 87 72 54 73 38 74
REMARK SMILES IDX 39 75 47 76 40 77 41 78 45 79 48 80 42 81 43 82 46 83 44 84
REMARK SMILES IDX 70 85 71 86 79 87 72 88 73 89 77 90 80 91 74 92 75 93 78 94
REMARK SMILES IDX 76 95 55 96 56 97 64 98 57 99 58 100 62 101 65 102 59 103
REMARK SMILES IDX 60 104 63 105 61 106
REMARK H PARENT 16 14 85 59 53 70
REMARK Flexibility Score: inf
ROOT
ATOM      1  C   UNL     1      -5.213  -2.304  -3.449  1.00  0.00     0.275 C 
ENDROOT
BRANCH   1   2
ATOM      2  O   UNL     1      -4.563  -2.021  -4.717  1.00  0.00    -0.458 OA
BRANCH   2   3
ATOM      3  C   UNL     1      -4.815  -0.810  -5.278  1.00  0.00     0.338 C 
ATOM      4  O   UNL     1      -5.549   0.055  -4.826  1.00  0.00    -0.246 OA
BRANCH   3   5
ATOM      5  C   UNL     1      -3.942  -0.580  -6.464  1.00  0.00     0.060 A 
ATOM      6  C   UNL     1      -1.996  -0.017  -8.426  1.00  0.00     0.041 A 
ATOM      7  C   UNL     1      -2.412   0.983  -7.566  1.00  0.00     0.027 A 
ATOM      8  C   UNL     1      -2.668  -1.248  -8.409  1.00  0.00     0.027 A 
ATOM      9  C   UNL     1      -3.403   0.696  -6.624  1.00  0.00     0.018 A 
ATOM     10  C   UNL     1      -3.607  -1.550  -7.401  1.00  0.00     0.018 A 
BRANCH   6  11
ATOM     11  N   UNL     1      -0.989   0.199  -9.373  1.00  0.00    -0.321 N 
ATOM     12  C   UNL     1       0.123   1.024  -9.326  1.00  0.00     0.276 C 
ATOM     13  O   UNL     1       0.420   1.611 -10.371  1.00  0.00    -0.267 OA
ATOM     14  H   UNL     1      -1.087  -0.317 -10.206  1.00  0.00     0.170 HD
BRANCH  12  15
ATOM     15  C   UNL     1       1.020   1.051  -8.131  1.00  0.00     0.155 A 
ATOM     16  C   UNL     1       1.736  -0.970  -2.543  1.00  0.00     0.161 A 
ATOM     17  C   UNL     1       1.077  -1.456  -3.694  1.00  0.00     0.055 A 
ATOM     18  C   UNL     1       2.763  -0.012  -2.644  1.00  0.00     0.161 A 
ATOM     19  C   UNL     1       1.286  -0.822  -4.912  1.00  0.00    -0.030 A 
ATOM     20  C   UNL     1       2.982   0.624  -3.860  1.00  0.00     0.061 A 
ATOM     21  C   UNL     1       2.231   0.215  -4.948  1.00  0.00     0.008 A 
ATOM     22  C   UNL     1       0.524  -0.982  -6.268  1.00  0.00     0.076 C 
ATOM     23  C   UNL     1       2.105   0.774  -6.242  1.00  0.00     0.079 A 
ATOM     24  C   UNL     1       1.092   0.223  -6.971  1.00  0.00     0.016 A 
ATOM     25  N   UNL     1       2.851   1.533  -7.068  1.00  0.00    -0.232 N 
ATOM     26  N   UNL     1       2.076   1.939  -8.110  1.00  0.00    -0.162 NA
BRANCH  16  27
ATOM     27  O   UNL     1       1.305  -1.456  -1.330  1.00  0.00    -0.493 OA
ATOM     28  C   UNL     1       0.759  -0.419  -0.502  1.00  0.00     0.278 C 
ENDBRANCH  16  27
BRANCH  18  29
ATOM     29  O   UNL     1       3.551   0.435  -1.617  1.00  0.00    -0.493 OA
ATOM     30  C   UNL     1       4.019  -0.568  -0.716  1.00  0.00     0.278 C 
ENDBRANCH  18  29
BRANCH  25  31
ATOM     31  C   UNL     1       4.248   1.728  -6.942  1.00  0.00     0.065 A 
ATOM     32  C   UNL     1       4.842   2.958  -7.213  1.00  0.00     0.031 A 
ATOM     33  C   UNL     1       5.023   0.663  -6.428  1.00  0.00     0.031 A 
ATOM     34  C   UNL     1       6.186   3.143  -6.859  1.00  0.00     0.041 A 
ATOM     35  C   UNL     1       6.360   0.850  -6.099  1.00  0.00     0.041 A 
ATOM     36  C   UNL     1       6.924   2.099  -6.295  1.00  0.00     0.123 A 
ATOM     37  F   UNL     1       8.196   2.304  -5.927  1.00  0.00    -0.207 F 
ENDBRANCH  25  31
ENDBRANCH  12  15
ENDBRANCH   6  11
ENDBRANCH   3   5
ENDBRANCH   2   3
ENDBRANCH   1   2
BRANCH   1  38
ATOM     38  C   UNL     1      -4.198  -2.577  -2.328  1.00  0.00     0.275 C 
BRANCH  38  39
ATOM     39  O   UNL     1      -3.585  -1.340  -1.931  1.00  0.00    -0.458 OA
BRANCH  39  40
ATOM     40  C   UNL     1      -2.486  -1.052  -2.656  1.00  0.00     0.338 C 
ATOM     41  O   UNL     1      -1.855  -1.858  -3.328  1.00  0.00    -0.246 OA
BRANCH  40  42
ATOM     42  C   UNL     1      -2.342   0.410  -2.815  1.00  0.00     0.060 A 
ATOM     43  C   UNL     1      -3.083   1.362  -2.118  1.00  0.00     0.016 A 
ATOM     44  C   UNL     1      -1.587   0.803  -3.911  1.00  0.00     0.016 A 
ATOM     45  C   UNL     1      -3.240   2.635  -2.676  1.00  0.00     0.010 A 
ATOM     46  C   UNL     1      -1.694   2.069  -4.434  1.00  0.00     0.010 A 
ATOM     47  C   UNL     1      -2.633   2.938  -3.899  1.00  0.00    -0.014 A 
BRANCH  47  48
ATOM     48  C   UNL     1      -2.894   4.161  -4.643  1.00  0.00     0.031 A 
ATOM     49  C   UNL     1      -1.805   5.151  -4.571  1.00  0.00     0.074 A 
ATOM     50  C   UNL     1      -3.929   4.438  -5.463  1.00  0.00     0.049 A 
ATOM     51  N   UNL     1      -1.741   6.087  -3.688  1.00  0.00    -0.248 NA
ATOM     52  C   UNL     1      -0.637   5.064  -5.450  1.00  0.00     0.031 C 
ATOM     53  C   UNL     1      -5.043   3.613  -5.933  1.00  0.00     0.029 A 
ATOM     54  N   UNL     1      -4.154   5.628  -6.096  1.00  0.00    -0.354 N 
ATOM     55  C   UNL     1      -0.617   6.831  -3.994  1.00  0.00     0.074 A 
ATOM     56  C   UNL     1       0.118   6.051  -4.959  1.00  0.00     0.031 C 
ATOM     57  C   UNL     1      -5.713   4.260  -6.920  1.00  0.00     0.029 A 
ATOM     58  C   UNL     1      -5.218   5.623  -6.980  1.00  0.00     0.049 A 
ATOM     59  H   UNL     1      -3.602   6.427  -5.936  1.00  0.00     0.167 HD
ATOM     60  C   UNL     1      -0.518   8.120  -3.567  1.00  0.00     0.037 A 
ATOM     61  C   UNL     1      -5.744   6.696  -7.615  1.00  0.00     0.037 A 
ATOM     62  C   UNL     1      -1.572   8.435  -2.624  1.00  0.00     0.049 A 
ATOM     63  C   UNL     1      -5.477   7.872  -6.750  1.00  0.00     0.074 A 
ATOM     64  C   UNL     1      -1.980   7.910  -1.410  1.00  0.00     0.029 A 
ATOM     65  N   UNL     1      -2.645   9.170  -3.075  1.00  0.00    -0.354 N 
ATOM     66  N   UNL     1      -6.031   8.050  -5.581  1.00  0.00    -0.248 NA
ATOM     67  C   UNL     1      -4.286   8.666  -7.002  1.00  0.00     0.031 C 
ATOM     68  C   UNL     1      -3.409   7.938  -1.453  1.00  0.00     0.029 A 
ATOM     69  C   UNL     1      -3.783   8.522  -2.663  1.00  0.00     0.049 A 
ATOM     70  H   UNL     1      -2.604  10.004  -3.595  1.00  0.00     0.167 HD
ATOM     71  C   UNL     1      -5.036   8.622  -4.806  1.00  0.00     0.074 A 
ATOM     72  C   UNL     1      -4.033   9.085  -5.760  1.00  0.00     0.031 C 
ATOM     73  C   UNL     1      -4.991   8.430  -3.454  1.00  0.00     0.037 A 
BRANCH  60  74
ATOM     74  C   UNL     1       0.305   9.196  -4.222  1.00  0.00     0.064 A 
ATOM     75  C   UNL     1       0.430  10.439  -3.569  1.00  0.00     0.173 A 
ATOM     76  C   UNL     1       0.750   9.165  -5.559  1.00  0.00     0.173 A 
ATOM     77  F   UNL     1       0.033  10.588  -2.296  1.00  0.00    -0.203 F 
ATOM     78  C   UNL     1       0.880  11.581  -4.232  1.00  0.00     0.198 A 
ATOM     79  C   UNL     1       1.257  10.294  -6.201  1.00  0.00     0.198 A 
ATOM     80  F   UNL     1       0.611   8.084  -6.334  1.00  0.00    -0.203 F 
ATOM     81  F   UNL     1       0.852  12.765  -3.607  1.00  0.00    -0.200 F 
ATOM     82  C   UNL     1       1.288  11.509  -5.550  1.00  0.00     0.200 A 
ATOM     83  F   UNL     1       1.637  10.207  -7.483  1.00  0.00    -0.200 F 
ATOM     84  F   UNL     1       1.663  12.613  -6.207  1.00  0.00    -0.200 F 
ENDBRANCH  60  74
BRANCH  61  85
ATOM     85  C   UNL     1      -6.288   6.808  -8.983  1.00  0.00     0.064 A 
ATOM     86  C   UNL     1      -7.057   7.917  -9.371  1.00  0.00     0.173 A 
ATOM     87  C   UNL     1      -5.806   5.982 -10.017  1.00  0.00     0.173 A 
ATOM     88  F   UNL     1      -7.525   8.770  -8.449  1.00  0.00    -0.203 F 
ATOM     89  C   UNL     1      -7.291   8.211 -10.718  1.00  0.00     0.198 A 
ATOM     90  C   UNL     1      -6.041   6.277 -11.361  1.00  0.00     0.198 A 
ATOM     91  F   UNL     1      -5.017   4.933  -9.741  1.00  0.00    -0.203 F 
ATOM     92  F   UNL     1      -7.970   9.318 -11.051  1.00  0.00    -0.200 F 
ATOM     93  C   UNL     1      -6.769   7.400 -11.712  1.00  0.00     0.200 A 
ATOM     94  F   UNL     1      -5.504   5.505 -12.317  1.00  0.00    -0.200 F 
ATOM     95  F   UNL     1      -6.931   7.723 -13.002  1.00  0.00    -0.200 F 
ENDBRANCH  61  85
BRANCH  73  96
ATOM     96  C   UNL     1      -6.200   7.836  -2.781  1.00  0.00     0.064 A 
ATOM     97  C   UNL     1      -6.693   6.546  -3.043  1.00  0.00     0.173 A 
ATOM     98  C   UNL     1      -6.790   8.542  -1.723  1.00  0.00     0.173 A 
ATOM     99  F   UNL     1      -6.128   5.769  -3.972  1.00  0.00    -0.203 F 
ATOM    100  C   UNL     1      -7.743   6.004  -2.304  1.00  0.00     0.198 A 
ATOM    101  C   UNL     1      -7.817   7.985  -0.963  1.00  0.00     0.198 A 
ATOM    102  F   UNL     1      -6.334   9.760  -1.391  1.00  0.00    -0.203 F 
ATOM    103  F   UNL     1      -8.192   4.769  -2.578  1.00  0.00    -0.200 F 
ATOM    104  C   UNL     1      -8.298   6.720  -1.258  1.00  0.00     0.200 A 
ATOM    105  F   UNL     1      -8.320   8.665   0.077  1.00  0.00    -0.200 F 
ATOM    106  F   UNL     1      -9.275   6.181  -0.515  1.00  0.00    -0.200 F 
ENDBRANCH  73  96
ENDBRANCH  47  48
ENDBRANCH  40  42
ENDBRANCH  39  40
ENDBRANCH  38  39
ENDBRANCH   1  38
TORSDOF 16
