REMARK SMILES CC(C)[C@H](NC(=O)CC[NH3+])C(=O)OCCOC(=O)c1ccc(-c2c3nc(c(-c4c(F)c(F)c(F)c(F)c4F)c4ccc([nH]4)c(-c4c(F)c(F)c(F)c(F)c4F)c4nc(c(-c5c(F)c(F)c(F)c(F)c5F)c5ccc2[nH]5)C=C4)C=C3)cc1
REMARK SMILES IDX 14 1 13 2 11 3 12 4 4 5 2 6 1 7 3 8 5 9 6 10 7 12 8 13 9 14
REMARK SMILES IDX 10 15 15 19 16 20 17 21 18 22 19 23 20 24 81 25 21 26 80 27
REMARK SMILES IDX 22 28 23 29 24 30 74 31 25 32 79 33 73 34 75 35 26 36 78 37
REMARK SMILES IDX 72 38 71 39 27 41 59 42 39 43 58 44 40 45 43 46 57 47 76 48
REMARK SMILES IDX 41 49 42 50 56 52 77 53 44 54 28 55 29 56 37 57 30 58 31 59
REMARK SMILES IDX 35 60 38 61 32 62 33 63 36 64 34 65 60 66 61 67 69 68 62 69
REMARK SMILES IDX 63 70 67 71 70 72 64 73 65 74 68 75 66 76 45 77 46 78 54 79
REMARK SMILES IDX 47 80 48 81 52 82 55 83 49 84 50 85 53 86 51 87
REMARK H PARENT 5 11 10 16 10 17 10 18 75 40 43 51
REMARK Flexibility Score: inf
ROOT
ATOM      1  C   UNL     1      -1.476  -4.159   3.482  1.00  0.00     0.274 C 
ENDROOT
BRANCH   1   2
ATOM      2  O   UNL     1      -0.718  -3.324   2.583  1.00  0.00    -0.461 OA
BRANCH   2   3
ATOM      3  C   UNL     1      -1.482  -2.472   1.846  1.00  0.00     0.329 C 
ATOM      4  O   UNL     1      -2.706  -2.413   1.926  1.00  0.00    -0.250 OA
BRANCH   3   5
ATOM      5  C   UNL     1      -0.670  -1.553   0.909  1.00  0.00     0.194 C 
BRANCH   5   6
ATOM      6  C   UNL     1      -1.075  -1.687  -0.591  1.00  0.00     0.017 C 
ATOM      7  C   UNL     1      -0.355  -2.824  -1.325  1.00  0.00     0.010 C 
ATOM      8  C   UNL     1      -2.584  -1.821  -0.827  1.00  0.00     0.010 C 
ENDBRANCH   5   6
BRANCH   5   9
ATOM      9  N   UNL     1       0.797  -1.599   1.046  1.00  0.00    -0.342 N 
ATOM     10  C   UNL     1       1.633  -0.786   1.750  1.00  0.00     0.226 C 
ATOM     11  H   UNL     1       1.240  -2.329   0.554  1.00  0.00     0.164 HD
ATOM     12  O   UNL     1       2.843  -0.850   1.529  1.00  0.00    -0.275 OA
BRANCH  10  13
ATOM     13  C   UNL     1       1.074   0.143   2.798  1.00  0.00     0.161 C 
BRANCH  13  14
ATOM     14  C   UNL     1       0.901   1.592   2.357  1.00  0.00     0.268 C 
BRANCH  14  15
ATOM     15  N   UNL     1      -0.055   1.778   1.265  1.00  0.00    -0.357 N 
ATOM     16  H   UNL     1       0.275   1.285   0.436  1.00  0.00     0.344 HD
ATOM     17  H   UNL     1      -0.144   2.773   1.057  1.00  0.00     0.344 HD
ATOM     18  H   UNL     1      -0.964   1.406   1.542  1.00  0.00     0.344 HD
ENDBRANCH  14  15
ENDBRANCH  13  14
ENDBRANCH  10  13
ENDBRANCH   5   9
ENDBRANCH   3   5
ENDBRANCH   2   3
ENDBRANCH   1   2
BRANCH   1  19
ATOM     19  C   UNL     1      -1.600  -3.530   4.870  1.00  0.00     0.275 C 
BRANCH  19  20
ATOM     20  O   UNL     1      -2.146  -2.198   4.792  1.00  0.00    -0.458 OA
BRANCH  20  21
ATOM     21  C   UNL     1      -1.398  -1.230   5.366  1.00  0.00     0.338 C 
ATOM     22  O   UNL     1      -0.332  -1.369   5.951  1.00  0.00    -0.246 OA
BRANCH  21  23
ATOM     23  C   UNL     1      -2.037   0.092   5.229  1.00  0.00     0.060 A 
ATOM     24  C   UNL     1      -2.400   0.600   3.980  1.00  0.00     0.016 A 
ATOM     25  C   UNL     1      -2.130   0.899   6.365  1.00  0.00     0.016 A 
ATOM     26  C   UNL     1      -2.787   1.938   3.858  1.00  0.00     0.010 A 
ATOM     27  C   UNL     1      -2.590   2.212   6.252  1.00  0.00     0.010 A 
ATOM     28  C   UNL     1      -2.892   2.757   4.993  1.00  0.00    -0.014 A 
BRANCH  28  29
ATOM     29  C   UNL     1      -3.309   4.182   4.886  1.00  0.00     0.031 A 
ATOM     30  C   UNL     1      -2.375   5.285   5.306  1.00  0.00     0.074 A 
ATOM     31  C   UNL     1      -4.545   4.492   4.453  1.00  0.00     0.049 A 
ATOM     32  N   UNL     1      -2.621   6.562   5.473  1.00  0.00    -0.248 NA
ATOM     33  C   UNL     1      -0.981   4.903   5.582  1.00  0.00     0.031 C 
ATOM     34  C   UNL     1      -5.545   3.531   3.990  1.00  0.00     0.029 A 
ATOM     35  N   UNL     1      -5.176   5.708   4.346  1.00  0.00    -0.354 N 
ATOM     36  C   UNL     1      -1.431   7.125   5.915  1.00  0.00     0.074 A 
ATOM     37  C   UNL     1      -0.459   6.053   5.987  1.00  0.00     0.031 C 
ATOM     38  C   UNL     1      -6.657   4.191   3.636  1.00  0.00     0.029 A 
ATOM     39  C   UNL     1      -6.475   5.613   3.912  1.00  0.00     0.049 A 
ATOM     40  H   UNL     1      -4.739   6.564   4.560  1.00  0.00     0.167 HD
ATOM     41  C   UNL     1      -1.175   8.416   6.234  1.00  0.00     0.037 A 
ATOM     42  C   UNL     1      -7.429   6.555   3.788  1.00  0.00     0.037 A 
ATOM     43  C   UNL     1      -2.126   9.493   6.124  1.00  0.00     0.049 A 
ATOM     44  C   UNL     1      -7.129   7.974   4.173  1.00  0.00     0.074 A 
ATOM     45  C   UNL     1      -1.942  10.839   6.395  1.00  0.00     0.029 A 
ATOM     46  N   UNL     1      -3.438   9.347   5.701  1.00  0.00    -0.354 N 
ATOM     47  N   UNL     1      -6.014   8.488   4.630  1.00  0.00    -0.248 NA
ATOM     48  C   UNL     1      -8.229   8.941   4.044  1.00  0.00     0.031 C 
ATOM     49  C   UNL     1      -3.152  11.504   6.162  1.00  0.00     0.029 A 
ATOM     50  C   UNL     1      -4.079  10.577   5.716  1.00  0.00     0.049 A 
ATOM     51  H   UNL     1      -3.853   8.497   5.429  1.00  0.00     0.167 HD
ATOM     52  C   UNL     1      -6.275   9.833   4.845  1.00  0.00     0.074 A 
ATOM     53  C   UNL     1      -7.648  10.064   4.447  1.00  0.00     0.031 C 
ATOM     54  C   UNL     1      -5.449  10.790   5.333  1.00  0.00     0.037 A 
BRANCH  41  55
ATOM     55  C   UNL     1       0.189   8.748   6.760  1.00  0.00     0.064 A 
ATOM     56  C   UNL     1       1.301   8.849   5.912  1.00  0.00     0.173 A 
ATOM     57  C   UNL     1       0.369   9.039   8.121  1.00  0.00     0.173 A 
ATOM     58  F   UNL     1       1.180   8.570   4.605  1.00  0.00    -0.203 F 
ATOM     59  C   UNL     1       2.547   9.220   6.410  1.00  0.00     0.198 A 
ATOM     60  C   UNL     1       1.612   9.428   8.612  1.00  0.00     0.198 A 
ATOM     61  F   UNL     1      -0.666   8.962   8.971  1.00  0.00    -0.203 F 
ATOM     62  F   UNL     1       3.603   9.288   5.587  1.00  0.00    -0.200 F 
ATOM     63  C   UNL     1       2.700   9.516   7.757  1.00  0.00     0.200 A 
ATOM     64  F   UNL     1       1.756   9.724   9.911  1.00  0.00    -0.200 F 
ATOM     65  F   UNL     1       3.898   9.885   8.232  1.00  0.00    -0.200 F 
ENDBRANCH  41  55
BRANCH  42  66
ATOM     66  C   UNL     1      -8.775   6.165   3.303  1.00  0.00     0.064 A 
ATOM     67  C   UNL     1      -9.202   6.510   2.015  1.00  0.00     0.173 A 
ATOM     68  C   UNL     1      -9.646   5.412   4.105  1.00  0.00     0.173 A 
ATOM     69  F   UNL     1      -8.412   7.251   1.225  1.00  0.00    -0.203 F 
ATOM     70  C   UNL     1     -10.451   6.113   1.544  1.00  0.00     0.198 A 
ATOM     71  C   UNL     1     -10.884   4.996   3.625  1.00  0.00     0.198 A 
ATOM     72  F   UNL     1      -9.280   5.060   5.346  1.00  0.00    -0.203 F 
ATOM     73  F   UNL     1     -10.847   6.475   0.316  1.00  0.00    -0.200 F 
ATOM     74  C   UNL     1     -11.287   5.349   2.345  1.00  0.00     0.200 A 
ATOM     75  F   UNL     1     -11.684   4.248   4.397  1.00  0.00    -0.200 F 
ATOM     76  F   UNL     1     -12.482   4.955   1.885  1.00  0.00    -0.200 F 
ENDBRANCH  42  66
BRANCH  54  77
ATOM     77  C   UNL     1      -6.011  12.172   5.463  1.00  0.00     0.064 A 
ATOM     78  C   UNL     1      -6.886  12.506   6.508  1.00  0.00     0.173 A 
ATOM     79  C   UNL     1      -5.659  13.175   4.550  1.00  0.00     0.173 A 
ATOM     80  F   UNL     1      -7.264  11.574   7.395  1.00  0.00    -0.203 F 
ATOM     81  C   UNL     1      -7.402  13.794   6.621  1.00  0.00     0.198 A 
ATOM     82  C   UNL     1      -6.163  14.467   4.677  1.00  0.00     0.198 A 
ATOM     83  F   UNL     1      -4.824  12.903   3.535  1.00  0.00    -0.203 F 
ATOM     84  F   UNL     1      -8.266  14.084   7.604  1.00  0.00    -0.200 F 
ATOM     85  C   UNL     1      -7.038  14.774   5.709  1.00  0.00     0.200 A 
ATOM     86  F   UNL     1      -5.807  15.414   3.798  1.00  0.00    -0.200 F 
ATOM     87  F   UNL     1      -7.538  16.012   5.818  1.00  0.00    -0.200 F 
ENDBRANCH  54  77
ENDBRANCH  28  29
ENDBRANCH  21  23
ENDBRANCH  20  21
ENDBRANCH  19  20
ENDBRANCH   1  19
TORSDOF 16
