REMARK SMILES C[C@]([NH3+])(Cc1ccc(I)cc1)C(=O)OCCOC(=O)c1ccc(-c2c3nc(c(-c4c(F)c(F)c(F)c(F)c4F)c4ccc([nH]4)c(-c4c(F)c(F)c(F)c(F)c4F)c4nc(c(-c5c(F)c(F)c(F)c(F)c5F)c5ccc2[nH]5)C=C4)C=C3)cc1
REMARK SMILES IDX 15 1 14 2 12 3 13 4 2 5 1 6 4 7 5 8 6 9 11 10 7 11 10 12
REMARK SMILES IDX 8 13 9 14 3 15 16 19 17 20 18 21 19 22 20 23 21 24 82 25
REMARK SMILES IDX 22 26 81 27 23 28 24 29 25 30 75 31 26 32 80 33 74 34 76 35
REMARK SMILES IDX 27 36 79 37 73 38 72 39 28 41 60 42 40 43 59 44 41 45 44 46
REMARK SMILES IDX 58 47 77 48 42 49 43 50 57 52 78 53 45 54 29 55 30 56 38 57
REMARK SMILES IDX 31 58 32 59 36 60 39 61 33 62 34 63 37 64 35 65 61 66 62 67
REMARK SMILES IDX 70 68 63 69 64 70 68 71 71 72 65 73 66 74 69 75 67 76 46 77
REMARK SMILES IDX 47 78 55 79 48 80 49 81 53 82 56 83 50 84 51 85 54 86 52 87
REMARK H PARENT 3 16 3 17 3 18 76 40 44 51
REMARK Flexibility Score: inf
ROOT
ATOM      1  C   UNL     1       1.173  -3.778  -2.915  1.00  0.00     0.274 C 
ENDROOT
BRANCH   1   2
ATOM      2  O   UNL     1       0.409  -3.208  -1.832  1.00  0.00    -0.457 OA
BRANCH   2   3
ATOM      3  C   UNL     1       1.125  -2.433  -0.965  1.00  0.00     0.368 C 
ATOM      4  O   UNL     1       2.335  -2.247  -1.058  1.00  0.00    -0.245 OA
BRANCH   3   5
ATOM      5  C   UNL     1       0.263  -1.899   0.211  1.00  0.00     0.194 C 
ATOM      6  C   UNL     1       0.438  -2.927   1.341  1.00  0.00     0.092 C 
BRANCH   5   7
ATOM      7  C   UNL     1      -1.250  -1.746  -0.106  1.00  0.00     0.116 C 
BRANCH   7   8
ATOM      8  C   UNL     1      -1.669  -0.744  -1.166  1.00  0.00    -0.041 A 
ATOM      9  C   UNL     1      -1.589   0.638  -0.943  1.00  0.00     0.005 A 
ATOM     10  C   UNL     1      -2.229  -1.193  -2.372  1.00  0.00     0.005 A 
ATOM     11  C   UNL     1      -2.008   1.549  -1.918  1.00  0.00     0.015 A 
ATOM     12  C   UNL     1      -2.668  -0.285  -3.341  1.00  0.00     0.015 A 
ATOM     13  C   UNL     1      -2.542   1.083  -3.116  1.00  0.00     0.013 A 
ATOM     14  I   UNL     1      -3.161   2.438  -4.563  1.00  0.00    -0.044 I 
ENDBRANCH   7   8
ENDBRANCH   5   7
BRANCH   5  15
ATOM     15  N   UNL     1       0.848  -0.630   0.729  1.00  0.00    -0.343 N 
ATOM     16  H   UNL     1       0.762   0.098   0.019  1.00  0.00     0.345 HD
ATOM     17  H   UNL     1       1.833  -0.775   0.950  1.00  0.00     0.345 HD
ATOM     18  H   UNL     1       0.349  -0.345   1.571  1.00  0.00     0.345 HD
ENDBRANCH   5  15
ENDBRANCH   3   5
ENDBRANCH   2   3
ENDBRANCH   1   2
BRANCH   1  19
ATOM     19  C   UNL     1       1.151  -2.873  -4.147  1.00  0.00     0.275 C 
BRANCH  19  20
ATOM     20  O   UNL     1       1.632  -1.567  -3.797  1.00  0.00    -0.458 OA
BRANCH  20  21
ATOM     21  C   UNL     1       1.025  -0.533  -4.422  1.00  0.00     0.338 C 
ATOM     22  O   UNL     1       0.198  -0.609  -5.315  1.00  0.00    -0.246 OA
BRANCH  21  23
ATOM     23  C   UNL     1       1.528   0.755  -3.889  1.00  0.00     0.060 A 
ATOM     24  C   UNL     1       1.942   0.902  -2.561  1.00  0.00     0.016 A 
ATOM     25  C   UNL     1       1.534   1.864  -4.736  1.00  0.00     0.016 A 
ATOM     26  C   UNL     1       2.297   2.159  -2.065  1.00  0.00     0.010 A 
ATOM     27  C   UNL     1       1.967   3.104  -4.262  1.00  0.00     0.010 A 
ATOM     28  C   UNL     1       2.328   3.273  -2.914  1.00  0.00    -0.014 A 
BRANCH  28  29
ATOM     29  C   UNL     1       2.724   4.622  -2.422  1.00  0.00     0.031 A 
ATOM     30  C   UNL     1       1.758   5.772  -2.522  1.00  0.00     0.074 A 
ATOM     31  C   UNL     1       3.962   4.835  -1.934  1.00  0.00     0.049 A 
ATOM     32  N   UNL     1       1.973   7.054  -2.361  1.00  0.00    -0.248 NA
ATOM     33  C   UNL     1       0.367   5.436  -2.863  1.00  0.00     0.031 C 
ATOM     34  C   UNL     1       4.990   3.811  -1.752  1.00  0.00     0.029 A 
ATOM     35  N   UNL     1       4.569   5.994  -1.514  1.00  0.00    -0.354 N 
ATOM     36  C   UNL     1       0.762   7.679  -2.630  1.00  0.00     0.074 A 
ATOM     37  C   UNL     1      -0.186   6.636  -2.964  1.00  0.00     0.031 C 
ATOM     38  C   UNL     1       6.094   4.382  -1.246  1.00  0.00     0.029 A 
ATOM     39  C   UNL     1       5.879   5.821  -1.137  1.00  0.00     0.049 A 
ATOM     40  H   UNL     1       4.111   6.865  -1.487  1.00  0.00     0.167 HD
ATOM     41  C   UNL     1       0.471   9.002  -2.606  1.00  0.00     0.037 A 
ATOM     42  C   UNL     1       6.817   6.721  -0.787  1.00  0.00     0.037 A 
ATOM     43  C   UNL     1       1.403  10.035  -2.237  1.00  0.00     0.049 A 
ATOM     44  C   UNL     1       6.477   8.184  -0.789  1.00  0.00     0.074 A 
ATOM     45  C   UNL     1       1.194  11.402  -2.165  1.00  0.00     0.029 A 
ATOM     46  N   UNL     1       2.721   9.813  -1.867  1.00  0.00    -0.354 N 
ATOM     47  N   UNL     1       5.342   8.767  -1.086  1.00  0.00    -0.248 NA
ATOM     48  C   UNL     1       7.555   9.115  -0.426  1.00  0.00     0.031 C 
ATOM     49  C   UNL     1       2.394  12.010  -1.778  1.00  0.00     0.029 A 
ATOM     50  C   UNL     1       3.339  11.019  -1.574  1.00  0.00     0.049 A 
ATOM     51  H   UNL     1       3.153   8.930  -1.819  1.00  0.00     0.167 HD
ATOM     52  C   UNL     1       5.564  10.129  -0.938  1.00  0.00     0.074 A 
ATOM     53  C   UNL     1       6.938  10.285  -0.506  1.00  0.00     0.031 C 
ATOM     54  C   UNL     1       4.707  11.157  -1.147  1.00  0.00     0.037 A 
BRANCH  41  55
ATOM     55  C   UNL     1      -0.911   9.417  -3.015  1.00  0.00     0.064 A 
ATOM     56  C   UNL     1      -2.019   9.225  -2.177  1.00  0.00     0.173 A 
ATOM     57  C   UNL     1      -1.120  10.064  -4.243  1.00  0.00     0.173 A 
ATOM     58  F   UNL     1      -1.873   8.600  -0.999  1.00  0.00    -0.203 F 
ATOM     59  C   UNL     1      -3.288   9.652  -2.561  1.00  0.00     0.198 A 
ATOM     60  C   UNL     1      -2.386  10.509  -4.613  1.00  0.00     0.198 A 
ATOM     61  F   UNL     1      -0.092  10.276  -5.079  1.00  0.00    -0.203 F 
ATOM     62  F   UNL     1      -4.338   9.429  -1.758  1.00  0.00    -0.200 F 
ATOM     63  C   UNL     1      -3.470  10.299  -3.774  1.00  0.00     0.200 A 
ATOM     64  F   UNL     1      -2.557  11.145  -5.781  1.00  0.00    -0.200 F 
ATOM     65  F   UNL     1      -4.690  10.718  -4.136  1.00  0.00    -0.200 F 
ENDBRANCH  41  55
BRANCH  42  66
ATOM     66  C   UNL     1       8.183   6.256  -0.433  1.00  0.00     0.064 A 
ATOM     67  C   UNL     1       8.639   6.309   0.890  1.00  0.00     0.173 A 
ATOM     68  C   UNL     1       9.049   5.731  -1.404  1.00  0.00     0.173 A 
ATOM     69  F   UNL     1       7.857   6.830   1.847  1.00  0.00    -0.203 F 
ATOM     70  C   UNL     1       9.912   5.856   1.230  1.00  0.00     0.198 A 
ATOM     71  C   UNL     1      10.311   5.254  -1.059  1.00  0.00     0.198 A 
ATOM     72  F   UNL     1       8.659   5.663  -2.685  1.00  0.00    -0.203 F 
ATOM     73  F   UNL     1      10.337   5.946   2.498  1.00  0.00    -0.200 F 
ATOM     74  C   UNL     1      10.743   5.320   0.257  1.00  0.00     0.200 A 
ATOM     75  F   UNL     1      11.106   4.727  -2.000  1.00  0.00    -0.200 F 
ATOM     76  F   UNL     1      11.962   4.872   0.587  1.00  0.00    -0.200 F 
ENDBRANCH  42  66
BRANCH  54  77
ATOM     77  C   UNL     1       5.226  12.539  -0.888  1.00  0.00     0.064 A 
ATOM     78  C   UNL     1       6.100  13.171  -1.783  1.00  0.00     0.173 A 
ATOM     79  C   UNL     1       4.827  13.245   0.257  1.00  0.00     0.173 A 
ATOM     80  F   UNL     1       6.522  12.528  -2.883  1.00  0.00    -0.203 F 
ATOM     81  C   UNL     1       6.575  14.456  -1.530  1.00  0.00     0.198 A 
ATOM     82  C   UNL     1       5.287  14.537   0.495  1.00  0.00     0.198 A 
ATOM     83  F   UNL     1       3.990  12.683   1.141  1.00  0.00    -0.203 F 
ATOM     84  F   UNL     1       7.442  15.026  -2.378  1.00  0.00    -0.200 F 
ATOM     85  C   UNL     1       6.165  15.138  -0.394  1.00  0.00     0.200 A 
ATOM     86  F   UNL     1       4.886  15.198   1.590  1.00  0.00    -0.200 F 
ATOM     87  F   UNL     1       6.624  16.374  -0.152  1.00  0.00    -0.200 F 
ENDBRANCH  54  77
ENDBRANCH  28  29
ENDBRANCH  21  23
ENDBRANCH  20  21
ENDBRANCH  19  20
ENDBRANCH   1  19
TORSDOF 14
