REMARK SMILES CCN(Cc1ccccn1)C(=O)NC(=O)CCCC(=O)OCCOC(=O)c1ccc(-c2c3nc(c(-c4c(F)c(F)c(F)c(F)c4F)c4ccc([nH]4)c(-c4c(F)c(F)c(F)c(F)c4F)c4nc(c(-c5c(F)c(F)c(F)c(F)c5F)c5ccc2[nH]5)C=C4)C=C3)cc1
REMARK SMILES IDX 19 1 20 2 18 3 17 4 16 5 14 6 11 7 12 8 13 9 15 11 3 12 2 13
REMARK SMILES IDX 1 14 4 15 5 16 6 17 10 18 7 19 9 20 8 21 21 22 22 23 23 24
REMARK SMILES IDX 24 25 25 26 26 27 27 28 28 29 89 30 29 31 88 32 30 33 31 34
REMARK SMILES IDX 32 35 82 36 33 37 87 38 81 39 83 40 34 41 86 42 80 43 79 44
REMARK SMILES IDX 35 46 67 47 47 48 66 49 48 50 51 51 65 52 84 53 49 54 50 55
REMARK SMILES IDX 64 57 85 58 52 59 36 60 37 61 45 62 38 63 39 64 43 65 46 66
REMARK SMILES IDX 40 67 41 68 44 69 42 70 68 71 69 72 77 73 70 74 71 75 75 76
REMARK SMILES IDX 78 77 72 78 73 79 76 80 74 81 53 82 54 83 62 84 55 85 56 86
REMARK SMILES IDX 60 87 63 88 57 89 58 90 61 91 59 92
REMARK H PARENT 13 10 83 45 51 56
REMARK Flexibility Score: inf
ROOT
ATOM      1  C   UNL     1       0.137   0.344   1.281  1.00  0.00     0.305 C 
ATOM      2  O   UNL     1       0.325  -0.235   0.215  1.00  0.00    -0.252 OA
ENDROOT
BRANCH   1   3
ATOM      3  C   UNL     1       0.732   1.732   1.538  1.00  0.00     0.123 C 
BRANCH   3   4
ATOM      4  C   UNL     1       0.118   2.694   2.545  1.00  0.00     0.022 C 
BRANCH   4   5
ATOM      5  C   UNL     1       0.743   2.907   3.930  1.00  0.00     0.101 C 
BRANCH   5   6
ATOM      6  C   UNL     1       2.237   3.075   4.182  1.00  0.00     0.228 C 
ATOM      7  C   UNL     1       3.551   0.892   3.480  1.00  0.00     0.324 C 
ATOM      8  O   UNL     1       4.678   0.807   2.984  1.00  0.00    -0.248 OA
ATOM      9  N   UNL     1       3.224   2.120   4.016  1.00  0.00    -0.278 N 
ATOM     10  H   UNL     1       4.029   2.458   4.472  1.00  0.00     0.174 HD
ATOM     11  O   UNL     1       2.633   4.155   4.647  1.00  0.00    -0.275 OA
BRANCH   7  12
ATOM     12  N   UNL     1       2.670  -0.143   3.441  1.00  0.00    -0.319 N 
BRANCH  12  13
ATOM     13  C   UNL     1       2.958  -1.269   2.524  1.00  0.00     0.118 C 
ATOM     14  C   UNL     1       3.293  -0.879   1.078  1.00  0.00     0.027 C 
ENDBRANCH  12  13
BRANCH  12  15
ATOM     15  C   UNL     1       1.513  -0.298   4.306  1.00  0.00     0.177 C 
BRANCH  15  16
ATOM     16  C   UNL     1       1.591  -0.618   5.777  1.00  0.00     0.060 A 
ATOM     17  C   UNL     1       1.585   0.402   6.727  1.00  0.00     0.026 A 
ATOM     18  N   UNL     1       1.254  -1.898   6.095  1.00  0.00    -0.259 NA
ATOM     19  C   UNL     1       1.129   0.116   8.014  1.00  0.00     0.004 A 
ATOM     20  C   UNL     1       0.824  -2.145   7.350  1.00  0.00     0.111 A 
ATOM     21  C   UNL     1       0.719  -1.173   8.327  1.00  0.00     0.020 A 
ENDBRANCH  15  16
ENDBRANCH  12  15
ENDBRANCH   7  12
ENDBRANCH   5   6
ENDBRANCH   4   5
ENDBRANCH   3   4
ENDBRANCH   1   3
BRANCH   1  22
ATOM     22  O   UNL     1      -0.533  -0.210   2.324  1.00  0.00    -0.462 OA
BRANCH  22  23
ATOM     23  C   UNL     1      -0.922  -1.611   2.189  1.00  0.00     0.274 C 
BRANCH  23  24
ATOM     24  C   UNL     1      -2.366  -1.843   2.640  1.00  0.00     0.275 C 
BRANCH  24  25
ATOM     25  O   UNL     1      -3.250  -1.393   1.609  1.00  0.00    -0.458 OA
BRANCH  25  26
ATOM     26  C   UNL     1      -3.365  -0.042   1.551  1.00  0.00     0.338 C 
ATOM     27  O   UNL     1      -3.290   0.741   2.472  1.00  0.00    -0.246 OA
BRANCH  26  28
ATOM     28  C   UNL     1      -3.226   0.325   0.126  1.00  0.00     0.060 A 
ATOM     29  C   UNL     1      -2.434   1.441  -0.169  1.00  0.00     0.016 A 
ATOM     30  C   UNL     1      -3.741  -0.476  -0.896  1.00  0.00     0.016 A 
ATOM     31  C   UNL     1      -2.102   1.733  -1.485  1.00  0.00     0.010 A 
ATOM     32  C   UNL     1      -3.467  -0.147  -2.218  1.00  0.00     0.010 A 
ATOM     33  C   UNL     1      -2.656   0.962  -2.511  1.00  0.00    -0.014 A 
BRANCH  33  34
ATOM     34  C   UNL     1      -2.641   1.478  -3.889  1.00  0.00     0.031 A 
ATOM     35  C   UNL     1      -3.739   2.427  -4.259  1.00  0.00     0.074 A 
ATOM     36  C   UNL     1      -1.716   1.080  -4.775  1.00  0.00     0.049 A 
ATOM     37  N   UNL     1      -4.085   2.885  -5.431  1.00  0.00    -0.248 NA
ATOM     38  C   UNL     1      -4.569   2.925  -3.147  1.00  0.00     0.031 C 
ATOM     39  C   UNL     1      -0.565   0.231  -4.477  1.00  0.00     0.029 A 
ATOM     40  N   UNL     1      -1.622   1.325  -6.120  1.00  0.00    -0.354 N 
ATOM     41  C   UNL     1      -5.173   3.712  -5.195  1.00  0.00     0.074 A 
ATOM     42  C   UNL     1      -5.441   3.691  -3.777  1.00  0.00     0.031 C 
ATOM     43  C   UNL     1       0.106  -0.004  -5.619  1.00  0.00     0.029 A 
ATOM     44  C   UNL     1      -0.602   0.635  -6.727  1.00  0.00     0.049 A 
ATOM     45  H   UNL     1      -2.225   1.935  -6.602  1.00  0.00     0.167 HD
ATOM     46  C   UNL     1      -5.895   4.415  -6.095  1.00  0.00     0.037 A 
ATOM     47  C   UNL     1      -0.322   0.506  -8.039  1.00  0.00     0.037 A 
ATOM     48  C   UNL     1      -5.641   4.377  -7.507  1.00  0.00     0.049 A 
ATOM     49  C   UNL     1      -1.220   1.198  -9.037  1.00  0.00     0.074 A 
ATOM     50  C   UNL     1      -6.322   5.011  -8.526  1.00  0.00     0.029 A 
ATOM     51  N   UNL     1      -4.622   3.639  -8.095  1.00  0.00    -0.354 N 
ATOM     52  N   UNL     1      -2.258   1.973  -8.823  1.00  0.00    -0.248 NA
ATOM     53  C   UNL     1      -0.918   0.985 -10.459  1.00  0.00     0.031 C 
ATOM     54  C   UNL     1      -5.751   4.611  -9.738  1.00  0.00     0.029 A 
ATOM     55  C   UNL     1      -4.673   3.779  -9.469  1.00  0.00     0.049 A 
ATOM     56  H   UNL     1      -3.962   3.096  -7.606  1.00  0.00     0.167 HD
ATOM     57  C   UNL     1      -2.714   2.363 -10.075  1.00  0.00     0.074 A 
ATOM     58  C   UNL     1      -1.832   1.746 -11.046  1.00  0.00     0.031 C 
ATOM     59  C   UNL     1      -3.764   3.158 -10.401  1.00  0.00     0.037 A 
BRANCH  46  60
ATOM     60  C   UNL     1      -7.053   5.208  -5.570  1.00  0.00     0.064 A 
ATOM     61  C   UNL     1      -6.868   6.351  -4.777  1.00  0.00     0.173 A 
ATOM     62  C   UNL     1      -8.368   4.800  -5.835  1.00  0.00     0.173 A 
ATOM     63  F   UNL     1      -5.630   6.764  -4.465  1.00  0.00    -0.203 F 
ATOM     64  C   UNL     1      -7.956   7.037  -4.243  1.00  0.00     0.198 A 
ATOM     65  C   UNL     1      -9.455   5.506  -5.327  1.00  0.00     0.198 A 
ATOM     66  F   UNL     1      -8.601   3.706  -6.577  1.00  0.00    -0.203 F 
ATOM     67  F   UNL     1      -7.754   8.086  -3.434  1.00  0.00    -0.200 F 
ATOM     68  C   UNL     1      -9.248   6.618  -4.524  1.00  0.00     0.200 A 
ATOM     69  F   UNL     1     -10.702   5.102  -5.602  1.00  0.00    -0.200 F 
ATOM     70  F   UNL     1     -10.295   7.276  -4.008  1.00  0.00    -0.200 F 
ENDBRANCH  46  60
BRANCH  47  71
ATOM     71  C   UNL     1       0.820  -0.336  -8.488  1.00  0.00     0.064 A 
ATOM     72  C   UNL     1       1.924   0.233  -9.138  1.00  0.00     0.173 A 
ATOM     73  C   UNL     1       0.821  -1.728  -8.306  1.00  0.00     0.173 A 
ATOM     74  F   UNL     1       1.960   1.554  -9.363  1.00  0.00    -0.203 F 
ATOM     75  C   UNL     1       2.974  -0.558  -9.605  1.00  0.00     0.198 A 
ATOM     76  C   UNL     1       1.885  -2.514  -8.746  1.00  0.00     0.198 A 
ATOM     77  F   UNL     1      -0.214  -2.328  -7.699  1.00  0.00    -0.203 F 
ATOM     78  F   UNL     1       3.991   0.008 -10.270  1.00  0.00    -0.200 F 
ATOM     79  C   UNL     1       2.957  -1.929  -9.403  1.00  0.00     0.200 A 
ATOM     80  F   UNL     1       1.867  -3.838  -8.541  1.00  0.00    -0.200 F 
ATOM     81  F   UNL     1       3.965  -2.688  -9.853  1.00  0.00    -0.200 F 
ENDBRANCH  47  71
BRANCH  59  82
ATOM     82  C   UNL     1      -3.991   3.441 -11.857  1.00  0.00     0.064 A 
ATOM     83  C   UNL     1      -4.499   2.468 -12.727  1.00  0.00     0.173 A 
ATOM     84  C   UNL     1      -3.770   4.731 -12.365  1.00  0.00     0.173 A 
ATOM     85  F   UNL     1      -4.715   1.217 -12.291  1.00  0.00    -0.203 F 
ATOM     86  C   UNL     1      -4.763   2.771 -14.060  1.00  0.00     0.198 A 
ATOM     87  C   UNL     1      -4.067   5.039 -13.688  1.00  0.00     0.198 A 
ATOM     88  F   UNL     1      -3.295   5.700 -11.567  1.00  0.00    -0.203 F 
ATOM     89  F   UNL     1      -5.213   1.817 -14.886  1.00  0.00    -0.200 F 
ATOM     90  C   UNL     1      -4.558   4.059 -14.536  1.00  0.00     0.200 A 
ATOM     91  F   UNL     1      -3.888   6.288 -14.139  1.00  0.00    -0.200 F 
ATOM     92  F   UNL     1      -4.832   4.353 -15.814  1.00  0.00    -0.200 F 
ENDBRANCH  59  82
ENDBRANCH  33  34
ENDBRANCH  26  28
ENDBRANCH  25  26
ENDBRANCH  24  25
ENDBRANCH  23  24
ENDBRANCH  22  23
ENDBRANCH   1  22
TORSDOF 18
