REMARK SMILES CN1C(=O)C(=Cc2ccc(OCc3cccc(C(=O)OCCOC(=O)c4ccc(-c5c6nc(c(-c7c(F)c(F)c(F)c(F)c7F)c7ccc([nH]7)c(-c7c(F)c(F)c(F)c(F)c7F)c7nc(c(-c8c(F)c(F)c(F)c(F)c8F)c8ccc5[nH]8)C=C7)C=C6)cc4)c3)c(Cl)c2)C(=O)N(C)C1=S
REMARK SMILES IDX 21 1 20 2 18 3 19 4 17 5 13 6 14 7 89 8 15 9 16 10 12 11
REMARK SMILES IDX 11 12 10 13 7 14 8 15 92 16 9 17 90 18 91 19 6 20 1 21 2 22
REMARK SMILES IDX 3 23 97 24 4 25 5 26 95 27 98 28 93 29 96 30 94 31 22 32
REMARK SMILES IDX 23 33 24 34 25 35 26 36 27 37 88 38 28 39 87 40 29 41 30 42
REMARK SMILES IDX 31 43 81 44 32 45 86 46 80 47 82 48 33 49 85 50 79 51 78 52
REMARK SMILES IDX 34 54 66 55 46 56 65 57 47 58 50 59 64 60 83 61 48 62 49 63
REMARK SMILES IDX 63 65 84 66 51 67 35 68 36 69 44 70 37 71 38 72 42 73 45 74
REMARK SMILES IDX 39 75 40 76 43 77 41 78 67 79 68 80 76 81 69 82 70 83 74 84
REMARK SMILES IDX 77 85 71 86 72 87 75 88 73 89 52 90 53 91 61 92 54 93 55 94
REMARK SMILES IDX 59 95 62 96 56 97 57 98 60 99 58 100
REMARK H PARENT 82 53 50 64
REMARK Flexibility Score: inf
ROOT
ATOM      1  C   UNL     1      -5.636   3.572   0.504  1.00  0.00     0.275 C 
ENDROOT
BRANCH   1   2
ATOM      2  O   UNL     1      -4.916   4.777   0.166  1.00  0.00    -0.458 OA
BRANCH   2   3
ATOM      3  C   UNL     1      -5.625   5.787  -0.403  1.00  0.00     0.338 C 
ATOM      4  O   UNL     1      -6.815   5.785  -0.672  1.00  0.00    -0.246 OA
BRANCH   3   5
ATOM      5  C   UNL     1      -4.760   6.989  -0.514  1.00  0.00     0.060 A 
ATOM      6  C   UNL     1      -2.535   7.975  -0.637  1.00  0.00    -0.010 A 
ATOM      7  C   UNL     1      -3.107   9.229  -0.363  1.00  0.00     0.007 A 
ATOM      8  C   UNL     1      -3.389   6.868  -0.754  1.00  0.00     0.023 A 
ATOM      9  C   UNL     1      -4.487   9.372  -0.216  1.00  0.00     0.001 A 
ATOM     10  C   UNL     1      -5.315   8.255  -0.304  1.00  0.00     0.016 A 
BRANCH   6  11
ATOM     11  C   UNL     1      -1.026   7.895  -0.793  1.00  0.00     0.265 C 
BRANCH  11  12
ATOM     12  O   UNL     1      -0.394   6.613  -0.856  1.00  0.00    -0.487 OA
BRANCH  12  13
ATOM     13  C   UNL     1      -0.691   5.643   0.058  1.00  0.00     0.138 A 
ATOM     14  C   UNL     1      -1.451   3.386   1.555  1.00  0.00    -0.023 A 
ATOM     15  C   UNL     1      -1.178   3.269   0.188  1.00  0.00     0.012 A 
ATOM     16  C   UNL     1      -1.352   4.638   2.167  1.00  0.00     0.032 A 
ATOM     17  C   UNL     1      -0.770   4.380  -0.542  1.00  0.00     0.048 A 
ATOM     18  C   UNL     1      -0.958   5.765   1.428  1.00  0.00     0.083 A 
ATOM     19  Cl  UNL     1      -0.786   7.240   2.308  1.00  0.00    -0.080 Cl
BRANCH  14  20
ATOM     20  C   UNL     1      -1.838   2.194   2.320  1.00  0.00     0.027 C 
ATOM     21  C   UNL     1       1.647  -0.224   0.295  1.00  0.00     0.156 C 
ATOM     22  N   UNL     1       0.524  -0.272   1.236  1.00  0.00    -0.288 N 
ATOM     23  C   UNL     1       0.237   0.955   1.812  1.00  0.00     0.265 C 
ATOM     24  C   UNL     1      -0.098  -1.481   1.601  1.00  0.00     0.185 C 
ATOM     25  O   UNL     1       1.038   1.885   1.863  1.00  0.00    -0.268 OA
ATOM     26  C   UNL     1      -1.112   1.059   2.380  1.00  0.00     0.106 C 
ATOM     27  N   UNL     1      -1.222  -1.354   2.450  1.00  0.00    -0.288 N 
ATOM     28  S   UNL     1       0.495  -2.979   1.074  1.00  0.00    -0.040 S 
ATOM     29  C   UNL     1      -1.755  -0.147   2.916  1.00  0.00     0.265 C 
ATOM     30  C   UNL     1      -1.997  -2.516   2.899  1.00  0.00     0.156 C 
ATOM     31  O   UNL     1      -2.731  -0.070   3.661  1.00  0.00    -0.268 OA
ENDBRANCH  14  20
ENDBRANCH  12  13
ENDBRANCH  11  12
ENDBRANCH   6  11
ENDBRANCH   3   5
ENDBRANCH   2   3
ENDBRANCH   1   2
BRANCH   1  32
ATOM     32  C   UNL     1      -5.860   3.486   2.014  1.00  0.00     0.275 C 
BRANCH  32  33
ATOM     33  O   UNL     1      -6.773   4.524   2.406  1.00  0.00    -0.458 OA
BRANCH  33  34
ATOM     34  C   UNL     1      -6.416   5.263   3.480  1.00  0.00     0.338 C 
ATOM     35  O   UNL     1      -5.469   5.097   4.227  1.00  0.00    -0.246 OA
BRANCH  34  36
ATOM     36  C   UNL     1      -7.358   6.387   3.588  1.00  0.00     0.060 A 
ATOM     37  C   UNL     1      -7.373   7.337   2.570  1.00  0.00     0.016 A 
ATOM     38  C   UNL     1      -8.164   6.548   4.711  1.00  0.00     0.016 A 
ATOM     39  C   UNL     1      -8.160   8.479   2.682  1.00  0.00     0.010 A 
ATOM     40  C   UNL     1      -9.009   7.663   4.793  1.00  0.00     0.010 A 
ATOM     41  C   UNL     1      -8.998   8.653   3.791  1.00  0.00    -0.014 A 
BRANCH  41  42
ATOM     42  C   UNL     1      -9.809   9.895   3.923  1.00  0.00     0.031 A 
ATOM     43  C   UNL     1      -9.570  10.832   5.077  1.00  0.00     0.074 A 
ATOM     44  C   UNL     1     -10.737  10.210   2.998  1.00  0.00     0.049 A 
ATOM     45  N   UNL     1     -10.253  11.886   5.448  1.00  0.00    -0.248 NA
ATOM     46  C   UNL     1      -8.411  10.537   5.933  1.00  0.00     0.031 C 
ATOM     47  C   UNL     1     -11.042   9.424   1.802  1.00  0.00     0.029 A 
ATOM     48  N   UNL     1     -11.591  11.284   2.913  1.00  0.00    -0.354 N 
ATOM     49  C   UNL     1      -9.643  12.344   6.608  1.00  0.00     0.074 A 
ATOM     50  C   UNL     1      -8.535  11.454   6.882  1.00  0.00     0.031 C 
ATOM     51  C   UNL     1     -11.984  10.057   1.087  1.00  0.00     0.029 A 
ATOM     52  C   UNL     1     -12.409  11.252   1.810  1.00  0.00     0.049 A 
ATOM     53  H   UNL     1     -11.614  12.008   3.580  1.00  0.00     0.167 HD
ATOM     54  C   UNL     1      -9.977  13.410   7.375  1.00  0.00     0.037 A 
ATOM     55  C   UNL     1     -13.413  12.069   1.438  1.00  0.00     0.037 A 
ATOM     56  C   UNL     1     -11.043  14.329   7.071  1.00  0.00     0.049 A 
ATOM     57  C   UNL     1     -13.781  13.232   2.317  1.00  0.00     0.074 A 
ATOM     58  C   UNL     1     -11.443  15.452   7.775  1.00  0.00     0.029 A 
ATOM     59  N   UNL     1     -11.870  14.240   5.960  1.00  0.00    -0.354 N 
ATOM     60  N   UNL     1     -13.230  13.628   3.439  1.00  0.00    -0.248 NA
ATOM     61  C   UNL     1     -14.923  14.051   1.889  1.00  0.00     0.031 C 
ATOM     62  C   UNL     1     -12.535  16.021   7.111  1.00  0.00     0.029 A 
ATOM     63  C   UNL     1     -12.788  15.279   5.969  1.00  0.00     0.049 A 
ATOM     64  H   UNL     1     -11.813  13.542   5.269  1.00  0.00     0.167 HD
ATOM     65  C   UNL     1     -13.951  14.741   3.846  1.00  0.00     0.074 A 
ATOM     66  C   UNL     1     -14.965  14.975   2.839  1.00  0.00     0.031 C 
ATOM     67  C   UNL     1     -13.793  15.497   4.960  1.00  0.00     0.037 A 
BRANCH  54  68
ATOM     68  C   UNL     1      -9.203  13.620   8.644  1.00  0.00     0.064 A 
ATOM     69  C   UNL     1      -7.879  14.080   8.642  1.00  0.00     0.173 A 
ATOM     70  C   UNL     1      -9.813  13.382   9.886  1.00  0.00     0.173 A 
ATOM     71  F   UNL     1      -7.246  14.309   7.481  1.00  0.00    -0.203 F 
ATOM     72  C   UNL     1      -7.184  14.266   9.835  1.00  0.00     0.198 A 
ATOM     73  C   UNL     1      -9.125  13.596  11.077  1.00  0.00     0.198 A 
ATOM     74  F   UNL     1     -11.081  12.947   9.944  1.00  0.00    -0.203 F 
ATOM     75  F   UNL     1      -5.903  14.661   9.807  1.00  0.00    -0.200 F 
ATOM     76  C   UNL     1      -7.809  14.030  11.050  1.00  0.00     0.200 A 
ATOM     77  F   UNL     1      -9.736  13.380  12.250  1.00  0.00    -0.200 F 
ATOM     78  F   UNL     1      -7.140  14.215  12.197  1.00  0.00    -0.200 F 
ENDBRANCH  54  68
BRANCH  55  79
ATOM     79  C   UNL     1     -14.167  11.791   0.188  1.00  0.00     0.064 A 
ATOM     80  C   UNL     1     -14.065  12.640  -0.922  1.00  0.00     0.173 A 
ATOM     81  C   UNL     1     -14.998  10.666   0.074  1.00  0.00     0.173 A 
ATOM     82  F   UNL     1     -13.307  13.744  -0.853  1.00  0.00    -0.203 F 
ATOM     83  C   UNL     1     -14.768  12.377  -2.096  1.00  0.00     0.198 A 
ATOM     84  C   UNL     1     -15.676  10.387  -1.110  1.00  0.00     0.198 A 
ATOM     85  F   UNL     1     -15.135   9.825   1.110  1.00  0.00    -0.203 F 
ATOM     86  F   UNL     1     -14.682  13.224  -3.131  1.00  0.00    -0.200 F 
ATOM     87  C   UNL     1     -15.565  11.246  -2.192  1.00  0.00     0.200 A 
ATOM     88  F   UNL     1     -16.435   9.287  -1.202  1.00  0.00    -0.200 F 
ATOM     89  F   UNL     1     -16.231  10.987  -3.326  1.00  0.00    -0.200 F 
ENDBRANCH  55  79
BRANCH  67  90
ATOM     90  C   UNL     1     -14.725  16.659   5.137  1.00  0.00     0.064 A 
ATOM     91  C   UNL     1     -16.068  16.472   5.497  1.00  0.00     0.173 A 
ATOM     92  C   UNL     1     -14.263  17.973   4.974  1.00  0.00     0.173 A 
ATOM     93  F   UNL     1     -16.560  15.233   5.648  1.00  0.00    -0.203 F 
ATOM     94  C   UNL     1     -16.921  17.560   5.663  1.00  0.00     0.198 A 
ATOM     95  C   UNL     1     -15.113  19.059   5.166  1.00  0.00     0.198 A 
ATOM     96  F   UNL     1     -12.986  18.204   4.635  1.00  0.00    -0.203 F 
ATOM     97  F   UNL     1     -18.211  17.357   5.963  1.00  0.00    -0.200 F 
ATOM     98  C   UNL     1     -16.442  18.852   5.504  1.00  0.00     0.200 A 
ATOM     99  F   UNL     1     -14.646  20.307   5.021  1.00  0.00    -0.200 F 
ATOM    100  F   UNL     1     -17.264  19.897   5.667  1.00  0.00    -0.200 F 
ENDBRANCH  67  90
ENDBRANCH  41  42
ENDBRANCH  34  36
ENDBRANCH  33  34
ENDBRANCH  32  33
ENDBRANCH   1  32
TORSDOF 15
