REMARK SMILES Cc1cc(N2N=C(C(=O)OCCOC(=O)c3ccc(-c4c5nc(c(-c6c(F)c(F)c(F)c(F)c6F)c6ccc([nH]6)c(-c6c(F)c(F)c(F)c(F)c6F)c6nc(c(-c7c(F)c(F)c(F)c(F)c7F)c7ccc4[nH]7)C=C6)C=C5)cc3)C[C@H]2c2ccccc2)c([N+](=O)[O-])cc1C
REMARK SMILES IDX 11 1 10 2 8 3 9 4 7 5 5 6 6 7 80 8 79 9 4 10 1 11 2 12 3 13
REMARK SMILES IDX 92 14 91 15 93 16 87 17 88 18 89 19 90 20 81 21 82 22 86 23
REMARK SMILES IDX 83 24 85 25 84 26 12 27 13 28 14 29 15 30 16 31 17 32 78 33
REMARK SMILES IDX 18 34 77 35 19 36 20 37 21 38 71 39 22 40 76 41 70 42 72 43
REMARK SMILES IDX 23 44 75 45 69 46 68 47 24 49 56 50 36 51 55 52 37 53 40 54
REMARK SMILES IDX 54 55 73 56 38 57 39 58 53 60 74 61 41 62 25 63 26 64 34 65
REMARK SMILES IDX 27 66 28 67 32 68 35 69 29 70 30 71 33 72 31 73 57 74 58 75
REMARK SMILES IDX 66 76 59 77 60 78 64 79 67 80 61 81 62 82 65 83 63 84 42 85
REMARK SMILES IDX 43 86 51 87 44 88 45 89 49 90 52 91 46 92 47 93 50 94 48 95
REMARK H PARENT 72 48 40 59
REMARK Flexibility Score: inf
ROOT
ATOM      1  C   UNL     1      -8.162   2.715   2.196  1.00  0.00     0.275 C 
ENDROOT
BRANCH   1   2
ATOM      2  O   UNL     1      -7.064   2.540   1.280  1.00  0.00    -0.458 OA
BRANCH   2   3
ATOM      3  C   UNL     1      -5.876   3.037   1.679  1.00  0.00     0.354 C 
ATOM      4  O   UNL     1      -5.636   3.708   2.658  1.00  0.00    -0.245 OA
BRANCH   3   5
ATOM      5  C   UNL     1      -4.799   2.606   0.714  1.00  0.00     0.148 C 
ATOM      6  N   UNL     1      -2.978   1.845  -0.039  1.00  0.00    -0.250 N 
ATOM      7  N   UNL     1      -3.698   2.031   1.099  1.00  0.00    -0.169 NA
ATOM      8  C   UNL     1      -3.529   2.545  -1.205  1.00  0.00     0.144 C 
ATOM      9  C   UNL     1      -4.982   2.771  -0.762  1.00  0.00     0.098 C 
BRANCH   6  10
ATOM     10  C   UNL     1      -1.872   1.012  -0.053  1.00  0.00     0.138 A 
ATOM     11  C   UNL     1       1.892   1.483   0.437  1.00  0.00     0.045 C 
ATOM     12  C   UNL     1       0.576   0.791   0.203  1.00  0.00    -0.046 A 
ATOM     13  C   UNL     1      -0.604   1.565   0.190  1.00  0.00     0.039 A 
ATOM     14  C   UNL     1       0.494  -0.596  -0.009  1.00  0.00    -0.041 A 
ATOM     15  C   UNL     1      -0.764  -1.172  -0.229  1.00  0.00     0.091 A 
ATOM     16  C   UNL     1       1.690  -1.508   0.044  1.00  0.00     0.045 C 
ATOM     17  C   UNL     1      -1.921  -0.372  -0.267  1.00  0.00     0.294 A 
BRANCH  17  18
ATOM     18  N   UNL     1      -3.180  -1.048  -0.553  1.00  0.00     0.065 N 
ATOM     19  O   UNL     1      -3.370  -2.146  -0.006  1.00  0.00    -0.258 OA
ATOM     20  O   UNL     1      -3.949  -0.529  -1.375  1.00  0.00    -0.258 OA
ENDBRANCH  17  18
ENDBRANCH   6  10
BRANCH   8  21
ATOM     21  C   UNL     1      -2.723   3.808  -1.488  1.00  0.00    -0.023 A 
ATOM     22  C   UNL     1      -2.994   5.047  -0.883  1.00  0.00     0.006 A 
ATOM     23  C   UNL     1      -1.610   3.721  -2.344  1.00  0.00     0.006 A 
ATOM     24  C   UNL     1      -2.193   6.162  -1.141  1.00  0.00     0.000 A 
ATOM     25  C   UNL     1      -0.800   4.832  -2.587  1.00  0.00     0.000 A 
ATOM     26  C   UNL     1      -1.095   6.054  -1.988  1.00  0.00     0.000 A 
ENDBRANCH   8  21
ENDBRANCH   3   5
ENDBRANCH   2   3
ENDBRANCH   1   2
BRANCH   1  27
ATOM     27  C   UNL     1      -8.880   1.381   2.415  1.00  0.00     0.275 C 
BRANCH  27  28
ATOM     28  O   UNL     1      -8.003   0.430   3.051  1.00  0.00    -0.458 OA
BRANCH  28  29
ATOM     29  C   UNL     1      -7.306  -0.354   2.193  1.00  0.00     0.338 C 
ATOM     30  O   UNL     1      -7.405  -0.384   0.978  1.00  0.00    -0.246 OA
BRANCH  29  31
ATOM     31  C   UNL     1      -6.248  -1.062   2.929  1.00  0.00     0.060 A 
ATOM     32  C   UNL     1      -4.931  -0.774   2.576  1.00  0.00     0.016 A 
ATOM     33  C   UNL     1      -6.523  -2.031   3.895  1.00  0.00     0.016 A 
ATOM     34  C   UNL     1      -3.876  -1.455   3.171  1.00  0.00     0.010 A 
ATOM     35  C   UNL     1      -5.460  -2.728   4.487  1.00  0.00     0.010 A 
ATOM     36  C   UNL     1      -4.131  -2.453   4.117  1.00  0.00    -0.014 A 
BRANCH  36  37
ATOM     37  C   UNL     1      -2.993  -3.230   4.658  1.00  0.00     0.031 A 
ATOM     38  C   UNL     1      -2.702  -4.605   4.130  1.00  0.00     0.074 A 
ATOM     39  C   UNL     1      -2.179  -2.675   5.574  1.00  0.00     0.049 A 
ATOM     40  N   UNL     1      -1.771  -5.451   4.495  1.00  0.00    -0.248 NA
ATOM     41  C   UNL     1      -3.571  -5.095   3.049  1.00  0.00     0.031 C 
ATOM     42  C   UNL     1      -2.326  -1.329   6.126  1.00  0.00     0.029 A 
ATOM     43  N   UNL     1      -1.059  -3.172   6.191  1.00  0.00    -0.354 N 
ATOM     44  C   UNL     1      -1.964  -6.583   3.717  1.00  0.00     0.074 A 
ATOM     45  C   UNL     1      -3.096  -6.318   2.854  1.00  0.00     0.031 C 
ATOM     46  C   UNL     1      -1.326  -1.101   6.993  1.00  0.00     0.029 A 
ATOM     47  C   UNL     1      -0.488  -2.295   7.079  1.00  0.00     0.049 A 
ATOM     48  H   UNL     1      -0.700  -4.072   6.015  1.00  0.00     0.167 HD
ATOM     49  C   UNL     1      -1.257  -7.738   3.723  1.00  0.00     0.037 A 
ATOM     50  C   UNL     1       0.584  -2.443   7.878  1.00  0.00     0.037 A 
ATOM     51  C   UNL     1      -0.098  -7.987   4.538  1.00  0.00     0.049 A 
ATOM     52  C   UNL     1       1.351  -3.736   7.862  1.00  0.00     0.074 A 
ATOM     53  C   UNL     1       0.701  -9.117   4.583  1.00  0.00     0.029 A 
ATOM     54  N   UNL     1       0.435  -7.084   5.445  1.00  0.00    -0.354 N 
ATOM     55  N   UNL     1       1.151  -4.806   7.133  1.00  0.00    -0.248 NA
ATOM     56  C   UNL     1       2.489  -3.843   8.787  1.00  0.00     0.031 C 
ATOM     57  C   UNL     1       1.707  -8.905   5.532  1.00  0.00     0.029 A 
ATOM     58  C   UNL     1       1.545  -7.636   6.062  1.00  0.00     0.049 A 
ATOM     59  H   UNL     1       0.077  -6.184   5.623  1.00  0.00     0.167 HD
ATOM     60  C   UNL     1       2.134  -5.710   7.507  1.00  0.00     0.074 A 
ATOM     61  C   UNL     1       2.946  -5.057   8.513  1.00  0.00     0.031 C 
ATOM     62  C   UNL     1       2.339  -6.973   7.062  1.00  0.00     0.037 A 
BRANCH  49  63
ATOM     63  C   UNL     1      -1.733  -8.843   2.834  1.00  0.00     0.064 A 
ATOM     64  C   UNL     1      -1.438  -8.863   1.464  1.00  0.00     0.173 A 
ATOM     65  C   UNL     1      -2.445  -9.924   3.375  1.00  0.00     0.173 A 
ATOM     66  F   UNL     1      -0.767  -7.847   0.903  1.00  0.00    -0.203 F 
ATOM     67  C   UNL     1      -1.847  -9.927   0.664  1.00  0.00     0.198 A 
ATOM     68  C   UNL     1      -2.839 -10.992   2.575  1.00  0.00     0.198 A 
ATOM     69  F   UNL     1      -2.745  -9.948   4.682  1.00  0.00    -0.203 F 
ATOM     70  F   UNL     1      -1.570  -9.922  -0.647  1.00  0.00    -0.200 F 
ATOM     71  C   UNL     1      -2.541 -10.992   1.221  1.00  0.00     0.200 A 
ATOM     72  F   UNL     1      -3.502 -12.023   3.115  1.00  0.00    -0.200 F 
ATOM     73  F   UNL     1      -2.924 -12.019   0.450  1.00  0.00    -0.200 F 
ENDBRANCH  49  63
BRANCH  50  74
ATOM     74  C   UNL     1       0.989  -1.336   8.778  1.00  0.00     0.064 A 
ATOM     75  C   UNL     1       2.135  -0.576   8.514  1.00  0.00     0.173 A 
ATOM     76  C   UNL     1       0.241  -1.025   9.922  1.00  0.00     0.173 A 
ATOM     77  F   UNL     1       2.895  -0.858   7.446  1.00  0.00    -0.203 F 
ATOM     78  C   UNL     1       2.524   0.453   9.369  1.00  0.00     0.198 A 
ATOM     79  C   UNL     1       0.621   0.016  10.765  1.00  0.00     0.198 A 
ATOM     80  F   UNL     1      -0.860  -1.732  10.217  1.00  0.00    -0.203 F 
ATOM     81  F   UNL     1       3.644   1.143   9.117  1.00  0.00    -0.200 F 
ATOM     82  C   UNL     1       1.764   0.750  10.491  1.00  0.00     0.200 A 
ATOM     83  F   UNL     1      -0.117   0.302  11.847  1.00  0.00    -0.200 F 
ATOM     84  F   UNL     1       2.141   1.739  11.314  1.00  0.00    -0.200 F 
ENDBRANCH  50  74
BRANCH  62  85
ATOM     85  C   UNL     1       3.486  -7.727   7.660  1.00  0.00     0.064 A 
ATOM     86  C   UNL     1       3.385  -8.309   8.931  1.00  0.00     0.173 A 
ATOM     87  C   UNL     1       4.681  -7.896   6.946  1.00  0.00     0.173 A 
ATOM     88  F   UNL     1       2.266  -8.158   9.655  1.00  0.00    -0.203 F 
ATOM     89  C   UNL     1       4.449  -9.023   9.475  1.00  0.00     0.198 A 
ATOM     90  C   UNL     1       5.737  -8.624   7.486  1.00  0.00     0.198 A 
ATOM     91  F   UNL     1       4.821  -7.357   5.726  1.00  0.00    -0.203 F 
ATOM     92  F   UNL     1       4.345  -9.545  10.704  1.00  0.00    -0.200 F 
ATOM     93  C   UNL     1       5.622  -9.183   8.751  1.00  0.00     0.200 A 
ATOM     94  F   UNL     1       6.868  -8.781   6.785  1.00  0.00    -0.200 F 
ATOM     95  F   UNL     1       6.645  -9.871   9.275  1.00  0.00    -0.200 F 
ENDBRANCH  62  85
ENDBRANCH  36  37
ENDBRANCH  29  31
ENDBRANCH  28  29
ENDBRANCH  27  28
ENDBRANCH   1  27
TORSDOF 14
