REMARK SMILES O=C(Cc1c(C(=O)c2cc3c(cn2)CCCC3)[nH]c2cc(Cl)ccc12)OCCOC(=O)c1ccc(-c2c3nc(c(-c4c(F)c(F)c(F)c(F)c4F)c4ccc([nH]4)c(-c4c(F)c(F)c(F)c(F)c4F)c4nc(c(-c5c(F)c(F)c(F)c(F)c5F)c5ccc2[nH]5)C=C4)C=C3)cc1
REMARK SMILES IDX 27 1 26 2 2 3 1 4 3 5 4 6 5 7 25 8 18 9 19 10 24 11 20 13
REMARK SMILES IDX 23 14 21 15 22 16 6 17 7 18 8 19 9 20 13 21 10 22 12 23
REMARK SMILES IDX 11 24 17 25 14 26 16 27 15 28 28 29 29 30 30 31 31 32 32 33
REMARK SMILES IDX 33 34 94 35 34 36 93 37 35 38 36 39 37 40 87 41 38 42 92 43
REMARK SMILES IDX 86 44 88 45 39 46 91 47 85 48 84 49 40 51 72 52 52 53 71 54
REMARK SMILES IDX 53 55 56 56 70 57 89 58 54 59 55 60 69 62 90 63 57 64 41 65
REMARK SMILES IDX 42 66 50 67 43 68 44 69 48 70 51 71 45 72 46 73 49 74 47 75
REMARK SMILES IDX 73 76 74 77 82 78 75 79 76 80 80 81 83 82 77 83 78 84 81 85
REMARK SMILES IDX 79 86 58 87 59 88 67 89 60 90 61 91 65 92 68 93 62 94 63 95
REMARK SMILES IDX 66 96 64 97
REMARK H PARENT 18 12 88 50 56 61
REMARK Flexibility Score: inf
ROOT
ATOM      1  C   UNL     1       4.387  -1.487  -0.653  1.00  0.00     0.274 C 
ENDROOT
BRANCH   1   2
ATOM      2  O   UNL     1       3.116  -1.565   0.027  1.00  0.00    -0.462 OA
BRANCH   2   3
ATOM      3  C   UNL     1       2.610  -0.578   0.807  1.00  0.00     0.310 C 
ATOM      4  O   UNL     1       1.733  -0.828   1.631  1.00  0.00    -0.252 OA
BRANCH   3   5
ATOM      5  C   UNL     1       3.106   0.821   0.581  1.00  0.00     0.161 C 
BRANCH   5   6
ATOM      6  C   UNL     1       3.990   1.410   1.640  1.00  0.00     0.000 A 
ATOM      7  C   UNL     1       4.179   2.781   1.776  1.00  0.00     0.093 A 
ATOM      8  C   UNL     1       4.919   0.785   2.538  1.00  0.00     0.004 A 
ATOM      9  N   UNL     1       4.950   2.980   2.893  1.00  0.00    -0.351 N 
ATOM     10  C   UNL     1       5.548   1.805   3.254  1.00  0.00     0.048 A 
ATOM     11  C   UNL     1       5.341  -0.538   2.780  1.00  0.00     0.012 A 
ATOM     12  H   UNL     1       5.056   3.839   3.362  1.00  0.00     0.167 HD
ATOM     13  C   UNL     1       6.598   1.593   4.153  1.00  0.00     0.047 A 
ATOM     14  C   UNL     1       6.412  -0.774   3.656  1.00  0.00     0.021 A 
ATOM     15  C   UNL     1       7.033   0.281   4.318  1.00  0.00     0.043 A 
ATOM     16  Cl  UNL     1       8.375  -0.029   5.351  1.00  0.00    -0.084 Cl
BRANCH   7  17
ATOM     17  C   UNL     1       3.732   3.840   0.898  1.00  0.00     0.227 C 
ATOM     18  O   UNL     1       3.259   3.653  -0.218  1.00  0.00    -0.285 OA
BRANCH  17  19
ATOM     19  C   UNL     1       4.021   5.218   1.330  1.00  0.00     0.113 A 
ATOM     20  C   UNL     1       5.191   5.814   0.886  1.00  0.00     0.036 A 
ATOM     21  N   UNL     1       3.179   5.744   2.249  1.00  0.00    -0.252 NA
ATOM     22  C   UNL     1       5.526   7.056   1.417  1.00  0.00    -0.041 A 
ATOM     23  C   UNL     1       3.511   6.954   2.728  1.00  0.00     0.115 A 
ATOM     24  C   UNL     1       4.670   7.638   2.365  1.00  0.00    -0.026 A 
ATOM     25  C   UNL     1       6.822   7.713   1.023  1.00  0.00     0.036 C 
ATOM     26  C   UNL     1       4.914   9.012   2.914  1.00  0.00     0.037 C 
ATOM     27  C   UNL     1       6.774   9.224   1.216  1.00  0.00     0.005 C 
ATOM     28  C   UNL     1       6.307   9.564   2.628  1.00  0.00     0.005 C 
ENDBRANCH  17  19
ENDBRANCH   7  17
ENDBRANCH   5   6
ENDBRANCH   3   5
ENDBRANCH   2   3
ENDBRANCH   1   2
BRANCH   1  29
ATOM     29  C   UNL     1       4.220  -1.385  -2.171  1.00  0.00     0.275 C 
BRANCH  29  30
ATOM     30  O   UNL     1       3.909  -0.037  -2.577  1.00  0.00    -0.458 OA
BRANCH  30  31
ATOM     31  C   UNL     1       2.590   0.247  -2.759  1.00  0.00     0.338 C 
ATOM     32  O   UNL     1       1.669  -0.530  -2.650  1.00  0.00    -0.246 OA
BRANCH  31  33
ATOM     33  C   UNL     1       2.413   1.712  -2.977  1.00  0.00     0.060 A 
ATOM     34  C   UNL     1       3.381   2.496  -3.611  1.00  0.00     0.016 A 
ATOM     35  C   UNL     1       1.229   2.309  -2.523  1.00  0.00     0.016 A 
ATOM     36  C   UNL     1       3.163   3.871  -3.790  1.00  0.00     0.010 A 
ATOM     37  C   UNL     1       1.013   3.683  -2.702  1.00  0.00     0.010 A 
ATOM     38  C   UNL     1       1.974   4.478  -3.344  1.00  0.00    -0.014 A 
BRANCH  38  39
ATOM     39  C   UNL     1       1.678   5.897  -3.688  1.00  0.00     0.031 A 
ATOM     40  C   UNL     1       1.859   7.033  -2.720  1.00  0.00     0.074 A 
ATOM     41  C   UNL     1       1.235   6.171  -4.929  1.00  0.00     0.049 A 
ATOM     42  N   UNL     1       1.692   8.322  -2.902  1.00  0.00    -0.248 NA
ATOM     43  C   UNL     1       2.302   6.684  -1.371  1.00  0.00     0.031 C 
ATOM     44  C   UNL     1       1.019   5.180  -5.981  1.00  0.00     0.029 A 
ATOM     45  N   UNL     1       0.894   7.366  -5.511  1.00  0.00    -0.354 N 
ATOM     46  C   UNL     1       2.029   8.928  -1.696  1.00  0.00     0.074 A 
ATOM     47  C   UNL     1       2.413   7.873  -0.792  1.00  0.00     0.031 C 
ATOM     48  C   UNL     1       0.595   5.810  -7.088  1.00  0.00     0.029 A 
ATOM     49  C   UNL     1       0.480   7.241  -6.812  1.00  0.00     0.049 A 
ATOM     50  H   UNL     1       0.943   8.229  -5.040  1.00  0.00     0.167 HD
ATOM     51  C   UNL     1       2.004  10.241  -1.370  1.00  0.00     0.037 A 
ATOM     52  C   UNL     1       0.051   8.172  -7.684  1.00  0.00     0.037 A 
ATOM     53  C   UNL     1       1.546  11.291  -2.236  1.00  0.00     0.049 A 
ATOM     54  C   UNL     1       0.013   9.622  -7.286  1.00  0.00     0.074 A 
ATOM     55  C   UNL     1       1.375  12.633  -1.934  1.00  0.00     0.029 A 
ATOM     56  N   UNL     1       1.188  11.122  -3.557  1.00  0.00    -0.354 N 
ATOM     57  N   UNL     1       0.377  10.180  -6.160  1.00  0.00    -0.248 NA
ATOM     58  C   UNL     1      -0.484  10.576  -8.290  1.00  0.00     0.031 C 
ATOM     59  C   UNL     1       0.916  13.281  -3.078  1.00  0.00     0.029 A 
ATOM     60  C   UNL     1       0.816  12.342  -4.090  1.00  0.00     0.049 A 
ATOM     61  H   UNL     1       1.195  10.267  -4.045  1.00  0.00     0.167 HD
ATOM     62  C   UNL     1       0.190  11.545  -6.334  1.00  0.00     0.074 A 
ATOM     63  C   UNL     1      -0.309  11.738  -7.675  1.00  0.00     0.031 C 
ATOM     64  C   UNL     1       0.404  12.544  -5.448  1.00  0.00     0.037 A 
BRANCH  51  65
ATOM     65  C   UNL     1       2.442  10.698  -0.013  1.00  0.00     0.064 A 
ATOM     66  C   UNL     1       3.675  11.352   0.129  1.00  0.00     0.173 A 
ATOM     67  C   UNL     1       1.526  10.770   1.046  1.00  0.00     0.173 A 
ATOM     68  F   UNL     1       4.579  11.312  -0.861  1.00  0.00    -0.203 F 
ATOM     69  C   UNL     1       3.961  12.095   1.271  1.00  0.00     0.198 A 
ATOM     70  C   UNL     1       1.822  11.503   2.192  1.00  0.00     0.198 A 
ATOM     71  F   UNL     1       0.326  10.181   0.941  1.00  0.00    -0.203 F 
ATOM     72  F   UNL     1       5.140  12.722   1.385  1.00  0.00    -0.200 F 
ATOM     73  C   UNL     1       3.031  12.178   2.298  1.00  0.00     0.200 A 
ATOM     74  F   UNL     1       0.928  11.578   3.188  1.00  0.00    -0.200 F 
ATOM     75  F   UNL     1       3.311  12.888   3.399  1.00  0.00    -0.200 F 
ENDBRANCH  51  65
BRANCH  52  76
ATOM     76  C   UNL     1      -0.349   7.754  -9.049  1.00  0.00     0.064 A 
ATOM     77  C   UNL     1       0.429   8.104 -10.160  1.00  0.00     0.173 A 
ATOM     78  C   UNL     1      -1.506   6.995  -9.268  1.00  0.00     0.173 A 
ATOM     79  F   UNL     1       1.536   8.845  -9.996  1.00  0.00    -0.203 F 
ATOM     80  C   UNL     1       0.053   7.725 -11.445  1.00  0.00     0.198 A 
ATOM     81  C   UNL     1      -1.865   6.590 -10.550  1.00  0.00     0.198 A 
ATOM     82  F   UNL     1      -2.278   6.631  -8.233  1.00  0.00    -0.203 F 
ATOM     83  F   UNL     1       0.789   8.110 -12.496  1.00  0.00    -0.200 F 
ATOM     84  C   UNL     1      -1.090   6.963 -11.638  1.00  0.00     0.200 A 
ATOM     85  F   UNL     1      -2.960   5.840 -10.732  1.00  0.00    -0.200 F 
ATOM     86  F   UNL     1      -1.448   6.594 -12.875  1.00  0.00    -0.200 F 
ENDBRANCH  52  76
BRANCH  64  87
ATOM     87  C   UNL     1       0.176  13.960  -5.875  1.00  0.00     0.064 A 
ATOM     88  C   UNL     1      -1.117  14.482  -6.007  1.00  0.00     0.173 A 
ATOM     89  C   UNL     1       1.262  14.843  -5.987  1.00  0.00     0.173 A 
ATOM     90  F   UNL     1      -2.184  13.677  -5.894  1.00  0.00    -0.203 F 
ATOM     91  C   UNL     1      -1.316  15.839  -6.242  1.00  0.00     0.198 A 
ATOM     92  C   UNL     1       1.058  16.203  -6.198  1.00  0.00     0.198 A 
ATOM     93  F   UNL     1       2.517  14.393  -5.839  1.00  0.00    -0.203 F 
ATOM     94  F   UNL     1      -2.561  16.318  -6.371  1.00  0.00    -0.200 F 
ATOM     95  C   UNL     1      -0.231  16.699  -6.325  1.00  0.00     0.200 A 
ATOM     96  F   UNL     1       2.106  17.036  -6.251  1.00  0.00    -0.200 F 
ATOM     97  F   UNL     1      -0.427  18.010  -6.518  1.00  0.00    -0.200 F 
ENDBRANCH  64  87
ENDBRANCH  38  39
ENDBRANCH  31  33
ENDBRANCH  30  31
ENDBRANCH  29  30
ENDBRANCH   1  29
TORSDOF 14
