REMARK SMILES NC(=O)CC[N@@H+]1[C@@H](C(=O)OCCOC(=O)c2ccc(-c3c4nc(c(-c5c(F)c(F)c(F)c(F)c5F)c5ccc([nH]5)c(-c5c(F)c(F)c(F)c(F)c5F)c5nc(c(-c6c(F)c(F)c(F)c(F)c6F)c6ccc3[nH]6)C=C5)C=C4)cc2)CC[C@@H]2CCCC[C@H]21
REMARK SMILES IDX 11 1 10 2 8 3 9 4 7 5 6 6 86 7 79 9 81 10 85 11 80 12 82 13
REMARK SMILES IDX 84 14 83 15 5 16 4 17 2 18 1 19 3 22 12 23 13 24 14 25 15 26
REMARK SMILES IDX 16 27 17 28 78 29 18 30 77 31 19 32 20 33 21 34 71 35 22 36
REMARK SMILES IDX 76 37 70 38 72 39 23 40 75 41 69 42 68 43 24 45 56 46 36 47
REMARK SMILES IDX 55 48 37 49 40 50 54 51 73 52 38 53 39 54 53 56 74 57 41 58
REMARK SMILES IDX 25 59 26 60 34 61 27 62 28 63 32 64 35 65 29 66 30 67 33 68
REMARK SMILES IDX 31 69 57 70 58 71 66 72 59 73 60 74 64 75 67 76 61 77 62 78
REMARK SMILES IDX 65 79 63 80 42 81 43 82 51 83 44 84 45 85 49 86 52 87 46 88
REMARK SMILES IDX 47 89 50 90 48 91
REMARK H PARENT 6 8 1 20 1 21 72 44 40 55
REMARK Flexibility Score: inf
ROOT
ATOM      1  C   UNL     1       5.798  -4.931  -1.570  1.00  0.00     0.274 C 
ENDROOT
BRANCH   1   2
ATOM      2  O   UNL     1       5.310  -3.580  -1.449  1.00  0.00    -0.458 OA
BRANCH   2   3
ATOM      3  C   UNL     1       4.220  -3.401  -0.656  1.00  0.00     0.365 C 
ATOM      4  O   UNL     1       3.640  -4.313  -0.068  1.00  0.00    -0.245 OA
BRANCH   3   5
ATOM      5  C   UNL     1       3.794  -1.923  -0.514  1.00  0.00     0.295 C 
ATOM      6  N   UNL     1       2.587  -1.565  -1.325  1.00  0.00    -0.320 N 
ATOM      7  C   UNL     1       2.201  -0.139  -1.133  1.00  0.00     0.187 C 
ATOM      8  H   UNL     1       2.844  -1.680  -2.306  1.00  0.00     0.349 HD
ATOM      9  C   UNL     1       4.973  -0.975  -0.760  1.00  0.00     0.078 C 
ATOM     10  C   UNL     1       3.388   0.852  -1.285  1.00  0.00     0.048 C 
ATOM     11  C   UNL     1       1.095   0.316  -2.115  1.00  0.00     0.065 C 
ATOM     12  C   UNL     1       4.575   0.449  -0.418  1.00  0.00     0.016 C 
ATOM     13  C   UNL     1       2.938   2.278  -0.933  1.00  0.00     0.010 C 
ATOM     14  C   UNL     1       0.640   1.748  -1.830  1.00  0.00     0.006 C 
ATOM     15  C   UNL     1       1.798   2.737  -1.834  1.00  0.00     0.001 C 
BRANCH   6  16
ATOM     16  C   UNL     1       1.441  -2.491  -1.075  1.00  0.00     0.273 C 
BRANCH  16  17
ATOM     17  C   UNL     1       0.849  -2.545   0.346  1.00  0.00     0.161 C 
BRANCH  17  18
ATOM     18  C   UNL     1      -0.328  -1.612   0.519  1.00  0.00     0.223 C 
ATOM     19  N   UNL     1      -0.200  -0.675   1.503  1.00  0.00    -0.369 N 
ATOM     20  H   UNL     1      -0.928  -0.035   1.671  1.00  0.00     0.159 HD
ATOM     21  H   UNL     1       0.621  -0.640   2.045  1.00  0.00     0.159 HD
ATOM     22  O   UNL     1      -1.350  -1.674  -0.154  1.00  0.00    -0.275 OA
ENDBRANCH  17  18
ENDBRANCH  16  17
ENDBRANCH   6  16
ENDBRANCH   3   5
ENDBRANCH   2   3
ENDBRANCH   1   2
BRANCH   1  23
ATOM     23  C   UNL     1       6.917  -5.236  -0.568  1.00  0.00     0.275 C 
BRANCH  23  24
ATOM     24  O   UNL     1       6.432  -5.291   0.788  1.00  0.00    -0.458 OA
BRANCH  24  25
ATOM     25  C   UNL     1       6.564  -4.143   1.491  1.00  0.00     0.338 C 
ATOM     26  O   UNL     1       7.078  -3.102   1.121  1.00  0.00    -0.246 OA
BRANCH  25  27
ATOM     27  C   UNL     1       5.845  -4.247   2.771  1.00  0.00     0.060 A 
ATOM     28  C   UNL     1       4.773  -3.376   2.981  1.00  0.00     0.016 A 
ATOM     29  C   UNL     1       6.269  -5.102   3.787  1.00  0.00     0.016 A 
ATOM     30  C   UNL     1       4.112  -3.352   4.202  1.00  0.00     0.010 A 
ATOM     31  C   UNL     1       5.612  -5.072   5.022  1.00  0.00     0.010 A 
ATOM     32  C   UNL     1       4.537  -4.190   5.238  1.00  0.00    -0.014 A 
BRANCH  32  33
ATOM     33  C   UNL     1       3.894  -4.078   6.566  1.00  0.00     0.031 A 
ATOM     34  C   UNL     1       4.594  -3.344   7.670  1.00  0.00     0.074 A 
ATOM     35  C   UNL     1       2.668  -4.594   6.764  1.00  0.00     0.049 A 
ATOM     36  N   UNL     1       4.242  -3.197   8.922  1.00  0.00    -0.248 NA
ATOM     37  C   UNL     1       5.859  -2.681   7.317  1.00  0.00     0.031 C 
ATOM     38  C   UNL     1       1.865  -5.272   5.747  1.00  0.00     0.029 A 
ATOM     39  N   UNL     1       1.887  -4.630   7.891  1.00  0.00    -0.354 N 
ATOM     40  C   UNL     1       5.251  -2.450   9.512  1.00  0.00     0.074 A 
ATOM     41  C   UNL     1       6.232  -2.174   8.483  1.00  0.00     0.031 C 
ATOM     42  C   UNL     1       0.706  -5.666   6.299  1.00  0.00     0.029 A 
ATOM     43  C   UNL     1       0.707  -5.308   7.716  1.00  0.00     0.049 A 
ATOM     44  H   UNL     1       2.148  -4.210   8.742  1.00  0.00     0.167 HD
ATOM     45  C   UNL     1       5.348  -2.035  10.797  1.00  0.00     0.037 A 
ATOM     46  C   UNL     1      -0.248  -5.633   8.608  1.00  0.00     0.037 A 
ATOM     47  C   UNL     1       4.361  -2.298  11.811  1.00  0.00     0.049 A 
ATOM     48  C   UNL     1      -0.089  -5.210  10.043  1.00  0.00     0.074 A 
ATOM     49  C   UNL     1       4.362  -1.910  13.139  1.00  0.00     0.029 A 
ATOM     50  N   UNL     1       3.194  -3.019  11.606  1.00  0.00    -0.354 N 
ATOM     51  N   UNL     1       0.876  -4.518  10.598  1.00  0.00    -0.248 NA
ATOM     52  C   UNL     1      -1.147  -5.622  10.976  1.00  0.00     0.031 C 
ATOM     53  C   UNL     1       3.213  -2.428  13.747  1.00  0.00     0.029 A 
ATOM     54  C   UNL     1       2.477  -3.105  12.788  1.00  0.00     0.049 A 
ATOM     55  H   UNL     1       2.917  -3.413  10.747  1.00  0.00     0.167 HD
ATOM     56  C   UNL     1       0.537  -4.398  11.939  1.00  0.00     0.074 A 
ATOM     57  C   UNL     1      -0.731  -5.077  12.111  1.00  0.00     0.031 C 
ATOM     58  C   UNL     1       1.216  -3.784  12.938  1.00  0.00     0.037 A 
BRANCH  45  59
ATOM     59  C   UNL     1       6.585  -1.285  11.188  1.00  0.00     0.064 A 
ATOM     60  C   UNL     1       6.791   0.049  10.807  1.00  0.00     0.173 A 
ATOM     61  C   UNL     1       7.564  -1.903  11.979  1.00  0.00     0.173 A 
ATOM     62  F   UNL     1       5.891   0.677  10.036  1.00  0.00    -0.203 F 
ATOM     63  C   UNL     1       7.945   0.730  11.187  1.00  0.00     0.198 A 
ATOM     64  C   UNL     1       8.706  -1.212  12.376  1.00  0.00     0.198 A 
ATOM     65  F   UNL     1       7.412  -3.178  12.370  1.00  0.00    -0.203 F 
ATOM     66  F   UNL     1       8.141   1.992  10.780  1.00  0.00    -0.200 F 
ATOM     67  C   UNL     1       8.898   0.101  11.976  1.00  0.00     0.200 A 
ATOM     68  F   UNL     1       9.622  -1.819  13.143  1.00  0.00    -0.200 F 
ATOM     69  F   UNL     1      10.005   0.760  12.343  1.00  0.00    -0.200 F 
ENDBRANCH  45  59
BRANCH  46  70
ATOM     70  C   UNL     1      -1.422  -6.429   8.172  1.00  0.00     0.064 A 
ATOM     71  C   UNL     1      -2.699  -5.858   8.103  1.00  0.00     0.173 A 
ATOM     72  C   UNL     1      -1.289  -7.779   7.815  1.00  0.00     0.173 A 
ATOM     73  F   UNL     1      -2.879  -4.578   8.460  1.00  0.00    -0.203 F 
ATOM     74  C   UNL     1      -3.801  -6.610   7.701  1.00  0.00     0.198 A 
ATOM     75  C   UNL     1      -2.386  -8.523   7.389  1.00  0.00     0.198 A 
ATOM     76  F   UNL     1      -0.087  -8.372   7.869  1.00  0.00    -0.203 F 
ATOM     77  F   UNL     1      -5.019  -6.050   7.679  1.00  0.00    -0.200 F 
ATOM     78  C   UNL     1      -3.643  -7.939   7.338  1.00  0.00     0.200 A 
ATOM     79  F   UNL     1      -2.227  -9.804   7.032  1.00  0.00    -0.200 F 
ATOM     80  F   UNL     1      -4.703  -8.660   6.947  1.00  0.00    -0.200 F 
ENDBRANCH  46  70
BRANCH  58  81
ATOM     81  C   UNL     1       0.590  -3.799  14.300  1.00  0.00     0.064 A 
ATOM     82  C   UNL     1       0.589  -4.956  15.093  1.00  0.00     0.173 A 
ATOM     83  C   UNL     1       0.020  -2.634  14.833  1.00  0.00     0.173 A 
ATOM     84  F   UNL     1       1.109  -6.098  14.619  1.00  0.00    -0.203 F 
ATOM     85  C   UNL     1       0.023  -4.950  16.364  1.00  0.00     0.198 A 
ATOM     86  C   UNL     1      -0.525  -2.625  16.114  1.00  0.00     0.198 A 
ATOM     87  F   UNL     1       0.001  -1.501  14.115  1.00  0.00    -0.203 F 
ATOM     88  F   UNL     1      -0.002  -6.076  17.090  1.00  0.00    -0.200 F 
ATOM     89  C   UNL     1      -0.528  -3.784  16.876  1.00  0.00     0.200 A 
ATOM     90  F   UNL     1      -1.048  -1.496  16.611  1.00  0.00    -0.200 F 
ATOM     91  F   UNL     1      -1.069  -3.779  18.102  1.00  0.00    -0.200 F 
ENDBRANCH  58  81
ENDBRANCH  32  33
ENDBRANCH  25  27
ENDBRANCH  24  25
ENDBRANCH  23  24
ENDBRANCH   1  23
TORSDOF 14
