REMARK SMILES CC(=O)Nc1ccc(/C=C2/CCc3oc(C(=O)OCCOC(=O)c4ccc(-c5c6nc(c(-c7c(F)c(F)c(F)c(F)c7F)c7ccc([nH]7)c(-c7c(F)c(F)c(F)c(F)c7F)c7nc(c(-c8c(F)c(F)c(F)c(F)c8F)c8ccc5[nH]8)C=C7)C=C6)cc4)c(C)c3C2=O)cc1
REMARK SMILES IDX 19 1 18 2 16 3 17 4 15 5 9 6 10 7 11 8 90 9 12 10 89 11
REMARK SMILES IDX 91 12 13 13 87 14 14 15 88 16 8 17 5 18 6 19 93 20 7 21
REMARK SMILES IDX 92 22 4 23 1 24 2 25 3 26 20 28 21 29 22 30 23 31 24 32
REMARK SMILES IDX 25 33 86 34 26 35 85 36 27 37 28 38 29 39 79 40 30 41 84 42
REMARK SMILES IDX 78 43 80 44 31 45 83 46 77 47 76 48 32 50 64 51 44 52 63 53
REMARK SMILES IDX 45 54 48 55 62 56 81 57 46 58 47 59 61 61 82 62 49 63 33 64
REMARK SMILES IDX 34 65 42 66 35 67 36 68 40 69 43 70 37 71 38 72 41 73 39 74
REMARK SMILES IDX 65 75 66 76 74 77 67 78 68 79 72 80 75 81 69 82 70 83 73 84
REMARK SMILES IDX 71 85 50 86 51 87 59 88 52 89 53 90 57 91 60 92 54 93 55 94
REMARK SMILES IDX 58 95 56 96
REMARK H PARENT 4 27 80 49 48 60
REMARK Flexibility Score: inf
ROOT
ATOM      1  C   UNL     1      -0.494   8.331  -9.672  1.00  0.00     0.275 C 
ENDROOT
BRANCH   1   2
ATOM      2  O   UNL     1       0.378   7.432  -8.970  1.00  0.00    -0.456 OA
BRANCH   2   3
ATOM      3  C   UNL     1      -0.133   6.205  -8.655  1.00  0.00     0.374 C 
ATOM      4  O   UNL     1      -1.308   5.882  -8.820  1.00  0.00    -0.242 OA
BRANCH   3   5
ATOM      5  C   UNL     1       0.916   5.335  -8.171  1.00  0.00     0.215 A 
ATOM      6  C   UNL     1       4.136   2.100  -4.928  1.00  0.00     0.016 C 
ATOM      7  C   UNL     1       4.027   2.704  -6.129  1.00  0.00     0.001 C 
ATOM      8  C   UNL     1       4.964   3.830  -6.561  1.00  0.00     0.048 C 
ATOM      9  C   UNL     1       2.937   2.441  -7.129  1.00  0.00     0.192 C 
ATOM     10  C   UNL     1       4.213   5.169  -6.748  1.00  0.00     0.081 C 
ATOM     11  C   UNL     1       2.272   3.671  -7.500  1.00  0.00     0.067 A 
ATOM     12  O   UNL     1       2.679   1.343  -7.599  1.00  0.00    -0.289 OA
ATOM     13  C   UNL     1       2.882   4.889  -7.329  1.00  0.00     0.116 A 
ATOM     14  C   UNL     1       0.988   3.945  -8.051  1.00  0.00     0.014 A 
ATOM     15  O   UNL     1       2.090   5.902  -7.730  1.00  0.00    -0.453 OA
ATOM     16  C   UNL     1      -0.040   2.928  -8.398  1.00  0.00     0.049 C 
BRANCH   6  17
ATOM     17  C   UNL     1       3.281   1.128  -4.206  1.00  0.00    -0.025 A 
ATOM     18  C   UNL     1       1.683  -0.585  -2.598  1.00  0.00     0.041 A 
ATOM     19  C   UNL     1       1.325  -0.307  -3.912  1.00  0.00     0.027 A 
ATOM     20  C   UNL     1       2.875  -0.065  -2.103  1.00  0.00     0.027 A 
ATOM     21  C   UNL     1       2.096   0.567  -4.689  1.00  0.00     0.010 A 
ATOM     22  C   UNL     1       3.667   0.773  -2.902  1.00  0.00     0.010 A 
BRANCH  18  23
ATOM     23  N   UNL     1       0.828  -1.411  -1.857  1.00  0.00    -0.326 N 
ATOM     24  C   UNL     1       0.922  -0.200   0.308  1.00  0.00     0.114 C 
ATOM     25  C   UNL     1       0.525  -1.391  -0.525  1.00  0.00     0.221 C 
ATOM     26  O   UNL     1      -0.147  -2.305  -0.044  1.00  0.00    -0.275 OA
ATOM     27  H   UNL     1       0.375  -2.114  -2.377  1.00  0.00     0.169 HD
ENDBRANCH  18  23
ENDBRANCH   6  17
ENDBRANCH   3   5
ENDBRANCH   2   3
ENDBRANCH   1   2
BRANCH   1  28
ATOM     28  C   UNL     1      -0.399   8.149 -11.181  1.00  0.00     0.275 C 
BRANCH  28  29
ATOM     29  O   UNL     1      -1.034   6.944 -11.607  1.00  0.00    -0.458 OA
BRANCH  29  30
ATOM     30  C   UNL     1      -0.218   5.872 -11.715  1.00  0.00     0.338 C 
ATOM     31  O   UNL     1       0.913   5.755 -11.276  1.00  0.00    -0.246 OA
BRANCH  30  32
ATOM     32  C   UNL     1      -0.822   4.897 -12.628  1.00  0.00     0.060 A 
ATOM     33  C   UNL     1      -0.173   3.668 -12.774  1.00  0.00     0.016 A 
ATOM     34  C   UNL     1      -1.846   5.301 -13.497  1.00  0.00     0.016 A 
ATOM     35  C   UNL     1      -0.445   2.911 -13.894  1.00  0.00     0.010 A 
ATOM     36  C   UNL     1      -2.113   4.547 -14.615  1.00  0.00     0.010 A 
ATOM     37  C   UNL     1      -1.357   3.400 -14.838  1.00  0.00    -0.014 A 
BRANCH  37  38
ATOM     38  C   UNL     1      -1.584   2.614 -16.032  1.00  0.00     0.031 A 
ATOM     39  C   UNL     1      -2.258   1.321 -15.761  1.00  0.00     0.074 A 
ATOM     40  C   UNL     1      -1.308   3.076 -17.266  1.00  0.00     0.049 A 
ATOM     41  N   UNL     1      -1.799   0.134 -15.973  1.00  0.00    -0.248 NA
ATOM     42  C   UNL     1      -3.532   1.352 -15.023  1.00  0.00     0.031 C 
ATOM     43  C   UNL     1      -0.895   4.420 -17.672  1.00  0.00     0.029 A 
ATOM     44  N   UNL     1      -1.436   2.428 -18.453  1.00  0.00    -0.354 N 
ATOM     45  C   UNL     1      -2.799  -0.738 -15.556  1.00  0.00     0.074 A 
ATOM     46  C   UNL     1      -3.766   0.052 -14.843  1.00  0.00     0.031 C 
ATOM     47  C   UNL     1      -1.040   4.545 -19.012  1.00  0.00     0.029 A 
ATOM     48  C   UNL     1      -1.426   3.258 -19.564  1.00  0.00     0.049 A 
ATOM     49  H   UNL     1      -1.528   1.450 -18.519  1.00  0.00     0.167 HD
ATOM     50  C   UNL     1      -2.862  -2.008 -16.038  1.00  0.00     0.037 A 
ATOM     51  C   UNL     1      -1.811   2.903 -20.817  1.00  0.00     0.037 A 
ATOM     52  C   UNL     1      -1.589  -2.434 -16.558  1.00  0.00     0.049 A 
ATOM     53  C   UNL     1      -1.747   1.416 -20.892  1.00  0.00     0.074 A 
ATOM     54  C   UNL     1      -0.328  -2.570 -16.006  1.00  0.00     0.029 A 
ATOM     55  N   UNL     1      -1.394  -2.414 -17.918  1.00  0.00    -0.354 N 
ATOM     56  N   UNL     1      -0.630   0.741 -20.844  1.00  0.00    -0.248 NA
ATOM     57  C   UNL     1      -2.942   0.675 -20.508  1.00  0.00     0.031 C 
ATOM     58  C   UNL     1       0.565  -2.099 -17.013  1.00  0.00     0.029 A 
ATOM     59  C   UNL     1      -0.194  -1.784 -18.139  1.00  0.00     0.049 A 
ATOM     60  H   UNL     1      -1.998  -2.782 -18.602  1.00  0.00     0.167 HD
ATOM     61  C   UNL     1      -0.910  -0.347 -20.030  1.00  0.00     0.074 A 
ATOM     62  C   UNL     1      -2.366  -0.365 -19.898  1.00  0.00     0.031 C 
ATOM     63  C   UNL     1       0.065  -0.955 -19.292  1.00  0.00     0.037 A 
BRANCH  50  64
ATOM     64  C   UNL     1      -4.157  -2.701 -16.375  1.00  0.00     0.064 A 
ATOM     65  C   UNL     1      -4.130  -4.055 -16.759  1.00  0.00     0.173 A 
ATOM     66  C   UNL     1      -5.366  -2.017 -16.633  1.00  0.00     0.173 A 
ATOM     67  F   UNL     1      -3.026  -4.794 -16.579  1.00  0.00    -0.203 F 
ATOM     68  C   UNL     1      -5.204  -4.652 -17.425  1.00  0.00     0.198 A 
ATOM     69  C   UNL     1      -6.454  -2.631 -17.249  1.00  0.00     0.198 A 
ATOM     70  F   UNL     1      -5.510  -0.705 -16.411  1.00  0.00    -0.203 F 
ATOM     71  F   UNL     1      -5.085  -5.903 -17.888  1.00  0.00    -0.200 F 
ATOM     72  C   UNL     1      -6.361  -3.937 -17.675  1.00  0.00     0.200 A 
ATOM     73  F   UNL     1      -7.558  -1.914 -17.500  1.00  0.00    -0.200 F 
ATOM     74  F   UNL     1      -7.364  -4.487 -18.372  1.00  0.00    -0.200 F 
ENDBRANCH  50  64
BRANCH  51  75
ATOM     75  C   UNL     1      -2.584   3.723 -21.784  1.00  0.00     0.064 A 
ATOM     76  C   UNL     1      -2.702   3.345 -23.132  1.00  0.00     0.173 A 
ATOM     77  C   UNL     1      -3.445   4.752 -21.351  1.00  0.00     0.173 A 
ATOM     78  F   UNL     1      -1.961   2.337 -23.616  1.00  0.00    -0.203 F 
ATOM     79  C   UNL     1      -3.632   3.950 -23.987  1.00  0.00     0.198 A 
ATOM     80  C   UNL     1      -4.366   5.360 -22.205  1.00  0.00     0.198 A 
ATOM     81  F   UNL     1      -3.479   5.128 -20.065  1.00  0.00    -0.203 F 
ATOM     82  F   UNL     1      -3.754   3.524 -25.252  1.00  0.00    -0.200 F 
ATOM     83  C   UNL     1      -4.468   4.951 -23.521  1.00  0.00     0.200 A 
ATOM     84  F   UNL     1      -5.194   6.300 -21.728  1.00  0.00    -0.200 F 
ATOM     85  F   UNL     1      -5.396   5.492 -24.323  1.00  0.00    -0.200 F 
ENDBRANCH  51  75
BRANCH  63  86
ATOM     86  C   UNL     1       1.496  -0.559 -19.532  1.00  0.00     0.064 A 
ATOM     87  C   UNL     1       1.998   0.739 -19.330  1.00  0.00     0.173 A 
ATOM     88  C   UNL     1       2.426  -1.569 -19.812  1.00  0.00     0.173 A 
ATOM     89  F   UNL     1       1.192   1.740 -18.954  1.00  0.00    -0.203 F 
ATOM     90  C   UNL     1       3.360   1.016 -19.447  1.00  0.00     0.198 A 
ATOM     91  C   UNL     1       3.789  -1.297 -19.891  1.00  0.00     0.198 A 
ATOM     92  F   UNL     1       2.015  -2.839 -19.957  1.00  0.00    -0.203 F 
ATOM     93  F   UNL     1       3.811   2.266 -19.258  1.00  0.00    -0.200 F 
ATOM     94  C   UNL     1       4.255  -0.004 -19.719  1.00  0.00     0.200 A 
ATOM     95  F   UNL     1       4.656  -2.298 -20.102  1.00  0.00    -0.200 F 
ATOM     96  F   UNL     1       5.569   0.253 -19.787  1.00  0.00    -0.200 F 
ENDBRANCH  63  86
ENDBRANCH  37  38
ENDBRANCH  30  32
ENDBRANCH  29  30
ENDBRANCH  28  29
ENDBRANCH   1  28
TORSDOF 13
