REMARK SMILES CC[NH2+][C@]1(C(=O)OCCOC(=O)c2ccc(-c3c4nc(c(-c5c(F)c(F)c(F)c(F)c5F)c5ccc([nH]5)c(-c5c(F)c(F)c(F)c(F)c5F)c5nc(c(-c6c(F)c(F)c(F)c(F)c6F)c6ccc3[nH]6)C=C5)C=C4)cc2)CCC[C@@H](n2cccn2)C1
REMARK SMILES IDX 8 1 7 2 5 3 6 4 4 5 76 6 85 7 77 8 79 9 78 10 3 11 2 14 1 15
REMARK SMILES IDX 80 16 81 17 84 18 82 19 83 20 9 21 10 22 11 23 12 24 13 25
REMARK SMILES IDX 14 26 75 27 15 28 74 29 16 30 17 31 18 32 68 33 19 34 73 35
REMARK SMILES IDX 67 36 69 37 20 38 72 39 66 40 65 41 21 43 53 44 33 45 52 46
REMARK SMILES IDX 34 47 37 48 51 49 70 50 35 51 36 52 50 54 71 55 38 56 22 57
REMARK SMILES IDX 23 58 31 59 24 60 25 61 29 62 32 63 26 64 27 65 30 66 28 67
REMARK SMILES IDX 54 68 55 69 63 70 56 71 57 72 61 73 64 74 58 75 59 76 62 77
REMARK SMILES IDX 60 78 39 79 40 80 48 81 41 82 42 83 46 84 49 85 43 86 44 87
REMARK SMILES IDX 47 88 45 89
REMARK H PARENT 3 12 3 13 69 42 37 53
REMARK Flexibility Score: inf
ROOT
ATOM      1  C   UNL     1       1.811   0.600   2.427  1.00  0.00     0.274 C 
ENDROOT
BRANCH   1   2
ATOM      2  O   UNL     1       1.587  -0.745   2.899  1.00  0.00    -0.457 OA
BRANCH   2   3
ATOM      3  C   UNL     1       0.430  -1.341   2.494  1.00  0.00     0.368 C 
ATOM      4  O   UNL     1      -0.354  -0.826   1.703  1.00  0.00    -0.245 OA
BRANCH   3   5
ATOM      5  C   UNL     1       0.207  -2.749   3.154  1.00  0.00     0.196 C 
ATOM      6  C   UNL     1       0.718  -3.859   2.211  1.00  0.00     0.081 C 
ATOM      7  C   UNL     1       0.990  -2.848   4.486  1.00  0.00     0.108 C 
ATOM      8  C   UNL     1       0.633  -5.256   2.822  1.00  0.00     0.009 C 
ATOM      9  C   UNL     1       0.927  -4.243   5.139  1.00  0.00     0.114 C 
ATOM     10  C   UNL     1       1.377  -5.331   4.145  1.00  0.00     0.028 C 
BRANCH   5  11
ATOM     11  N   UNL     1      -1.250  -2.892   3.489  1.00  0.00    -0.332 N 
ATOM     12  H   UNL     1      -1.345  -3.652   4.163  1.00  0.00     0.347 HD
ATOM     13  H   UNL     1      -1.547  -1.986   3.852  1.00  0.00     0.347 HD
BRANCH  11  14
ATOM     14  C   UNL     1      -2.130  -3.183   2.348  1.00  0.00     0.257 C 
ATOM     15  C   UNL     1      -3.582  -2.914   2.716  1.00  0.00     0.071 C 
ENDBRANCH  11  14
ENDBRANCH   5  11
BRANCH   9  16
ATOM     16  N   UNL     1       1.707  -4.266   6.383  1.00  0.00    -0.269 N 
ATOM     17  C   UNL     1       1.514  -3.468   7.480  1.00  0.00     0.109 A 
ATOM     18  N   UNL     1       2.728  -5.131   6.548  1.00  0.00    -0.181 NA
ATOM     19  C   UNL     1       2.477  -3.827   8.393  1.00  0.00     0.042 A 
ATOM     20  C   UNL     1       3.188  -4.864   7.770  1.00  0.00     0.135 A 
ENDBRANCH   9  16
ENDBRANCH   3   5
ENDBRANCH   2   3
ENDBRANCH   1   2
BRANCH   1  21
ATOM     21  C   UNL     1       2.869   0.622   1.330  1.00  0.00     0.275 C 
BRANCH  21  22
ATOM     22  O   UNL     1       2.429  -0.184   0.225  1.00  0.00    -0.458 OA
BRANCH  22  23
ATOM     23  C   UNL     1       3.216  -1.242  -0.070  1.00  0.00     0.338 C 
ATOM     24  O   UNL     1       4.277  -1.550   0.445  1.00  0.00    -0.246 OA
BRANCH  23  25
ATOM     25  C   UNL     1       2.598  -2.037  -1.141  1.00  0.00     0.060 A 
ATOM     26  C   UNL     1       1.317  -2.560  -0.975  1.00  0.00     0.016 A 
ATOM     27  C   UNL     1       3.360  -2.383  -2.255  1.00  0.00     0.016 A 
ATOM     28  C   UNL     1       0.837  -3.523  -1.860  1.00  0.00     0.010 A 
ATOM     29  C   UNL     1       2.832  -3.265  -3.199  1.00  0.00     0.010 A 
ATOM     30  C   UNL     1       1.584  -3.881  -2.991  1.00  0.00    -0.014 A 
BRANCH  30  31
ATOM     31  C   UNL     1       1.113  -4.927  -3.939  1.00  0.00     0.031 A 
ATOM     32  C   UNL     1       1.986  -6.121  -4.218  1.00  0.00     0.074 A 
ATOM     33  C   UNL     1      -0.068  -4.813  -4.576  1.00  0.00     0.049 A 
ATOM     34  N   UNL     1       1.945  -6.965  -5.217  1.00  0.00    -0.248 NA
ATOM     35  C   UNL     1       3.062  -6.386  -3.249  1.00  0.00     0.031 C 
ATOM     36  C   UNL     1      -1.055  -3.756  -4.360  1.00  0.00     0.029 A 
ATOM     37  N   UNL     1      -0.631  -5.599  -5.553  1.00  0.00    -0.354 N 
ATOM     38  C   UNL     1       3.039  -7.804  -5.045  1.00  0.00     0.074 A 
ATOM     39  C   UNL     1       3.706  -7.389  -3.830  1.00  0.00     0.031 C 
ATOM     40  C   UNL     1      -2.111  -3.970  -5.160  1.00  0.00     0.029 A 
ATOM     41  C   UNL     1      -1.831  -5.119  -6.015  1.00  0.00     0.049 A 
ATOM     42  H   UNL     1      -0.215  -6.425  -5.888  1.00  0.00     0.167 HD
ATOM     43  C   UNL     1       3.454  -8.814  -5.846  1.00  0.00     0.037 A 
ATOM     44  C   UNL     1      -2.593  -5.516  -7.051  1.00  0.00     0.037 A 
ATOM     45  C   UNL     1       2.742  -9.268  -7.011  1.00  0.00     0.049 A 
ATOM     46  C   UNL     1      -2.121  -6.643  -7.924  1.00  0.00     0.074 A 
ATOM     47  C   UNL     1       3.079 -10.280  -7.894  1.00  0.00     0.029 A 
ATOM     48  N   UNL     1       1.526  -8.755  -7.436  1.00  0.00    -0.354 N 
ATOM     49  N   UNL     1      -1.025  -7.354  -7.832  1.00  0.00    -0.248 NA
ATOM     50  C   UNL     1      -2.976  -7.000  -9.065  1.00  0.00     0.031 C 
ATOM     51  C   UNL     1       2.072 -10.369  -8.862  1.00  0.00     0.029 A 
ATOM     52  C   UNL     1       1.096  -9.432  -8.564  1.00  0.00     0.049 A 
ATOM     53  H   UNL     1       1.041  -8.018  -7.000  1.00  0.00     0.167 HD
ATOM     54  C   UNL     1      -1.056  -8.242  -8.897  1.00  0.00     0.074 A 
ATOM     55  C   UNL     1      -2.290  -7.993  -9.614  1.00  0.00     0.031 C 
ATOM     56  C   UNL     1      -0.139  -9.173  -9.256  1.00  0.00     0.037 A 
BRANCH  43  57
ATOM     57  C   UNL     1       4.764  -9.464  -5.517  1.00  0.00     0.064 A 
ATOM     58  C   UNL     1       4.901 -10.372  -4.459  1.00  0.00     0.173 A 
ATOM     59  C   UNL     1       5.896  -9.190  -6.301  1.00  0.00     0.173 A 
ATOM     60  F   UNL     1       3.852 -10.654  -3.672  1.00  0.00    -0.203 F 
ATOM     61  C   UNL     1       6.130 -10.968  -4.185  1.00  0.00     0.198 A 
ATOM     62  C   UNL     1       7.117  -9.803  -6.037  1.00  0.00     0.198 A 
ATOM     63  F   UNL     1       5.815  -8.329  -7.327  1.00  0.00    -0.203 F 
ATOM     64  F   UNL     1       6.249 -11.805  -3.145  1.00  0.00    -0.200 F 
ATOM     65  C   UNL     1       7.234 -10.688  -4.977  1.00  0.00     0.200 A 
ATOM     66  F   UNL     1       8.180  -9.537  -6.809  1.00  0.00    -0.200 F 
ATOM     67  F   UNL     1       8.415 -11.266  -4.713  1.00  0.00    -0.200 F 
ENDBRANCH  43  57
BRANCH  44  68
ATOM     68  C   UNL     1      -3.857  -4.796  -7.346  1.00  0.00     0.064 A 
ATOM     69  C   UNL     1      -5.099  -5.391  -7.090  1.00  0.00     0.173 A 
ATOM     70  C   UNL     1      -3.848  -3.488  -7.852  1.00  0.00     0.173 A 
ATOM     71  F   UNL     1      -5.156  -6.649  -6.630  1.00  0.00    -0.203 F 
ATOM     72  C   UNL     1      -6.286  -4.703  -7.328  1.00  0.00     0.198 A 
ATOM     73  C   UNL     1      -5.035  -2.792  -8.065  1.00  0.00     0.198 A 
ATOM     74  F   UNL     1      -2.683  -2.876  -8.112  1.00  0.00    -0.203 F 
ATOM     75  F   UNL     1      -7.463  -5.302  -7.098  1.00  0.00    -0.200 F 
ATOM     76  C   UNL     1      -6.253  -3.401  -7.806  1.00  0.00     0.200 A 
ATOM     77  F   UNL     1      -4.998  -1.529  -8.513  1.00  0.00    -0.200 F 
ATOM     78  F   UNL     1      -7.396  -2.733  -8.017  1.00  0.00    -0.200 F 
ENDBRANCH  44  68
BRANCH  56  79
ATOM     79  C   UNL     1      -0.449 -10.007 -10.459  1.00  0.00     0.064 A 
ATOM     80  C   UNL     1      -0.268  -9.509 -11.757  1.00  0.00     0.173 A 
ATOM     81  C   UNL     1      -0.888 -11.330 -10.311  1.00  0.00     0.173 A 
ATOM     82  F   UNL     1       0.136  -8.243 -11.944  1.00  0.00    -0.203 F 
ATOM     83  C   UNL     1      -0.529 -10.305 -12.868  1.00  0.00     0.198 A 
ATOM     84  C   UNL     1      -1.133 -12.129 -11.424  1.00  0.00     0.198 A 
ATOM     85  F   UNL     1      -1.073 -11.848  -9.088  1.00  0.00    -0.203 F 
ATOM     86  F   UNL     1      -0.378  -9.803 -14.101  1.00  0.00    -0.200 F 
ATOM     87  C   UNL     1      -0.956 -11.615 -12.701  1.00  0.00     0.200 A 
ATOM     88  F   UNL     1      -1.541 -13.395 -11.262  1.00  0.00    -0.200 F 
ATOM     89  F   UNL     1      -1.204 -12.382 -13.772  1.00  0.00    -0.200 F 
ENDBRANCH  56  79
ENDBRANCH  30  31
ENDBRANCH  23  25
ENDBRANCH  22  23
ENDBRANCH  21  22
ENDBRANCH   1  21
TORSDOF 14
