REMARK SMILES Cc1ccc2cc(C[N@H+]3CC[NH2+][C@H](C(=O)OCCOC(=O)c4ccc(-c5c6nc(c(-c7c(F)c(F)c(F)c(F)c7F)c7ccc([nH]7)c(-c7c(F)c(F)c(F)c(F)c7F)c7nc(c(-c8c(F)c(F)c(F)c(F)c8F)c8ccc5[nH]8)C=C7)C=C6)cc4)C3)c(N3CCOCC3)nc2c1
REMARK SMILES IDX 17 1 16 2 14 3 15 4 13 5 9 6 10 7 85 8 11 10 12 11 8 14 7 15
REMARK SMILES IDX 1 16 2 17 3 18 95 19 4 20 94 21 5 22 93 23 6 24 86 25 87 26
REMARK SMILES IDX 88 27 92 28 89 29 91 30 90 31 18 32 19 33 20 34 21 35 22 36
REMARK SMILES IDX 23 37 84 38 24 39 83 40 25 41 26 42 27 43 77 44 28 45 82 46
REMARK SMILES IDX 76 47 78 48 29 49 81 50 75 51 74 52 30 54 62 55 42 56 61 57
REMARK SMILES IDX 43 58 46 59 60 60 79 61 44 62 45 63 59 65 80 66 47 67 31 68
REMARK SMILES IDX 32 69 40 70 33 71 34 72 38 73 41 74 35 75 36 76 39 77 37 78
REMARK SMILES IDX 63 79 64 80 72 81 65 82 66 83 70 84 73 85 67 86 68 87 71 88
REMARK SMILES IDX 69 89 48 90 49 91 57 92 50 93 51 94 55 95 58 96 52 97 53 98
REMARK SMILES IDX 56 99 54 100
REMARK H PARENT 9 9 12 12 12 13 78 53 46 64
REMARK Flexibility Score: inf
ROOT
ATOM      1  C   UNL     1      -4.164   2.061   3.928  1.00  0.00     0.274 C 
ENDROOT
BRANCH   1   2
ATOM      2  O   UNL     1      -3.437   2.847   2.962  1.00  0.00    -0.457 OA
BRANCH   2   3
ATOM      3  C   UNL     1      -3.886   4.108   2.710  1.00  0.00     0.371 C 
ATOM      4  O   UNL     1      -4.891   4.604   3.211  1.00  0.00    -0.245 OA
BRANCH   3   5
ATOM      5  C   UNL     1      -2.928   4.867   1.778  1.00  0.00     0.348 C 
ATOM      6  N   UNL     1      -1.738   7.180   1.842  1.00  0.00    -0.321 N 
ATOM      7  C   UNL     1      -2.213   7.352   0.466  1.00  0.00     0.324 C 
ATOM      8  C   UNL     1      -2.433   6.108   2.557  1.00  0.00     0.341 C 
ATOM      9  H   UNL     1      -2.019   8.044   2.306  1.00  0.00     0.348 HD
ATOM     10  C   UNL     1      -2.659   6.063  -0.267  1.00  0.00     0.323 C 
ATOM     11  N   UNL     1      -3.608   5.245   0.515  1.00  0.00    -0.325 N 
ATOM     12  H   UNL     1      -3.862   4.407  -0.009  1.00  0.00     0.347 HD
ATOM     13  H   UNL     1      -4.463   5.768   0.707  1.00  0.00     0.347 HD
BRANCH   6  14
ATOM     14  C   UNL     1      -0.279   7.222   2.042  1.00  0.00     0.303 C 
BRANCH  14  15
ATOM     15  C   UNL     1       0.503   6.068   1.460  1.00  0.00     0.049 A 
ATOM     16  C   UNL     1       1.470   0.084  -0.750  1.00  0.00     0.044 C 
ATOM     17  C   UNL     1       1.320   1.342   0.050  1.00  0.00    -0.049 A 
ATOM     18  C   UNL     1       1.040   1.274   1.413  1.00  0.00     0.004 A 
ATOM     19  C   UNL     1       1.479   2.603  -0.556  1.00  0.00     0.032 A 
ATOM     20  C   UNL     1       0.853   2.446   2.134  1.00  0.00     0.010 A 
ATOM     21  C   UNL     1       1.280   3.794   0.138  1.00  0.00     0.073 A 
ATOM     22  C   UNL     1       0.928   3.692   1.493  1.00  0.00     0.001 A 
ATOM     23  N   UNL     1       1.391   4.987  -0.487  1.00  0.00    -0.230 NA
ATOM     24  C   UNL     1       0.569   4.859   2.158  1.00  0.00     0.023 A 
ATOM     25  C   UNL     1       1.046   6.116   0.173  1.00  0.00     0.138 A 
BRANCH  25  26
ATOM     26  N   UNL     1       1.212   7.343  -0.450  1.00  0.00    -0.352 N 
ATOM     27  C   UNL     1       2.258   8.220   0.103  1.00  0.00     0.146 C 
ATOM     28  C   UNL     1       1.117   7.412  -1.907  1.00  0.00     0.146 C 
ATOM     29  C   UNL     1       1.979   9.661  -0.351  1.00  0.00     0.181 C 
ATOM     30  C   UNL     1       0.878   8.884  -2.298  1.00  0.00     0.181 C 
ATOM     31  O   UNL     1       1.907   9.753  -1.785  1.00  0.00    -0.378 OA
ENDBRANCH  25  26
ENDBRANCH  14  15
ENDBRANCH   6  14
ENDBRANCH   3   5
ENDBRANCH   2   3
ENDBRANCH   1   2
BRANCH   1  32
ATOM     32  C   UNL     1      -3.218   1.549   5.021  1.00  0.00     0.275 C 
BRANCH  32  33
ATOM     33  O   UNL     1      -2.869   2.591   5.960  1.00  0.00    -0.458 OA
BRANCH  33  34
ATOM     34  C   UNL     1      -1.806   3.333   5.589  1.00  0.00     0.338 C 
ATOM     35  O   UNL     1      -1.146   3.217   4.572  1.00  0.00    -0.246 OA
BRANCH  34  36
ATOM     36  C   UNL     1      -1.553   4.440   6.515  1.00  0.00     0.060 A 
ATOM     37  C   UNL     1      -0.918   4.257   7.738  1.00  0.00     0.016 A 
ATOM     38  C   UNL     1      -1.774   5.724   6.027  1.00  0.00     0.016 A 
ATOM     39  C   UNL     1      -0.533   5.385   8.474  1.00  0.00     0.010 A 
ATOM     40  C   UNL     1      -1.259   6.831   6.680  1.00  0.00     0.010 A 
ATOM     41  C   UNL     1      -0.695   6.683   7.947  1.00  0.00    -0.014 A 
BRANCH  41  42
ATOM     42  C   UNL     1      -0.374   7.893   8.745  1.00  0.00     0.031 A 
ATOM     43  C   UNL     1      -1.467   8.868   9.105  1.00  0.00     0.074 A 
ATOM     44  C   UNL     1       0.893   8.136   9.129  1.00  0.00     0.049 A 
ATOM     45  N   UNL     1      -1.414   9.916   9.890  1.00  0.00    -0.248 NA
ATOM     46  C   UNL     1      -2.784   8.672   8.473  1.00  0.00     0.031 C 
ATOM     47  C   UNL     1       2.062   7.345   8.745  1.00  0.00     0.029 A 
ATOM     48  N   UNL     1       1.402   9.110   9.951  1.00  0.00    -0.354 N 
ATOM     49  C   UNL     1      -2.676  10.492   9.833  1.00  0.00     0.074 A 
ATOM     50  C   UNL     1      -3.445   9.748   8.867  1.00  0.00     0.031 C 
ATOM     51  C   UNL     1       3.141   7.819   9.389  1.00  0.00     0.029 A 
ATOM     52  C   UNL     1       2.736   8.944  10.229  1.00  0.00     0.049 A 
ATOM     53  H   UNL     1       0.864   9.854  10.305  1.00  0.00     0.167 HD
ATOM     54  C   UNL     1      -3.179  11.511  10.567  1.00  0.00     0.037 A 
ATOM     55  C   UNL     1       3.527   9.595  11.105  1.00  0.00     0.037 A 
ATOM     56  C   UNL     1      -2.439  12.207  11.579  1.00  0.00     0.049 A 
ATOM     57  C   UNL     1       2.941  10.684  11.961  1.00  0.00     0.074 A 
ATOM     58  C   UNL     1      -2.882  13.171  12.465  1.00  0.00     0.029 A 
ATOM     59  N   UNL     1      -1.094  12.000  11.841  1.00  0.00    -0.354 N 
ATOM     60  N   UNL     1       1.710  11.131  12.000  1.00  0.00    -0.248 NA
ATOM     61  C   UNL     1       3.852  11.348  12.905  1.00  0.00     0.031 C 
ATOM     62  C   UNL     1      -1.794  13.565  13.252  1.00  0.00     0.029 A 
ATOM     63  C   UNL     1      -0.683  12.831  12.866  1.00  0.00     0.049 A 
ATOM     64  H   UNL     1      -0.517  11.357  11.368  1.00  0.00     0.167 HD
ATOM     65  C   UNL     1       1.692  12.116  12.977  1.00  0.00     0.074 A 
ATOM     66  C   UNL     1       3.034  12.194  13.518  1.00  0.00     0.031 C 
ATOM     67  C   UNL     1       0.657  12.888  13.388  1.00  0.00     0.037 A 
BRANCH  54  68
ATOM     68  C   UNL     1      -4.613  11.881  10.337  1.00  0.00     0.064 A 
ATOM     69  C   UNL     1      -5.655  11.034  10.747  1.00  0.00     0.173 A 
ATOM     70  C   UNL     1      -4.953  13.085   9.706  1.00  0.00     0.173 A 
ATOM     71  F   UNL     1      -5.378   9.863  11.341  1.00  0.00    -0.203 F 
ATOM     72  C   UNL     1      -6.984  11.361  10.499  1.00  0.00     0.198 A 
ATOM     73  C   UNL     1      -6.286  13.422   9.484  1.00  0.00     0.198 A 
ATOM     74  F   UNL     1      -3.995  13.930   9.299  1.00  0.00    -0.203 F 
ATOM     75  F   UNL     1      -7.958  10.509  10.849  1.00  0.00    -0.200 F 
ATOM     76  C   UNL     1      -7.299  12.557   9.872  1.00  0.00     0.200 A 
ATOM     77  F   UNL     1      -6.592  14.581   8.885  1.00  0.00    -0.200 F 
ATOM     78  F   UNL     1      -8.580  12.870   9.633  1.00  0.00    -0.200 F 
ENDBRANCH  54  68
BRANCH  55  79
ATOM     79  C   UNL     1       4.927   9.144  11.293  1.00  0.00     0.064 A 
ATOM     80  C   UNL     1       5.277   8.371  12.410  1.00  0.00     0.173 A 
ATOM     81  C   UNL     1       5.927   9.431  10.355  1.00  0.00     0.173 A 
ATOM     82  F   UNL     1       4.353   8.083  13.339  1.00  0.00    -0.203 F 
ATOM     83  C   UNL     1       6.577   7.905  12.582  1.00  0.00     0.198 A 
ATOM     84  C   UNL     1       7.225   8.952  10.522  1.00  0.00     0.198 A 
ATOM     85  F   UNL     1       5.637  10.161   9.268  1.00  0.00    -0.203 F 
ATOM     86  F   UNL     1       6.889   7.181  13.666  1.00  0.00    -0.200 F 
ATOM     87  C   UNL     1       7.549   8.190  11.636  1.00  0.00     0.200 A 
ATOM     88  F   UNL     1       8.160   9.221   9.601  1.00  0.00    -0.200 F 
ATOM     89  F   UNL     1       8.798   7.732  11.796  1.00  0.00    -0.200 F 
ENDBRANCH  55  79
BRANCH  67  90
ATOM     90  C   UNL     1       0.922  13.893  14.464  1.00  0.00     0.064 A 
ATOM     91  C   UNL     1       1.553  15.110  14.173  1.00  0.00     0.173 A 
ATOM     92  C   UNL     1       0.441  13.689  15.765  1.00  0.00     0.173 A 
ATOM     93  F   UNL     1       2.036  15.342  12.943  1.00  0.00    -0.203 F 
ATOM     94  C   UNL     1       1.692  16.091  15.149  1.00  0.00     0.198 A 
ATOM     95  C   UNL     1       0.565  14.680  16.734  1.00  0.00     0.198 A 
ATOM     96  F   UNL     1      -0.178  12.543  16.085  1.00  0.00    -0.203 F 
ATOM     97  F   UNL     1       2.307  17.245  14.854  1.00  0.00    -0.200 F 
ATOM     98  C   UNL     1       1.188  15.880  16.425  1.00  0.00     0.200 A 
ATOM     99  F   UNL     1       0.067  14.481  17.962  1.00  0.00    -0.200 F 
ATOM    100  F   UNL     1       1.302  16.836  17.357  1.00  0.00    -0.200 F 
ENDBRANCH  67  90
ENDBRANCH  41  42
ENDBRANCH  34  36
ENDBRANCH  33  34
ENDBRANCH  32  33
ENDBRANCH   1  32
TORSDOF 14
