REMARK SMILES COc1ccc(OCCNc2ccc(C)cc2C(=O)OCCOC(=O)c2ccc(-c3c4nc(c(-c5c(F)c(F)c(F)c(F)c5F)c5ccc([nH]5)c(-c5c(F)c(F)c(F)c(F)c5F)c5nc(c(-c6c(F)c(F)c(F)c(F)c6F)c6ccc3[nH]6)C=C5)C=C4)cc2)cc1
REMARK SMILES IDX 18 1 19 2 17 3 11 4 12 5 13 6 16 7 14 8 15 9 10 10 9 12 8 13
REMARK SMILES IDX 7 14 6 15 3 16 4 17 90 18 5 19 89 20 2 21 1 22 20 23 21 24
REMARK SMILES IDX 22 25 23 26 24 27 25 28 26 29 27 30 88 31 28 32 87 33 29 34
REMARK SMILES IDX 30 35 31 36 81 37 32 38 86 39 80 40 82 41 33 42 85 43 79 44
REMARK SMILES IDX 78 45 34 47 66 48 46 49 65 50 47 51 50 52 64 53 83 54 48 55
REMARK SMILES IDX 49 56 63 58 84 59 51 60 35 61 36 62 44 63 37 64 38 65 42 66
REMARK SMILES IDX 45 67 39 68 40 69 43 70 41 71 67 72 68 73 76 74 69 75 70 76
REMARK SMILES IDX 74 77 77 78 71 79 72 80 75 81 73 82 52 83 53 84 61 85 54 86
REMARK SMILES IDX 55 87 59 88 62 89 56 90 57 91 60 92 58 93
REMARK H PARENT 10 11 82 46 50 57
REMARK Flexibility Score: inf
ROOT
ATOM      1  C   UNL     1       5.684   1.010   6.157  1.00  0.00     0.340 C 
ATOM      2  O   UNL     1       6.705   1.279   6.763  1.00  0.00    -0.246 OA
ENDROOT
BRANCH   1   3
ATOM      3  C   UNL     1       5.654   0.795   4.688  1.00  0.00     0.083 A 
ATOM      4  C   UNL     1       4.616   1.244   3.859  1.00  0.00     0.049 A 
ATOM      5  C   UNL     1       4.696   0.892   2.497  1.00  0.00     0.027 A 
ATOM      6  C   UNL     1       5.726   0.103   1.978  1.00  0.00     0.005 A 
ATOM      7  C   UNL     1       6.715   0.026   4.155  1.00  0.00     0.021 A 
ATOM      8  C   UNL     1       6.730  -0.369   2.814  1.00  0.00    -0.050 A 
ATOM      9  C   UNL     1       7.795  -1.275   2.273  1.00  0.00     0.044 C 
BRANCH   4  10
ATOM     10  N   UNL     1       3.555   2.048   4.219  1.00  0.00    -0.381 N 
ATOM     11  H   UNL     1       2.700   1.863   3.767  1.00  0.00     0.160 HD
BRANCH  10  12
ATOM     12  C   UNL     1       3.544   3.138   5.186  1.00  0.00     0.154 C 
BRANCH  12  13
ATOM     13  C   UNL     1       3.128   4.475   4.542  1.00  0.00     0.250 C 
BRANCH  13  14
ATOM     14  O   UNL     1       1.736   4.542   4.199  1.00  0.00    -0.492 OA
BRANCH  14  15
ATOM     15  C   UNL     1       1.323   3.877   3.078  1.00  0.00     0.119 A 
ATOM     16  C   UNL     1       0.345   2.241   1.034  1.00  0.00     0.119 A 
ATOM     17  C   UNL     1      -0.495   2.627   2.074  1.00  0.00     0.050 A 
ATOM     18  C   UNL     1       1.636   2.757   0.955  1.00  0.00     0.050 A 
ATOM     19  C   UNL     1      -0.004   3.441   3.097  1.00  0.00     0.050 A 
ATOM     20  C   UNL     1       2.120   3.585   1.971  1.00  0.00     0.050 A 
BRANCH  16  21
ATOM     21  O   UNL     1      -0.161   1.402   0.080  1.00  0.00    -0.497 OA
ATOM     22  C   UNL     1       0.588   0.188  -0.010  1.00  0.00     0.278 C 
ENDBRANCH  16  21
ENDBRANCH  14  15
ENDBRANCH  13  14
ENDBRANCH  12  13
ENDBRANCH  10  12
ENDBRANCH   4  10
ENDBRANCH   1   3
BRANCH   1  23
ATOM     23  O   UNL     1       4.464   0.765   6.701  1.00  0.00    -0.458 OA
BRANCH  23  24
ATOM     24  C   UNL     1       4.316   0.994   8.116  1.00  0.00     0.275 C 
BRANCH  24  25
ATOM     25  C   UNL     1       3.829  -0.276   8.807  1.00  0.00     0.275 C 
BRANCH  25  26
ATOM     26  O   UNL     1       4.861  -1.270   8.699  1.00  0.00    -0.458 OA
BRANCH  26  27
ATOM     27  C   UNL     1       4.559  -2.350   7.951  1.00  0.00     0.338 C 
ATOM     28  O   UNL     1       3.475  -2.684   7.498  1.00  0.00    -0.246 OA
BRANCH  27  29
ATOM     29  C   UNL     1       5.805  -3.069   7.665  1.00  0.00     0.060 A 
ATOM     30  C   UNL     1       6.711  -2.485   6.785  1.00  0.00     0.016 A 
ATOM     31  C   UNL     1       6.029  -4.348   8.164  1.00  0.00     0.016 A 
ATOM     32  C   UNL     1       7.815  -3.199   6.335  1.00  0.00     0.010 A 
ATOM     33  C   UNL     1       7.184  -5.034   7.777  1.00  0.00     0.010 A 
ATOM     34  C   UNL     1       8.073  -4.482   6.832  1.00  0.00    -0.014 A 
BRANCH  34  35
ATOM     35  C   UNL     1       9.224  -5.276   6.318  1.00  0.00     0.031 A 
ATOM     36  C   UNL     1       8.973  -6.615   5.678  1.00  0.00     0.074 A 
ATOM     37  C   UNL     1      10.485  -4.810   6.409  1.00  0.00     0.049 A 
ATOM     38  N   UNL     1       9.819  -7.571   5.389  1.00  0.00    -0.248 NA
ATOM     39  C   UNL     1       7.577  -6.926   5.332  1.00  0.00     0.031 C 
ATOM     40  C   UNL     1      10.873  -3.504   6.942  1.00  0.00     0.029 A 
ATOM     41  N   UNL     1      11.680  -5.390   6.055  1.00  0.00    -0.354 N 
ATOM     42  C   UNL     1       9.051  -8.622   4.905  1.00  0.00     0.074 A 
ATOM     43  C   UNL     1       7.672  -8.184   4.925  1.00  0.00     0.031 C 
ATOM     44  C   UNL     1      12.205  -3.370   6.855  1.00  0.00     0.029 A 
ATOM     45  C   UNL     1      12.775  -4.616   6.356  1.00  0.00     0.049 A 
ATOM     46  H   UNL     1      11.745  -6.274   5.627  1.00  0.00     0.167 HD
ATOM     47  C   UNL     1       9.464  -9.844   4.491  1.00  0.00     0.037 A 
ATOM     48  C   UNL     1      14.091  -4.897   6.295  1.00  0.00     0.037 A 
ATOM     49  C   UNL     1      10.845 -10.242   4.404  1.00  0.00     0.049 A 
ATOM     50  C   UNL     1      14.526  -6.266   5.848  1.00  0.00     0.074 A 
ATOM     51  C   UNL     1      11.372 -11.447   3.974  1.00  0.00     0.029 A 
ATOM     52  N   UNL     1      11.921  -9.432   4.736  1.00  0.00    -0.354 N 
ATOM     53  N   UNL     1      13.793  -7.282   5.463  1.00  0.00    -0.248 NA
ATOM     54  C   UNL     1      15.970  -6.534   5.850  1.00  0.00     0.031 C 
ATOM     55  C   UNL     1      12.765 -11.378   4.078  1.00  0.00     0.029 A 
ATOM     56  C   UNL     1      13.109 -10.115   4.531  1.00  0.00     0.049 A 
ATOM     57  H   UNL     1      11.851  -8.508   5.069  1.00  0.00     0.167 HD
ATOM     58  C   UNL     1      14.682  -8.306   5.172  1.00  0.00     0.074 A 
ATOM     59  C   UNL     1      16.013  -7.780   5.400  1.00  0.00     0.031 C 
ATOM     60  C   UNL     1      14.422  -9.571   4.761  1.00  0.00     0.037 A 
BRANCH  47  61
ATOM     61  C   UNL     1       8.412 -10.856   4.142  1.00  0.00     0.064 A 
ATOM     62  C   UNL     1       7.641 -10.765   2.975  1.00  0.00     0.173 A 
ATOM     63  C   UNL     1       8.201 -11.962   4.982  1.00  0.00     0.173 A 
ATOM     64  F   UNL     1       7.793  -9.721   2.146  1.00  0.00    -0.203 F 
ATOM     65  C   UNL     1       6.682 -11.729   2.673  1.00  0.00     0.198 A 
ATOM     66  C   UNL     1       7.262 -12.939   4.662  1.00  0.00     0.198 A 
ATOM     67  F   UNL     1       8.915 -12.101   6.109  1.00  0.00    -0.203 F 
ATOM     68  F   UNL     1       5.926 -11.598   1.574  1.00  0.00    -0.200 F 
ATOM     69  C   UNL     1       6.499 -12.819   3.511  1.00  0.00     0.200 A 
ATOM     70  F   UNL     1       7.097 -13.997   5.468  1.00  0.00    -0.200 F 
ATOM     71  F   UNL     1       5.582 -13.750   3.214  1.00  0.00    -0.200 F 
ENDBRANCH  47  61
BRANCH  48  72
ATOM     72  C   UNL     1      15.086  -3.881   6.726  1.00  0.00     0.064 A 
ATOM     73  C   UNL     1      15.957  -3.283   5.805  1.00  0.00     0.173 A 
ATOM     74  C   UNL     1      15.183  -3.480   8.068  1.00  0.00     0.173 A 
ATOM     75  F   UNL     1      15.924  -3.653   4.517  1.00  0.00    -0.203 F 
ATOM     76  C   UNL     1      16.889  -2.329   6.210  1.00  0.00     0.198 A 
ATOM     77  C   UNL     1      16.092  -2.503   8.466  1.00  0.00     0.198 A 
ATOM     78  F   UNL     1      14.377  -4.024   8.992  1.00  0.00    -0.203 F 
ATOM     79  F   UNL     1      17.738  -1.804   5.316  1.00  0.00    -0.200 F 
ATOM     80  C   UNL     1      16.949  -1.933   7.538  1.00  0.00     0.200 A 
ATOM     81  F   UNL     1      16.135  -2.113   9.747  1.00  0.00    -0.200 F 
ATOM     82  F   UNL     1      17.837  -1.007   7.924  1.00  0.00    -0.200 F 
ENDBRANCH  48  72
BRANCH  60  83
ATOM     83  C   UNL     1      15.601 -10.461   4.505  1.00  0.00     0.064 A 
ATOM     84  C   UNL     1      16.358 -10.997   5.557  1.00  0.00     0.173 A 
ATOM     85  C   UNL     1      15.959 -10.805   3.193  1.00  0.00     0.173 A 
ATOM     86  F   UNL     1      16.064 -10.683   6.828  1.00  0.00    -0.203 F 
ATOM     87  C   UNL     1      17.446 -11.827   5.303  1.00  0.00     0.198 A 
ATOM     88  C   UNL     1      17.031 -11.657   2.944  1.00  0.00     0.198 A 
ATOM     89  F   UNL     1      15.263 -10.322   2.153  1.00  0.00    -0.203 F 
ATOM     90  F   UNL     1      18.184 -12.291   6.321  1.00  0.00    -0.200 F 
ATOM     91  C   UNL     1      17.778 -12.161   3.998  1.00  0.00     0.200 A 
ATOM     92  F   UNL     1      17.344 -11.987   1.683  1.00  0.00    -0.200 F 
ATOM     93  F   UNL     1      18.824 -12.963   3.756  1.00  0.00    -0.200 F 
ENDBRANCH  60  83
ENDBRANCH  34  35
ENDBRANCH  27  29
ENDBRANCH  26  27
ENDBRANCH  25  26
ENDBRANCH  24  25
ENDBRANCH  23  24
ENDBRANCH   1  23
TORSDOF 17
