REMARK SMILES C#CCNC(=O)N[C@@]1(C(=O)OCCOC(=O)c2ccc(-c3c4nc(c(-c5c(F)c(F)c(F)c(F)c5F)c5ccc([nH]5)c(-c5c(F)c(F)c(F)c(F)c5F)c5nc(c(-c6c(F)c(F)c(F)c(F)c6F)c6ccc3[nH]6)C=C5)C=C4)cc2)CCc2ccccc21
REMARK SMILES IDX 12 1 11 2 9 3 10 4 8 5 80 6 87 7 81 8 82 9 86 10 83 11 85 12
REMARK SMILES IDX 84 13 7 14 4 15 5 16 6 18 3 20 2 21 1 22 13 23 14 24 15 25
REMARK SMILES IDX 16 26 17 27 18 28 79 29 19 30 78 31 20 32 21 33 22 34 72 35
REMARK SMILES IDX 23 36 77 37 71 38 73 39 24 40 76 41 70 42 69 43 25 45 57 46
REMARK SMILES IDX 37 47 56 48 38 49 41 50 55 51 74 52 39 53 40 54 54 56 75 57
REMARK SMILES IDX 42 58 26 59 27 60 35 61 28 62 29 63 33 64 36 65 30 66 31 67
REMARK SMILES IDX 34 68 32 69 58 70 59 71 67 72 60 73 61 74 65 75 68 76 62 77
REMARK SMILES IDX 63 78 66 79 64 80 43 81 44 82 52 83 45 84 46 85 50 86 53 87
REMARK SMILES IDX 47 88 48 89 51 90 49 91
REMARK H PARENT 4 17 7 19 73 44 41 55
REMARK Flexibility Score: inf
ROOT
ATOM      1  C   UNL     1      -4.335  -3.486   0.736  1.00  0.00     0.274 C 
ENDROOT
BRANCH   1   2
ATOM      2  O   UNL     1      -3.972  -2.099   0.475  1.00  0.00    -0.460 OA
BRANCH   2   3
ATOM      3  C   UNL     1      -2.728  -1.726   0.877  1.00  0.00     0.336 C 
ATOM      4  O   UNL     1      -1.952  -2.560   1.344  1.00  0.00    -0.249 OA
BRANCH   3   5
ATOM      5  C   UNL     1      -2.477  -0.150   0.981  1.00  0.00     0.165 C 
ATOM      6  C   UNL     1      -3.221   1.019   0.285  1.00  0.00     0.050 C 
ATOM      7  C   UNL     1      -1.067   0.182   0.499  1.00  0.00    -0.008 A 
ATOM      8  C   UNL     1      -2.260   2.227   0.344  1.00  0.00     0.039 C 
ATOM      9  C   UNL     1      -0.965   1.530   0.130  1.00  0.00    -0.042 A 
ATOM     10  C   UNL     1       0.034  -0.654   0.380  1.00  0.00     0.007 A 
ATOM     11  C   UNL     1       0.218   2.063  -0.344  1.00  0.00     0.004 A 
ATOM     12  C   UNL     1       1.216  -0.142  -0.144  1.00  0.00     0.000 A 
ATOM     13  C   UNL     1       1.308   1.208  -0.501  1.00  0.00     0.000 A 
BRANCH   5  14
ATOM     14  N   UNL     1      -2.582   0.100   2.400  1.00  0.00    -0.318 N 
ATOM     15  N   UNL     1      -4.770  -0.683   2.546  1.00  0.00    -0.327 N 
ATOM     16  C   UNL     1      -3.647  -0.228   3.138  1.00  0.00     0.316 C 
ATOM     17  H   UNL     1      -4.950  -1.609   2.825  1.00  0.00     0.166 HD
ATOM     18  O   UNL     1      -3.420  -0.410   4.331  1.00  0.00    -0.249 OA
ATOM     19  H   UNL     1      -1.824   0.539   2.850  1.00  0.00     0.166 HD
BRANCH  15  20
ATOM     20  C   UNL     1      -5.806  -0.221   1.615  1.00  0.00     0.207 C 
BRANCH  20  21
ATOM     21  C   UNL     1      -6.814  -1.289   1.412  1.00  0.00    -0.085 C 
ATOM     22  C   UNL     1      -7.526  -2.230   1.209  1.00  0.00     0.006 C 
ENDBRANCH  20  21
ENDBRANCH  15  20
ENDBRANCH   5  14
ENDBRANCH   3   5
ENDBRANCH   2   3
ENDBRANCH   1   2
BRANCH   1  23
ATOM     23  C   UNL     1      -4.388  -4.004   2.220  1.00  0.00     0.275 C 
BRANCH  23  24
ATOM     24  O   UNL     1      -5.149  -3.205   3.177  1.00  0.00    -0.458 OA
BRANCH  24  25
ATOM     25  C   UNL     1      -5.036  -3.603   4.491  1.00  0.00     0.338 C 
ATOM     26  O   UNL     1      -4.441  -4.611   4.849  1.00  0.00    -0.246 OA
BRANCH  25  27
ATOM     27  C   UNL     1      -5.602  -2.636   5.505  1.00  0.00     0.060 A 
ATOM     28  C   UNL     1      -5.902  -1.327   5.192  1.00  0.00     0.016 A 
ATOM     29  C   UNL     1      -5.628  -2.960   6.862  1.00  0.00     0.016 A 
ATOM     30  C   UNL     1      -5.715  -0.324   6.131  1.00  0.00     0.010 A 
ATOM     31  C   UNL     1      -5.823  -1.956   7.835  1.00  0.00     0.010 A 
ATOM     32  C   UNL     1      -5.768  -0.596   7.482  1.00  0.00    -0.014 A 
BRANCH  32  33
ATOM     33  C   UNL     1      -5.737   0.522   8.473  1.00  0.00     0.031 A 
ATOM     34  C   UNL     1      -4.894   0.360   9.706  1.00  0.00     0.074 A 
ATOM     35  C   UNL     1      -6.427   1.674   8.290  1.00  0.00     0.049 A 
ATOM     36  N   UNL     1      -5.030   0.903  10.885  1.00  0.00    -0.248 NA
ATOM     37  C   UNL     1      -3.760  -0.574   9.601  1.00  0.00     0.031 C 
ATOM     38  C   UNL     1      -7.144   2.082   7.075  1.00  0.00     0.029 A 
ATOM     39  N   UNL     1      -6.653   2.731   9.145  1.00  0.00    -0.354 N 
ATOM     40  C   UNL     1      -4.077   0.290  11.690  1.00  0.00     0.074 A 
ATOM     41  C   UNL     1      -3.354  -0.648  10.861  1.00  0.00     0.031 C 
ATOM     42  C   UNL     1      -7.687   3.292   7.244  1.00  0.00     0.029 A 
ATOM     43  C   UNL     1      -7.528   3.666   8.634  1.00  0.00     0.049 A 
ATOM     44  H   UNL     1      -6.232   2.811  10.032  1.00  0.00     0.167 HD
ATOM     45  C   UNL     1      -3.868   0.489  13.013  1.00  0.00     0.037 A 
ATOM     46  C   UNL     1      -8.229   4.644   9.236  1.00  0.00     0.037 A 
ATOM     47  C   UNL     1      -4.585   1.484  13.769  1.00  0.00     0.049 A 
ATOM     48  C   UNL     1      -8.071   4.782  10.722  1.00  0.00     0.074 A 
ATOM     49  C   UNL     1      -4.516   1.773  15.118  1.00  0.00     0.029 A 
ATOM     50  N   UNL     1      -5.501   2.373  13.214  1.00  0.00    -0.354 N 
ATOM     51  N   UNL     1      -7.300   4.099  11.535  1.00  0.00    -0.248 NA
ATOM     52  C   UNL     1      -8.894   5.800  11.381  1.00  0.00     0.031 C 
ATOM     53  C   UNL     1      -5.432   2.796  15.387  1.00  0.00     0.029 A 
ATOM     54  C   UNL     1      -6.013   3.201  14.194  1.00  0.00     0.049 A 
ATOM     55  H   UNL     1      -5.747   2.406  12.261  1.00  0.00     0.167 HD
ATOM     56  C   UNL     1      -7.514   4.628  12.796  1.00  0.00     0.074 A 
ATOM     57  C   UNL     1      -8.485   5.694  12.637  1.00  0.00     0.031 C 
ATOM     58  C   UNL     1      -6.959   4.270  13.980  1.00  0.00     0.037 A 
BRANCH  45  59
ATOM     59  C   UNL     1      -2.916  -0.437  13.718  1.00  0.00     0.064 A 
ATOM     60  C   UNL     1      -1.537  -0.448  13.464  1.00  0.00     0.173 A 
ATOM     61  C   UNL     1      -3.409  -1.361  14.655  1.00  0.00     0.173 A 
ATOM     62  F   UNL     1      -1.009   0.400  12.568  1.00  0.00    -0.203 F 
ATOM     63  C   UNL     1      -0.698  -1.374  14.082  1.00  0.00     0.198 A 
ATOM     64  C   UNL     1      -2.563  -2.260  15.301  1.00  0.00     0.198 A 
ATOM     65  F   UNL     1      -4.720  -1.401  14.942  1.00  0.00    -0.203 F 
ATOM     66  F   UNL     1       0.604  -1.413  13.766  1.00  0.00    -0.200 F 
ATOM     67  C   UNL     1      -1.210  -2.275  15.003  1.00  0.00     0.200 A 
ATOM     68  F   UNL     1      -3.061  -3.120  16.199  1.00  0.00    -0.200 F 
ATOM     69  F   UNL     1      -0.403  -3.167  15.595  1.00  0.00    -0.200 F 
ENDBRANCH  45  59
BRANCH  46  70
ATOM     70  C   UNL     1      -9.199   5.479   8.467  1.00  0.00     0.064 A 
ATOM     71  C   UNL     1      -9.017   6.863   8.342  1.00  0.00     0.173 A 
ATOM     72  C   UNL     1     -10.330   4.922   7.845  1.00  0.00     0.173 A 
ATOM     73  F   UNL     1      -7.966   7.455   8.930  1.00  0.00    -0.203 F 
ATOM     74  C   UNL     1      -9.932   7.656   7.649  1.00  0.00     0.198 A 
ATOM     75  C   UNL     1     -11.222   5.708   7.117  1.00  0.00     0.198 A 
ATOM     76  F   UNL     1     -10.563   3.603   7.922  1.00  0.00    -0.203 F 
ATOM     77  F   UNL     1      -9.758   8.983   7.595  1.00  0.00    -0.200 F 
ATOM     78  C   UNL     1     -11.030   7.077   7.030  1.00  0.00     0.200 A 
ATOM     79  F   UNL     1     -12.267   5.139   6.500  1.00  0.00    -0.200 F 
ATOM     80  F   UNL     1     -11.904   7.839   6.359  1.00  0.00    -0.200 F 
ENDBRANCH  46  70
BRANCH  58  81
ATOM     81  C   UNL     1      -7.323   5.101  15.172  1.00  0.00     0.064 A 
ATOM     82  C   UNL     1      -8.594   5.046  15.758  1.00  0.00     0.173 A 
ATOM     83  C   UNL     1      -6.355   5.929  15.761  1.00  0.00     0.173 A 
ATOM     84  F   UNL     1      -9.558   4.286  15.216  1.00  0.00    -0.203 F 
ATOM     85  C   UNL     1      -8.890   5.811  16.882  1.00  0.00     0.198 A 
ATOM     86  C   UNL     1      -6.642   6.658  16.907  1.00  0.00     0.198 A 
ATOM     87  F   UNL     1      -5.123   6.011  15.234  1.00  0.00    -0.203 F 
ATOM     88  F   UNL     1     -10.127   5.788  17.397  1.00  0.00    -0.200 F 
ATOM     89  C   UNL     1      -7.911   6.605  17.462  1.00  0.00     0.200 A 
ATOM     90  F   UNL     1      -5.689   7.409  17.477  1.00  0.00    -0.200 F 
ATOM     91  F   UNL     1      -8.194   7.326  18.555  1.00  0.00    -0.200 F 
ENDBRANCH  58  81
ENDBRANCH  32  33
ENDBRANCH  25  27
ENDBRANCH  24  25
ENDBRANCH  23  24
ENDBRANCH   1  23
TORSDOF 14
