REMARK SMILES C/C(=C(\C#N)C(=O)OCCOC(=O)c1ccc(-c2c3nc(c(-c4c(F)c(F)c(F)c(F)c4F)c4ccc([nH]4)c(-c4c(F)c(F)c(F)c(F)c4F)c4nc(c(-c5c(F)c(F)c(F)c(F)c5F)c5ccc2[nH]5)C=C4)C=C3)cc1)c1cccc2ccccc12
REMARK SMILES IDX 10 1 9 2 8 3 6 4 7 5 3 6 1 7 2 8 77 9 78 10 86 11 79 12
REMARK SMILES IDX 81 13 85 14 80 15 82 16 84 17 83 18 4 19 5 20 11 21 12 22
REMARK SMILES IDX 13 23 14 24 15 25 76 26 16 27 75 28 17 29 18 30 19 31 69 32
REMARK SMILES IDX 20 33 74 34 68 35 70 36 21 37 73 38 67 39 66 40 22 42 54 43
REMARK SMILES IDX 34 44 53 45 35 46 38 47 52 48 71 49 36 50 37 51 51 53 72 54
REMARK SMILES IDX 39 55 23 56 24 57 32 58 25 59 26 60 30 61 33 62 27 63 28 64
REMARK SMILES IDX 31 65 29 66 55 67 56 68 64 69 57 70 58 71 62 72 65 73 59 74
REMARK SMILES IDX 60 75 63 76 61 77 40 78 41 79 49 80 42 81 43 82 47 83 50 84
REMARK SMILES IDX 44 85 45 86 48 87 46 88
REMARK H PARENT 70 41 38 52
REMARK Flexibility Score: inf
ROOT
ATOM      1  C   UNL     1      -2.950   2.967  -4.877  1.00  0.00     0.275 C 
ENDROOT
BRANCH   1   2
ATOM      2  C   UNL     1      -2.062   1.747  -5.111  1.00  0.00     0.275 C 
BRANCH   2   3
ATOM      3  O   UNL     1      -1.744   1.146  -3.837  1.00  0.00    -0.458 OA
BRANCH   3   4
ATOM      4  C   UNL     1      -0.478   1.314  -3.363  1.00  0.00     0.349 C 
ATOM      5  O   UNL     1       0.461   1.766  -3.995  1.00  0.00    -0.245 OA
BRANCH   4   6
ATOM      6  C   UNL     1      -0.374   0.692  -2.017  1.00  0.00     0.140 C 
ATOM      7  C   UNL     1       0.408   0.169   0.338  1.00  0.00     0.047 C 
ATOM      8  C   UNL     1       0.142   1.122  -0.812  1.00  0.00    -0.018 C 
BRANCH   8   9
ATOM      9  C   UNL     1       0.698   2.511  -0.504  1.00  0.00    -0.013 A 
ATOM     10  C   UNL     1      -0.408   3.912  -0.209  1.00  0.00     0.009 A 
ATOM     11  C   UNL     1       2.248   2.808  -1.289  1.00  0.00    -0.011 A 
ATOM     12  C   UNL     1       0.075   5.684  -1.089  1.00  0.00     0.001 A 
ATOM     13  C   UNL     1       2.657   4.335  -2.084  1.00  0.00    -0.018 A 
ATOM     14  C   UNL     1       3.343   2.049  -0.896  1.00  0.00     0.009 A 
ATOM     15  C   UNL     1       1.587   5.735  -2.064  1.00  0.00     0.009 A 
ATOM     16  C   UNL     1       3.974   4.484  -2.469  1.00  0.00     0.009 A 
ATOM     17  C   UNL     1       4.641   2.557  -1.056  1.00  0.00     0.001 A 
ATOM     18  C   UNL     1       4.944   3.678  -1.858  1.00  0.00     0.001 A 
ENDBRANCH   8   9
BRANCH   6  19
ATOM     19  C   UNL     1      -0.741  -0.773  -2.188  1.00  0.00     0.107 C 
ATOM     20  N   UNL     1      -1.046  -1.988  -2.331  1.00  0.00    -0.192 NA
ENDBRANCH   6  19
ENDBRANCH   4   6
ENDBRANCH   3   4
ENDBRANCH   2   3
ENDBRANCH   1   2
BRANCH   1  21
ATOM     21  O   UNL     1      -2.209   3.909  -4.085  1.00  0.00    -0.458 OA
BRANCH  21  22
ATOM     22  C   UNL     1      -2.381   3.720  -2.766  1.00  0.00     0.338 C 
ATOM     23  O   UNL     1      -3.192   3.005  -2.198  1.00  0.00    -0.246 OA
BRANCH  22  24
ATOM     24  C   UNL     1      -1.402   4.466  -2.001  1.00  0.00     0.060 A 
ATOM     25  C   UNL     1       0.358   4.025  -1.937  1.00  0.00     0.016 A 
ATOM     26  C   UNL     1      -2.100   5.344  -0.635  1.00  0.00     0.016 A 
ATOM     27  C   UNL     1       1.366   4.576  -0.254  1.00  0.00     0.010 A 
ATOM     28  C   UNL     1      -1.169   5.843   0.788  1.00  0.00     0.010 A 
ATOM     29  C   UNL     1       0.532   5.505   1.024  1.00  0.00    -0.014 A 
BRANCH  29  30
ATOM     30  C   UNL     1       1.370   6.098   2.132  1.00  0.00     0.031 A 
ATOM     31  C   UNL     1       0.906   6.141   3.555  1.00  0.00     0.074 A 
ATOM     32  C   UNL     1       2.581   6.639   1.858  1.00  0.00     0.049 A 
ATOM     33  N   UNL     1       1.481   6.724   4.580  1.00  0.00    -0.248 NA
ATOM     34  C   UNL     1      -0.393   5.539   3.865  1.00  0.00     0.031 C 
ATOM     35  C   UNL     1       3.082   6.885   0.521  1.00  0.00     0.029 A 
ATOM     36  N   UNL     1       3.637   7.053   2.639  1.00  0.00    -0.354 N 
ATOM     37  C   UNL     1       0.569   6.654   5.621  1.00  0.00     0.074 A 
ATOM     38  C   UNL     1      -0.595   5.963   5.105  1.00  0.00     0.031 C 
ATOM     39  C   UNL     1       4.393   7.127   0.535  1.00  0.00     0.029 A 
ATOM     40  C   UNL     1       4.792   7.302   1.916  1.00  0.00     0.049 A 
ATOM     41  H   UNL     1       3.577   7.160   3.616  1.00  0.00     0.167 HD
ATOM     42  C   UNL     1       0.698   7.143   6.880  1.00  0.00     0.037 A 
ATOM     43  C   UNL     1       6.023   7.692   2.300  1.00  0.00     0.037 A 
ATOM     44  C   UNL     1       1.897   7.772   7.381  1.00  0.00     0.049 A 
ATOM     45  C   UNL     1       6.185   8.087   3.735  1.00  0.00     0.074 A 
ATOM     46  C   UNL     1       2.144   8.278   8.646  1.00  0.00     0.029 A 
ATOM     47  N   UNL     1       3.062   7.964   6.645  1.00  0.00    -0.354 N 
ATOM     48  N   UNL     1       5.298   8.045   4.698  1.00  0.00    -0.248 NA
ATOM     49  C   UNL     1       7.480   8.654   4.126  1.00  0.00     0.031 C 
ATOM     50  C   UNL     1       3.441   8.806   8.664  1.00  0.00     0.029 A 
ATOM     51  C   UNL     1       4.029   8.575   7.431  1.00  0.00     0.049 A 
ATOM     52  H   UNL     1       3.183   7.704   5.703  1.00  0.00     0.167 HD
ATOM     53  C   UNL     1       5.909   8.611   5.800  1.00  0.00     0.074 A 
ATOM     54  C   UNL     1       7.269   8.925   5.406  1.00  0.00     0.031 C 
ATOM     55  C   UNL     1       5.377   8.882   7.016  1.00  0.00     0.037 A 
BRANCH  42  56
ATOM     56  C   UNL     1      -0.506   7.058   7.778  1.00  0.00     0.064 A 
ATOM     57  C   UNL     1      -1.014   5.834   8.239  1.00  0.00     0.173 A 
ATOM     58  C   UNL     1      -1.175   8.229   8.174  1.00  0.00     0.173 A 
ATOM     59  F   UNL     1      -0.425   4.683   7.884  1.00  0.00    -0.203 F 
ATOM     60  C   UNL     1      -2.172   5.781   9.014  1.00  0.00     0.198 A 
ATOM     61  C   UNL     1      -2.309   8.175   8.981  1.00  0.00     0.198 A 
ATOM     62  F   UNL     1      -0.733   9.431   7.773  1.00  0.00    -0.203 F 
ATOM     63  F   UNL     1      -2.680   4.595   9.373  1.00  0.00    -0.200 F 
ATOM     64  C   UNL     1      -2.815   6.951   9.387  1.00  0.00     0.200 A 
ATOM     65  F   UNL     1      -2.920   9.309   9.354  1.00  0.00    -0.200 F 
ATOM     66  F   UNL     1      -3.932   6.897  10.127  1.00  0.00    -0.200 F 
ENDBRANCH  42  56
BRANCH  43  67
ATOM     67  C   UNL     1       7.157   7.779   1.330  1.00  0.00     0.064 A 
ATOM     68  C   UNL     1       8.293   6.969   1.493  1.00  0.00     0.173 A 
ATOM     69  C   UNL     1       7.143   8.639   0.220  1.00  0.00     0.173 A 
ATOM     70  F   UNL     1       8.384   6.150   2.551  1.00  0.00    -0.203 F 
ATOM     71  C   UNL     1       9.358   7.017   0.592  1.00  0.00     0.198 A 
ATOM     72  C   UNL     1       8.183   8.648  -0.709  1.00  0.00     0.198 A 
ATOM     73  F   UNL     1       6.100   9.457   0.013  1.00  0.00    -0.203 F 
ATOM     74  F   UNL     1      10.447   6.266   0.805  1.00  0.00    -0.200 F 
ATOM     75  C   UNL     1       9.294   7.843  -0.518  1.00  0.00     0.200 A 
ATOM     76  F   UNL     1       8.102   9.430  -1.794  1.00  0.00    -0.200 F 
ATOM     77  F   UNL     1      10.305   7.870  -1.398  1.00  0.00    -0.200 F 
ENDBRANCH  43  67
BRANCH  55  78
ATOM     78  C   UNL     1       6.292   9.532   8.008  1.00  0.00     0.064 A 
ATOM     79  C   UNL     1       6.703  10.866   7.867  1.00  0.00     0.173 A 
ATOM     80  C   UNL     1       6.765   8.807   9.110  1.00  0.00     0.173 A 
ATOM     81  F   UNL     1       6.297  11.592   6.814  1.00  0.00    -0.203 F 
ATOM     82  C   UNL     1       7.582  11.441   8.780  1.00  0.00     0.198 A 
ATOM     83  C   UNL     1       7.616   9.396  10.039  1.00  0.00     0.198 A 
ATOM     84  F   UNL     1       6.401   7.528   9.285  1.00  0.00    -0.203 F 
ATOM     85  F   UNL     1       8.013  12.696   8.593  1.00  0.00    -0.200 F 
ATOM     86  C   UNL     1       8.032  10.708   9.868  1.00  0.00     0.200 A 
ATOM     87  F   UNL     1       8.042   8.689  11.095  1.00  0.00    -0.200 F 
ATOM     88  F   UNL     1       8.878  11.262  10.746  1.00  0.00    -0.200 F 
ENDBRANCH  55  78
ENDBRANCH  29  30
ENDBRANCH  22  24
ENDBRANCH  21  22
ENDBRANCH   1  21
TORSDOF 13
