REMARK SMILES O=C(C[NH+]1CCN(c2cc(-c3ccccc3)nc(-c3ccccc3F)n2)CC1)OCCOC(=O)c1ccc(-c2c3nc(c(-c4c(F)c(F)c(F)c(F)c4F)c4ccc([nH]4)c(-c4c(F)c(F)c(F)c(F)c4F)c4nc(c(-c5c(F)c(F)c(F)c(F)c5F)c5ccc2[nH]5)C=C4)C=C3)cc1
REMARK SMILES IDX 30 1 29 2 2 3 1 4 3 5 4 6 5 7 28 8 6 10 27 11 7 12 8 13 9 14
REMARK SMILES IDX 26 15 10 16 18 17 17 18 11 19 12 20 16 21 13 22 15 23 14 24
REMARK SMILES IDX 19 25 20 26 24 27 21 28 23 29 25 30 22 31 31 32 32 33 33 34
REMARK SMILES IDX 34 35 35 36 36 37 97 38 37 39 96 40 38 41 39 42 40 43 90 44
REMARK SMILES IDX 41 45 95 46 89 47 91 48 42 49 94 50 88 51 87 52 43 54 75 55
REMARK SMILES IDX 55 56 74 57 56 58 59 59 73 60 92 61 57 62 58 63 72 65 93 66
REMARK SMILES IDX 60 67 44 68 45 69 53 70 46 71 47 72 51 73 54 74 48 75 49 76
REMARK SMILES IDX 52 77 50 78 76 79 77 80 85 81 78 82 79 83 83 84 86 85 80 86
REMARK SMILES IDX 81 87 84 88 82 89 61 90 62 91 70 92 63 93 64 94 68 95 71 96
REMARK SMILES IDX 65 97 66 98 69 99 67 100
REMARK H PARENT 4 9 91 53 59 64
REMARK Flexibility Score: inf
ROOT
ATOM      1  C   UNL     1       3.557  -0.074   1.741  1.00  0.00     0.274 C 
ENDROOT
BRANCH   1   2
ATOM      2  O   UNL     1       2.293   0.238   1.110  1.00  0.00    -0.458 OA
BRANCH   2   3
ATOM      3  C   UNL     1       2.156   0.512  -0.217  1.00  0.00     0.361 C 
ATOM      4  O   UNL     1       1.273   1.277  -0.600  1.00  0.00    -0.245 OA
BRANCH   3   5
ATOM      5  C   UNL     1       3.046  -0.256  -1.190  1.00  0.00     0.386 C 
BRANCH   5   6
ATOM      6  N   UNL     1       3.869   0.527  -2.141  1.00  0.00    -0.323 N 
ATOM      7  C   UNL     1       4.118   1.938  -1.791  1.00  0.00     0.284 C 
ATOM      8  C   UNL     1       5.179  -0.130  -2.348  1.00  0.00     0.284 C 
ATOM      9  H   UNL     1       3.299   0.545  -2.987  1.00  0.00     0.348 HD
ATOM     10  C   UNL     1       5.016   2.183  -0.564  1.00  0.00     0.179 C 
ATOM     11  C   UNL     1       6.138  -0.043  -1.138  1.00  0.00     0.179 C 
ATOM     12  N   UNL     1       6.186   1.307  -0.574  1.00  0.00    -0.345 N 
BRANCH  12  13
ATOM     13  C   UNL     1       7.251   1.676   0.231  1.00  0.00     0.133 A 
ATOM     14  C   UNL     1       8.508   1.629  -0.320  1.00  0.00     0.076 A 
ATOM     15  N   UNL     1       7.043   2.196   1.451  1.00  0.00    -0.211 NA
ATOM     16  C   UNL     1       9.541   2.211   0.378  1.00  0.00     0.076 A 
ATOM     17  C   UNL     1       8.124   2.688   2.097  1.00  0.00     0.165 A 
ATOM     18  N   UNL     1       9.381   2.711   1.614  1.00  0.00    -0.228 NA
BRANCH  16  19
ATOM     19  C   UNL     1      10.831   2.393  -0.290  1.00  0.00     0.000 A 
ATOM     20  C   UNL     1      12.022   1.895   0.248  1.00  0.00     0.010 A 
ATOM     21  C   UNL     1      10.874   3.008  -1.559  1.00  0.00     0.010 A 
ATOM     22  C   UNL     1      13.210   1.965  -0.486  1.00  0.00     0.001 A 
ATOM     23  C   UNL     1      12.057   3.078  -2.290  1.00  0.00     0.001 A 
ATOM     24  C   UNL     1      13.224   2.545  -1.755  1.00  0.00     0.000 A 
ENDBRANCH  16  19
BRANCH  17  25
ATOM     25  C   UNL     1       7.916   3.267   3.423  1.00  0.00     0.055 A 
ATOM     26  C   UNL     1       7.526   2.480   4.522  1.00  0.00     0.015 A 
ATOM     27  C   UNL     1       8.120   4.634   3.644  1.00  0.00     0.134 A 
ATOM     28  C   UNL     1       7.371   3.046   5.795  1.00  0.00     0.001 A 
ATOM     29  C   UNL     1       7.959   5.206   4.907  1.00  0.00     0.040 A 
ATOM     30  F   UNL     1       8.462   5.441   2.627  1.00  0.00    -0.206 F 
ATOM     31  C   UNL     1       7.589   4.409   5.987  1.00  0.00     0.003 A 
ENDBRANCH  17  25
ENDBRANCH  12  13
ENDBRANCH   5   6
ENDBRANCH   3   5
ENDBRANCH   2   3
ENDBRANCH   1   2
BRANCH   1  32
ATOM     32  C   UNL     1       3.585  -1.478   2.341  1.00  0.00     0.275 C 
BRANCH  32  33
ATOM     33  O   UNL     1       3.476  -2.457   1.294  1.00  0.00    -0.458 OA
BRANCH  33  34
ATOM     34  C   UNL     1       2.209  -2.872   1.041  1.00  0.00     0.338 C 
ATOM     35  O   UNL     1       1.215  -2.631   1.694  1.00  0.00    -0.246 OA
BRANCH  34  36
ATOM     36  C   UNL     1       2.172  -3.529  -0.283  1.00  0.00     0.060 A 
ATOM     37  C   UNL     1       1.042  -3.309  -1.082  1.00  0.00     0.016 A 
ATOM     38  C   UNL     1       3.214  -4.344  -0.738  1.00  0.00     0.016 A 
ATOM     39  C   UNL     1       0.921  -3.948  -2.314  1.00  0.00     0.010 A 
ATOM     40  C   UNL     1       3.088  -4.992  -1.967  1.00  0.00     0.010 A 
ATOM     41  C   UNL     1       1.922  -4.830  -2.736  1.00  0.00    -0.014 A 
BRANCH  41  42
ATOM     42  C   UNL     1       1.655  -5.770  -3.847  1.00  0.00     0.031 A 
ATOM     43  C   UNL     1       1.145  -7.139  -3.498  1.00  0.00     0.074 A 
ATOM     44  C   UNL     1       1.883  -5.433  -5.126  1.00  0.00     0.049 A 
ATOM     45  N   UNL     1       0.932  -8.173  -4.270  1.00  0.00    -0.248 NA
ATOM     46  C   UNL     1       0.848  -7.376  -2.076  1.00  0.00     0.031 C 
ATOM     47  C   UNL     1       2.348  -4.128  -5.586  1.00  0.00     0.029 A 
ATOM     48  N   UNL     1       1.775  -6.181  -6.271  1.00  0.00    -0.354 N 
ATOM     49  C   UNL     1       0.490  -9.183  -3.426  1.00  0.00     0.074 A 
ATOM     50  C   UNL     1       0.491  -8.649  -2.082  1.00  0.00     0.031 C 
ATOM     51  C   UNL     1       2.517  -4.175  -6.920  1.00  0.00     0.029 A 
ATOM     52  C   UNL     1       2.198  -5.521  -7.396  1.00  0.00     0.049 A 
ATOM     53  H   UNL     1       1.427  -7.102  -6.284  1.00  0.00     0.167 HD
ATOM     54  C   UNL     1       0.114 -10.443  -3.745  1.00  0.00     0.037 A 
ATOM     55  C   UNL     1       2.340  -5.968  -8.659  1.00  0.00     0.037 A 
ATOM     56  C   UNL     1       0.118 -10.970  -5.082  1.00  0.00     0.049 A 
ATOM     57  C   UNL     1       1.964  -7.390  -8.989  1.00  0.00     0.074 A 
ATOM     58  C   UNL     1      -0.272 -12.222  -5.518  1.00  0.00     0.029 A 
ATOM     59  N   UNL     1       0.550 -10.269  -6.199  1.00  0.00    -0.354 N 
ATOM     60  N   UNL     1       1.512  -8.332  -8.196  1.00  0.00    -0.248 NA
ATOM     61  C   UNL     1       2.116  -7.812 -10.389  1.00  0.00     0.031 C 
ATOM     62  C   UNL     1      -0.028 -12.297  -6.894  1.00  0.00     0.029 A 
ATOM     63  C   UNL     1       0.464 -11.074  -7.322  1.00  0.00     0.049 A 
ATOM     64  H   UNL     1       0.870  -9.338  -6.194  1.00  0.00     0.167 HD
ATOM     65  C   UNL     1       1.299  -9.444  -9.000  1.00  0.00     0.074 A 
ATOM     66  C   UNL     1       1.671  -9.061 -10.347  1.00  0.00     0.031 C 
ATOM     67  C   UNL     1       0.832 -10.670  -8.656  1.00  0.00     0.037 A 
BRANCH  54  68
ATOM     68  C   UNL     1      -0.290 -11.340  -2.613  1.00  0.00     0.064 A 
ATOM     69  C   UNL     1      -1.485 -11.145  -1.904  1.00  0.00     0.173 A 
ATOM     70  C   UNL     1       0.543 -12.398  -2.220  1.00  0.00     0.173 A 
ATOM     71  F   UNL     1      -2.305 -10.134  -2.228  1.00  0.00    -0.203 F 
ATOM     72  C   UNL     1      -1.810 -11.952  -0.817  1.00  0.00     0.198 A 
ATOM     73  C   UNL     1       0.200 -13.220  -1.151  1.00  0.00     0.198 A 
ATOM     74  F   UNL     1       1.698 -12.626  -2.864  1.00  0.00    -0.203 F 
ATOM     75  F   UNL     1      -2.924 -11.706  -0.112  1.00  0.00    -0.200 F 
ATOM     76  C   UNL     1      -0.970 -12.990  -0.443  1.00  0.00     0.200 A 
ATOM     77  F   UNL     1       1.010 -14.227  -0.796  1.00  0.00    -0.200 F 
ATOM     78  F   UNL     1      -1.281 -13.760   0.608  1.00  0.00    -0.200 F 
ENDBRANCH  54  68
BRANCH  55  79
ATOM     79  C   UNL     1       2.879  -5.056  -9.700  1.00  0.00     0.064 A 
ATOM     80  C   UNL     1       2.056  -4.543 -10.711  1.00  0.00     0.173 A 
ATOM     81  C   UNL     1       4.226  -4.665  -9.691  1.00  0.00     0.173 A 
ATOM     82  F   UNL     1       0.768  -4.909 -10.776  1.00  0.00    -0.203 F 
ATOM     83  C   UNL     1       2.562  -3.675 -11.677  1.00  0.00     0.198 A 
ATOM     84  C   UNL     1       4.725  -3.780 -10.643  1.00  0.00     0.198 A 
ATOM     85  F   UNL     1       5.054  -5.131  -8.744  1.00  0.00    -0.203 F 
ATOM     86  F   UNL     1       1.762  -3.221 -12.652  1.00  0.00    -0.200 F 
ATOM     87  C   UNL     1       3.894  -3.288 -11.638  1.00  0.00     0.200 A 
ATOM     88  F   UNL     1       6.009  -3.401 -10.594  1.00  0.00    -0.200 F 
ATOM     89  F   UNL     1       4.377  -2.445 -12.561  1.00  0.00    -0.200 F 
ENDBRANCH  55  79
BRANCH  67  90
ATOM     90  C   UNL     1       0.657 -11.682  -9.750  1.00  0.00     0.064 A 
ATOM     91  C   UNL     1       1.753 -12.338 -10.328  1.00  0.00     0.173 A 
ATOM     92  C   UNL     1      -0.630 -12.058 -10.165  1.00  0.00     0.173 A 
ATOM     93  F   UNL     1       3.003 -12.005  -9.972  1.00  0.00    -0.203 F 
ATOM     94  C   UNL     1       1.567 -13.328 -11.289  1.00  0.00     0.198 A 
ATOM     95  C   UNL     1      -0.813 -13.066 -11.108  1.00  0.00     0.198 A 
ATOM     96  F   UNL     1      -1.711 -11.465  -9.636  1.00  0.00    -0.203 F 
ATOM     97  F   UNL     1       2.629 -13.924 -11.849  1.00  0.00    -0.200 F 
ATOM     98  C   UNL     1       0.285 -13.698 -11.671  1.00  0.00     0.200 A 
ATOM     99  F   UNL     1      -2.052 -13.432 -11.464  1.00  0.00    -0.200 F 
ATOM    100  F   UNL     1       0.109 -14.663 -12.583  1.00  0.00    -0.200 F 
ENDBRANCH  67  90
ENDBRANCH  41  42
ENDBRANCH  34  36
ENDBRANCH  33  34
ENDBRANCH  32  33
ENDBRANCH   1  32
TORSDOF 15
