REMARK SMILES CC[C@H](C)CN(CC)C(=O)c1ccc(/C=C/C(=O)OCCOC(=O)c2ccc(-c3c4nc(c(-c5c(F)c(F)c(F)c(F)c5F)c5ccc([nH]5)c(-c5c(F)c(F)c(F)c(F)c5F)c5nc(c(-c6c(F)c(F)c(F)c(F)c6F)c6ccc3[nH]6)C=C5)C=C4)cc2)cn1
REMARK SMILES IDX 17 1 18 2 16 3 15 4 14 5 11 6 12 7 89 8 13 9 88 10 9 11
REMARK SMILES IDX 10 12 6 13 5 14 3 15 4 16 2 17 1 18 7 19 8 20 19 21 20 22
REMARK SMILES IDX 21 23 22 24 23 25 24 26 25 27 26 28 87 29 27 30 86 31 28 32
REMARK SMILES IDX 29 33 30 34 80 35 31 36 85 37 79 38 81 39 32 40 84 41 78 42
REMARK SMILES IDX 77 43 33 45 65 46 45 47 64 48 46 49 49 50 63 51 82 52 47 53
REMARK SMILES IDX 48 54 62 56 83 57 50 58 34 59 35 60 43 61 36 62 37 63 41 64
REMARK SMILES IDX 44 65 38 66 39 67 42 68 40 69 66 70 67 71 75 72 68 73 69 74
REMARK SMILES IDX 73 75 76 76 70 77 71 78 74 79 72 80 51 81 52 82 60 83 53 84
REMARK SMILES IDX 54 85 58 86 61 87 55 88 56 89 59 90 57 91
REMARK H PARENT 81 44 49 55
REMARK Flexibility Score: inf
ROOT
ATOM      1  C   UNL     1       4.878  -4.657  -8.803  1.00  0.00     0.330 C 
ATOM      2  O   UNL     1       5.901  -4.049  -9.081  1.00  0.00    -0.247 OA
ENDROOT
BRANCH   1   3
ATOM      3  C   UNL     1       4.202  -4.451  -7.505  1.00  0.00     0.094 C 
ATOM      4  C   UNL     1       2.980  -4.908  -7.186  1.00  0.00     0.017 C 
BRANCH   4   5
ATOM      5  C   UNL     1       2.285  -4.621  -5.919  1.00  0.00    -0.007 A 
ATOM      6  C   UNL     1       0.930  -4.055  -3.591  1.00  0.00     0.128 A 
ATOM      7  C   UNL     1       0.494  -5.121  -4.363  1.00  0.00     0.035 A 
ATOM      8  N   UNL     1       1.980  -3.261  -3.917  1.00  0.00    -0.250 NA
ATOM      9  C   UNL     1       1.197  -5.413  -5.533  1.00  0.00     0.012 A 
ATOM     10  C   UNL     1       2.606  -3.549  -5.082  1.00  0.00     0.120 A 
BRANCH   6  11
ATOM     11  C   UNL     1       0.223  -3.733  -2.325  1.00  0.00     0.272 C 
ATOM     12  O   UNL     1      -0.892  -3.221  -2.402  1.00  0.00    -0.267 OA
BRANCH  11  13
ATOM     13  N   UNL     1       0.853  -4.044  -1.114  1.00  0.00    -0.337 N 
BRANCH  13  14
ATOM     14  C   UNL     1       0.254  -3.569   0.135  1.00  0.00     0.123 C 
BRANCH  14  15
ATOM     15  C   UNL     1       0.869  -2.236   0.627  1.00  0.00     0.005 C 
ATOM     16  C   UNL     1       0.485  -1.077  -0.300  1.00  0.00     0.009 C 
BRANCH  15  17
ATOM     17  C   UNL     1       0.427  -1.981   2.083  1.00  0.00     0.002 C 
ATOM     18  C   UNL     1       0.999  -0.709   2.697  1.00  0.00     0.004 C 
ENDBRANCH  15  17
ENDBRANCH  14  15
ENDBRANCH  13  14
BRANCH  13  19
ATOM     19  C   UNL     1       2.047  -4.888  -1.009  1.00  0.00     0.116 C 
ATOM     20  C   UNL     1       1.696  -6.365  -1.156  1.00  0.00     0.027 C 
ENDBRANCH  13  19
ENDBRANCH  11  13
ENDBRANCH   6  11
ENDBRANCH   4   5
ENDBRANCH   1   3
BRANCH   1  21
ATOM     21  O   UNL     1       4.220  -5.529  -9.601  1.00  0.00    -0.459 OA
BRANCH  21  22
ATOM     22  C   UNL     1       4.743  -5.676 -10.935  1.00  0.00     0.275 C 
BRANCH  22  23
ATOM     23  C   UNL     1       3.911  -4.885 -11.950  1.00  0.00     0.275 C 
BRANCH  23  24
ATOM     24  O   UNL     1       4.024  -3.463 -11.748  1.00  0.00    -0.458 OA
BRANCH  24  25
ATOM     25  C   UNL     1       3.104  -2.926 -10.915  1.00  0.00     0.338 C 
ATOM     26  O   UNL     1       2.188  -3.515 -10.353  1.00  0.00    -0.246 OA
BRANCH  25  27
ATOM     27  C   UNL     1       3.412  -1.510 -10.653  1.00  0.00     0.060 A 
ATOM     28  C   UNL     1       3.405  -1.076  -9.323  1.00  0.00     0.016 A 
ATOM     29  C   UNL     1       3.635  -0.601 -11.691  1.00  0.00     0.016 A 
ATOM     30  C   UNL     1       3.608   0.271  -9.027  1.00  0.00     0.010 A 
ATOM     31  C   UNL     1       3.835   0.752 -11.392  1.00  0.00     0.010 A 
ATOM     32  C   UNL     1       3.808   1.198 -10.059  1.00  0.00    -0.014 A 
BRANCH  32  33
ATOM     33  C   UNL     1       3.931   2.639  -9.730  1.00  0.00     0.031 A 
ATOM     34  C   UNL     1       2.758   3.556  -9.926  1.00  0.00     0.074 A 
ATOM     35  C   UNL     1       5.079   3.115  -9.215  1.00  0.00     0.049 A 
ATOM     36  N   UNL     1       2.660   4.840  -9.687  1.00  0.00    -0.248 NA
ATOM     37  C   UNL     1       1.532   2.948 -10.464  1.00  0.00     0.031 C 
ATOM     38  C   UNL     1       6.278   2.320  -8.955  1.00  0.00     0.029 A 
ATOM     39  N   UNL     1       5.420   4.382  -8.812  1.00  0.00    -0.354 N 
ATOM     40  C   UNL     1       1.366   5.194 -10.045  1.00  0.00     0.074 A 
ATOM     41  C   UNL     1       0.724   3.997 -10.546  1.00  0.00     0.031 C 
ATOM     42  C   UNL     1       7.223   3.116  -8.430  1.00  0.00     0.029 A 
ATOM     43  C   UNL     1       6.706   4.480  -8.342  1.00  0.00     0.049 A 
ATOM     44  H   UNL     1       4.802   5.147  -8.856  1.00  0.00     0.167 HD
ATOM     45  C   UNL     1       0.766   6.405  -9.954  1.00  0.00     0.037 A 
ATOM     46  C   UNL     1       7.392   5.553  -7.902  1.00  0.00     0.037 A 
ATOM     47  C   UNL     1       1.400   7.594  -9.448  1.00  0.00     0.049 A 
ATOM     48  C   UNL     1       6.716   6.897  -7.857  1.00  0.00     0.074 A 
ATOM     49  C   UNL     1       0.864   8.862  -9.297  1.00  0.00     0.029 A 
ATOM     50  N   UNL     1       2.715   7.663  -9.013  1.00  0.00    -0.354 N 
ATOM     51  N   UNL     1       5.485   7.216  -8.174  1.00  0.00    -0.248 NA
ATOM     52  C   UNL     1       7.527   8.031  -7.390  1.00  0.00     0.031 C 
ATOM     53  C   UNL     1       1.867   9.707  -8.810  1.00  0.00     0.029 A 
ATOM     54  C   UNL     1       3.016   8.957  -8.616  1.00  0.00     0.049 A 
ATOM     55  H   UNL     1       3.343   6.905  -8.989  1.00  0.00     0.167 HD
ATOM     56  C   UNL     1       5.367   8.577  -7.928  1.00  0.00     0.074 A 
ATOM     57  C   UNL     1       6.647   9.022  -7.418  1.00  0.00     0.031 C 
ATOM     58  C   UNL     1       4.294   9.386  -8.110  1.00  0.00     0.037 A 
BRANCH  45  59
ATOM     59  C   UNL     1      -0.652   6.511 -10.431  1.00  0.00     0.064 A 
ATOM     60  C   UNL     1      -1.718   5.967  -9.699  1.00  0.00     0.173 A 
ATOM     61  C   UNL     1      -0.953   7.198 -11.617  1.00  0.00     0.173 A 
ATOM     62  F   UNL     1      -1.481   5.291  -8.565  1.00  0.00    -0.203 F 
ATOM     63  C   UNL     1      -3.030   6.088 -10.148  1.00  0.00     0.198 A 
ATOM     64  C   UNL     1      -2.268   7.338 -12.050  1.00  0.00     0.198 A 
ATOM     65  F   UNL     1       0.030   7.741 -12.351  1.00  0.00    -0.203 F 
ATOM     66  F   UNL     1      -4.029   5.527  -9.453  1.00  0.00    -0.200 F 
ATOM     67  C   UNL     1      -3.305   6.779 -11.319  1.00  0.00     0.200 A 
ATOM     68  F   UNL     1      -2.533   8.015 -13.177  1.00  0.00    -0.200 F 
ATOM     69  F   UNL     1      -4.569   6.899 -11.747  1.00  0.00    -0.200 F 
ENDBRANCH  45  59
BRANCH  46  70
ATOM     70  C   UNL     1       8.805   5.400  -7.470  1.00  0.00     0.064 A 
ATOM     71  C   UNL     1       9.167   5.532  -6.123  1.00  0.00     0.173 A 
ATOM     72  C   UNL     1       9.821   5.133  -8.398  1.00  0.00     0.173 A 
ATOM     73  F   UNL     1       8.234   5.815  -5.203  1.00  0.00    -0.203 F 
ATOM     74  C   UNL     1      10.497   5.415  -5.722  1.00  0.00     0.198 A 
ATOM     75  C   UNL     1      11.146   4.990  -7.993  1.00  0.00     0.198 A 
ATOM     76  F   UNL     1       9.526   5.002  -9.700  1.00  0.00    -0.203 F 
ATOM     77  F   UNL     1      10.823   5.589  -4.434  1.00  0.00    -0.200 F 
ATOM     78  C   UNL     1      11.484   5.139  -6.656  1.00  0.00     0.200 A 
ATOM     79  F   UNL     1      12.096   4.715  -8.897  1.00  0.00    -0.200 F 
ATOM     80  F   UNL     1      12.762   5.025  -6.270  1.00  0.00    -0.200 F 
ENDBRANCH  46  70
BRANCH  58  81
ATOM     81  C   UNL     1       4.453  10.830  -7.736  1.00  0.00     0.064 A 
ATOM     82  C   UNL     1       5.212  11.711  -8.521  1.00  0.00     0.173 A 
ATOM     83  C   UNL     1       3.811  11.347  -6.601  1.00  0.00     0.173 A 
ATOM     84  F   UNL     1       5.857  11.262  -9.607  1.00  0.00    -0.203 F 
ATOM     85  C   UNL     1       5.342  13.052  -8.168  1.00  0.00     0.198 A 
ATOM     86  C   UNL     1       3.922  12.694  -6.266  1.00  0.00     0.198 A 
ATOM     87  F   UNL     1       3.069  10.547  -5.820  1.00  0.00    -0.203 F 
ATOM     88  F   UNL     1       6.108  13.866  -8.908  1.00  0.00    -0.200 F 
ATOM     89  C   UNL     1       4.692  13.543  -7.045  1.00  0.00     0.200 A 
ATOM     90  F   UNL     1       3.285  13.169  -5.186  1.00  0.00    -0.200 F 
ATOM     91  F   UNL     1       4.815  14.835  -6.710  1.00  0.00    -0.200 F 
ENDBRANCH  58  81
ENDBRANCH  32  33
ENDBRANCH  25  27
ENDBRANCH  24  25
ENDBRANCH  23  24
ENDBRANCH  22  23
ENDBRANCH  21  22
ENDBRANCH   1  21
TORSDOF 18
