REMARK SMILES C[N@@H+]1[C@H]2CC[C@@H]1[C@@H](C(=O)OCCOC(=O)c1ccc(-c3c4nc(c(-c5c(F)c(F)c(F)c(F)c5F)c5ccc([nH]5)c(-c5c(F)c(F)c(F)c(F)c5F)c5nc(c(-c6c(F)c(F)c(F)c(F)c6F)c6ccc3[nH]6)C=C5)C=C4)cc1)[C@@H](OC(=O)c1ccccc1)C2
REMARK SMILES IDX 11 1 10 2 8 3 9 4 7 5 1 6 2 7 3 8 6 9 4 11 89 12 5 13 79 14
REMARK SMILES IDX 80 15 81 16 82 17 83 18 84 19 88 20 85 21 87 22 86 23 12 24
REMARK SMILES IDX 13 25 14 26 15 27 16 28 17 29 78 30 18 31 77 32 19 33 20 34
REMARK SMILES IDX 21 35 71 36 22 37 76 38 70 39 72 40 23 41 75 42 69 43 68 44
REMARK SMILES IDX 24 46 56 47 36 48 55 49 37 50 40 51 54 52 73 53 38 54 39 55
REMARK SMILES IDX 53 57 74 58 41 59 25 60 26 61 34 62 27 63 28 64 32 65 35 66
REMARK SMILES IDX 29 67 30 68 33 69 31 70 57 71 58 72 66 73 59 74 60 75 64 76
REMARK SMILES IDX 67 77 61 78 62 79 65 80 63 81 42 82 43 83 51 84 44 85 45 86
REMARK SMILES IDX 49 87 52 88 46 89 47 90 50 91 48 92
REMARK H PARENT 2 10 72 45 40 56
REMARK Flexibility Score: inf
ROOT
ATOM      1  C   UNL     1      -2.906  -3.249   1.331  1.00  0.00     0.274 C 
ENDROOT
BRANCH   1   2
ATOM      2  O   UNL     1      -1.816  -2.571   0.667  1.00  0.00    -0.462 OA
BRANCH   2   3
ATOM      3  C   UNL     1      -1.144  -1.670   1.419  1.00  0.00     0.318 C 
ATOM      4  O   UNL     1      -1.431  -1.409   2.587  1.00  0.00    -0.252 OA
BRANCH   3   5
ATOM      5  C   UNL     1       0.013  -0.971   0.734  1.00  0.00     0.198 C 
ATOM      6  C   UNL     1      -2.416   0.458  -0.638  1.00  0.00     0.333 C 
ATOM      7  N   UNL     1      -1.065   0.966  -0.506  1.00  0.00    -0.332 N 
ATOM      8  C   UNL     1      -0.166   0.708  -1.633  1.00  0.00     0.188 C 
ATOM      9  C   UNL     1      -0.303   0.546   0.674  1.00  0.00     0.202 C 
ATOM     10  H   UNL     1      -1.310   1.953  -0.439  1.00  0.00     0.348 HD
ATOM     11  C   UNL     1       1.088   1.429  -1.116  1.00  0.00     0.071 C 
ATOM     12  C   UNL     1       0.058  -0.803  -1.846  1.00  0.00     0.111 C 
ATOM     13  C   UNL     1       0.978   1.358   0.415  1.00  0.00     0.072 C 
ATOM     14  C   UNL     1       0.617  -1.488  -0.590  1.00  0.00     0.203 C 
BRANCH  14  15
ATOM     15  O   UNL     1       0.864  -2.914  -0.617  1.00  0.00    -0.457 OA
BRANCH  15  16
ATOM     16  C   UNL     1       0.196  -3.786  -1.404  1.00  0.00     0.338 C 
ATOM     17  O   UNL     1      -0.638  -3.518  -2.253  1.00  0.00    -0.246 OA
BRANCH  16  18
ATOM     18  C   UNL     1       0.554  -5.194  -1.055  1.00  0.00     0.060 A 
ATOM     19  C   UNL     1      -0.345  -6.207  -1.419  1.00  0.00     0.015 A 
ATOM     20  C   UNL     1       1.690  -5.528  -0.302  1.00  0.00     0.015 A 
ATOM     21  C   UNL     1      -0.143  -7.520  -0.990  1.00  0.00     0.001 A 
ATOM     22  C   UNL     1       1.882  -6.841   0.139  1.00  0.00     0.001 A 
ATOM     23  C   UNL     1       0.962  -7.833  -0.198  1.00  0.00     0.000 A 
ENDBRANCH  16  18
ENDBRANCH  15  16
ENDBRANCH  14  15
ENDBRANCH   3   5
ENDBRANCH   2   3
ENDBRANCH   1   2
BRANCH   1  24
ATOM     24  C   UNL     1      -2.515  -4.620   1.909  1.00  0.00     0.275 C 
BRANCH  24  25
ATOM     25  O   UNL     1      -1.659  -4.547   3.070  1.00  0.00    -0.458 OA
BRANCH  25  26
ATOM     26  C   UNL     1      -0.358  -4.390   2.757  1.00  0.00     0.338 C 
ATOM     27  O   UNL     1       0.109  -4.267   1.640  1.00  0.00    -0.246 OA
BRANCH  26  28
ATOM     28  C   UNL     1       0.540  -4.280   3.898  1.00  0.00     0.060 A 
ATOM     29  C   UNL     1       1.285  -3.100   3.998  1.00  0.00     0.016 A 
ATOM     30  C   UNL     1       0.837  -5.391   4.686  1.00  0.00     0.016 A 
ATOM     31  C   UNL     1       2.340  -3.022   4.892  1.00  0.00     0.010 A 
ATOM     32  C   UNL     1       1.884  -5.302   5.605  1.00  0.00     0.010 A 
ATOM     33  C   UNL     1       2.636  -4.119   5.708  1.00  0.00    -0.014 A 
BRANCH  33  34
ATOM     34  C   UNL     1       3.682  -3.983   6.739  1.00  0.00     0.031 A 
ATOM     35  C   UNL     1       5.027  -4.611   6.563  1.00  0.00     0.074 A 
ATOM     36  C   UNL     1       3.386  -3.263   7.835  1.00  0.00     0.049 A 
ATOM     37  N   UNL     1       6.015  -4.690   7.416  1.00  0.00    -0.248 NA
ATOM     38  C   UNL     1       5.305  -5.227   5.257  1.00  0.00     0.031 C 
ATOM     39  C   UNL     1       2.118  -2.565   8.062  1.00  0.00     0.029 A 
ATOM     40  N   UNL     1       4.121  -3.000   8.958  1.00  0.00    -0.354 N 
ATOM     41  C   UNL     1       7.027  -5.375   6.761  1.00  0.00     0.074 A 
ATOM     42  C   UNL     1       6.535  -5.694   5.437  1.00  0.00     0.031 C 
ATOM     43  C   UNL     1       2.163  -1.953   9.253  1.00  0.00     0.029 A 
ATOM     44  C   UNL     1       3.435  -2.266   9.893  1.00  0.00     0.049 A 
ATOM     45  H   UNL     1       5.048  -3.306   9.084  1.00  0.00     0.167 HD
ATOM     46  C   UNL     1       8.250  -5.708   7.238  1.00  0.00     0.037 A 
ATOM     47  C   UNL     1       3.783  -1.919  11.144  1.00  0.00     0.037 A 
ATOM     48  C   UNL     1       8.716  -5.383   8.562  1.00  0.00     0.049 A 
ATOM     49  C   UNL     1       5.118  -2.357  11.666  1.00  0.00     0.074 A 
ATOM     50  C   UNL     1       9.924  -5.697   9.159  1.00  0.00     0.029 A 
ATOM     51  N   UNL     1       7.985  -4.661   9.496  1.00  0.00    -0.354 N 
ATOM     52  N   UNL     1       6.053  -3.049  11.060  1.00  0.00    -0.248 NA
ATOM     53  C   UNL     1       5.443  -1.980  13.046  1.00  0.00     0.031 C 
ATOM     54  C   UNL     1       9.913  -5.189  10.463  1.00  0.00     0.029 A 
ATOM     55  C   UNL     1       8.712  -4.528  10.668  1.00  0.00     0.049 A 
ATOM     56  H   UNL     1       7.082  -4.296   9.348  1.00  0.00     0.167 HD
ATOM     57  C   UNL     1       7.081  -3.184  11.979  1.00  0.00     0.074 A 
ATOM     58  C   UNL     1       6.661  -2.486  13.179  1.00  0.00     0.031 C 
ATOM     59  C   UNL     1       8.264  -3.830  11.845  1.00  0.00     0.037 A 
BRANCH  46  60
ATOM     60  C   UNL     1       9.159  -6.488   6.337  1.00  0.00     0.064 A 
ATOM     61  C   UNL     1       9.839  -5.880   5.273  1.00  0.00     0.173 A 
ATOM     62  C   UNL     1       9.390  -7.853   6.571  1.00  0.00     0.173 A 
ATOM     63  F   UNL     1       9.641  -4.582   5.000  1.00  0.00    -0.203 F 
ATOM     64  C   UNL     1      10.709  -6.612   4.468  1.00  0.00     0.198 A 
ATOM     65  C   UNL     1      10.274  -8.577   5.776  1.00  0.00     0.198 A 
ATOM     66  F   UNL     1       8.764  -8.481   7.577  1.00  0.00    -0.203 F 
ATOM     67  F   UNL     1      11.328  -6.017   3.438  1.00  0.00    -0.200 F 
ATOM     68  C   UNL     1      10.931  -7.957   4.724  1.00  0.00     0.200 A 
ATOM     69  F   UNL     1      10.492  -9.875   6.029  1.00  0.00    -0.200 F 
ATOM     70  F   UNL     1      11.773  -8.658   3.952  1.00  0.00    -0.200 F 
ENDBRANCH  46  60
BRANCH  47  71
ATOM     71  C   UNL     1       2.832  -1.148  11.979  1.00  0.00     0.064 A 
ATOM     72  C   UNL     1       3.071   0.197  12.286  1.00  0.00     0.173 A 
ATOM     73  C   UNL     1       1.645  -1.729  12.452  1.00  0.00     0.173 A 
ATOM     74  F   UNL     1       4.200   0.788  11.869  1.00  0.00    -0.203 F 
ATOM     75  C   UNL     1       2.160   0.932  13.042  1.00  0.00     0.198 A 
ATOM     76  C   UNL     1       0.725  -0.987  13.186  1.00  0.00     0.198 A 
ATOM     77  F   UNL     1       1.371  -3.013  12.178  1.00  0.00    -0.203 F 
ATOM     78  F   UNL     1       2.424   2.210  13.346  1.00  0.00    -0.200 F 
ATOM     79  C   UNL     1       0.985   0.342  13.484  1.00  0.00     0.200 A 
ATOM     80  F   UNL     1      -0.416  -1.556  13.598  1.00  0.00    -0.200 F 
ATOM     81  F   UNL     1       0.104   1.054  14.200  1.00  0.00    -0.200 F 
ENDBRANCH  47  71
BRANCH  59  82
ATOM     82  C   UNL     1       9.184  -3.789  13.025  1.00  0.00     0.064 A 
ATOM     83  C   UNL     1       8.960  -4.593  14.151  1.00  0.00     0.173 A 
ATOM     84  C   UNL     1      10.305  -2.946  13.022  1.00  0.00     0.173 A 
ATOM     85  F   UNL     1       7.889  -5.398  14.203  1.00  0.00    -0.203 F 
ATOM     86  C   UNL     1       9.817  -4.538  15.246  1.00  0.00     0.198 A 
ATOM     87  C   UNL     1      11.170  -2.909  14.110  1.00  0.00     0.198 A 
ATOM     88  F   UNL     1      10.557  -2.160  11.965  1.00  0.00    -0.203 F 
ATOM     89  F   UNL     1       9.564  -5.283  16.330  1.00  0.00    -0.200 F 
ATOM     90  C   UNL     1      10.923  -3.700  15.223  1.00  0.00     0.200 A 
ATOM     91  F   UNL     1      12.240  -2.103  14.086  1.00  0.00    -0.200 F 
ATOM     92  F   UNL     1      11.745  -3.647  16.279  1.00  0.00    -0.200 F 
ENDBRANCH  59  82
ENDBRANCH  33  34
ENDBRANCH  26  28
ENDBRANCH  25  26
ENDBRANCH  24  25
ENDBRANCH   1  24
TORSDOF 14
