REMARK SMILES Cc1ccccc1C[N@@H+]1[C@@H](C(=O)OCCOC(=O)c2ccc(-c3c4nc(c(-c5c(F)c(F)c(F)c(F)c5F)c5ccc([nH]5)c(-c5c(F)c(F)c(F)c(F)c5F)c5nc(c(-c6c(F)c(F)c(F)c(F)c6F)c6ccc3[nH]6)C=C5)C=C4)cc2)C[C@H]2CCCC[C@@H]21
REMARK SMILES IDX 14 1 13 2 11 3 12 4 10 5 9 6 88 7 82 9 83 10 87 11 84 12
REMARK SMILES IDX 86 13 85 14 8 15 7 16 1 17 2 18 3 19 4 20 6 21 5 22 15 23
REMARK SMILES IDX 16 24 17 25 18 26 19 27 20 28 81 29 21 30 80 31 22 32 23 33
REMARK SMILES IDX 24 34 74 35 25 36 79 37 73 38 75 39 26 40 78 41 72 42 71 43
REMARK SMILES IDX 27 45 59 46 39 47 58 48 40 49 43 50 57 51 76 52 41 53 42 54
REMARK SMILES IDX 56 56 77 57 44 58 28 59 29 60 37 61 30 62 31 63 35 64 38 65
REMARK SMILES IDX 32 66 33 67 36 68 34 69 60 70 61 71 69 72 62 73 63 74 67 75
REMARK SMILES IDX 70 76 64 77 65 78 68 79 66 80 45 81 46 82 54 83 47 84 48 85
REMARK SMILES IDX 52 86 55 87 49 88 50 89 53 90 51 91
REMARK H PARENT 9 8 75 44 43 55
REMARK Flexibility Score: inf
ROOT
ATOM      1  C   UNL     1      -1.310   5.376  -5.080  1.00  0.00     0.274 C 
ENDROOT
BRANCH   1   2
ATOM      2  O   UNL     1      -1.254   4.306  -4.144  1.00  0.00    -0.458 OA
BRANCH   2   3
ATOM      3  C   UNL     1      -0.077   4.157  -3.463  1.00  0.00     0.365 C 
ATOM      4  O   UNL     1       0.905   4.843  -3.659  1.00  0.00    -0.245 OA
BRANCH   3   5
ATOM      5  C   UNL     1      -0.241   3.043  -2.388  1.00  0.00     0.296 C 
ATOM      6  N   UNL     1       1.086   2.479  -2.023  1.00  0.00    -0.317 N 
ATOM      7  C   UNL     1       1.297   1.470  -3.059  1.00  0.00     0.188 C 
ATOM      8  H   UNL     1       1.853   3.152  -2.036  1.00  0.00     0.349 HD
ATOM      9  C   UNL     1      -1.069   1.883  -2.970  1.00  0.00     0.087 C 
ATOM     10  C   UNL     1      -0.058   0.775  -3.185  1.00  0.00     0.054 C 
ATOM     11  C   UNL     1       2.422   0.452  -3.030  1.00  0.00     0.065 C 
ATOM     12  C   UNL     1      -0.149   0.045  -4.513  1.00  0.00     0.010 C 
ATOM     13  C   UNL     1       2.362  -0.390  -4.316  1.00  0.00     0.006 C 
ATOM     14  C   UNL     1       0.972  -0.994  -4.577  1.00  0.00     0.001 C 
BRANCH   6  15
ATOM     15  C   UNL     1       1.272   2.133  -0.597  1.00  0.00     0.300 C 
BRANCH  15  16
ATOM     16  C   UNL     1       0.530   0.935  -0.016  1.00  0.00     0.009 A 
ATOM     17  C   UNL     1       2.632  -0.525   0.383  1.00  0.00     0.045 C 
ATOM     18  C   UNL     1       1.144  -0.300   0.293  1.00  0.00    -0.042 A 
ATOM     19  C   UNL     1       0.335  -1.421   0.573  1.00  0.00     0.004 A 
ATOM     20  C   UNL     1      -1.051  -1.314   0.642  1.00  0.00     0.000 A 
ATOM     21  C   UNL     1      -0.860   1.043   0.195  1.00  0.00     0.010 A 
ATOM     22  C   UNL     1      -1.646  -0.070   0.497  1.00  0.00     0.001 A 
ENDBRANCH  15  16
ENDBRANCH   6  15
ENDBRANCH   3   5
ENDBRANCH   2   3
ENDBRANCH   1   2
BRANCH   1  23
ATOM     23  C   UNL     1      -2.771   5.689  -5.429  1.00  0.00     0.275 C 
BRANCH  23  24
ATOM     24  O   UNL     1      -3.837   5.329  -4.489  1.00  0.00    -0.458 OA
BRANCH  24  25
ATOM     25  C   UNL     1      -3.857   5.223  -3.137  1.00  0.00     0.338 C 
ATOM     26  O   UNL     1      -4.657   4.497  -2.560  1.00  0.00    -0.246 OA
BRANCH  25  27
ATOM     27  C   UNL     1      -2.861   5.977  -2.353  1.00  0.00     0.060 A 
ATOM     28  C   UNL     1      -2.348   5.433  -1.161  1.00  0.00     0.016 A 
ATOM     29  C   UNL     1      -2.351   7.162  -2.856  1.00  0.00     0.016 A 
ATOM     30  C   UNL     1      -1.205   5.986  -0.570  1.00  0.00     0.010 A 
ATOM     31  C   UNL     1      -1.160   7.632  -2.351  1.00  0.00     0.010 A 
ATOM     32  C   UNL     1      -0.579   7.057  -1.205  1.00  0.00    -0.014 A 
BRANCH  32  33
ATOM     33  C   UNL     1       0.500   7.858  -0.633  1.00  0.00     0.031 A 
ATOM     34  C   UNL     1       1.936   7.511  -0.614  1.00  0.00     0.074 A 
ATOM     35  C   UNL     1       0.071   9.079  -0.243  1.00  0.00     0.049 A 
ATOM     36  N   UNL     1       2.811   8.200   0.042  1.00  0.00    -0.248 NA
ATOM     37  C   UNL     1       2.534   6.383  -1.310  1.00  0.00     0.031 C 
ATOM     38  C   UNL     1       0.810  10.278   0.106  1.00  0.00     0.029 A 
ATOM     39  N   UNL     1      -1.259   9.387   0.093  1.00  0.00    -0.354 N 
ATOM     40  C   UNL     1       4.072   7.797  -0.339  1.00  0.00     0.074 A 
ATOM     41  C   UNL     1       3.844   6.626  -1.152  1.00  0.00     0.031 C 
ATOM     42  C   UNL     1       0.025  11.032   0.899  1.00  0.00     0.029 A 
ATOM     43  C   UNL     1      -1.162  10.239   1.201  1.00  0.00     0.049 A 
ATOM     44  H   UNL     1      -2.079   9.073  -0.352  1.00  0.00     0.167 HD
ATOM     45  C   UNL     1       5.135   8.583   0.013  1.00  0.00     0.037 A 
ATOM     46  C   UNL     1      -1.510   9.735   2.423  1.00  0.00     0.037 A 
ATOM     47  C   UNL     1       4.714   9.632   0.944  1.00  0.00     0.049 A 
ATOM     48  C   UNL     1      -0.358   9.713   3.405  1.00  0.00     0.074 A 
ATOM     49  C   UNL     1       4.409  10.978   0.828  1.00  0.00     0.029 A 
ATOM     50  N   UNL     1       4.248   9.241   2.187  1.00  0.00    -0.354 N 
ATOM     51  N   UNL     1       0.893   9.864   3.066  1.00  0.00    -0.248 NA
ATOM     52  C   UNL     1      -0.517   9.451   4.833  1.00  0.00     0.031 C 
ATOM     53  C   UNL     1       3.724  11.380   2.012  1.00  0.00     0.029 A 
ATOM     54  C   UNL     1       3.622  10.280   2.844  1.00  0.00     0.049 A 
ATOM     55  H   UNL     1       4.351   8.335   2.557  1.00  0.00     0.167 HD
ATOM     56  C   UNL     1       1.679   9.798   4.178  1.00  0.00     0.074 A 
ATOM     57  C   UNL     1       0.759   9.484   5.255  1.00  0.00     0.031 C 
ATOM     58  C   UNL     1       3.023  10.018   4.139  1.00  0.00     0.037 A 
BRANCH  45  59
ATOM     59  C   UNL     1       6.523   8.544  -0.598  1.00  0.00     0.064 A 
ATOM     60  C   UNL     1       7.327   9.710  -0.621  1.00  0.00     0.173 A 
ATOM     61  C   UNL     1       7.110   7.422  -1.209  1.00  0.00     0.173 A 
ATOM     62  F   UNL     1       6.946  10.840  -0.011  1.00  0.00    -0.203 F 
ATOM     63  C   UNL     1       8.560   9.771  -1.278  1.00  0.00     0.198 A 
ATOM     64  C   UNL     1       8.329   7.492  -1.899  1.00  0.00     0.198 A 
ATOM     65  F   UNL     1       6.559   6.208  -1.113  1.00  0.00    -0.203 F 
ATOM     66  F   UNL     1       9.264  10.912  -1.270  1.00  0.00    -0.200 F 
ATOM     67  C   UNL     1       9.048   8.669  -1.945  1.00  0.00     0.200 A 
ATOM     68  F   UNL     1       8.806   6.402  -2.519  1.00  0.00    -0.200 F 
ATOM     69  F   UNL     1      10.212   8.734  -2.606  1.00  0.00    -0.200 F 
ENDBRANCH  45  59
BRANCH  46  70
ATOM     70  C   UNL     1      -2.617   8.722   2.370  1.00  0.00     0.064 A 
ATOM     71  C   UNL     1      -3.794   9.024   1.645  1.00  0.00     0.173 A 
ATOM     72  C   UNL     1      -2.448   7.388   2.760  1.00  0.00     0.173 A 
ATOM     73  F   UNL     1      -4.027  10.282   1.233  1.00  0.00    -0.203 F 
ATOM     74  C   UNL     1      -4.688   8.032   1.242  1.00  0.00     0.198 A 
ATOM     75  C   UNL     1      -3.366   6.400   2.385  1.00  0.00     0.198 A 
ATOM     76  F   UNL     1      -1.359   7.008   3.443  1.00  0.00    -0.203 F 
ATOM     77  F   UNL     1      -5.728   8.347   0.456  1.00  0.00    -0.200 F 
ATOM     78  C   UNL     1      -4.467   6.717   1.604  1.00  0.00     0.200 A 
ATOM     79  F   UNL     1      -3.146   5.122   2.729  1.00  0.00    -0.200 F 
ATOM     80  F   UNL     1      -5.294   5.752   1.180  1.00  0.00    -0.200 F 
ENDBRANCH  46  70
BRANCH  58  81
ATOM     81  C   UNL     1       3.891  10.020   5.356  1.00  0.00     0.064 A 
ATOM     82  C   UNL     1       3.524  10.685   6.535  1.00  0.00     0.173 A 
ATOM     83  C   UNL     1       5.181   9.451   5.330  1.00  0.00     0.173 A 
ATOM     84  F   UNL     1       2.349  11.325   6.625  1.00  0.00    -0.203 F 
ATOM     85  C   UNL     1       4.370  10.722   7.643  1.00  0.00     0.198 A 
ATOM     86  C   UNL     1       6.045   9.538   6.418  1.00  0.00     0.198 A 
ATOM     87  F   UNL     1       5.628   8.778   4.260  1.00  0.00    -0.203 F 
ATOM     88  F   UNL     1       3.958  11.314   8.772  1.00  0.00    -0.200 F 
ATOM     89  C   UNL     1       5.632  10.159   7.580  1.00  0.00     0.200 A 
ATOM     90  F   UNL     1       7.275   9.012   6.333  1.00  0.00    -0.200 F 
ATOM     91  F   UNL     1       6.450  10.212   8.640  1.00  0.00    -0.200 F 
ENDBRANCH  58  81
ENDBRANCH  32  33
ENDBRANCH  25  27
ENDBRANCH  24  25
ENDBRANCH  23  24
ENDBRANCH   1  23
TORSDOF 13
