REMARK SMILES CNc1cc(C(=O)N2CCC[C@@](CCOC)(C(=O)OCCOC(=O)c3ccc(-c4c5nc(c(-c6c(F)c(F)c(F)c(F)c6F)c6ccc([nH]6)c(-c6c(F)c(F)c(F)c(F)c6F)c6nc(c(-c7c(F)c(F)c(F)c(F)c7F)c7ccc4[nH]7)C=C6)C=C5)cc3)C2)ccn1
REMARK SMILES IDX 20 1 19 2 17 3 18 4 12 5 8 6 9 7 88 8 10 9 11 10 6 11 7 12
REMARK SMILES IDX 5 13 3 14 4 15 91 16 90 17 89 18 2 19 1 20 13 22 14 23 15 24
REMARK SMILES IDX 16 25 21 26 22 27 23 28 24 29 25 30 26 31 87 32 27 33 86 34
REMARK SMILES IDX 28 35 29 36 30 37 80 38 31 39 85 40 79 41 81 42 32 43 84 44
REMARK SMILES IDX 78 45 77 46 33 48 65 49 45 50 64 51 46 52 49 53 63 54 82 55
REMARK SMILES IDX 47 56 48 57 62 59 83 60 50 61 34 62 35 63 43 64 36 65 37 66
REMARK SMILES IDX 41 67 44 68 38 69 39 70 42 71 40 72 66 73 67 74 75 75 68 76
REMARK SMILES IDX 69 77 73 78 76 79 70 80 71 81 74 82 72 83 51 84 52 85 60 86
REMARK SMILES IDX 53 87 54 88 58 89 61 90 55 91 56 92 59 93 57 94
REMARK H PARENT 2 21 81 47 49 58
REMARK Flexibility Score: inf
ROOT
ATOM      1  C   UNL     1      -6.472   1.816  -2.693  1.00  0.00     0.274 C 
ENDROOT
BRANCH   1   2
ATOM      2  O   UNL     1      -6.081   2.150  -1.344  1.00  0.00    -0.462 OA
BRANCH   2   3
ATOM      3  C   UNL     1      -5.665   1.131  -0.544  1.00  0.00     0.314 C 
ATOM      4  O   UNL     1      -5.440  -0.009  -0.937  1.00  0.00    -0.252 OA
BRANCH   3   5
ATOM      5  C   UNL     1      -5.504   1.549   0.925  1.00  0.00     0.088 C 
ATOM      6  N   UNL     1      -3.826   1.390   2.786  1.00  0.00    -0.337 N 
ATOM      7  C   UNL     1      -3.839   2.824   3.039  1.00  0.00     0.120 C 
ATOM      8  C   UNL     1      -4.159   0.946   1.426  1.00  0.00     0.138 C 
ATOM      9  C   UNL     1      -5.111   3.487   2.540  1.00  0.00     0.023 C 
ATOM     10  C   UNL     1      -5.412   3.086   1.097  1.00  0.00     0.022 C 
BRANCH   6  11
ATOM     11  C   UNL     1      -3.433   0.541   3.814  1.00  0.00     0.254 C 
ATOM     12  O   UNL     1      -3.676   0.759   4.997  1.00  0.00    -0.269 OA
BRANCH  11  13
ATOM     13  C   UNL     1      -2.557  -0.606   3.484  1.00  0.00     0.045 A 
ATOM     14  C   UNL     1      -0.520  -1.414   2.517  1.00  0.00     0.126 A 
ATOM     15  C   UNL     1      -1.442  -0.394   2.672  1.00  0.00     0.060 A 
ATOM     16  N   UNL     1      -0.704  -2.623   3.081  1.00  0.00    -0.240 NA
ATOM     17  C   UNL     1      -1.773  -2.795   3.892  1.00  0.00     0.114 A 
ATOM     18  C   UNL     1      -2.717  -1.819   4.138  1.00  0.00     0.034 A 
BRANCH  14  19
ATOM     19  N   UNL     1       0.654  -1.252   1.824  1.00  0.00    -0.373 N 
ATOM     20  C   UNL     1       1.376  -0.004   1.842  1.00  0.00     0.141 C 
ATOM     21  H   UNL     1       1.012  -2.007   1.302  1.00  0.00     0.161 HD
ENDBRANCH  14  19
ENDBRANCH  11  13
ENDBRANCH   6  11
BRANCH   5  22
ATOM     22  C   UNL     1      -6.676   0.906   1.728  1.00  0.00     0.049 C 
BRANCH  22  23
ATOM     23  C   UNL     1      -8.035   1.587   1.562  1.00  0.00     0.161 C 
BRANCH  23  24
ATOM     24  O   UNL     1      -8.428   1.549   0.195  1.00  0.00    -0.385 OA
ATOM     25  C   UNL     1      -9.176   2.697  -0.182  1.00  0.00     0.194 C 
ENDBRANCH  23  24
ENDBRANCH  22  23
ENDBRANCH   5  22
ENDBRANCH   3   5
ENDBRANCH   2   3
ENDBRANCH   1   2
BRANCH   1  26
ATOM     26  C   UNL     1      -5.733   2.700  -3.695  1.00  0.00     0.275 C 
BRANCH  26  27
ATOM     27  O   UNL     1      -4.362   2.275  -3.764  1.00  0.00    -0.458 OA
BRANCH  27  28
ATOM     28  C   UNL     1      -3.483   3.026  -3.072  1.00  0.00     0.338 C 
ATOM     29  O   UNL     1      -3.666   4.106  -2.529  1.00  0.00    -0.246 OA
BRANCH  28  30
ATOM     30  C   UNL     1      -2.258   2.243  -2.900  1.00  0.00     0.060 A 
ATOM     31  C   UNL     1      -2.243   1.308  -1.868  1.00  0.00     0.016 A 
ATOM     32  C   UNL     1      -1.113   2.488  -3.653  1.00  0.00     0.016 A 
ATOM     33  C   UNL     1      -1.061   0.674  -1.518  1.00  0.00     0.010 A 
ATOM     34  C   UNL     1       0.062   1.787  -3.352  1.00  0.00     0.010 A 
ATOM     35  C   UNL     1       0.108   0.903  -2.257  1.00  0.00    -0.014 A 
BRANCH  35  36
ATOM     36  C   UNL     1       1.383   0.287  -1.799  1.00  0.00     0.031 A 
ATOM     37  C   UNL     1       2.490   1.169  -1.285  1.00  0.00     0.074 A 
ATOM     38  C   UNL     1       1.495  -1.052  -1.690  1.00  0.00     0.049 A 
ATOM     39  N   UNL     1       3.686   0.840  -0.865  1.00  0.00    -0.248 NA
ATOM     40  C   UNL     1       2.203   2.611  -1.196  1.00  0.00     0.031 C 
ATOM     41  C   UNL     1       0.441  -2.013  -2.014  1.00  0.00     0.029 A 
ATOM     42  N   UNL     1       2.515  -1.832  -1.200  1.00  0.00    -0.354 N 
ATOM     43  C   UNL     1       4.310   2.032  -0.522  1.00  0.00     0.074 A 
ATOM     44  C   UNL     1       3.357   3.094  -0.758  1.00  0.00     0.031 C 
ATOM     45  C   UNL     1       0.824  -3.235  -1.614  1.00  0.00     0.029 A 
ATOM     46  C   UNL     1       2.188  -3.164  -1.101  1.00  0.00     0.049 A 
ATOM     47  H   UNL     1       3.395  -1.472  -0.944  1.00  0.00     0.167 HD
ATOM     48  C   UNL     1       5.567   2.220  -0.058  1.00  0.00     0.037 A 
ATOM     49  C   UNL     1       2.911  -4.211  -0.660  1.00  0.00     0.037 A 
ATOM     50  C   UNL     1       6.496   1.159   0.225  1.00  0.00     0.049 A 
ATOM     51  C   UNL     1       4.333  -3.977  -0.228  1.00  0.00     0.074 A 
ATOM     52  C   UNL     1       7.820   1.248   0.616  1.00  0.00     0.029 A 
ATOM     53  N   UNL     1       6.185  -0.192   0.171  1.00  0.00    -0.354 N 
ATOM     54  N   UNL     1       4.969  -2.845  -0.044  1.00  0.00    -0.248 NA
ATOM     55  C   UNL     1       5.152  -5.173   0.017  1.00  0.00     0.031 C 
ATOM     56  C   UNL     1       8.319  -0.050   0.772  1.00  0.00     0.029 A 
ATOM     57  C   UNL     1       7.295  -0.946   0.514  1.00  0.00     0.049 A 
ATOM     58  H   UNL     1       5.305  -0.560  -0.074  1.00  0.00     0.167 HD
ATOM     59  C   UNL     1       6.261  -3.191   0.327  1.00  0.00     0.074 A 
ATOM     60  C   UNL     1       6.307  -4.638   0.389  1.00  0.00     0.031 C 
ATOM     61  C   UNL     1       7.322  -2.384   0.569  1.00  0.00     0.037 A 
BRANCH  48  62
ATOM     62  C   UNL     1       6.035   3.634   0.104  1.00  0.00     0.064 A 
ATOM     63  C   UNL     1       5.631   4.435   1.180  1.00  0.00     0.173 A 
ATOM     64  C   UNL     1       6.922   4.187  -0.833  1.00  0.00     0.173 A 
ATOM     65  F   UNL     1       4.765   3.959   2.087  1.00  0.00    -0.203 F 
ATOM     66  C   UNL     1       6.085   5.747   1.303  1.00  0.00     0.198 A 
ATOM     67  C   UNL     1       7.391   5.490  -0.695  1.00  0.00     0.198 A 
ATOM     68  F   UNL     1       7.335   3.460  -1.882  1.00  0.00    -0.203 F 
ATOM     69  F   UNL     1       5.655   6.511   2.317  1.00  0.00    -0.200 F 
ATOM     70  C   UNL     1       6.969   6.270   0.370  1.00  0.00     0.200 A 
ATOM     71  F   UNL     1       8.248   5.991  -1.596  1.00  0.00    -0.200 F 
ATOM     72  F   UNL     1       7.405   7.531   0.491  1.00  0.00    -0.200 F 
ENDBRANCH  48  62
BRANCH  49  73
ATOM     73  C   UNL     1       2.328  -5.580  -0.635  1.00  0.00     0.064 A 
ATOM     74  C   UNL     1       2.168  -6.272   0.575  1.00  0.00     0.173 A 
ATOM     75  C   UNL     1       1.946  -6.239  -1.813  1.00  0.00     0.173 A 
ATOM     76  F   UNL     1       2.558  -5.705   1.726  1.00  0.00    -0.203 F 
ATOM     77  C   UNL     1       1.655  -7.568   0.603  1.00  0.00     0.198 A 
ATOM     78  C   UNL     1       1.400  -7.521  -1.781  1.00  0.00     0.198 A 
ATOM     79  F   UNL     1       2.097  -5.635  -3.001  1.00  0.00    -0.203 F 
ATOM     80  F   UNL     1       1.563  -8.226   1.767  1.00  0.00    -0.200 F 
ATOM     81  C   UNL     1       1.262  -8.187  -0.574  1.00  0.00     0.200 A 
ATOM     82  F   UNL     1       1.018  -8.112  -2.921  1.00  0.00    -0.200 F 
ATOM     83  F   UNL     1       0.768  -9.432  -0.547  1.00  0.00    -0.200 F 
ENDBRANCH  49  73
BRANCH  61  84
ATOM     84  C   UNL     1       8.622  -3.047   0.915  1.00  0.00     0.064 A 
ATOM     85  C   UNL     1       9.380  -3.711  -0.062  1.00  0.00     0.173 A 
ATOM     86  C   UNL     1       9.137  -2.981   2.217  1.00  0.00     0.173 A 
ATOM     87  F   UNL     1       8.921  -3.812  -1.318  1.00  0.00    -0.203 F 
ATOM     88  C   UNL     1      10.597  -4.304   0.259  1.00  0.00     0.198 A 
ATOM     89  C   UNL     1      10.368  -3.553   2.529  1.00  0.00     0.198 A 
ATOM     90  F   UNL     1       8.454  -2.350   3.184  1.00  0.00    -0.203 F 
ATOM     91  F   UNL     1      11.286  -4.967  -0.680  1.00  0.00    -0.200 F 
ATOM     92  C   UNL     1      11.094  -4.218   1.552  1.00  0.00     0.200 A 
ATOM     93  F   UNL     1      10.852  -3.459   3.775  1.00  0.00    -0.200 F 
ATOM     94  F   UNL     1      12.270  -4.783   1.857  1.00  0.00    -0.200 F 
ENDBRANCH  61  84
ENDBRANCH  35  36
ENDBRANCH  28  30
ENDBRANCH  27  28
ENDBRANCH  26  27
ENDBRANCH   1  26
TORSDOF 17
