REMARK SMILES Cc1c(Br)c(C(=O)OCCOC(=O)c2ccc(-c3c4nc(c(-c5c(F)c(F)c(F)c(F)c5F)c5ccc([nH]5)c(-c5c(F)c(F)c(F)c(F)c5F)c5nc(c(-c6c(F)c(F)c(F)c(F)c6F)c6ccc3[nH]6)C=C5)C=C4)cc2)nn1-c1ccccc1
REMARK SMILES IDX 10 1 9 2 8 3 6 4 7 5 5 6 1 7 2 8 3 9 78 10 4 11 77 12 79 13
REMARK SMILES IDX 80 14 84 15 81 16 83 17 82 18 11 19 12 20 13 21 14 22 15 23
REMARK SMILES IDX 76 24 16 25 75 26 17 27 18 28 19 29 69 30 20 31 74 32 68 33
REMARK SMILES IDX 70 34 21 35 73 36 67 37 66 38 22 40 54 41 34 42 53 43 35 44
REMARK SMILES IDX 38 45 52 46 71 47 36 48 37 49 51 51 72 52 39 53 23 54 24 55
REMARK SMILES IDX 32 56 25 57 26 58 30 59 33 60 27 61 28 62 31 63 29 64 55 65
REMARK SMILES IDX 56 66 64 67 57 68 58 69 62 70 65 71 59 72 60 73 63 74 61 75
REMARK SMILES IDX 40 76 41 77 49 78 42 79 43 80 47 81 50 82 44 83 45 84 48 85
REMARK SMILES IDX 46 86
REMARK H PARENT 70 39 38 50
REMARK Flexibility Score: inf
ROOT
ATOM      1  C   UNL     1      -2.347   7.170   1.340  1.00  0.00     0.275 C 
ENDROOT
BRANCH   1   2
ATOM      2  C   UNL     1      -1.168   6.944   2.277  1.00  0.00     0.275 C 
BRANCH   2   3
ATOM      3  O   UNL     1      -0.344   5.856   1.833  1.00  0.00    -0.457 OA
BRANCH   3   4
ATOM      4  C   UNL     1      -0.677   4.599   2.268  1.00  0.00     0.360 C 
ATOM      5  O   UNL     1      -1.532   4.379   3.124  1.00  0.00    -0.244 OA
BRANCH   4   6
ATOM      6  C   UNL     1       0.038   3.547   1.534  1.00  0.00     0.185 A 
ATOM      7  C   UNL     1       0.875   0.225   0.118  1.00  0.00     0.068 C 
ATOM      8  C   UNL     1       0.655   1.636   0.531  1.00  0.00     0.056 A 
ATOM      9  C   UNL     1      -0.307   2.190   1.350  1.00  0.00     0.074 A 
ATOM     10  N   UNL     1       1.503   2.686   0.217  1.00  0.00    -0.236 N 
ATOM     11  Br  UNL     1      -1.783   1.306   2.100  1.00  0.00    -0.046 Br
ATOM     12  N   UNL     1       1.204   3.805   0.917  1.00  0.00    -0.159 NA
BRANCH  10  13
ATOM     13  C   UNL     1       2.629   2.710  -0.646  1.00  0.00     0.065 A 
ATOM     14  C   UNL     1       3.717   3.520  -0.290  1.00  0.00     0.028 A 
ATOM     15  C   UNL     1       2.665   1.973  -1.834  1.00  0.00     0.028 A 
ATOM     16  C   UNL     1       4.860   3.545  -1.085  1.00  0.00     0.002 A 
ATOM     17  C   UNL     1       3.803   2.031  -2.644  1.00  0.00     0.002 A 
ATOM     18  C   UNL     1       4.902   2.801  -2.261  1.00  0.00     0.000 A 
ENDBRANCH  10  13
ENDBRANCH   4   6
ENDBRANCH   3   4
ENDBRANCH   2   3
ENDBRANCH   1   2
BRANCH   1  19
ATOM     19  O   UNL     1      -3.339   6.160   1.516  1.00  0.00    -0.458 OA
BRANCH  19  20
ATOM     20  C   UNL     1      -3.237   5.095   0.693  1.00  0.00     0.338 C 
ATOM     21  O   UNL     1      -2.302   4.806  -0.034  1.00  0.00    -0.246 OA
BRANCH  20  22
ATOM     22  C   UNL     1      -4.533   4.414   0.633  1.00  0.00     0.060 A 
ATOM     23  C   UNL     1      -4.617   3.285  -0.188  1.00  0.00     0.016 A 
ATOM     24  C   UNL     1      -5.674   5.058   1.132  1.00  0.00     0.016 A 
ATOM     25  C   UNL     1      -5.852   2.918  -0.672  1.00  0.00     0.010 A 
ATOM     26  C   UNL     1      -6.902   4.702   0.636  1.00  0.00     0.010 A 
ATOM     27  C   UNL     1      -6.961   3.693  -0.322  1.00  0.00    -0.014 A 
BRANCH  27  28
ATOM     28  C   UNL     1      -8.222   3.402  -0.964  1.00  0.00     0.031 A 
ATOM     29  C   UNL     1      -8.881   2.178  -0.455  1.00  0.00     0.074 A 
ATOM     30  C   UNL     1      -8.772   4.270  -1.833  1.00  0.00     0.049 A 
ATOM     31  N   UNL     1      -9.223   1.118  -1.109  1.00  0.00    -0.248 NA
ATOM     32  C   UNL     1      -9.063   2.072   1.004  1.00  0.00     0.031 C 
ATOM     33  C   UNL     1      -8.339   5.635  -2.152  1.00  0.00     0.029 A 
ATOM     34  N   UNL     1      -9.922   4.144  -2.542  1.00  0.00    -0.354 N 
ATOM     35  C   UNL     1      -9.818   0.277  -0.172  1.00  0.00     0.074 A 
ATOM     36  C   UNL     1      -9.544   0.837   1.124  1.00  0.00     0.031 C 
ATOM     37  C   UNL     1      -9.338   6.279  -2.798  1.00  0.00     0.029 A 
ATOM     38  C   UNL     1     -10.415   5.337  -3.045  1.00  0.00     0.049 A 
ATOM     39  H   UNL     1     -10.368   3.279  -2.686  1.00  0.00     0.167 HD
ATOM     40  C   UNL     1     -10.699  -0.688  -0.545  1.00  0.00     0.037 A 
ATOM     41  C   UNL     1     -11.667   5.531  -3.529  1.00  0.00     0.037 A 
ATOM     42  C   UNL     1     -10.545  -1.034  -1.932  1.00  0.00     0.049 A 
ATOM     43  C   UNL     1     -12.248   4.192  -3.819  1.00  0.00     0.074 A 
ATOM     44  C   UNL     1      -9.513  -1.565  -2.683  1.00  0.00     0.029 A 
ATOM     45  N   UNL     1     -11.425  -0.499  -2.840  1.00  0.00    -0.354 N 
ATOM     46  N   UNL     1     -11.822   3.405  -4.770  1.00  0.00    -0.248 NA
ATOM     47  C   UNL     1     -12.981   3.532  -2.747  1.00  0.00     0.031 C 
ATOM     48  C   UNL     1      -9.585  -0.893  -3.938  1.00  0.00     0.029 A 
ATOM     49  C   UNL     1     -10.684  -0.035  -3.897  1.00  0.00     0.049 A 
ATOM     50  H   UNL     1     -12.405  -0.457  -2.750  1.00  0.00     0.167 HD
ATOM     51  C   UNL     1     -11.868   2.129  -4.225  1.00  0.00     0.074 A 
ATOM     52  C   UNL     1     -12.658   2.261  -3.004  1.00  0.00     0.031 C 
ATOM     53  C   UNL     1     -11.025   1.145  -4.657  1.00  0.00     0.037 A 
BRANCH  40  54
ATOM     54  C   UNL     1     -11.922  -1.046   0.258  1.00  0.00     0.064 A 
ATOM     55  C   UNL     1     -12.692  -2.161  -0.122  1.00  0.00     0.173 A 
ATOM     56  C   UNL     1     -12.529  -0.177   1.193  1.00  0.00     0.173 A 
ATOM     57  F   UNL     1     -12.223  -3.040  -1.022  1.00  0.00    -0.203 F 
ATOM     58  C   UNL     1     -13.996  -2.348   0.343  1.00  0.00     0.198 A 
ATOM     59  C   UNL     1     -13.807  -0.398   1.699  1.00  0.00     0.198 A 
ATOM     60  F   UNL     1     -11.965   0.977   1.569  1.00  0.00    -0.203 F 
ATOM     61  F   UNL     1     -14.737  -3.353  -0.144  1.00  0.00    -0.200 F 
ATOM     62  C   UNL     1     -14.554  -1.464   1.249  1.00  0.00     0.200 A 
ATOM     63  F   UNL     1     -14.335   0.482   2.561  1.00  0.00    -0.200 F 
ATOM     64  F   UNL     1     -15.824  -1.607   1.647  1.00  0.00    -0.200 F 
ENDBRANCH  40  54
BRANCH  41  65
ATOM     65  C   UNL     1     -12.495   6.751  -3.390  1.00  0.00     0.064 A 
ATOM     66  C   UNL     1     -13.591   6.990  -4.232  1.00  0.00     0.173 A 
ATOM     67  C   UNL     1     -12.378   7.587  -2.260  1.00  0.00     0.173 A 
ATOM     68  F   UNL     1     -13.805   6.204  -5.297  1.00  0.00    -0.203 F 
ATOM     69  C   UNL     1     -14.516   8.004  -3.958  1.00  0.00     0.198 A 
ATOM     70  C   UNL     1     -13.296   8.602  -1.992  1.00  0.00     0.198 A 
ATOM     71  F   UNL     1     -11.421   7.375  -1.345  1.00  0.00    -0.203 F 
ATOM     72  F   UNL     1     -15.579   8.174  -4.757  1.00  0.00    -0.200 F 
ATOM     73  C   UNL     1     -14.371   8.805  -2.836  1.00  0.00     0.200 A 
ATOM     74  F   UNL     1     -13.163   9.342  -0.882  1.00  0.00    -0.200 F 
ATOM     75  F   UNL     1     -15.284   9.742  -2.546  1.00  0.00    -0.200 F 
ENDBRANCH  41  65
BRANCH  53  76
ATOM     76  C   UNL     1     -10.203   1.419  -5.885  1.00  0.00     0.064 A 
ATOM     77  C   UNL     1      -9.221   2.423  -5.958  1.00  0.00     0.173 A 
ATOM     78  C   UNL     1     -10.301   0.537  -6.968  1.00  0.00     0.173 A 
ATOM     79  F   UNL     1      -8.990   3.237  -4.921  1.00  0.00    -0.203 F 
ATOM     80  C   UNL     1      -8.411   2.565  -7.084  1.00  0.00     0.198 A 
ATOM     81  C   UNL     1      -9.466   0.657  -8.076  1.00  0.00     0.198 A 
ATOM     82  F   UNL     1     -11.177  -0.480  -6.929  1.00  0.00    -0.203 F 
ATOM     83  F   UNL     1      -7.489   3.538  -7.131  1.00  0.00    -0.200 F 
ATOM     84  C   UNL     1      -8.529   1.676  -8.138  1.00  0.00     0.200 A 
ATOM     85  F   UNL     1      -9.547  -0.238  -9.070  1.00  0.00    -0.200 F 
ATOM     86  F   UNL     1      -7.721   1.783  -9.202  1.00  0.00    -0.200 F 
ENDBRANCH  53  76
ENDBRANCH  27  28
ENDBRANCH  20  22
ENDBRANCH  19  20
ENDBRANCH   1  19
TORSDOF 12
