REMARK SMILES C/C(=N/N=c1\[nH]c(O)c(C(=O)OCCOC(=O)c2ccc(-c3c4nc(c(-c5c(F)c(F)c(F)c(F)c5F)c5ccc([nH]5)c(-c5c(F)c(F)c(F)c(F)c5F)c5nc(c(-c6c(F)c(F)c(F)c(F)c6F)c6ccc3[nH]6)C=C5)C=C4)cc2)s1)c1ccc2c(c1)OCO2
REMARK SMILES IDX 13 1 12 2 10 3 11 4 9 5 4 6 5 7 6 8 81 9 7 10 3 12 1 13 2 14
REMARK SMILES IDX 82 15 83 16 87 17 84 18 86 19 85 20 88 21 90 22 89 23 8 24
REMARK SMILES IDX 14 26 15 27 16 28 17 29 18 30 19 31 80 32 20 33 79 34 21 35
REMARK SMILES IDX 22 36 23 37 73 38 24 39 78 40 72 41 74 42 25 43 77 44 71 45
REMARK SMILES IDX 70 46 26 48 58 49 38 50 57 51 39 52 42 53 56 54 75 55 40 56
REMARK SMILES IDX 41 57 55 59 76 60 43 61 27 62 28 63 36 64 29 65 30 66 34 67
REMARK SMILES IDX 37 68 31 69 32 70 35 71 33 72 59 73 60 74 68 75 61 76 62 77
REMARK SMILES IDX 66 78 69 79 63 80 64 81 67 82 65 83 44 84 45 85 53 86 46 87
REMARK SMILES IDX 47 88 51 89 54 90 48 91 49 92 52 93 50 94
REMARK H PARENT 6 11 8 25 74 47 42 58
REMARK Flexibility Score: inf
ROOT
ATOM      1  C   UNL     1      -4.497   6.931  -5.560  1.00  0.00     0.275 C 
ENDROOT
BRANCH   1   2
ATOM      2  O   UNL     1      -3.922   5.942  -4.695  1.00  0.00    -0.458 OA
BRANCH   2   3
ATOM      3  C   UNL     1      -4.232   4.638  -4.953  1.00  0.00     0.354 C 
ATOM      4  O   UNL     1      -5.112   4.264  -5.703  1.00  0.00    -0.245 OA
BRANCH   3   5
ATOM      5  C   UNL     1      -3.277   3.750  -4.252  1.00  0.00     0.176 A 
ATOM      6  N   UNL     1      -0.667   2.597  -1.831  1.00  0.00    -0.121 NA
ATOM      7  C   UNL     1      -1.516   2.761  -2.777  1.00  0.00     0.211 A 
ATOM      8  N   UNL     1      -2.103   1.891  -3.655  1.00  0.00    -0.300 N 
ATOM      9  S   UNL     1      -2.179   4.382  -3.033  1.00  0.00    -0.084 S 
ATOM     10  C   UNL     1      -3.062   2.437  -4.469  1.00  0.00     0.216 A 
ATOM     11  H   UNL     1      -1.855   0.939  -3.698  1.00  0.00     0.172 HD
BRANCH   6  12
ATOM     12  N   UNL     1      -0.356   1.274  -1.551  1.00  0.00    -0.152 NA
ATOM     13  C   UNL     1       0.881  -0.202  -0.086  1.00  0.00     0.069 C 
ATOM     14  C   UNL     1       0.528   1.174  -0.597  1.00  0.00     0.067 C 
BRANCH  14  15
ATOM     15  C   UNL     1       1.210   2.318   0.074  1.00  0.00     0.001 A 
ATOM     16  C   UNL     1       0.454   3.340   0.691  1.00  0.00     0.014 A 
ATOM     17  C   UNL     1       2.608   2.364   0.077  1.00  0.00     0.060 A 
ATOM     18  C   UNL     1       1.089   4.419   1.311  1.00  0.00     0.051 A 
ATOM     19  C   UNL     1       3.202   3.423   0.728  1.00  0.00     0.166 A 
ATOM     20  C   UNL     1       2.466   4.421   1.327  1.00  0.00     0.165 A 
ATOM     21  O   UNL     1       4.542   3.611   0.872  1.00  0.00    -0.454 OA
ATOM     22  O   UNL     1       3.255   5.356   1.921  1.00  0.00    -0.454 OA
ATOM     23  C   UNL     1       4.553   4.749   1.759  1.00  0.00     0.468 C 
ENDBRANCH  14  15
ENDBRANCH   6  12
BRANCH  10  24
ATOM     24  O   UNL     1      -3.683   1.668  -5.406  1.00  0.00    -0.493 OA
ATOM     25  H   UNL     1      -3.467   0.759  -5.484  1.00  0.00     0.295 HD
ENDBRANCH  10  24
ENDBRANCH   3   5
ENDBRANCH   2   3
ENDBRANCH   1   2
BRANCH   1  26
ATOM     26  C   UNL     1      -3.592   7.169  -6.760  1.00  0.00     0.275 C 
BRANCH  26  27
ATOM     27  O   UNL     1      -3.659   6.071  -7.668  1.00  0.00    -0.458 OA
BRANCH  27  28
ATOM     28  C   UNL     1      -2.696   5.135  -7.541  1.00  0.00     0.338 C 
ATOM     29  O   UNL     1      -1.893   5.011  -6.626  1.00  0.00    -0.246 OA
BRANCH  28  30
ATOM     30  C   UNL     1      -2.605   4.375  -8.789  1.00  0.00     0.060 A 
ATOM     31  C   UNL     1      -1.726   3.287  -8.830  1.00  0.00     0.016 A 
ATOM     32  C   UNL     1      -3.171   4.912  -9.953  1.00  0.00     0.016 A 
ATOM     33  C   UNL     1      -1.282   2.840 -10.058  1.00  0.00     0.010 A 
ATOM     34  C   UNL     1      -2.719   4.477 -11.173  1.00  0.00     0.010 A 
ATOM     35  C   UNL     1      -1.724   3.500 -11.207  1.00  0.00    -0.014 A 
BRANCH  35  36
ATOM     36  C   UNL     1      -1.133   3.151 -12.481  1.00  0.00     0.031 A 
ATOM     37  C   UNL     1      -1.617   1.884 -13.079  1.00  0.00     0.074 A 
ATOM     38  C   UNL     1      -0.370   4.038 -13.147  1.00  0.00     0.049 A 
ATOM     39  N   UNL     1      -0.921   0.890 -13.523  1.00  0.00    -0.248 NA
ATOM     40  C   UNL     1      -3.073   1.668 -13.123  1.00  0.00     0.031 C 
ATOM     41  C   UNL     1      -0.108   5.441 -12.807  1.00  0.00     0.029 A 
ATOM     42  N   UNL     1       0.208   3.906 -14.368  1.00  0.00    -0.354 N 
ATOM     43  C   UNL     1      -1.842  -0.017 -14.039  1.00  0.00     0.074 A 
ATOM     44  C   UNL     1      -3.149   0.451 -13.658  1.00  0.00     0.031 C 
ATOM     45  C   UNL     1       0.350   6.079 -13.906  1.00  0.00     0.029 A 
ATOM     46  C   UNL     1       0.508   5.112 -14.979  1.00  0.00     0.049 A 
ATOM     47  H   UNL     1       0.397   3.033 -14.781  1.00  0.00     0.167 HD
ATOM     48  C   UNL     1      -1.479  -0.990 -14.917  1.00  0.00     0.037 A 
ATOM     49  C   UNL     1       0.744   5.295 -16.302  1.00  0.00     0.037 A 
ATOM     50  C   UNL     1      -0.067  -1.253 -14.875  1.00  0.00     0.049 A 
ATOM     51  C   UNL     1       1.071   3.964 -16.886  1.00  0.00     0.074 A 
ATOM     52  C   UNL     1       0.803  -1.641 -13.872  1.00  0.00     0.029 A 
ATOM     53  N   UNL     1       0.731  -0.772 -15.884  1.00  0.00    -0.354 N 
ATOM     54  N   UNL     1       2.159   3.293 -16.622  1.00  0.00    -0.248 NA
ATOM     55  C   UNL     1      -0.033   3.172 -17.417  1.00  0.00     0.031 C 
ATOM     56  C   UNL     1       1.996  -0.899 -14.113  1.00  0.00     0.029 A 
ATOM     57  C   UNL     1       1.791  -0.150 -15.272  1.00  0.00     0.049 A 
ATOM     58  H   UNL     1       0.574  -0.856 -16.852  1.00  0.00     0.167 HD
ATOM     59  C   UNL     1       1.753   1.968 -16.553  1.00  0.00     0.074 A 
ATOM     60  C   UNL     1       0.416   1.946 -17.139  1.00  0.00     0.031 C 
ATOM     61  C   UNL     1       2.403   1.059 -15.767  1.00  0.00     0.037 A 
BRANCH  48  62
ATOM     62  C   UNL     1      -2.369  -1.476 -16.024  1.00  0.00     0.064 A 
ATOM     63  C   UNL     1      -2.038  -2.651 -16.722  1.00  0.00     0.173 A 
ATOM     64  C   UNL     1      -3.381  -0.680 -16.605  1.00  0.00     0.173 A 
ATOM     65  F   UNL     1      -1.063  -3.458 -16.276  1.00  0.00    -0.203 F 
ATOM     66  C   UNL     1      -2.643  -2.978 -17.938  1.00  0.00     0.198 A 
ATOM     67  C   UNL     1      -4.023  -1.039 -17.788  1.00  0.00     0.198 A 
ATOM     68  F   UNL     1      -3.705   0.523 -16.113  1.00  0.00    -0.203 F 
ATOM     69  F   UNL     1      -2.216  -4.045 -18.627  1.00  0.00    -0.200 F 
ATOM     70  C   UNL     1      -3.634  -2.172 -18.469  1.00  0.00     0.200 A 
ATOM     71  F   UNL     1      -4.965  -0.232 -18.297  1.00  0.00    -0.200 F 
ATOM     72  F   UNL     1      -4.178  -2.456 -19.660  1.00  0.00    -0.200 F 
ENDBRANCH  48  62
BRANCH  49  73
ATOM     73  C   UNL     1       0.381   6.477 -17.123  1.00  0.00     0.064 A 
ATOM     74  C   UNL     1       0.928   6.666 -18.402  1.00  0.00     0.173 A 
ATOM     75  C   UNL     1      -0.686   7.331 -16.772  1.00  0.00     0.173 A 
ATOM     76  F   UNL     1       1.905   5.861 -18.843  1.00  0.00    -0.203 F 
ATOM     77  C   UNL     1       0.438   7.647 -19.273  1.00  0.00     0.198 A 
ATOM     78  C   UNL     1      -1.160   8.321 -17.633  1.00  0.00     0.198 A 
ATOM     79  F   UNL     1      -1.355   7.170 -15.622  1.00  0.00    -0.203 F 
ATOM     80  F   UNL     1       0.949   7.760 -20.507  1.00  0.00    -0.200 F 
ATOM     81  C   UNL     1      -0.606   8.472 -18.888  1.00  0.00     0.200 A 
ATOM     82  F   UNL     1      -2.195   9.087 -17.258  1.00  0.00    -0.200 F 
ATOM     83  F   UNL     1      -1.104   9.381 -19.738  1.00  0.00    -0.200 F 
ENDBRANCH  49  73
BRANCH  61  84
ATOM     84  C   UNL     1       3.711   1.455 -15.140  1.00  0.00     0.064 A 
ATOM     85  C   UNL     1       3.851   2.526 -14.240  1.00  0.00     0.173 A 
ATOM     86  C   UNL     1       4.820   0.615 -15.312  1.00  0.00     0.173 A 
ATOM     87  F   UNL     1       2.810   3.305 -13.927  1.00  0.00    -0.203 F 
ATOM     88  C   UNL     1       5.054   2.770 -13.582  1.00  0.00     0.198 A 
ATOM     89  C   UNL     1       6.010   0.837 -14.623  1.00  0.00     0.198 A 
ATOM     90  F   UNL     1       4.731  -0.463 -16.108  1.00  0.00    -0.203 F 
ATOM     91  F   UNL     1       5.158   3.804 -12.735  1.00  0.00    -0.200 F 
ATOM     92  C   UNL     1       6.130   1.920 -13.767  1.00  0.00     0.200 A 
ATOM     93  F   UNL     1       7.031  -0.020 -14.762  1.00  0.00    -0.200 F 
ATOM     94  F   UNL     1       7.273   2.126 -13.097  1.00  0.00    -0.200 F 
ENDBRANCH  61  84
ENDBRANCH  35  36
ENDBRANCH  28  30
ENDBRANCH  27  28
ENDBRANCH  26  27
ENDBRANCH   1  26
TORSDOF 14
