REMARK SMILES Cc1nc(-c2ccc(S(=O)(=O)N3CC[NH2+][C@H](C(=O)OCCOC(=O)c4ccc(-c5c6nc(c(-c7c(F)c(F)c(F)c(F)c7F)c7ccc([nH]7)c(-c7c(F)c(F)c(F)c(F)c7F)c7nc(c(-c8c(F)c(F)c(F)c(F)c8F)c8ccc5[nH]8)C=C7)C=C6)cc4)C3)s2)cs1
REMARK SMILES IDX 20 1 19 2 17 3 18 4 16 5 12 6 13 7 88 8 14 9 15 10 9 13
REMARK SMILES IDX 10 14 11 15 8 16 5 17 6 18 89 19 7 20 4 21 1 22 2 23 3 24
REMARK SMILES IDX 91 25 90 26 21 27 22 28 23 29 24 30 25 31 26 32 87 33 27 34
REMARK SMILES IDX 86 35 28 36 29 37 30 38 80 39 31 40 85 41 79 42 81 43 32 44
REMARK SMILES IDX 84 45 78 46 77 47 33 49 65 50 45 51 64 52 46 53 49 54 63 55
REMARK SMILES IDX 82 56 47 57 48 58 62 60 83 61 50 62 34 63 35 64 43 65 36 66
REMARK SMILES IDX 37 67 41 68 44 69 38 70 39 71 42 72 40 73 66 74 67 75 75 76
REMARK SMILES IDX 68 77 69 78 73 79 76 80 70 81 71 82 74 83 72 84 51 85 52 86
REMARK SMILES IDX 60 87 53 88 54 89 58 90 61 91 55 92 56 93 59 94 57 95
REMARK H PARENT 15 11 15 12 81 48 49 59
REMARK Flexibility Score: inf
ROOT
ATOM      1  C   UNL     1       6.694  -4.847  -5.245  1.00  0.00     0.274 C 
ENDROOT
BRANCH   1   2
ATOM      2  O   UNL     1       6.329  -5.471  -3.998  1.00  0.00    -0.458 OA
BRANCH   2   3
ATOM      3  C   UNL     1       5.465  -4.738  -3.248  1.00  0.00     0.366 C 
ATOM      4  O   UNL     1       5.098  -3.598  -3.516  1.00  0.00    -0.245 OA
BRANCH   3   5
ATOM      5  C   UNL     1       4.922  -5.491  -2.048  1.00  0.00     0.308 C 
ATOM      6  N   UNL     1       5.284  -6.206   0.239  1.00  0.00    -0.185 NA
ATOM      7  C   UNL     1       4.450  -7.422   0.062  1.00  0.00     0.164 C 
ATOM      8  C   UNL     1       5.983  -5.813  -1.011  1.00  0.00     0.180 C 
ATOM      9  C   UNL     1       3.607  -7.417  -1.238  1.00  0.00     0.278 C 
ATOM     10  N   UNL     1       4.100  -6.672  -2.411  1.00  0.00    -0.332 N 
ATOM     11  H   UNL     1       3.298  -6.355  -2.954  1.00  0.00     0.347 HD
ATOM     12  H   UNL     1       4.696  -7.306  -2.944  1.00  0.00     0.347 HD
BRANCH   6  13
ATOM     13  S   UNL     1       4.829  -4.984   1.330  1.00  0.00     0.253 S 
ATOM     14  O   UNL     1       5.954  -4.075   1.413  1.00  0.00    -0.206 OA
ATOM     15  O   UNL     1       4.284  -5.628   2.505  1.00  0.00    -0.206 OA
BRANCH  13  16
ATOM     16  C   UNL     1       3.463  -3.989   0.715  1.00  0.00     0.135 A 
ATOM     17  C   UNL     1       1.941  -2.051   0.412  1.00  0.00     0.055 A 
ATOM     18  C   UNL     1       1.502  -3.167  -0.260  1.00  0.00     0.023 A 
ATOM     19  S   UNL     1       3.431  -2.328   1.192  1.00  0.00    -0.121 S 
ATOM     20  C   UNL     1       2.352  -4.280  -0.056  1.00  0.00     0.034 A 
BRANCH  17  21
ATOM     21  C   UNL     1       1.105  -0.810   0.439  1.00  0.00     0.091 A 
ATOM     22  C   UNL     1      -2.283   0.456  -0.017  1.00  0.00     0.079 C 
ATOM     23  C   UNL     1      -0.827   0.254   0.217  1.00  0.00     0.090 A 
ATOM     24  N   UNL     1      -0.211  -0.885   0.006  1.00  0.00    -0.241 NA
ATOM     25  S   UNL     1       0.171   1.525   0.800  1.00  0.00    -0.127 S 
ATOM     26  C   UNL     1       1.499   0.432   0.886  1.00  0.00     0.096 A 
ENDBRANCH  17  21
ENDBRANCH  13  16
ENDBRANCH   6  13
ENDBRANCH   3   5
ENDBRANCH   2   3
ENDBRANCH   1   2
BRANCH   1  27
ATOM     27  C   UNL     1       5.827  -5.373  -6.391  1.00  0.00     0.275 C 
BRANCH  27  28
ATOM     28  O   UNL     1       4.428  -5.114  -6.162  1.00  0.00    -0.458 OA
BRANCH  28  29
ATOM     29  C   UNL     1       3.732  -6.154  -5.647  1.00  0.00     0.338 C 
ATOM     30  O   UNL     1       4.157  -7.265  -5.373  1.00  0.00    -0.246 OA
BRANCH  29  31
ATOM     31  C   UNL     1       2.325  -5.772  -5.450  1.00  0.00     0.060 A 
ATOM     32  C   UNL     1       1.927  -5.136  -4.272  1.00  0.00     0.016 A 
ATOM     33  C   UNL     1       1.374  -6.187  -6.381  1.00  0.00     0.016 A 
ATOM     34  C   UNL     1       0.572  -4.980  -3.984  1.00  0.00     0.010 A 
ATOM     35  C   UNL     1       0.019  -5.963  -6.124  1.00  0.00     0.010 A 
ATOM     36  C   UNL     1      -0.396  -5.383  -4.911  1.00  0.00    -0.014 A 
BRANCH  36  37
ATOM     37  C   UNL     1      -1.847  -5.229  -4.626  1.00  0.00     0.031 A 
ATOM     38  C   UNL     1      -2.726  -6.445  -4.554  1.00  0.00     0.074 A 
ATOM     39  C   UNL     1      -2.383  -4.003  -4.475  1.00  0.00     0.049 A 
ATOM     40  N   UNL     1      -4.032  -6.531  -4.580  1.00  0.00    -0.248 NA
ATOM     41  C   UNL     1      -2.041  -7.743  -4.445  1.00  0.00     0.031 C 
ATOM     42  C   UNL     1      -1.635  -2.747  -4.449  1.00  0.00     0.029 A 
ATOM     43  N   UNL     1      -3.694  -3.614  -4.341  1.00  0.00    -0.354 N 
ATOM     44  C   UNL     1      -4.323  -7.888  -4.540  1.00  0.00     0.074 A 
ATOM     45  C   UNL     1      -3.059  -8.591  -4.487  1.00  0.00     0.031 C 
ATOM     46  C   UNL     1      -2.496  -1.726  -4.318  1.00  0.00     0.029 A 
ATOM     47  C   UNL     1      -3.857  -2.250  -4.336  1.00  0.00     0.049 A 
ATOM     48  H   UNL     1      -4.441  -4.249  -4.256  1.00  0.00     0.167 HD
ATOM     49  C   UNL     1      -5.538  -8.487  -4.555  1.00  0.00     0.037 A 
ATOM     50  C   UNL     1      -4.976  -1.504  -4.405  1.00  0.00     0.037 A 
ATOM     51  C   UNL     1      -6.790  -7.774  -4.574  1.00  0.00     0.049 A 
ATOM     52  C   UNL     1      -6.311  -2.189  -4.499  1.00  0.00     0.074 A 
ATOM     53  C   UNL     1      -8.076  -8.285  -4.577  1.00  0.00     0.029 A 
ATOM     54  N   UNL     1      -6.909  -6.392  -4.585  1.00  0.00    -0.354 N 
ATOM     55  N   UNL     1      -6.583  -3.471  -4.506  1.00  0.00    -0.248 NA
ATOM     56  C   UNL     1      -7.494  -1.324  -4.609  1.00  0.00     0.031 C 
ATOM     57  C   UNL     1      -8.972  -7.213  -4.636  1.00  0.00     0.029 A 
ATOM     58  C   UNL     1      -8.246  -6.033  -4.616  1.00  0.00     0.049 A 
ATOM     59  H   UNL     1      -6.154  -5.759  -4.574  1.00  0.00     0.167 HD
ATOM     60  C   UNL     1      -7.965  -3.568  -4.593  1.00  0.00     0.074 A 
ATOM     61  C   UNL     1      -8.477  -2.214  -4.633  1.00  0.00     0.031 C 
ATOM     62  C   UNL     1      -8.739  -4.679  -4.632  1.00  0.00     0.037 A 
BRANCH  49  63
ATOM     63  C   UNL     1      -5.580  -9.987  -4.591  1.00  0.00     0.064 A 
ATOM     64  C   UNL     1      -5.243 -10.768  -3.476  1.00  0.00     0.173 A 
ATOM     65  C   UNL     1      -6.010 -10.652  -5.751  1.00  0.00     0.173 A 
ATOM     66  F   UNL     1      -4.816 -10.184  -2.347  1.00  0.00    -0.203 F 
ATOM     67  C   UNL     1      -5.313 -12.159  -3.529  1.00  0.00     0.198 A 
ATOM     68  C   UNL     1      -6.105 -12.040  -5.791  1.00  0.00     0.198 A 
ATOM     69  F   UNL     1      -6.351  -9.952  -6.844  1.00  0.00    -0.203 F 
ATOM     70  F   UNL     1      -4.945 -12.887  -2.466  1.00  0.00    -0.200 F 
ATOM     71  C   UNL     1      -5.750 -12.793  -4.683  1.00  0.00     0.200 A 
ATOM     72  F   UNL     1      -6.540 -12.649  -6.903  1.00  0.00    -0.200 F 
ATOM     73  F   UNL     1      -5.823 -14.130  -4.728  1.00  0.00    -0.200 F 
ENDBRANCH  49  63
BRANCH  50  74
ATOM     74  C   UNL     1      -4.871  -0.023  -4.439  1.00  0.00     0.064 A 
ATOM     75  C   UNL     1      -5.305   0.755  -3.359  1.00  0.00     0.173 A 
ATOM     76  C   UNL     1      -4.324   0.644  -5.547  1.00  0.00     0.173 A 
ATOM     77  F   UNL     1      -5.851   0.165  -2.285  1.00  0.00    -0.203 F 
ATOM     78  C   UNL     1      -5.208   2.145  -3.389  1.00  0.00     0.198 A 
ATOM     79  C   UNL     1      -4.200   2.031  -5.564  1.00  0.00     0.198 A 
ATOM     80  F   UNL     1      -3.892  -0.055  -6.607  1.00  0.00    -0.203 F 
ATOM     81  F   UNL     1      -5.664   2.867  -2.357  1.00  0.00    -0.200 F 
ATOM     82  C   UNL     1      -4.649   2.781  -4.488  1.00  0.00     0.200 A 
ATOM     83  F   UNL     1      -3.644   2.640  -6.620  1.00  0.00    -0.200 F 
ATOM     84  F   UNL     1      -4.548   4.117  -4.511  1.00  0.00    -0.200 F 
ENDBRANCH  50  74
BRANCH  62  85
ATOM     85  C   UNL     1     -10.225  -4.488  -4.665  1.00  0.00     0.064 A 
ATOM     86  C   UNL     1     -10.890  -4.076  -5.828  1.00  0.00     0.173 A 
ATOM     87  C   UNL     1     -10.999  -4.792  -3.534  1.00  0.00     0.173 A 
ATOM     88  F   UNL     1     -10.192  -3.758  -6.928  1.00  0.00    -0.203 F 
ATOM     89  C   UNL     1     -12.278  -3.966  -5.855  1.00  0.00     0.198 A 
ATOM     90  C   UNL     1     -12.387  -4.705  -3.573  1.00  0.00     0.198 A 
ATOM     91  F   UNL     1     -10.408  -5.194  -2.399  1.00  0.00    -0.203 F 
ATOM     92  F   UNL     1     -12.893  -3.541  -6.967  1.00  0.00    -0.200 F 
ATOM     93  C   UNL     1     -13.025  -4.290  -4.732  1.00  0.00     0.200 A 
ATOM     94  F   UNL     1     -13.108  -5.031  -2.491  1.00  0.00    -0.200 F 
ATOM     95  F   UNL     1     -14.362  -4.199  -4.766  1.00  0.00    -0.200 F 
ENDBRANCH  62  85
ENDBRANCH  36  37
ENDBRANCH  29  31
ENDBRANCH  28  29
ENDBRANCH  27  28
ENDBRANCH   1  27
TORSDOF 14
