REMARK SMILES CC(C)[NH2+][C@]1(C(=O)OCCOC(=O)c2ccc(-c3c4nc(c(-c5c(F)c(F)c(F)c(F)c5F)c5ccc([nH]5)c(-c5c(F)c(F)c(F)c(F)c5F)c5nc(c(-c6c(F)c(F)c(F)c(F)c6F)c6ccc3[nH]6)C=C5)C=C4)cc2)CC[C@H]([NH+]2CCC(C)(C)CC2)C1
REMARK SMILES IDX 9 1 8 2 6 3 7 4 5 5 77 6 88 7 78 8 79 9 4 10 2 13 1 14 3 15
REMARK SMILES IDX 80 16 81 17 87 18 82 20 86 21 83 22 84 23 85 24 10 25 11 26
REMARK SMILES IDX 12 27 13 28 14 29 15 30 76 31 16 32 75 33 17 34 18 35 19 36
REMARK SMILES IDX 69 37 20 38 74 39 68 40 70 41 21 42 73 43 67 44 66 45 22 47
REMARK SMILES IDX 54 48 34 49 53 50 35 51 38 52 52 53 71 54 36 55 37 56 51 58
REMARK SMILES IDX 72 59 39 60 23 61 24 62 32 63 25 64 26 65 30 66 33 67 27 68
REMARK SMILES IDX 28 69 31 70 29 71 55 72 56 73 64 74 57 75 58 76 62 77 65 78
REMARK SMILES IDX 59 79 60 80 63 81 61 82 40 83 41 84 49 85 42 86 43 87 47 88
REMARK SMILES IDX 50 89 44 90 45 91 48 92 46 93
REMARK H PARENT 4 11 4 12 80 19 70 46 38 57
REMARK Flexibility Score: inf
ROOT
ATOM      1  C   UNL     1       0.731  -0.485  -1.094  1.00  0.00     0.274 C 
ENDROOT
BRANCH   1   2
ATOM      2  O   UNL     1      -0.188  -1.499  -0.638  1.00  0.00    -0.457 OA
BRANCH   2   3
ATOM      3  C   UNL     1      -0.597  -1.378   0.653  1.00  0.00     0.368 C 
ATOM      4  O   UNL     1      -0.324  -0.413   1.368  1.00  0.00    -0.245 OA
BRANCH   3   5
ATOM      5  C   UNL     1      -1.355  -2.624   1.202  1.00  0.00     0.200 C 
ATOM      6  C   UNL     1      -2.438  -3.204   0.287  1.00  0.00     0.087 C 
ATOM      7  C   UNL     1      -0.337  -3.799   1.157  1.00  0.00     0.146 C 
ATOM      8  C   UNL     1      -2.566  -4.674   0.706  1.00  0.00     0.072 C 
ATOM      9  C   UNL     1      -1.153  -5.112   1.164  1.00  0.00     0.191 C 
BRANCH   5  10
ATOM     10  N   UNL     1      -1.718  -2.309   2.617  1.00  0.00    -0.330 N 
ATOM     11  H   UNL     1      -1.093  -2.874   3.192  1.00  0.00     0.347 HD
ATOM     12  H   UNL     1      -1.655  -1.291   2.604  1.00  0.00     0.347 HD
BRANCH  10  13
ATOM     13  C   UNL     1      -3.048  -2.488   3.192  1.00  0.00     0.176 C 
ATOM     14  C   UNL     1      -2.895  -2.294   4.715  1.00  0.00     0.075 C 
ATOM     15  C   UNL     1      -4.159  -1.555   2.727  1.00  0.00     0.075 C 
ENDBRANCH  10  13
ENDBRANCH   5  10
BRANCH   9  16
ATOM     16  N   UNL     1      -1.021  -5.970   2.366  1.00  0.00    -0.332 N 
ATOM     17  C   UNL     1      -2.002  -7.066   2.408  1.00  0.00     0.263 C 
ATOM     18  C   UNL     1      -0.971  -5.232   3.628  1.00  0.00     0.263 C 
ATOM     19  H   UNL     1      -0.103  -6.401   2.263  1.00  0.00     0.348 HD
ATOM     20  C   UNL     1      -1.841  -7.975   3.640  1.00  0.00     0.068 C 
ATOM     21  C   UNL     1      -0.743  -6.113   4.849  1.00  0.00     0.068 C 
ATOM     22  C   UNL     1      -1.821  -7.197   4.973  1.00  0.00    -0.025 C 
ATOM     23  C   UNL     1      -1.448  -8.127   6.137  1.00  0.00     0.011 C 
ATOM     24  C   UNL     1      -3.200  -6.576   5.284  1.00  0.00     0.011 C 
ENDBRANCH   9  16
ENDBRANCH   3   5
ENDBRANCH   2   3
ENDBRANCH   1   2
BRANCH   1  25
ATOM     25  C   UNL     1       0.043   0.618  -1.901  1.00  0.00     0.275 C 
BRANCH  25  26
ATOM     26  O   UNL     1      -0.821   1.427  -1.084  1.00  0.00    -0.458 OA
BRANCH  26  27
ATOM     27  C   UNL     1      -2.104   1.014  -1.034  1.00  0.00     0.338 C 
ATOM     28  O   UNL     1      -2.605   0.056  -1.609  1.00  0.00    -0.246 OA
BRANCH  27  29
ATOM     29  C   UNL     1      -2.854   1.831  -0.077  1.00  0.00     0.060 A 
ATOM     30  C   UNL     1      -3.077   1.306   1.192  1.00  0.00     0.016 A 
ATOM     31  C   UNL     1      -3.465   3.023  -0.464  1.00  0.00     0.016 A 
ATOM     32  C   UNL     1      -3.963   1.930   2.060  1.00  0.00     0.010 A 
ATOM     33  C   UNL     1      -4.333   3.668   0.427  1.00  0.00     0.010 A 
ATOM     34  C   UNL     1      -4.617   3.105   1.685  1.00  0.00    -0.014 A 
BRANCH  34  35
ATOM     35  C   UNL     1      -5.673   3.667   2.564  1.00  0.00     0.031 A 
ATOM     36  C   UNL     1      -7.092   3.710   2.072  1.00  0.00     0.074 A 
ATOM     37  C   UNL     1      -5.395   4.072   3.818  1.00  0.00     0.049 A 
ATOM     38  N   UNL     1      -8.117   4.366   2.549  1.00  0.00    -0.248 NA
ATOM     39  C   UNL     1      -7.396   2.902   0.879  1.00  0.00     0.031 C 
ATOM     40  C   UNL     1      -4.095   3.962   4.479  1.00  0.00     0.029 A 
ATOM     41  N   UNL     1      -6.201   4.655   4.765  1.00  0.00    -0.354 N 
ATOM     42  C   UNL     1      -9.166   4.112   1.676  1.00  0.00     0.074 A 
ATOM     43  C   UNL     1      -8.664   3.219   0.654  1.00  0.00     0.031 C 
ATOM     44  C   UNL     1      -4.194   4.445   5.727  1.00  0.00     0.029 A 
ATOM     45  C   UNL     1      -5.535   4.989   5.918  1.00  0.00     0.049 A 
ATOM     46  H   UNL     1      -7.162   4.819   4.629  1.00  0.00     0.167 HD
ATOM     47  C   UNL     1     -10.428   4.601   1.720  1.00  0.00     0.037 A 
ATOM     48  C   UNL     1      -5.941   5.707   6.983  1.00  0.00     0.037 A 
ATOM     49  C   UNL     1     -10.931   5.441   2.774  1.00  0.00     0.049 A 
ATOM     50  C   UNL     1      -7.326   6.291   6.985  1.00  0.00     0.074 A 
ATOM     51  C   UNL     1     -12.179   6.025   2.897  1.00  0.00     0.029 A 
ATOM     52  N   UNL     1     -10.210   5.794   3.905  1.00  0.00    -0.354 N 
ATOM     53  N   UNL     1      -8.277   6.168   6.091  1.00  0.00    -0.248 NA
ATOM     54  C   UNL     1      -7.685   7.141   8.129  1.00  0.00     0.031 C 
ATOM     55  C   UNL     1     -12.206   6.750   4.094  1.00  0.00     0.029 A 
ATOM     56  C   UNL     1     -10.986   6.588   4.732  1.00  0.00     0.049 A 
ATOM     57  H   UNL     1      -9.282   5.521   4.093  1.00  0.00     0.167 HD
ATOM     58  C   UNL     1      -9.347   6.912   6.567  1.00  0.00     0.074 A 
ATOM     59  C   UNL     1      -8.935   7.472   7.838  1.00  0.00     0.031 C 
ATOM     60  C   UNL     1     -10.560   7.119   6.000  1.00  0.00     0.037 A 
BRANCH  47  61
ATOM     61  C   UNL     1     -11.333   4.290   0.566  1.00  0.00     0.064 A 
ATOM     62  C   UNL     1     -11.919   3.029   0.395  1.00  0.00     0.173 A 
ATOM     63  C   UNL     1     -11.638   5.291  -0.370  1.00  0.00     0.173 A 
ATOM     64  F   UNL     1     -11.642   2.035   1.251  1.00  0.00    -0.203 F 
ATOM     65  C   UNL     1     -12.765   2.776  -0.682  1.00  0.00     0.198 A 
ATOM     66  C   UNL     1     -12.503   5.041  -1.431  1.00  0.00     0.198 A 
ATOM     67  F   UNL     1     -11.102   6.515  -0.250  1.00  0.00    -0.203 F 
ATOM     68  F   UNL     1     -13.285   1.552  -0.850  1.00  0.00    -0.200 F 
ATOM     69  C   UNL     1     -13.062   3.783  -1.590  1.00  0.00     0.200 A 
ATOM     70  F   UNL     1     -12.794   6.019  -2.301  1.00  0.00    -0.200 F 
ATOM     71  F   UNL     1     -13.881   3.538  -2.622  1.00  0.00    -0.200 F 
ENDBRANCH  47  61
BRANCH  48  72
ATOM     72  C   UNL     1      -4.997   5.972   8.099  1.00  0.00     0.064 A 
ATOM     73  C   UNL     1      -5.201   5.410   9.366  1.00  0.00     0.173 A 
ATOM     74  C   UNL     1      -3.871   6.791   7.921  1.00  0.00     0.173 A 
ATOM     75  F   UNL     1      -6.278   4.645   9.594  1.00  0.00    -0.203 F 
ATOM     76  C   UNL     1      -4.317   5.662  10.414  1.00  0.00     0.198 A 
ATOM     77  C   UNL     1      -2.973   7.017   8.960  1.00  0.00     0.198 A 
ATOM     78  F   UNL     1      -3.635   7.359   6.729  1.00  0.00    -0.203 F 
ATOM     79  F   UNL     1      -4.554   5.143  11.627  1.00  0.00    -0.200 F 
ATOM     80  C   UNL     1      -3.199   6.457  10.208  1.00  0.00     0.200 A 
ATOM     81  F   UNL     1      -1.888   7.777   8.753  1.00  0.00    -0.200 F 
ATOM     82  F   UNL     1      -2.345   6.690  11.214  1.00  0.00    -0.200 F 
ENDBRANCH  48  72
BRANCH  60  83
ATOM     83  C   UNL     1     -11.542   7.949   6.768  1.00  0.00     0.064 A 
ATOM     84  C   UNL     1     -11.431   9.345   6.829  1.00  0.00     0.173 A 
ATOM     85  C   UNL     1     -12.633   7.342   7.408  1.00  0.00     0.173 A 
ATOM     86  F   UNL     1     -10.396   9.966   6.245  1.00  0.00    -0.203 F 
ATOM     87  C   UNL     1     -12.372  10.104   7.518  1.00  0.00     0.198 A 
ATOM     88  C   UNL     1     -13.583   8.107   8.078  1.00  0.00     0.198 A 
ATOM     89  F   UNL     1     -12.782   6.010   7.372  1.00  0.00    -0.203 F 
ATOM     90  F   UNL     1     -12.232  11.435   7.593  1.00  0.00    -0.200 F 
ATOM     91  C   UNL     1     -13.450   9.486   8.136  1.00  0.00     0.200 A 
ATOM     92  F   UNL     1     -14.628   7.509   8.666  1.00  0.00    -0.200 F 
ATOM     93  F   UNL     1     -14.358  10.220   8.793  1.00  0.00    -0.200 F 
ENDBRANCH  60  83
ENDBRANCH  34  35
ENDBRANCH  27  29
ENDBRANCH  26  27
ENDBRANCH  25  26
ENDBRANCH   1  25
TORSDOF 14
