REMARK SMILES CC(C)N1C[C@@H](C(=O)N2CCC(C(=O)OCCOC(=O)c3ccc(-c4c5nc(c(-c6c(F)c(F)c(F)c(F)c6F)c6ccc([nH]6)c(-c6c(F)c(F)c(F)c(F)c6F)c6nc(c(-c7c(F)c(F)c(F)c(F)c7F)c7ccc4[nH]7)C=C6)C=C5)cc3)CC2)CC1=O
REMARK SMILES IDX 16 1 15 2 13 3 14 4 12 5 7 6 8 7 9 8 10 9 85 10 11 11 84 12
REMARK SMILES IDX 6 13 4 14 5 15 87 16 86 17 88 18 2 19 1 20 3 21 17 22 18 23
REMARK SMILES IDX 19 24 20 25 21 26 22 27 83 28 23 29 82 30 24 31 25 32 26 33
REMARK SMILES IDX 76 34 27 35 81 36 75 37 77 38 28 39 80 40 74 41 73 42 29 44
REMARK SMILES IDX 61 45 41 46 60 47 42 48 45 49 59 50 78 51 43 52 44 53 58 55
REMARK SMILES IDX 79 56 46 57 30 58 31 59 39 60 32 61 33 62 37 63 40 64 34 65
REMARK SMILES IDX 35 66 38 67 36 68 62 69 63 70 71 71 64 72 65 73 69 74 72 75
REMARK SMILES IDX 66 76 67 77 70 78 68 79 47 80 48 81 56 82 49 83 50 84 54 85
REMARK SMILES IDX 57 86 51 87 52 88 55 89 53 90
REMARK H PARENT 77 43 45 54
REMARK Flexibility Score: inf
ROOT
ATOM      1  C   UNL     1      -9.775  -2.696   2.789  1.00  0.00     0.274 C 
ENDROOT
BRANCH   1   2
ATOM      2  O   UNL     1      -8.496  -2.574   2.139  1.00  0.00    -0.462 OA
BRANCH   2   3
ATOM      3  C   UNL     1      -7.580  -1.790   2.759  1.00  0.00     0.309 C 
ATOM      4  O   UNL     1      -7.785  -1.140   3.778  1.00  0.00    -0.252 OA
BRANCH   3   5
ATOM      5  C   UNL     1      -6.229  -1.797   2.076  1.00  0.00     0.103 C 
ATOM      6  C   UNL     1      -4.163  -1.396  -1.387  1.00  0.00     0.227 C 
ATOM      7  O   UNL     1      -4.813  -2.134  -2.136  1.00  0.00    -0.274 OA
ATOM      8  N   UNL     1      -4.273  -1.523  -0.015  1.00  0.00    -0.342 N 
ATOM      9  C   UNL     1      -4.582  -2.847   0.526  1.00  0.00     0.120 C 
ATOM     10  C   UNL     1      -4.500  -0.412   0.904  1.00  0.00     0.120 C 
ATOM     11  C   UNL     1      -6.008  -2.918   1.058  1.00  0.00     0.037 C 
ATOM     12  C   UNL     1      -5.934  -0.440   1.442  1.00  0.00     0.037 C 
BRANCH   6  13
ATOM     13  C   UNL     1      -3.054  -0.545  -1.993  1.00  0.00     0.107 C 
ATOM     14  N   UNL     1      -0.807   0.051  -1.759  1.00  0.00    -0.339 N 
ATOM     15  C   UNL     1      -1.699  -1.057  -1.523  1.00  0.00     0.133 C 
ATOM     16  C   UNL     1      -1.494   1.250  -1.878  1.00  0.00     0.223 C 
ATOM     17  C   UNL     1      -2.975   0.962  -1.814  1.00  0.00     0.115 C 
ATOM     18  O   UNL     1      -1.006   2.365  -1.955  1.00  0.00    -0.275 OA
BRANCH  14  19
ATOM     19  C   UNL     1       0.645  -0.026  -1.598  1.00  0.00     0.078 C 
ATOM     20  C   UNL     1       1.030   0.038  -0.120  1.00  0.00     0.031 C 
ATOM     21  C   UNL     1       1.245  -1.264  -2.263  1.00  0.00     0.031 C 
ENDBRANCH  14  19
ENDBRANCH   6  13
ENDBRANCH   3   5
ENDBRANCH   2   3
ENDBRANCH   1   2
BRANCH   1  22
ATOM     22  C   UNL     1      -9.886  -4.017   3.556  1.00  0.00     0.275 C 
BRANCH  22  23
ATOM     23  O   UNL     1      -8.982  -4.063   4.678  1.00  0.00    -0.458 OA
BRANCH  23  24
ATOM     24  C   UNL     1      -7.797  -4.668   4.436  1.00  0.00     0.338 C 
ATOM     25  O   UNL     1      -7.423  -5.185   3.398  1.00  0.00    -0.246 OA
BRANCH  24  26
ATOM     26  C   UNL     1      -6.909  -4.514   5.597  1.00  0.00     0.060 A 
ATOM     27  C   UNL     1      -5.765  -3.729   5.442  1.00  0.00     0.016 A 
ATOM     28  C   UNL     1      -7.129  -5.217   6.782  1.00  0.00     0.016 A 
ATOM     29  C   UNL     1      -4.827  -3.642   6.464  1.00  0.00     0.010 A 
ATOM     30  C   UNL     1      -6.186  -5.129   7.812  1.00  0.00     0.010 A 
ATOM     31  C   UNL     1      -5.024  -4.351   7.654  1.00  0.00    -0.014 A 
BRANCH  31  32
ATOM     32  C   UNL     1      -3.978  -4.319   8.702  1.00  0.00     0.031 A 
ATOM     33  C   UNL     1      -3.087  -5.510   8.902  1.00  0.00     0.074 A 
ATOM     34  C   UNL     1      -3.803  -3.210   9.442  1.00  0.00     0.049 A 
ATOM     35  N   UNL     1      -2.177  -5.720   9.818  1.00  0.00    -0.248 NA
ATOM     36  C   UNL     1      -3.238  -6.611   7.938  1.00  0.00     0.031 C 
ATOM     37  C   UNL     1      -4.561  -1.968   9.293  1.00  0.00     0.029 A 
ATOM     38  N   UNL     1      -2.928  -2.949  10.466  1.00  0.00    -0.354 N 
ATOM     39  C   UNL     1      -1.659  -6.981   9.555  1.00  0.00     0.074 A 
ATOM     40  C   UNL     1      -2.364  -7.495   8.399  1.00  0.00     0.031 C 
ATOM     41  C   UNL     1      -4.119  -1.076  10.194  1.00  0.00     0.029 A 
ATOM     42  C   UNL     1      -3.084  -1.700  11.014  1.00  0.00     0.049 A 
ATOM     43  H   UNL     1      -2.253  -3.595  10.778  1.00  0.00     0.167 HD
ATOM     44  C   UNL     1      -0.682  -7.645  10.217  1.00  0.00     0.037 A 
ATOM     45  C   UNL     1      -2.482  -1.137  12.078  1.00  0.00     0.037 A 
ATOM     46  C   UNL     1       0.022  -7.125  11.360  1.00  0.00     0.049 A 
ATOM     47  C   UNL     1      -1.452  -1.926  12.842  1.00  0.00     0.074 A 
ATOM     48  C   UNL     1       1.014  -7.728  12.113  1.00  0.00     0.029 A 
ATOM     49  N   UNL     1      -0.190  -5.870  11.910  1.00  0.00    -0.354 N 
ATOM     50  N   UNL     1      -0.994  -3.131  12.609  1.00  0.00    -0.248 NA
ATOM     51  C   UNL     1      -0.865  -1.278  14.023  1.00  0.00     0.031 C 
ATOM     52  C   UNL     1       1.381  -6.849  13.139  1.00  0.00     0.029 A 
ATOM     53  C   UNL     1       0.644  -5.684  13.001  1.00  0.00     0.049 A 
ATOM     54  H   UNL     1      -0.838  -5.208  11.576  1.00  0.00     0.167 HD
ATOM     55  C   UNL     1      -0.053  -3.379  13.598  1.00  0.00     0.074 A 
ATOM     56  C   UNL     1       0.005  -2.193  14.427  1.00  0.00     0.031 C 
ATOM     57  C   UNL     1       0.693  -4.492  13.806  1.00  0.00     0.037 A 
BRANCH  44  58
ATOM     58  C   UNL     1      -0.337  -9.022   9.738  1.00  0.00     0.064 A 
ATOM     59  C   UNL     1       0.398  -9.229   8.561  1.00  0.00     0.173 A 
ATOM     60  C   UNL     1      -0.718 -10.149  10.482  1.00  0.00     0.173 A 
ATOM     61  F   UNL     1       0.771  -8.184   7.807  1.00  0.00    -0.203 F 
ATOM     62  C   UNL     1       0.723 -10.515   8.138  1.00  0.00     0.198 A 
ATOM     63  C   UNL     1      -0.372 -11.432  10.068  1.00  0.00     0.198 A 
ATOM     64  F   UNL     1      -1.421 -10.004  11.615  1.00  0.00    -0.203 F 
ATOM     65  F   UNL     1       1.393 -10.692   6.991  1.00  0.00    -0.200 F 
ATOM     66  C   UNL     1       0.343 -11.614   8.894  1.00  0.00     0.200 A 
ATOM     67  F   UNL     1      -0.733 -12.492  10.803  1.00  0.00    -0.200 F 
ATOM     68  F   UNL     1       0.660 -12.851   8.487  1.00  0.00    -0.200 F 
ENDBRANCH  44  58
BRANCH  45  69
ATOM     69  C   UNL     1      -2.859   0.234  12.505  1.00  0.00     0.064 A 
ATOM     70  C   UNL     1      -1.962   1.303  12.375  1.00  0.00     0.173 A 
ATOM     71  C   UNL     1      -4.117   0.501  13.065  1.00  0.00     0.173 A 
ATOM     72  F   UNL     1      -0.738   1.092  11.871  1.00  0.00    -0.203 F 
ATOM     73  C   UNL     1      -2.305   2.585  12.802  1.00  0.00     0.198 A 
ATOM     74  C   UNL     1      -4.469   1.787  13.466  1.00  0.00     0.198 A 
ATOM     75  F   UNL     1      -5.009  -0.490  13.214  1.00  0.00    -0.203 F 
ATOM     76  F   UNL     1      -1.414   3.581  12.707  1.00  0.00    -0.200 F 
ATOM     77  C   UNL     1      -3.560   2.827  13.341  1.00  0.00     0.200 A 
ATOM     78  F   UNL     1      -5.685   2.018  13.978  1.00  0.00    -0.200 F 
ATOM     79  F   UNL     1      -3.889   4.059  13.750  1.00  0.00    -0.200 F 
ENDBRANCH  45  69
BRANCH  57  80
ATOM     80  C   UNL     1       1.658  -4.462  14.953  1.00  0.00     0.064 A 
ATOM     81  C   UNL     1       1.222  -4.575  16.280  1.00  0.00     0.173 A 
ATOM     82  C   UNL     1       3.036  -4.351  14.717  1.00  0.00     0.173 A 
ATOM     83  F   UNL     1      -0.088  -4.666  16.555  1.00  0.00    -0.203 F 
ATOM     84  C   UNL     1       2.131  -4.557  17.334  1.00  0.00     0.198 A 
ATOM     85  C   UNL     1       3.944  -4.358  15.772  1.00  0.00     0.198 A 
ATOM     86  F   UNL     1       3.502  -4.245  13.464  1.00  0.00    -0.203 F 
ATOM     87  F   UNL     1       1.690  -4.625  18.598  1.00  0.00    -0.200 F 
ATOM     88  C   UNL     1       3.491  -4.454  17.079  1.00  0.00     0.200 A 
ATOM     89  F   UNL     1       5.258  -4.267  15.524  1.00  0.00    -0.200 F 
ATOM     90  F   UNL     1       4.365  -4.440  18.095  1.00  0.00    -0.200 F 
ENDBRANCH  57  80
ENDBRANCH  31  32
ENDBRANCH  24  26
ENDBRANCH  23  24
ENDBRANCH  22  23
ENDBRANCH   1  22
TORSDOF 13
