REMARK SMILES CC[NH2+][C@]1(C(=O)OCCOC(=O)c2ccc(-c3c4nc(c(-c5c(F)c(F)c(F)c(F)c5F)c5ccc([nH]5)c(-c5c(F)c(F)c(F)c(F)c5F)c5nc(c(-c6c(F)c(F)c(F)c(F)c6F)c6ccc3[nH]6)C=C5)C=C4)cc2)CC[C@@H]([N@H+]2C[C@@H](C)O[C@@H](C)C2)C1
REMARK SMILES IDX 8 1 7 2 5 3 6 4 4 5 76 6 87 7 77 8 78 9 3 10 2 13 1 14 79 15
REMARK SMILES IDX 80 16 86 17 81 19 84 20 82 21 83 22 85 23 9 24 10 25 11 26
REMARK SMILES IDX 12 27 13 28 14 29 75 30 15 31 74 32 16 33 17 34 18 35 68 36
REMARK SMILES IDX 19 37 73 38 67 39 69 40 20 41 72 42 66 43 65 44 21 46 53 47
REMARK SMILES IDX 33 48 52 49 34 50 37 51 51 52 70 53 35 54 36 55 50 57 71 58
REMARK SMILES IDX 38 59 22 60 23 61 31 62 24 63 25 64 29 65 32 66 26 67 27 68
REMARK SMILES IDX 30 69 28 70 54 71 55 72 63 73 56 74 57 75 61 76 64 77 58 78
REMARK SMILES IDX 59 79 62 80 60 81 39 82 40 83 48 84 41 85 42 86 46 87 49 88
REMARK SMILES IDX 43 89 44 90 47 91 45 92
REMARK H PARENT 3 11 3 12 79 18 69 45 37 56
REMARK Flexibility Score: inf
ROOT
ATOM      1  C   UNL     1       2.496  -0.218   0.859  1.00  0.00     0.274 C 
ENDROOT
BRANCH   1   2
ATOM      2  O   UNL     1       1.772  -1.223   1.596  1.00  0.00    -0.457 OA
BRANCH   2   3
ATOM      3  C   UNL     1       1.571  -1.006   2.927  1.00  0.00     0.368 C 
ATOM      4  O   UNL     1       1.860   0.047   3.486  1.00  0.00    -0.245 OA
BRANCH   3   5
ATOM      5  C   UNL     1       0.932  -2.253   3.637  1.00  0.00     0.200 C 
ATOM      6  C   UNL     1      -0.548  -2.429   3.242  1.00  0.00     0.087 C 
ATOM      7  C   UNL     1       1.538  -3.568   3.128  1.00  0.00     0.146 C 
ATOM      8  C   UNL     1      -0.866  -3.901   3.466  1.00  0.00     0.072 C 
ATOM      9  C   UNL     1       0.452  -4.651   3.213  1.00  0.00     0.191 C 
BRANCH   5  10
ATOM     10  N   UNL     1       0.994  -2.097   5.115  1.00  0.00    -0.332 N 
ATOM     11  H   UNL     1       0.557  -1.209   5.361  1.00  0.00     0.347 HD
ATOM     12  H   UNL     1       0.510  -2.903   5.512  1.00  0.00     0.347 HD
BRANCH  10  13
ATOM     13  C   UNL     1       2.346  -2.110   5.671  1.00  0.00     0.257 C 
ATOM     14  C   UNL     1       2.355  -1.357   6.992  1.00  0.00     0.071 C 
ENDBRANCH  10  13
ENDBRANCH   5  10
BRANCH   9  15
ATOM     15  N   UNL     1       0.421  -5.678   2.162  1.00  0.00    -0.328 N 
ATOM     16  C   UNL     1      -0.175  -5.332   0.867  1.00  0.00     0.294 C 
ATOM     17  C   UNL     1       1.710  -6.346   1.940  1.00  0.00     0.294 C 
ATOM     18  H   UNL     1      -0.242  -6.323   2.592  1.00  0.00     0.348 HD
ATOM     19  C   UNL     1       0.756  -4.742  -0.220  1.00  0.00     0.170 C 
ATOM     20  C   UNL     1       2.665  -5.706   0.891  1.00  0.00     0.170 C 
ATOM     21  C   UNL     1       0.255  -3.372  -0.667  1.00  0.00     0.045 C 
ATOM     22  O   UNL     1       2.109  -4.576   0.205  1.00  0.00    -0.364 OA
ATOM     23  C   UNL     1       3.981  -5.227   1.515  1.00  0.00     0.045 C 
ENDBRANCH   9  15
ENDBRANCH   3   5
ENDBRANCH   2   3
ENDBRANCH   1   2
BRANCH   1  24
ATOM     24  C   UNL     1       1.565   0.616  -0.018  1.00  0.00     0.275 C 
BRANCH  24  25
ATOM     25  O   UNL     1       0.712   1.439   0.794  1.00  0.00    -0.458 OA
BRANCH  25  26
ATOM     26  C   UNL     1      -0.495   0.905   1.073  1.00  0.00     0.338 C 
ATOM     27  O   UNL     1      -0.988  -0.121   0.624  1.00  0.00    -0.246 OA
BRANCH  26  28
ATOM     28  C   UNL     1      -1.126   1.690   2.135  1.00  0.00     0.060 A 
ATOM     29  C   UNL     1      -1.203   1.130   3.411  1.00  0.00     0.016 A 
ATOM     30  C   UNL     1      -1.702   2.929   1.866  1.00  0.00     0.016 A 
ATOM     31  C   UNL     1      -1.892   1.773   4.426  1.00  0.00     0.010 A 
ATOM     32  C   UNL     1      -2.373   3.593   2.892  1.00  0.00     0.010 A 
ATOM     33  C   UNL     1      -2.486   3.008   4.167  1.00  0.00    -0.014 A 
BRANCH  33  34
ATOM     34  C   UNL     1      -3.297   3.664   5.209  1.00  0.00     0.031 A 
ATOM     35  C   UNL     1      -4.784   3.696   5.048  1.00  0.00     0.074 A 
ATOM     36  C   UNL     1      -2.699   4.228   6.271  1.00  0.00     0.049 A 
ATOM     37  N   UNL     1      -5.672   4.409   5.688  1.00  0.00    -0.248 NA
ATOM     38  C   UNL     1      -5.347   2.805   4.020  1.00  0.00     0.031 C 
ATOM     39  C   UNL     1      -1.268   4.163   6.571  1.00  0.00     0.029 A 
ATOM     40  N   UNL     1      -3.223   4.986   7.285  1.00  0.00    -0.354 N 
ATOM     41  C   UNL     1      -6.892   4.087   5.113  1.00  0.00     0.074 A 
ATOM     42  C   UNL     1      -6.635   3.111   4.075  1.00  0.00     0.031 C 
ATOM     43  C   UNL     1      -1.023   4.874   7.683  1.00  0.00     0.029 A 
ATOM     44  C   UNL     1      -2.267   5.496   8.128  1.00  0.00     0.049 A 
ATOM     45  H   UNL     1      -4.187   5.148   7.399  1.00  0.00     0.167 HD
ATOM     46  C   UNL     1      -8.113   4.578   5.426  1.00  0.00     0.037 A 
ATOM     47  C   UNL     1      -2.383   6.409   9.110  1.00  0.00     0.037 A 
ATOM     48  C   UNL     1      -8.340   5.538   6.472  1.00  0.00     0.049 A 
ATOM     49  C   UNL     1      -3.738   7.001   9.387  1.00  0.00     0.074 A 
ATOM     50  C   UNL     1      -9.527   6.131   6.862  1.00  0.00     0.029 A 
ATOM     51  N   UNL     1      -7.346   6.041   7.302  1.00  0.00    -0.354 N 
ATOM     52  N   UNL     1      -4.886   6.747   8.806  1.00  0.00    -0.248 NA
ATOM     53  C   UNL     1      -3.813   8.016  10.445  1.00  0.00     0.031 C 
ATOM     54  C   UNL     1      -9.246   7.017   7.908  1.00  0.00     0.029 A 
ATOM     55  C   UNL     1      -7.892   6.942   8.199  1.00  0.00     0.049 A 
ATOM     56  H   UNL     1      -6.395   5.792   7.258  1.00  0.00     0.167 HD
ATOM     57  C   UNL     1      -5.824   7.542   9.447  1.00  0.00     0.074 A 
ATOM     58  C   UNL     1      -5.111   8.289  10.463  1.00  0.00     0.031 C 
ATOM     59  C   UNL     1      -7.156   7.644   9.219  1.00  0.00     0.037 A 
BRANCH  46  60
ATOM     60  C   UNL     1      -9.276   4.122   4.597  1.00  0.00     0.064 A 
ATOM     61  C   UNL     1      -9.802   2.827   4.708  1.00  0.00     0.173 A 
ATOM     62  C   UNL     1      -9.881   5.002   3.687  1.00  0.00     0.173 A 
ATOM     63  F   UNL     1      -9.246   1.942   5.549  1.00  0.00    -0.203 F 
ATOM     64  C   UNL     1     -10.879   2.423   3.922  1.00  0.00     0.198 A 
ATOM     65  C   UNL     1     -10.974   4.603   2.922  1.00  0.00     0.198 A 
ATOM     66  F   UNL     1      -9.415   6.252   3.541  1.00  0.00    -0.203 F 
ATOM     67  F   UNL     1     -11.338   1.167   4.012  1.00  0.00    -0.200 F 
ATOM     68  C   UNL     1     -11.467   3.313   3.035  1.00  0.00     0.200 A 
ATOM     69  F   UNL     1     -11.545   5.467   2.071  1.00  0.00    -0.200 F 
ATOM     70  F   UNL     1     -12.506   2.923   2.283  1.00  0.00    -0.200 F 
ENDBRANCH  46  60
BRANCH  47  71
ATOM     71  C   UNL     1      -1.181   6.843   9.865  1.00  0.00     0.064 A 
ATOM     72  C   UNL     1      -1.022   6.511  11.217  1.00  0.00     0.173 A 
ATOM     73  C   UNL     1      -0.166   7.594   9.254  1.00  0.00     0.173 A 
ATOM     74  F   UNL     1      -1.976   5.815  11.851  1.00  0.00    -0.203 F 
ATOM     75  C   UNL     1       0.099   6.926  11.932  1.00  0.00     0.198 A 
ATOM     76  C   UNL     1       0.968   7.985   9.963  1.00  0.00     0.198 A 
ATOM     77  F   UNL     1      -0.270   7.940   7.962  1.00  0.00    -0.203 F 
ATOM     78  F   UNL     1       0.206   6.632  13.235  1.00  0.00    -0.200 F 
ATOM     79  C   UNL     1       1.097   7.657  11.303  1.00  0.00     0.200 A 
ATOM     80  F   UNL     1       1.934   8.681   9.348  1.00  0.00    -0.200 F 
ATOM     81  F   UNL     1       2.176   8.052  11.992  1.00  0.00    -0.200 F 
ENDBRANCH  47  71
BRANCH  59  82
ATOM     82  C   UNL     1      -7.939   8.543  10.127  1.00  0.00     0.064 A 
ATOM     83  C   UNL     1      -7.896   9.938   9.999  1.00  0.00     0.173 A 
ATOM     84  C   UNL     1      -8.796   7.992  11.091  1.00  0.00     0.173 A 
ATOM     85  F   UNL     1      -7.081  10.509   9.100  1.00  0.00    -0.203 F 
ATOM     86  C   UNL     1      -8.677  10.751  10.815  1.00  0.00     0.198 A 
ATOM     87  C   UNL     1      -9.592   8.806  11.888  1.00  0.00     0.198 A 
ATOM     88  F   UNL     1      -8.873   6.661  11.245  1.00  0.00    -0.203 F 
ATOM     89  F   UNL     1      -8.600  12.084  10.700  1.00  0.00    -0.200 F 
ATOM     90  C   UNL     1      -9.530  10.185  11.752  1.00  0.00     0.200 A 
ATOM     91  F   UNL     1     -10.425   8.258  12.784  1.00  0.00    -0.200 F 
ATOM     92  F   UNL     1     -10.291  10.970  12.527  1.00  0.00    -0.200 F 
ENDBRANCH  59  82
ENDBRANCH  33  34
ENDBRANCH  26  28
ENDBRANCH  25  26
ENDBRANCH  24  25
ENDBRANCH   1  24
TORSDOF 14
