REMARK SMILES Cc1cc(C(=O)OCCOC(=O)c2ccc(-c3c4nc(c(-c5c(F)c(F)c(F)c(F)c5F)c5ccc([nH]5)c(-c5c(F)c(F)c(F)c(F)c5F)c5nc(c(-c6c(F)c(F)c(F)c(F)c6F)c6ccc3[nH]6)C=C5)C=C4)cc2)ccc1NS(=O)(=O)c1c(F)cccc1F
REMARK SMILES IDX 8 1 7 2 5 3 6 4 4 5 1 6 2 7 3 8 78 9 77 10 76 11 79 12 80 14
REMARK SMILES IDX 81 15 82 16 83 17 84 18 89 19 85 20 86 21 88 22 90 23 87 24
REMARK SMILES IDX 9 25 10 26 11 27 12 28 13 29 14 30 75 31 15 32 74 33 16 34
REMARK SMILES IDX 17 35 18 36 68 37 19 38 73 39 67 40 69 41 20 42 72 43 66 44
REMARK SMILES IDX 65 45 21 47 53 48 33 49 52 50 34 51 37 52 51 53 70 54 35 55
REMARK SMILES IDX 36 56 50 58 71 59 38 60 22 61 23 62 31 63 24 64 25 65 29 66
REMARK SMILES IDX 32 67 26 68 27 69 30 70 28 71 54 72 55 73 63 74 56 75 57 76
REMARK SMILES IDX 61 77 64 78 58 79 59 80 62 81 60 82 39 83 40 84 48 85 41 86
REMARK SMILES IDX 42 87 46 88 49 89 43 90 44 91 47 92 45 93
REMARK H PARENT 79 13 69 46 37 57
REMARK Flexibility Score: inf
ROOT
ATOM      1  C   UNL     1      -3.925  -2.635  -1.990  1.00  0.00     0.275 C 
ENDROOT
BRANCH   1   2
ATOM      2  O   UNL     1      -2.727  -1.885  -1.733  1.00  0.00    -0.458 OA
BRANCH   2   3
ATOM      3  C   UNL     1      -2.932  -0.947  -0.765  1.00  0.00     0.338 C 
ATOM      4  O   UNL     1      -4.033  -0.659  -0.309  1.00  0.00    -0.246 OA
BRANCH   3   5
ATOM      5  C   UNL     1      -1.708  -0.251  -0.278  1.00  0.00     0.060 A 
ATOM      6  C   UNL     1       2.028   0.177  -0.724  1.00  0.00     0.046 C 
ATOM      7  C   UNL     1       0.580   0.503  -0.470  1.00  0.00    -0.026 A 
ATOM      8  C   UNL     1      -0.432  -0.401  -0.826  1.00  0.00     0.021 A 
ATOM      9  C   UNL     1       0.214   1.643   0.258  1.00  0.00     0.052 A 
ATOM     10  C   UNL     1      -0.892   1.588   1.088  1.00  0.00     0.028 A 
ATOM     11  C   UNL     1      -1.874   0.647   0.791  1.00  0.00     0.018 A 
BRANCH   9  12
ATOM     12  N   UNL     1       0.829   2.880  -0.102  1.00  0.00    -0.279 N 
ATOM     13  H   UNL     1       1.759   2.857  -0.426  1.00  0.00     0.180 HD
BRANCH  12  14
ATOM     14  S   UNL     1       0.058   4.387  -0.007  1.00  0.00     0.267 S 
ATOM     15  O   UNL     1       0.200   4.788   1.378  1.00  0.00    -0.201 OA
ATOM     16  O   UNL     1       0.629   5.180  -1.076  1.00  0.00    -0.201 OA
BRANCH  14  17
ATOM     17  C   UNL     1      -1.669   4.264  -0.339  1.00  0.00     0.158 A 
ATOM     18  C   UNL     1      -2.517   5.114   0.367  1.00  0.00     0.146 A 
ATOM     19  C   UNL     1      -2.233   3.264  -1.115  1.00  0.00     0.146 A 
ATOM     20  F   UNL     1      -2.041   6.183   1.018  1.00  0.00    -0.205 F 
ATOM     21  C   UNL     1      -3.892   4.883   0.420  1.00  0.00     0.041 A 
ATOM     22  C   UNL     1      -3.606   2.994  -1.036  1.00  0.00     0.041 A 
ATOM     23  F   UNL     1      -1.483   2.484  -1.903  1.00  0.00    -0.205 F 
ATOM     24  C   UNL     1      -4.434   3.787  -0.242  1.00  0.00     0.006 A 
ENDBRANCH  14  17
ENDBRANCH  12  14
ENDBRANCH   9  12
ENDBRANCH   3   5
ENDBRANCH   2   3
ENDBRANCH   1   2
BRANCH   1  25
ATOM     25  C   UNL     1      -3.761  -3.924  -2.818  1.00  0.00     0.275 C 
BRANCH  25  26
ATOM     26  O   UNL     1      -2.478  -4.594  -2.941  1.00  0.00    -0.458 OA
BRANCH  26  27
ATOM     27  C   UNL     1      -1.398  -4.514  -2.124  1.00  0.00     0.338 C 
ATOM     28  O   UNL     1      -0.262  -4.564  -2.532  1.00  0.00    -0.246 OA
BRANCH  27  29
ATOM     29  C   UNL     1      -1.683  -4.343  -0.691  1.00  0.00     0.060 A 
ATOM     30  C   UNL     1      -0.816  -3.543   0.072  1.00  0.00     0.016 A 
ATOM     31  C   UNL     1      -2.868  -4.842  -0.166  1.00  0.00     0.016 A 
ATOM     32  C   UNL     1      -1.190  -3.146   1.347  1.00  0.00     0.010 A 
ATOM     33  C   UNL     1      -3.313  -4.329   1.021  1.00  0.00     0.010 A 
ATOM     34  C   UNL     1      -2.449  -3.536   1.794  1.00  0.00    -0.014 A 
BRANCH  34  35
ATOM     35  C   UNL     1      -2.821  -3.530   3.193  1.00  0.00     0.031 A 
ATOM     36  C   UNL     1      -3.445  -2.360   3.815  1.00  0.00     0.074 A 
ATOM     37  C   UNL     1      -2.687  -4.774   3.704  1.00  0.00     0.049 A 
ATOM     38  N   UNL     1      -3.426  -2.108   5.074  1.00  0.00    -0.248 NA
ATOM     39  C   UNL     1      -4.106  -1.308   3.050  1.00  0.00     0.031 C 
ATOM     40  C   UNL     1      -3.201  -5.399   4.902  1.00  0.00     0.029 A 
ATOM     41  N   UNL     1      -1.853  -5.765   3.142  1.00  0.00    -0.354 N 
ATOM     42  C   UNL     1      -4.358  -1.111   5.307  1.00  0.00     0.074 A 
ATOM     43  C   UNL     1      -4.589  -0.518   4.017  1.00  0.00     0.031 C 
ATOM     44  C   UNL     1      -2.439  -6.482   5.168  1.00  0.00     0.029 A 
ATOM     45  C   UNL     1      -1.333  -6.489   4.211  1.00  0.00     0.049 A 
ATOM     46  H   UNL     1      -1.675  -5.915   2.186  1.00  0.00     0.167 HD
ATOM     47  C   UNL     1      -4.973  -1.079   6.527  1.00  0.00     0.037 A 
ATOM     48  C   UNL     1      -0.013  -6.293   4.503  1.00  0.00     0.037 A 
ATOM     49  C   UNL     1      -4.424  -2.161   7.346  1.00  0.00     0.049 A 
ATOM     50  C   UNL     1       0.097  -5.588   5.830  1.00  0.00     0.074 A 
ATOM     51  C   UNL     1      -4.858  -3.462   7.544  1.00  0.00     0.029 A 
ATOM     52  N   UNL     1      -3.085  -2.123   7.716  1.00  0.00    -0.354 N 
ATOM     53  N   UNL     1      -0.728  -4.661   6.248  1.00  0.00    -0.248 NA
ATOM     54  C   UNL     1       1.066  -5.999   6.836  1.00  0.00     0.031 C 
ATOM     55  C   UNL     1      -3.731  -4.232   7.937  1.00  0.00     0.029 A 
ATOM     56  C   UNL     1      -2.623  -3.400   7.979  1.00  0.00     0.049 A 
ATOM     57  H   UNL     1      -2.543  -1.304   7.782  1.00  0.00     0.167 HD
ATOM     58  C   UNL     1      -0.483  -4.429   7.576  1.00  0.00     0.074 A 
ATOM     59  C   UNL     1       0.661  -5.272   7.888  1.00  0.00     0.031 C 
ATOM     60  C   UNL     1      -1.242  -3.618   8.371  1.00  0.00     0.037 A 
BRANCH  47  61
ATOM     61  C   UNL     1      -6.252  -0.349   6.910  1.00  0.00     0.064 A 
ATOM     62  C   UNL     1      -6.964  -0.741   8.072  1.00  0.00     0.173 A 
ATOM     63  C   UNL     1      -6.857   0.700   6.191  1.00  0.00     0.173 A 
ATOM     64  F   UNL     1      -6.485  -1.674   8.905  1.00  0.00    -0.203 F 
ATOM     65  C   UNL     1      -8.198  -0.189   8.433  1.00  0.00     0.198 A 
ATOM     66  C   UNL     1      -8.101   1.244   6.546  1.00  0.00     0.198 A 
ATOM     67  F   UNL     1      -6.262   1.273   5.143  1.00  0.00    -0.203 F 
ATOM     68  F   UNL     1      -8.825  -0.625   9.535  1.00  0.00    -0.200 F 
ATOM     69  C   UNL     1      -8.775   0.794   7.661  1.00  0.00     0.200 A 
ATOM     70  F   UNL     1      -8.638   2.216   5.793  1.00  0.00    -0.200 F 
ATOM     71  F   UNL     1      -9.962   1.317   7.998  1.00  0.00    -0.200 F 
ENDBRANCH  47  61
BRANCH  48  72
ATOM     72  C   UNL     1       0.862  -6.072   3.298  1.00  0.00     0.064 A 
ATOM     73  C   UNL     1       0.797  -7.013   2.240  1.00  0.00     0.173 A 
ATOM     74  C   UNL     1       1.536  -4.876   3.023  1.00  0.00     0.173 A 
ATOM     75  F   UNL     1       0.179  -8.191   2.429  1.00  0.00    -0.203 F 
ATOM     76  C   UNL     1       1.268  -6.727   0.957  1.00  0.00     0.198 A 
ATOM     77  C   UNL     1       2.036  -4.603   1.739  1.00  0.00     0.198 A 
ATOM     78  F   UNL     1       1.648  -3.926   3.961  1.00  0.00    -0.203 F 
ATOM     79  F   UNL     1       1.065  -7.601  -0.040  1.00  0.00    -0.200 F 
ATOM     80  C   UNL     1       1.878  -5.515   0.704  1.00  0.00     0.200 A 
ATOM     81  F   UNL     1       2.593  -3.410   1.477  1.00  0.00    -0.200 F 
ATOM     82  F   UNL     1       2.265  -5.200  -0.540  1.00  0.00    -0.200 F 
ENDBRANCH  48  72
BRANCH  60  83
ATOM     83  C   UNL     1      -0.767  -3.034   9.676  1.00  0.00     0.064 A 
ATOM     84  C   UNL     1       0.590  -2.834   9.973  1.00  0.00     0.173 A 
ATOM     85  C   UNL     1      -1.684  -2.487  10.607  1.00  0.00     0.173 A 
ATOM     86  F   UNL     1       1.555  -3.160   9.102  1.00  0.00    -0.203 F 
ATOM     87  C   UNL     1       1.004  -2.229  11.158  1.00  0.00     0.198 A 
ATOM     88  C   UNL     1      -1.266  -1.805  11.745  1.00  0.00     0.198 A 
ATOM     89  F   UNL     1      -3.010  -2.561  10.424  1.00  0.00    -0.203 F 
ATOM     90  F   UNL     1       2.313  -2.133  11.425  1.00  0.00    -0.200 F 
ATOM     91  C   UNL     1       0.077  -1.703  12.036  1.00  0.00     0.200 A 
ATOM     92  F   UNL     1      -2.175  -1.229  12.544  1.00  0.00    -0.200 F 
ATOM     93  F   UNL     1       0.481  -1.076  13.148  1.00  0.00    -0.200 F 
ENDBRANCH  60  83
ENDBRANCH  34  35
ENDBRANCH  27  29
ENDBRANCH  26  27
ENDBRANCH  25  26
ENDBRANCH   1  25
TORSDOF 14
