REMARK SMILES O=C(C[C@H]1C(=O)NCC[N@H+]1[C@H]1CCO[C@@]2(CCSC2)C1)OCCOC(=O)c1ccc(-c2c3nc(c(-c4c(F)c(F)c(F)c(F)c4F)c4ccc([nH]4)c(-c4c(F)c(F)c(F)c(F)c4F)c4nc(c(-c5c(F)c(F)c(F)c(F)c5F)c5ccc2[nH]5)C=C4)C=C3)cc1
REMARK SMILES IDX 22 1 21 2 2 3 1 4 3 5 4 6 5 7 10 8 6 9 7 10 9 11 8 13 11 15
REMARK SMILES IDX 12 16 20 17 13 18 15 19 14 20 16 21 19 22 17 23 18 24 23 25
REMARK SMILES IDX 24 26 25 27 26 28 27 29 28 30 89 31 29 32 88 33 30 34 31 35
REMARK SMILES IDX 32 36 82 37 33 38 87 39 81 40 83 41 34 42 86 43 80 44 79 45
REMARK SMILES IDX 35 47 67 48 47 49 66 50 48 51 51 52 65 53 84 54 49 55 50 56
REMARK SMILES IDX 64 58 85 59 52 60 36 61 37 62 45 63 38 64 39 65 43 66 46 67
REMARK SMILES IDX 40 68 41 69 44 70 42 71 68 72 69 73 77 74 70 75 71 76 75 77
REMARK SMILES IDX 78 78 72 79 73 80 76 81 74 82 53 83 54 84 62 85 55 86 56 87
REMARK SMILES IDX 60 88 63 89 57 90 58 91 61 92 59 93
REMARK H PARENT 10 12 7 14 83 46 51 57
REMARK Flexibility Score: inf
ROOT
ATOM      1  C   UNL     1       3.640  -4.470   5.393  1.00  0.00     0.274 C 
ENDROOT
BRANCH   1   2
ATOM      2  O   UNL     1       3.634  -4.026   6.760  1.00  0.00    -0.462 OA
BRANCH   2   3
ATOM      3  C   UNL     1       3.967  -2.760   7.126  1.00  0.00     0.312 C 
ATOM      4  O   UNL     1       4.575  -2.584   8.177  1.00  0.00    -0.252 OA
BRANCH   3   5
ATOM      5  C   UNL     1       3.380  -1.608   6.326  1.00  0.00     0.198 C 
BRANCH   5   6
ATOM      6  C   UNL     1       4.308  -0.502   5.792  1.00  0.00     0.285 C 
ATOM      7  C   UNL     1       5.314  -0.139   6.904  1.00  0.00     0.279 C 
ATOM      8  N   UNL     1       4.978  -0.661   4.471  1.00  0.00    -0.320 N 
ATOM      9  O   UNL     1       4.988   0.533   7.882  1.00  0.00    -0.268 OA
ATOM     10  N   UNL     1       6.562  -0.693   6.829  1.00  0.00    -0.345 N 
ATOM     11  C   UNL     1       6.126  -1.569   4.522  1.00  0.00     0.284 C 
ATOM     12  H   UNL     1       5.322   0.290   4.342  1.00  0.00     0.349 HD
ATOM     13  C   UNL     1       7.147  -1.157   5.595  1.00  0.00     0.177 C 
ATOM     14  H   UNL     1       7.087  -0.780   7.657  1.00  0.00     0.163 HD
BRANCH   8  15
ATOM     15  C   UNL     1       4.197  -0.688   3.210  1.00  0.00     0.189 C 
ATOM     16  C   UNL     1       3.519  -2.024   2.882  1.00  0.00     0.093 C 
ATOM     17  C   UNL     1       3.196   0.482   3.054  1.00  0.00     0.101 C 
ATOM     18  C   UNL     1       2.615  -1.993   1.665  1.00  0.00     0.167 C 
ATOM     19  C   UNL     1       2.361   0.380   1.752  1.00  0.00     0.084 C 
ATOM     20  O   UNL     1       1.708  -0.901   1.740  1.00  0.00    -0.374 OA
ATOM     21  C   UNL     1       1.241   1.434   1.710  1.00  0.00     0.047 C 
ATOM     22  C   UNL     1       3.144   0.603   0.443  1.00  0.00     0.105 C 
ATOM     23  C   UNL     1       1.835   2.770   1.298  1.00  0.00     0.072 C 
ATOM     24  S   UNL     1       3.132   2.379   0.100  1.00  0.00    -0.159 SA
ENDBRANCH   8  15
ENDBRANCH   5   6
ENDBRANCH   3   5
ENDBRANCH   2   3
ENDBRANCH   1   2
BRANCH   1  25
ATOM     25  C   UNL     1       2.257  -4.904   4.903  1.00  0.00     0.275 C 
BRANCH  25  26
ATOM     26  O   UNL     1       1.313  -3.836   5.078  1.00  0.00    -0.458 OA
BRANCH  26  27
ATOM     27  C   UNL     1       0.613  -3.902   6.241  1.00  0.00     0.338 C 
ATOM     28  O   UNL     1       0.552  -4.850   6.992  1.00  0.00    -0.246 OA
BRANCH  27  29
ATOM     29  C   UNL     1       0.050  -2.570   6.569  1.00  0.00     0.060 A 
ATOM     30  C   UNL     1      -0.056  -2.253   7.928  1.00  0.00     0.016 A 
ATOM     31  C   UNL     1      -0.369  -1.651   5.599  1.00  0.00     0.016 A 
ATOM     32  C   UNL     1      -0.660  -1.063   8.324  1.00  0.00     0.010 A 
ATOM     33  C   UNL     1      -0.973  -0.451   5.998  1.00  0.00     0.010 A 
ATOM     34  C   UNL     1      -1.171  -0.181   7.363  1.00  0.00    -0.014 A 
BRANCH  34  35
ATOM     35  C   UNL     1      -2.103   0.879   7.818  1.00  0.00     0.031 A 
ATOM     36  C   UNL     1      -3.579   0.584   7.801  1.00  0.00     0.074 A 
ATOM     37  C   UNL     1      -1.657   2.033   8.344  1.00  0.00     0.049 A 
ATOM     38  N   UNL     1      -4.573   1.270   8.305  1.00  0.00    -0.248 NA
ATOM     39  C   UNL     1      -3.989  -0.663   7.133  1.00  0.00     0.031 C 
ATOM     40  C   UNL     1      -0.256   2.433   8.446  1.00  0.00     0.029 A 
ATOM     41  N   UNL     1      -2.350   3.074   8.913  1.00  0.00    -0.354 N 
ATOM     42  C   UNL     1      -5.715   0.526   8.042  1.00  0.00     0.074 A 
ATOM     43  C   UNL     1      -5.303  -0.634   7.283  1.00  0.00     0.031 C 
ATOM     44  C   UNL     1      -0.191   3.633   9.053  1.00  0.00     0.029 A 
ATOM     45  C   UNL     1      -1.544   4.082   9.380  1.00  0.00     0.049 A 
ATOM     46  H   UNL     1      -3.332   3.094   8.979  1.00  0.00     0.167 HD
ATOM     47  C   UNL     1      -6.991   0.768   8.422  1.00  0.00     0.037 A 
ATOM     48  C   UNL     1      -1.866   5.228  10.012  1.00  0.00     0.037 A 
ATOM     49  C   UNL     1      -7.414   1.923   9.165  1.00  0.00     0.049 A 
ATOM     50  C   UNL     1      -3.307   5.516  10.350  1.00  0.00     0.074 A 
ATOM     51  C   UNL     1      -8.684   2.248   9.608  1.00  0.00     0.029 A 
ATOM     52  N   UNL     1      -6.574   2.950   9.565  1.00  0.00    -0.354 N 
ATOM     53  N   UNL     1      -4.371   4.773  10.160  1.00  0.00    -0.248 NA
ATOM     54  C   UNL     1      -3.588   6.801  11.009  1.00  0.00     0.031 C 
ATOM     55  C   UNL     1      -8.620   3.497  10.235  1.00  0.00     0.029 A 
ATOM     56  C   UNL     1      -7.303   3.927  10.222  1.00  0.00     0.049 A 
ATOM     57  H   UNL     1      -5.603   2.981   9.405  1.00  0.00     0.167 HD
ATOM     58  C   UNL     1      -5.435   5.481  10.706  1.00  0.00     0.074 A 
ATOM     59  C   UNL     1      -4.890   6.710  11.241  1.00  0.00     0.031 C 
ATOM     60  C   UNL     1      -6.746   5.139  10.763  1.00  0.00     0.037 A 
BRANCH  47  61
ATOM     61  C   UNL     1      -8.024  -0.241   8.024  1.00  0.00     0.064 A 
ATOM     62  C   UNL     1      -8.099  -1.495   8.650  1.00  0.00     0.173 A 
ATOM     63  C   UNL     1      -8.955   0.050   7.018  1.00  0.00     0.173 A 
ATOM     64  F   UNL     1      -7.218  -1.827   9.606  1.00  0.00    -0.203 F 
ATOM     65  C   UNL     1      -9.055  -2.431   8.264  1.00  0.00     0.198 A 
ATOM     66  C   UNL     1      -9.925  -0.878   6.651  1.00  0.00     0.198 A 
ATOM     67  F   UNL     1      -8.923   1.235   6.389  1.00  0.00    -0.203 F 
ATOM     68  F   UNL     1      -9.079  -3.639   8.842  1.00  0.00    -0.200 F 
ATOM     69  C   UNL     1      -9.970  -2.120   7.269  1.00  0.00     0.200 A 
ATOM     70  F   UNL     1     -10.812  -0.576   5.694  1.00  0.00    -0.200 F 
ATOM     71  F   UNL     1     -10.889  -3.021   6.898  1.00  0.00    -0.200 F 
ENDBRANCH  47  61
BRANCH  48  72
ATOM     72  C   UNL     1      -0.802   6.192  10.393  1.00  0.00     0.064 A 
ATOM     73  C   UNL     1      -0.467   6.409  11.736  1.00  0.00     0.173 A 
ATOM     74  C   UNL     1      -0.132   6.949   9.421  1.00  0.00     0.173 A 
ATOM     75  F   UNL     1      -1.105   5.731  12.703  1.00  0.00    -0.203 F 
ATOM     76  C   UNL     1       0.483   7.363  12.096  1.00  0.00     0.198 A 
ATOM     77  C   UNL     1       0.835   7.886   9.780  1.00  0.00     0.198 A 
ATOM     78  F   UNL     1      -0.424   6.785   8.123  1.00  0.00    -0.203 F 
ATOM     79  F   UNL     1       0.745   7.589  13.390  1.00  0.00    -0.200 F 
ATOM     80  C   UNL     1       1.135   8.098  11.117  1.00  0.00     0.200 A 
ATOM     81  F   UNL     1       1.462   8.595   8.832  1.00  0.00    -0.200 F 
ATOM     82  F   UNL     1       2.040   9.024  11.464  1.00  0.00    -0.200 F 
ENDBRANCH  48  72
BRANCH  60  83
ATOM     83  C   UNL     1      -7.682   6.087  11.456  1.00  0.00     0.064 A 
ATOM     84  C   UNL     1      -8.057   7.307  10.874  1.00  0.00     0.173 A 
ATOM     85  C   UNL     1      -8.250   5.746  12.693  1.00  0.00     0.173 A 
ATOM     86  F   UNL     1      -7.534   7.684   9.698  1.00  0.00    -0.203 F 
ATOM     87  C   UNL     1      -8.951   8.160  11.517  1.00  0.00     0.198 A 
ATOM     88  C   UNL     1      -9.163   6.589  13.320  1.00  0.00     0.198 A 
ATOM     89  F   UNL     1      -7.930   4.586  13.287  1.00  0.00    -0.203 F 
ATOM     90  F   UNL     1      -9.264   9.339  10.963  1.00  0.00    -0.200 F 
ATOM     91  C   UNL     1      -9.508   7.798  12.735  1.00  0.00     0.200 A 
ATOM     92  F   UNL     1      -9.711   6.231  14.489  1.00  0.00    -0.200 F 
ATOM     93  F   UNL     1     -10.374   8.617  13.347  1.00  0.00    -0.200 F 
ENDBRANCH  60  83
ENDBRANCH  34  35
ENDBRANCH  27  29
ENDBRANCH  26  27
ENDBRANCH  25  26
ENDBRANCH   1  25
TORSDOF 13
