REMARK SMILES CCOC(=O)c1cccc(Nc2c(-c3ccc(C(=O)OCCOC(=O)c4ccc(-c5c6nc(c(-c7c(F)c(F)c(F)c(F)c7F)c7ccc([nH]7)c(-c7c(F)c(F)c(F)c(F)c7F)c7nc(c(-c8c(F)c(F)c(F)c(F)c8F)c8ccc5[nH]8)C=C7)C=C6)cc4)cc3)nc3cnccn23)c1
REMARK SMILES IDX 18 1 19 2 17 3 14 4 15 5 90 6 16 7 89 8 13 9 12 10 97 11
REMARK SMILES IDX 91 12 92 13 96 14 93 15 95 16 94 17 11 18 10 20 6 21 7 22
REMARK SMILES IDX 98 23 8 24 9 25 4 26 5 27 3 28 2 29 1 30 20 31 21 32 22 33
REMARK SMILES IDX 23 34 24 35 25 36 26 37 27 38 88 39 28 40 87 41 29 42 30 43
REMARK SMILES IDX 31 44 81 45 32 46 86 47 80 48 82 49 33 50 85 51 79 52 78 53
REMARK SMILES IDX 34 55 66 56 46 57 65 58 47 59 50 60 64 61 83 62 48 63 49 64
REMARK SMILES IDX 63 66 84 67 51 68 35 69 36 70 44 71 37 72 38 73 42 74 45 75
REMARK SMILES IDX 39 76 40 77 43 78 41 79 67 80 68 81 76 82 69 83 70 84 74 85
REMARK SMILES IDX 77 86 71 87 72 88 75 89 73 90 52 91 53 92 61 93 54 94 55 95
REMARK SMILES IDX 59 96 62 97 56 98 57 99 60 100 58 101
REMARK H PARENT 11 19 82 54 50 65
REMARK Flexibility Score: inf
ROOT
ATOM      1  C   UNL     1       4.115  -5.803 -10.540  1.00  0.00     0.338 C 
ATOM      2  O   UNL     1       5.252  -5.391 -10.712  1.00  0.00    -0.246 OA
ENDROOT
BRANCH   1   3
ATOM      3  C   UNL     1       3.699  -6.457  -9.277  1.00  0.00     0.060 A 
ATOM      4  C   UNL     1       3.140  -7.723  -6.832  1.00  0.00     0.004 A 
ATOM      5  C   UNL     1       3.980  -6.610  -6.869  1.00  0.00     0.011 A 
ATOM      6  C   UNL     1       2.577  -8.200  -8.025  1.00  0.00     0.011 A 
ATOM      7  C   UNL     1       4.279  -6.006  -8.085  1.00  0.00     0.016 A 
ATOM      8  C   UNL     1       2.836  -7.555  -9.246  1.00  0.00     0.016 A 
BRANCH   4   9
ATOM      9  C   UNL     1       2.972  -8.437  -5.581  1.00  0.00     0.114 A 
ATOM     10  C   UNL     1       2.665  -7.864  -4.348  1.00  0.00     0.143 A 
ATOM     11  N   UNL     1       2.730  -8.923  -3.463  1.00  0.00    -0.283 N 
ATOM     12  N   UNL     1       3.278  -9.774  -5.465  1.00  0.00    -0.225 NA
ATOM     13  C   UNL     1       3.158 -10.013  -4.180  1.00  0.00     0.157 A 
ATOM     14  C   UNL     1       2.456  -9.062  -2.111  1.00  0.00     0.115 A 
ATOM     15  C   UNL     1       3.402 -11.243  -3.481  1.00  0.00     0.158 A 
ATOM     16  C   UNL     1       2.682 -10.254  -1.531  1.00  0.00     0.129 A 
ATOM     17  N   UNL     1       3.179 -11.363  -2.198  1.00  0.00    -0.259 NA
BRANCH  10  18
ATOM     18  N   UNL     1       2.306  -6.595  -4.009  1.00  0.00    -0.339 N 
ATOM     19  H   UNL     1       1.547  -6.210  -4.505  1.00  0.00     0.168 HD
BRANCH  18  20
ATOM     20  C   UNL     1       2.897  -5.764  -3.027  1.00  0.00     0.040 A 
ATOM     21  C   UNL     1       2.840  -3.674  -1.782  1.00  0.00     0.062 A 
ATOM     22  C   UNL     1       4.008  -4.014  -1.102  1.00  0.00     0.016 A 
ATOM     23  C   UNL     1       2.279  -4.542  -2.728  1.00  0.00     0.041 A 
ATOM     24  C   UNL     1       4.606  -5.244  -1.358  1.00  0.00     0.003 A 
ATOM     25  C   UNL     1       4.056  -6.107  -2.314  1.00  0.00     0.026 A 
BRANCH  21  26
ATOM     26  C   UNL     1       2.252  -2.344  -1.567  1.00  0.00     0.338 C 
ATOM     27  O   UNL     1       2.871  -1.312  -1.742  1.00  0.00    -0.246 OA
BRANCH  26  28
ATOM     28  O   UNL     1       0.971  -2.491  -1.154  1.00  0.00    -0.462 OA
BRANCH  28  29
ATOM     29  C   UNL     1       0.228  -1.274  -0.990  1.00  0.00     0.230 C 
ATOM     30  C   UNL     1       0.639  -0.509   0.257  1.00  0.00     0.049 C 
ENDBRANCH  28  29
ENDBRANCH  26  28
ENDBRANCH  21  26
ENDBRANCH  18  20
ENDBRANCH  10  18
ENDBRANCH   4   9
ENDBRANCH   1   3
BRANCH   1  31
ATOM     31  O   UNL     1       3.073  -5.667 -11.395  1.00  0.00    -0.458 OA
BRANCH  31  32
ATOM     32  C   UNL     1       3.375  -4.987 -12.632  1.00  0.00     0.275 C 
BRANCH  32  33
ATOM     33  C   UNL     1       2.970  -3.512 -12.592  1.00  0.00     0.275 C 
BRANCH  33  34
ATOM     34  O   UNL     1       3.800  -2.771 -11.676  1.00  0.00    -0.458 OA
BRANCH  34  35
ATOM     35  C   UNL     1       3.176  -2.330 -10.562  1.00  0.00     0.338 C 
ATOM     36  O   UNL     1       2.002  -2.470 -10.262  1.00  0.00    -0.246 OA
BRANCH  35  37
ATOM     37  C   UNL     1       4.127  -1.674  -9.651  1.00  0.00     0.060 A 
ATOM     38  C   UNL     1       4.954  -2.481  -8.882  1.00  0.00     0.016 A 
ATOM     39  C   UNL     1       4.025  -0.316  -9.367  1.00  0.00     0.016 A 
ATOM     40  C   UNL     1       5.546  -1.981  -7.724  1.00  0.00     0.010 A 
ATOM     41  C   UNL     1       4.732   0.216  -8.278  1.00  0.00     0.010 A 
ATOM     42  C   UNL     1       5.441  -0.621  -7.394  1.00  0.00    -0.014 A 
BRANCH  42  43
ATOM     43  C   UNL     1       5.989  -0.106  -6.097  1.00  0.00     0.031 A 
ATOM     44  C   UNL     1       5.100   0.661  -5.142  1.00  0.00     0.074 A 
ATOM     45  C   UNL     1       7.269  -0.339  -5.740  1.00  0.00     0.049 A 
ATOM     46  N   UNL     1       5.420   1.348  -4.072  1.00  0.00    -0.248 NA
ATOM     47  C   UNL     1       3.663   0.688  -5.456  1.00  0.00     0.031 C 
ATOM     48  C   UNL     1       8.255  -1.073  -6.535  1.00  0.00     0.029 A 
ATOM     49  N   UNL     1       7.962   0.012  -4.604  1.00  0.00    -0.354 N 
ATOM     50  C   UNL     1       4.239   1.939  -3.629  1.00  0.00     0.074 A 
ATOM     51  C   UNL     1       3.205   1.557  -4.567  1.00  0.00     0.031 C 
ATOM     52  C   UNL     1       9.403  -1.159  -5.848  1.00  0.00     0.029 A 
ATOM     53  C   UNL     1       9.269  -0.412  -4.602  1.00  0.00     0.049 A 
ATOM     54  H   UNL     1       7.559   0.519  -3.863  1.00  0.00     0.167 HD
ATOM     55  C   UNL     1       4.028   2.710  -2.532  1.00  0.00     0.037 A 
ATOM     56  C   UNL     1      10.265  -0.198  -3.721  1.00  0.00     0.037 A 
ATOM     57  C   UNL     1       5.023   2.977  -1.524  1.00  0.00     0.049 A 
ATOM     58  C   UNL     1      10.003   0.636  -2.498  1.00  0.00     0.074 A 
ATOM     59  C   UNL     1       4.886   3.680  -0.339  1.00  0.00     0.029 A 
ATOM     60  N   UNL     1       6.328   2.510  -1.560  1.00  0.00    -0.354 N 
ATOM     61  N   UNL     1       8.895   1.220  -2.116  1.00  0.00    -0.248 NA
ATOM     62  C   UNL     1      11.137   0.848  -1.587  1.00  0.00     0.031 C 
ATOM     63  C   UNL     1       6.117   3.665   0.328  1.00  0.00     0.029 A 
ATOM     64  C   UNL     1       7.010   2.920  -0.424  1.00  0.00     0.049 A 
ATOM     65  H   UNL     1       6.714   1.966  -2.285  1.00  0.00     0.167 HD
ATOM     66  C   UNL     1       9.189   1.849  -0.915  1.00  0.00     0.074 A 
ATOM     67  C   UNL     1      10.577   1.559  -0.620  1.00  0.00     0.031 C 
ATOM     68  C   UNL     1       8.384   2.606  -0.131  1.00  0.00     0.037 A 
BRANCH  55  69
ATOM     69  C   UNL     1       2.658   3.306  -2.337  1.00  0.00     0.064 A 
ATOM     70  C   UNL     1       1.548   2.511  -2.028  1.00  0.00     0.173 A 
ATOM     71  C   UNL     1       2.459   4.693  -2.399  1.00  0.00     0.173 A 
ATOM     72  F   UNL     1       1.674   1.182  -1.977  1.00  0.00    -0.203 F 
ATOM     73  C   UNL     1       0.289   3.066  -1.814  1.00  0.00     0.198 A 
ATOM     74  C   UNL     1       1.205   5.253  -2.156  1.00  0.00     0.198 A 
ATOM     75  F   UNL     1       3.484   5.512  -2.680  1.00  0.00    -0.203 F 
ATOM     76  F   UNL     1      -0.759   2.268  -1.565  1.00  0.00    -0.200 F 
ATOM     77  C   UNL     1       0.120   4.439  -1.870  1.00  0.00     0.200 A 
ATOM     78  F   UNL     1       1.047   6.583  -2.196  1.00  0.00    -0.200 F 
ATOM     79  F   UNL     1      -1.089   4.976  -1.653  1.00  0.00    -0.200 F 
ENDBRANCH  55  69
BRANCH  56  80
ATOM     80  C   UNL     1      11.616  -0.762  -3.979  1.00  0.00     0.064 A 
ATOM     81  C   UNL     1      12.142  -1.780  -3.172  1.00  0.00     0.173 A 
ATOM     82  C   UNL     1      12.409  -0.293  -5.037  1.00  0.00     0.173 A 
ATOM     83  F   UNL     1      11.434  -2.243  -2.131  1.00  0.00    -0.203 F 
ATOM     84  C   UNL     1      13.415  -2.297  -3.405  1.00  0.00     0.198 A 
ATOM     85  C   UNL     1      13.667  -0.835  -5.290  1.00  0.00     0.198 A 
ATOM     86  F   UNL     1      11.953   0.680  -5.839  1.00  0.00    -0.203 F 
ATOM     87  F   UNL     1      13.913  -3.237  -2.590  1.00  0.00    -0.200 F 
ATOM     88  C   UNL     1      14.173  -1.831  -4.469  1.00  0.00     0.200 A 
ATOM     89  F   UNL     1      14.389  -0.391  -6.328  1.00  0.00    -0.200 F 
ATOM     90  F   UNL     1      15.393  -2.335  -4.697  1.00  0.00    -0.200 F 
ENDBRANCH  56  80
BRANCH  68  91
ATOM     91  C   UNL     1       8.972   3.129   1.146  1.00  0.00     0.064 A 
ATOM     92  C   UNL     1       9.915   4.167   1.151  1.00  0.00     0.173 A 
ATOM     93  C   UNL     1       8.581   2.590   2.381  1.00  0.00     0.173 A 
ATOM     94  F   UNL     1      10.335   4.703  -0.005  1.00  0.00    -0.203 F 
ATOM     95  C   UNL     1      10.470   4.624   2.343  1.00  0.00     0.198 A 
ATOM     96  C   UNL     1       9.117   3.068   3.573  1.00  0.00     0.198 A 
ATOM     97  F   UNL     1       7.679   1.598   2.431  1.00  0.00    -0.203 F 
ATOM     98  F   UNL     1      11.410   5.579   2.321  1.00  0.00    -0.200 F 
ATOM     99  C   UNL     1      10.067   4.078   3.553  1.00  0.00     0.200 A 
ATOM    100  F   UNL     1       8.721   2.546   4.742  1.00  0.00    -0.200 F 
ATOM    101  F   UNL     1      10.604   4.517   4.700  1.00  0.00    -0.200 F 
ENDBRANCH  68  91
ENDBRANCH  42  43
ENDBRANCH  35  37
ENDBRANCH  34  35
ENDBRANCH  33  34
ENDBRANCH  32  33
ENDBRANCH  31  32
ENDBRANCH   1  31
TORSDOF 17
