REMARK SMILES CC1(C)[C@H](C(=O)OCCOC(=O)c2ccc(-c3c4nc(c(-c5c(F)c(F)c(F)c(F)c5F)c5ccc([nH]5)c(-c5c(F)c(F)c(F)c(F)c5F)c5nc(c(-c6c(F)c(F)c(F)c(F)c6F)c6ccc3[nH]6)C=C5)C=C4)cc2)[C@@H]1C(=O)Nc1ccc(Cl)c(Br)c1
REMARK SMILES IDX 8 1 7 2 5 3 6 4 4 5 1 6 2 7 3 8 76 9 77 10 78 11 79 12 80 14
REMARK SMILES IDX 81 15 87 16 82 17 85 18 83 19 86 20 84 21 9 22 10 23 11 24
REMARK SMILES IDX 12 25 13 26 14 27 75 28 15 29 74 30 16 31 17 32 18 33 68 34
REMARK SMILES IDX 19 35 73 36 67 37 69 38 20 39 72 40 66 41 65 42 21 44 53 45
REMARK SMILES IDX 33 46 52 47 34 48 37 49 51 50 70 51 35 52 36 53 50 55 71 56
REMARK SMILES IDX 38 57 22 58 23 59 31 60 24 61 25 62 29 63 32 64 26 65 27 66
REMARK SMILES IDX 30 67 28 68 54 69 55 70 63 71 56 72 57 73 61 74 64 75 58 76
REMARK SMILES IDX 59 77 62 78 60 79 39 80 40 81 48 82 41 83 42 84 46 85 49 86
REMARK SMILES IDX 43 87 44 88 47 89 45 90
REMARK H PARENT 79 13 69 43 37 54
REMARK Flexibility Score: inf
ROOT
ATOM      1  C   UNL     1      -1.583   3.135  -2.620  1.00  0.00     0.274 C 
ENDROOT
BRANCH   1   2
ATOM      2  O   UNL     1      -1.021   2.284  -1.602  1.00  0.00    -0.462 OA
BRANCH   2   3
ATOM      3  C   UNL     1      -1.642   1.085  -1.467  1.00  0.00     0.310 C 
ATOM      4  O   UNL     1      -2.581   0.716  -2.151  1.00  0.00    -0.252 OA
BRANCH   3   5
ATOM      5  C   UNL     1      -1.067   0.151  -0.467  1.00  0.00     0.118 C 
ATOM      6  C   UNL     1       1.081  -0.876   0.420  1.00  0.00     0.013 C 
ATOM      7  C   UNL     1       0.179   0.339   0.363  1.00  0.00    -0.009 C 
ATOM      8  C   UNL     1       0.953   1.633   0.332  1.00  0.00     0.013 C 
ATOM      9  C   UNL     1      -1.210   0.275   1.029  1.00  0.00     0.100 C 
BRANCH   9  10
ATOM     10  C   UNL     1      -1.783   1.446   1.736  1.00  0.00     0.228 C 
ATOM     11  O   UNL     1      -1.136   1.973   2.637  1.00  0.00    -0.274 OA
ATOM     12  N   UNL     1      -3.004   1.971   1.389  1.00  0.00    -0.326 N 
ATOM     13  H   UNL     1      -3.217   2.826   1.828  1.00  0.00     0.169 HD
BRANCH  12  14
ATOM     14  C   UNL     1      -4.001   1.505   0.519  1.00  0.00     0.042 A 
ATOM     15  C   UNL     1      -4.746   2.477  -0.157  1.00  0.00     0.028 A 
ATOM     16  C   UNL     1      -4.238   0.154   0.257  1.00  0.00     0.043 A 
ATOM     17  C   UNL     1      -5.619   2.108  -1.183  1.00  0.00     0.024 A 
ATOM     18  C   UNL     1      -5.121  -0.220  -0.769  1.00  0.00     0.038 A 
ATOM     19  C   UNL     1      -5.791   0.761  -1.509  1.00  0.00     0.055 A 
ATOM     20  Br  UNL     1      -5.286  -2.076  -1.148  1.00  0.00    -0.049 Br
ATOM     21  Cl  UNL     1      -6.817   0.390  -2.849  1.00  0.00    -0.083 Cl
ENDBRANCH  12  14
ENDBRANCH   9  10
ENDBRANCH   3   5
ENDBRANCH   2   3
ENDBRANCH   1   2
BRANCH   1  22
ATOM     22  C   UNL     1      -0.971   2.907  -4.011  1.00  0.00     0.275 C 
BRANCH  22  23
ATOM     23  O   UNL     1      -1.331   1.635  -4.588  1.00  0.00    -0.458 OA
BRANCH  23  24
ATOM     24  C   UNL     1      -0.477   0.622  -4.309  1.00  0.00     0.338 C 
ATOM     25  O   UNL     1       0.562   0.692  -3.671  1.00  0.00    -0.246 OA
BRANCH  24  26
ATOM     26  C   UNL     1      -1.035  -0.669  -4.750  1.00  0.00     0.060 A 
ATOM     27  C   UNL     1      -1.186  -1.669  -3.783  1.00  0.00     0.016 A 
ATOM     28  C   UNL     1      -1.287  -0.949  -6.092  1.00  0.00     0.016 A 
ATOM     29  C   UNL     1      -1.579  -2.952  -4.137  1.00  0.00     0.010 A 
ATOM     30  C   UNL     1      -1.657  -2.249  -6.457  1.00  0.00     0.010 A 
ATOM     31  C   UNL     1      -1.781  -3.258  -5.484  1.00  0.00    -0.014 A 
BRANCH  31  32
ATOM     32  C   UNL     1      -1.967  -4.671  -5.880  1.00  0.00     0.031 A 
ATOM     33  C   UNL     1      -0.798  -5.418  -6.451  1.00  0.00     0.074 A 
ATOM     34  C   UNL     1      -3.144  -5.289  -5.686  1.00  0.00     0.049 A 
ATOM     35  N   UNL     1      -0.758  -6.598  -7.013  1.00  0.00    -0.248 NA
ATOM     36  C   UNL     1       0.507  -4.741  -6.375  1.00  0.00     0.031 C 
ATOM     37  C   UNL     1      -4.312  -4.698  -5.037  1.00  0.00     0.029 A 
ATOM     38  N   UNL     1      -3.550  -6.554  -6.028  1.00  0.00    -0.354 N 
ATOM     39  C   UNL     1       0.564  -6.789  -7.390  1.00  0.00     0.074 A 
ATOM     40  C   UNL     1       1.298  -5.608  -6.990  1.00  0.00     0.031 C 
ATOM     41  C   UNL     1      -5.314  -5.593  -5.047  1.00  0.00     0.029 A 
ATOM     42  C   UNL     1      -4.873  -6.793  -5.754  1.00  0.00     0.049 A 
ATOM     43  H   UNL     1      -2.951  -7.224  -6.431  1.00  0.00     0.167 HD
ATOM     44  C   UNL     1       1.109  -7.855  -8.022  1.00  0.00     0.037 A 
ATOM     45  C   UNL     1      -5.648  -7.844  -6.084  1.00  0.00     0.037 A 
ATOM     46  C   UNL     1       0.368  -9.029  -8.397  1.00  0.00     0.049 A 
ATOM     47  C   UNL     1      -5.041  -8.983  -6.862  1.00  0.00     0.074 A 
ATOM     48  C   UNL     1       0.812 -10.159  -9.060  1.00  0.00     0.029 A 
ATOM     49  N   UNL     1      -0.981  -9.224  -8.132  1.00  0.00    -0.354 N 
ATOM     50  N   UNL     1      -3.805  -9.140  -7.271  1.00  0.00    -0.248 NA
ATOM     51  C   UNL     1      -5.939 -10.085  -7.235  1.00  0.00     0.031 C 
ATOM     52  C   UNL     1      -0.276 -11.021  -9.230  1.00  0.00     0.029 A 
ATOM     53  C   UNL     1      -1.388 -10.449  -8.630  1.00  0.00     0.049 A 
ATOM     54  H   UNL     1      -1.562  -8.584  -7.659  1.00  0.00     0.167 HD
ATOM     55  C   UNL     1      -3.768 -10.365  -7.922  1.00  0.00     0.074 A 
ATOM     56  C   UNL     1      -5.107 -10.915  -7.850  1.00  0.00     0.031 C 
ATOM     57  C   UNL     1      -2.722 -10.982  -8.524  1.00  0.00     0.037 A 
BRANCH  44  58
ATOM     58  C   UNL     1       2.559  -7.773  -8.394  1.00  0.00     0.064 A 
ATOM     59  C   UNL     1       3.578  -7.872  -7.436  1.00  0.00     0.173 A 
ATOM     60  C   UNL     1       2.933  -7.611  -9.737  1.00  0.00     0.173 A 
ATOM     61  F   UNL     1       3.273  -8.008  -6.137  1.00  0.00    -0.203 F 
ATOM     62  C   UNL     1       4.918  -7.789  -7.807  1.00  0.00     0.198 A 
ATOM     63  C   UNL     1       4.273  -7.555 -10.107  1.00  0.00     0.198 A 
ATOM     64  F   UNL     1       1.996  -7.511 -10.692  1.00  0.00    -0.203 F 
ATOM     65  F   UNL     1       5.876  -7.841  -6.870  1.00  0.00    -0.200 F 
ATOM     66  C   UNL     1       5.265  -7.637  -9.141  1.00  0.00     0.200 A 
ATOM     67  F   UNL     1       4.606  -7.417 -11.398  1.00  0.00    -0.200 F 
ATOM     68  F   UNL     1       6.555  -7.562  -9.496  1.00  0.00    -0.200 F 
ENDBRANCH  44  58
BRANCH  45  69
ATOM     69  C   UNL     1      -7.089  -7.845  -5.723  1.00  0.00     0.064 A 
ATOM     70  C   UNL     1      -7.597  -8.742  -4.774  1.00  0.00     0.173 A 
ATOM     71  C   UNL     1      -7.988  -6.951  -6.324  1.00  0.00     0.173 A 
ATOM     72  F   UNL     1      -6.783  -9.635  -4.194  1.00  0.00    -0.203 F 
ATOM     73  C   UNL     1      -8.952  -8.752  -4.448  1.00  0.00     0.198 A 
ATOM     74  C   UNL     1      -9.337  -6.943  -5.976  1.00  0.00     0.198 A 
ATOM     75  F   UNL     1      -7.554  -6.077  -7.244  1.00  0.00    -0.203 F 
ATOM     76  F   UNL     1      -9.421  -9.648  -3.569  1.00  0.00    -0.200 F 
ATOM     77  C   UNL     1      -9.819  -7.848  -5.043  1.00  0.00     0.200 A 
ATOM     78  F   UNL     1     -10.169  -6.062  -6.548  1.00  0.00    -0.200 F 
ATOM     79  F   UNL     1     -11.121  -7.855  -4.726  1.00  0.00    -0.200 F 
ENDBRANCH  45  69
BRANCH  57  80
ATOM     80  C   UNL     1      -2.965 -12.344  -9.103  1.00  0.00     0.064 A 
ATOM     81  C   UNL     1      -3.668 -12.520 -10.302  1.00  0.00     0.173 A 
ATOM     82  C   UNL     1      -2.430 -13.480  -8.477  1.00  0.00     0.173 A 
ATOM     83  F   UNL     1      -4.210 -11.464 -10.929  1.00  0.00    -0.203 F 
ATOM     84  C   UNL     1      -3.841 -13.789 -10.848  1.00  0.00     0.198 A 
ATOM     85  C   UNL     1      -2.583 -14.744  -9.039  1.00  0.00     0.198 A 
ATOM     86  F   UNL     1      -1.743 -13.361  -7.331  1.00  0.00    -0.203 F 
ATOM     87  F   UNL     1      -4.545 -13.940 -11.978  1.00  0.00    -0.200 F 
ATOM     88  C   UNL     1      -3.291 -14.898 -10.221  1.00  0.00     0.200 A 
ATOM     89  F   UNL     1      -2.040 -15.812  -8.439  1.00  0.00    -0.200 F 
ATOM     90  F   UNL     1      -3.448 -16.117 -10.755  1.00  0.00    -0.200 F 
ENDBRANCH  57  80
ENDBRANCH  31  32
ENDBRANCH  24  26
ENDBRANCH  23  24
ENDBRANCH  22  23
ENDBRANCH   1  22
TORSDOF 13
