REMARK SMILES Cc1noc(C[N@@H+]2CCC[C@H]2C(=O)OCCOC(=O)c2ccc(-c3c4nc(c(-c5c(F)c(F)c(F)c(F)c5F)c5ccc([nH]5)c(-c5c(F)c(F)c(F)c(F)c5F)c5nc(c(-c6c(F)c(F)c(F)c(F)c6F)c6ccc3[nH]6)C=C5)C=C4)cc2)n1
REMARK SMILES IDX 15 1 14 2 12 3 13 4 11 5 7 6 8 7 9 9 10 10 6 11 5 12 1 13
REMARK SMILES IDX 2 14 3 15 83 16 4 17 16 18 17 19 18 20 19 21 20 22 21 23
REMARK SMILES IDX 82 24 22 25 81 26 23 27 24 28 25 29 75 30 26 31 80 32 74 33
REMARK SMILES IDX 76 34 27 35 79 36 73 37 72 38 28 40 60 41 40 42 59 43 41 44
REMARK SMILES IDX 44 45 58 46 77 47 42 48 43 49 57 51 78 52 45 53 29 54 30 55
REMARK SMILES IDX 38 56 31 57 32 58 36 59 39 60 33 61 34 62 37 63 35 64 61 65
REMARK SMILES IDX 62 66 70 67 63 68 64 69 68 70 71 71 65 72 66 73 69 74 67 75
REMARK SMILES IDX 46 76 47 77 55 78 48 79 49 80 53 81 56 82 50 83 51 84 54 85
REMARK SMILES IDX 52 86
REMARK H PARENT 7 8 76 39 44 50
REMARK Flexibility Score: inf
ROOT
ATOM      1  C   UNL     1       5.091   1.641  -4.793  1.00  0.00     0.274 C 
ENDROOT
BRANCH   1   2
ATOM      2  O   UNL     1       4.199   1.083  -3.806  1.00  0.00    -0.458 OA
BRANCH   2   3
ATOM      3  C   UNL     1       3.580   1.982  -2.982  1.00  0.00     0.365 C 
ATOM      4  O   UNL     1       3.706   3.198  -3.063  1.00  0.00    -0.245 OA
BRANCH   3   5
ATOM      5  C   UNL     1       2.666   1.239  -1.982  1.00  0.00     0.295 C 
ATOM      6  N   UNL     1       2.457   2.070  -0.771  1.00  0.00    -0.315 N 
ATOM      7  C   UNL     1       1.276   2.898  -1.044  1.00  0.00     0.263 C 
ATOM      8  H   UNL     1       3.275   2.654  -0.597  1.00  0.00     0.349 HD
ATOM      9  C   UNL     1       0.383   2.084  -1.967  1.00  0.00     0.068 C 
ATOM     10  C   UNL     1       1.283   1.025  -2.593  1.00  0.00     0.083 C 
BRANCH   6  11
ATOM     11  C   UNL     1       2.359   1.292   0.484  1.00  0.00     0.364 C 
BRANCH  11  12
ATOM     12  C   UNL     1       1.169   0.402   0.626  1.00  0.00     0.281 A 
ATOM     13  C   UNL     1      -2.204  -0.542   0.660  1.00  0.00     0.093 C 
ATOM     14  C   UNL     1      -0.732  -0.459   0.661  1.00  0.00     0.169 A 
ATOM     15  N   UNL     1       0.055  -1.480   0.300  1.00  0.00    -0.063 NA
ATOM     16  N   UNL     1      -0.076   0.716   0.912  1.00  0.00    -0.191 NA
ATOM     17  O   UNL     1       1.331  -0.909   0.283  1.00  0.00    -0.333 OA
ENDBRANCH  11  12
ENDBRANCH   6  11
ENDBRANCH   3   5
ENDBRANCH   2   3
ENDBRANCH   1   2
BRANCH   1  18
ATOM     18  C   UNL     1       4.430   1.646  -6.168  1.00  0.00     0.275 C 
BRANCH  18  19
ATOM     19  O   UNL     1       3.289   2.519  -6.137  1.00  0.00    -0.458 OA
BRANCH  19  20
ATOM     20  C   UNL     1       2.142   2.013  -6.641  1.00  0.00     0.338 C 
ATOM     21  O   UNL     1       1.978   0.930  -7.174  1.00  0.00    -0.246 OA
BRANCH  20  22
ATOM     22  C   UNL     1       1.050   2.986  -6.451  1.00  0.00     0.060 A 
ATOM     23  C   UNL     1       0.847   3.587  -5.210  1.00  0.00     0.016 A 
ATOM     24  C   UNL     1       0.151   3.217  -7.492  1.00  0.00     0.016 A 
ATOM     25  C   UNL     1      -0.306   4.338  -4.979  1.00  0.00     0.010 A 
ATOM     26  C   UNL     1      -0.952   4.052  -7.285  1.00  0.00     0.010 A 
ATOM     27  C   UNL     1      -1.216   4.591  -6.014  1.00  0.00    -0.014 A 
BRANCH  27  28
ATOM     28  C   UNL     1      -2.459   5.376  -5.767  1.00  0.00     0.031 A 
ATOM     29  C   UNL     1      -3.804   4.773  -6.076  1.00  0.00     0.074 A 
ATOM     30  C   UNL     1      -2.400   6.625  -5.264  1.00  0.00     0.049 A 
ATOM     31  N   UNL     1      -4.973   5.355  -6.176  1.00  0.00    -0.248 NA
ATOM     32  C   UNL     1      -3.837   3.321  -6.317  1.00  0.00     0.031 C 
ATOM     33  C   UNL     1      -1.180   7.319  -4.851  1.00  0.00     0.029 A 
ATOM     34  N   UNL     1      -3.398   7.535  -5.013  1.00  0.00    -0.354 N 
ATOM     35  C   UNL     1      -5.862   4.360  -6.562  1.00  0.00     0.074 A 
ATOM     36  C   UNL     1      -5.104   3.131  -6.662  1.00  0.00     0.031 C 
ATOM     37  C   UNL     1      -1.502   8.527  -4.365  1.00  0.00     0.029 A 
ATOM     38  C   UNL     1      -2.937   8.735  -4.528  1.00  0.00     0.049 A 
ATOM     39  H   UNL     1      -4.352   7.346  -5.166  1.00  0.00     0.167 HD
ATOM     40  C   UNL     1      -7.187   4.468  -6.820  1.00  0.00     0.037 A 
ATOM     41  C   UNL     1      -3.581   9.894  -4.293  1.00  0.00     0.037 A 
ATOM     42  C   UNL     1      -7.952   5.676  -6.652  1.00  0.00     0.049 A 
ATOM     43  C   UNL     1      -5.046   9.998  -4.608  1.00  0.00     0.074 A 
ATOM     44  C   UNL     1      -9.301   5.886  -6.883  1.00  0.00     0.029 A 
ATOM     45  N   UNL     1      -7.436   6.875  -6.184  1.00  0.00    -0.354 N 
ATOM     46  N   UNL     1      -5.859   9.080  -5.069  1.00  0.00    -0.248 NA
ATOM     47  C   UNL     1      -5.675  11.310  -4.400  1.00  0.00     0.031 C 
ATOM     48  C   UNL     1      -9.596   7.219  -6.577  1.00  0.00     0.029 A 
ATOM     49  C   UNL     1      -8.438   7.830  -6.124  1.00  0.00     0.049 A 
ATOM     50  H   UNL     1      -6.496   7.026  -5.932  1.00  0.00     0.167 HD
ATOM     51  C   UNL     1      -7.093   9.699  -5.206  1.00  0.00     0.074 A 
ATOM     52  C   UNL     1      -6.928  11.066  -4.757  1.00  0.00     0.031 C 
ATOM     53  C   UNL     1      -8.255   9.184  -5.672  1.00  0.00     0.037 A 
BRANCH  40  54
ATOM     54  C   UNL     1      -7.895   3.257  -7.351  1.00  0.00     0.064 A 
ATOM     55  C   UNL     1      -8.231   2.171  -6.532  1.00  0.00     0.173 A 
ATOM     56  C   UNL     1      -8.285   3.210  -8.700  1.00  0.00     0.173 A 
ATOM     57  F   UNL     1      -7.868   2.163  -5.241  1.00  0.00    -0.203 F 
ATOM     58  C   UNL     1      -8.916   1.073  -7.047  1.00  0.00     0.198 A 
ATOM     59  C   UNL     1      -8.990   2.121  -9.205  1.00  0.00     0.198 A 
ATOM     60  F   UNL     1      -7.991   4.226  -9.524  1.00  0.00    -0.203 F 
ATOM     61  F   UNL     1      -9.197   0.029  -6.254  1.00  0.00    -0.200 F 
ATOM     62  C   UNL     1      -9.301   1.052  -8.380  1.00  0.00     0.200 A 
ATOM     63  F   UNL     1      -9.369   2.108 -10.491  1.00  0.00    -0.200 F 
ATOM     64  F   UNL     1      -9.967  -0.003  -8.870  1.00  0.00    -0.200 F 
ENDBRANCH  40  54
BRANCH  41  65
ATOM     65  C   UNL     1      -2.823  11.066  -3.786  1.00  0.00     0.064 A 
ATOM     66  C   UNL     1      -3.020  11.541  -2.483  1.00  0.00     0.173 A 
ATOM     67  C   UNL     1      -1.877  11.724  -4.586  1.00  0.00     0.173 A 
ATOM     68  F   UNL     1      -3.935  10.964  -1.690  1.00  0.00    -0.203 F 
ATOM     69  C   UNL     1      -2.299  12.632  -2.000  1.00  0.00     0.198 A 
ATOM     70  C   UNL     1      -1.136  12.794  -4.093  1.00  0.00     0.198 A 
ATOM     71  F   UNL     1      -1.655  11.309  -5.842  1.00  0.00    -0.203 F 
ATOM     72  F   UNL     1      -2.529  13.089  -0.761  1.00  0.00    -0.200 F 
ATOM     73  C   UNL     1      -1.351  13.251  -2.801  1.00  0.00     0.200 A 
ATOM     74  F   UNL     1      -0.212  13.380  -4.867  1.00  0.00    -0.200 F 
ATOM     75  F   UNL     1      -0.649  14.291  -2.332  1.00  0.00    -0.200 F 
ENDBRANCH  41  65
BRANCH  53  76
ATOM     76  C   UNL     1      -9.443  10.096  -5.699  1.00  0.00     0.064 A 
ATOM     77  C   UNL     1      -9.581  11.083  -6.685  1.00  0.00     0.173 A 
ATOM     78  C   UNL     1     -10.468   9.957  -4.752  1.00  0.00     0.173 A 
ATOM     79  F   UNL     1      -8.618  11.262  -7.601  1.00  0.00    -0.203 F 
ATOM     80  C   UNL     1     -10.699  11.913  -6.711  1.00  0.00     0.198 A 
ATOM     81  C   UNL     1     -11.593  10.775  -4.793  1.00  0.00     0.198 A 
ATOM     82  F   UNL     1     -10.380   9.025  -3.792  1.00  0.00    -0.203 F 
ATOM     83  F   UNL     1     -10.796  12.874  -7.640  1.00  0.00    -0.200 F 
ATOM     84  C   UNL     1     -11.705  11.755  -5.769  1.00  0.00     0.200 A 
ATOM     85  F   UNL     1     -12.568  10.618  -3.887  1.00  0.00    -0.200 F 
ATOM     86  F   UNL     1     -12.781  12.553  -5.798  1.00  0.00    -0.200 F 
ENDBRANCH  53  76
ENDBRANCH  27  28
ENDBRANCH  20  22
ENDBRANCH  19  20
ENDBRANCH  18  19
ENDBRANCH   1  18
TORSDOF 13
