REMARK SMILES CC(C)(C)OC(=O)N1CCC[C@H]1C(=O)N1CCC[C@H]1C(=O)N1CCC[C@@H]1C(=O)OCCOC(=O)c1ccc(-c2c3nc(c(-c4c(F)c(F)c(F)c(F)c4F)c4ccc([nH]4)c(-c4c(F)c(F)c(F)c(F)c4F)c4nc(c(-c5c(F)c(F)c(F)c(F)c5F)c5ccc2[nH]5)C=C4)C=C3)cc1
REMARK SMILES IDX 27 1 28 2 26 3 22 4 23 5 24 6 25 7 20 8 21 9 19 10 15 11
REMARK SMILES IDX 16 12 17 13 18 14 13 15 14 16 12 17 8 18 9 19 10 20 11 21
REMARK SMILES IDX 6 22 7 23 5 24 2 25 1 26 3 27 4 28 29 29 30 30 31 31 32 32
REMARK SMILES IDX 33 33 34 34 35 35 36 36 97 37 37 38 96 39 38 40 39 41 40 42
REMARK SMILES IDX 90 43 41 44 95 45 89 46 91 47 42 48 94 49 88 50 87 51 43 53
REMARK SMILES IDX 75 54 55 55 74 56 56 57 59 58 73 59 92 60 57 61 58 62 72 64
REMARK SMILES IDX 93 65 60 66 44 67 45 68 53 69 46 70 47 71 51 72 54 73 48 74
REMARK SMILES IDX 49 75 52 76 50 77 76 78 77 79 85 80 78 81 79 82 83 83 86 84
REMARK SMILES IDX 80 85 81 86 84 87 82 88 61 89 62 90 70 91 63 92 64 93 68 94
REMARK SMILES IDX 71 95 65 96 66 97 69 98 67 99
REMARK H PARENT 91 52 59 63
REMARK Flexibility Score: inf
ROOT
ATOM      1  C   UNL     1       0.058   3.271   7.508  1.00  0.00     0.328 C 
ATOM      2  O   UNL     1       0.987   3.170   8.306  1.00  0.00    -0.250 OA
ENDROOT
BRANCH   1   3
ATOM      3  C   UNL     1      -1.397   3.547   7.950  1.00  0.00     0.195 C 
ATOM      4  N   UNL     1      -2.049   2.333   8.409  1.00  0.00    -0.327 N 
ATOM      5  C   UNL     1      -3.380   2.203   7.854  1.00  0.00     0.120 C 
ATOM      6  C   UNL     1      -3.329   3.014   6.574  1.00  0.00     0.024 C 
ATOM      7  C   UNL     1      -2.334   4.131   6.886  1.00  0.00     0.039 C 
BRANCH   4   8
ATOM      8  C   UNL     1      -1.512   1.578   9.423  1.00  0.00     0.246 C 
ATOM      9  O   UNL     1      -0.799   2.087  10.291  1.00  0.00    -0.272 OA
BRANCH   8  10
ATOM     10  C   UNL     1      -1.613   0.042   9.245  1.00  0.00     0.174 C 
ATOM     11  N   UNL     1      -0.497  -0.441   8.389  1.00  0.00    -0.329 N 
ATOM     12  C   UNL     1       0.615  -0.759   9.263  1.00  0.00     0.120 C 
ATOM     13  C   UNL     1      -0.061  -1.405  10.455  1.00  0.00     0.024 C 
ATOM     14  C   UNL     1      -1.391  -0.667  10.593  1.00  0.00     0.037 C 
BRANCH  11  15
ATOM     15  C   UNL     1      -0.627  -0.421   7.014  1.00  0.00     0.246 C 
ATOM     16  O   UNL     1      -1.590   0.200   6.543  1.00  0.00    -0.272 OA
BRANCH  15  17
ATOM     17  C   UNL     1       0.241  -1.261   6.007  1.00  0.00     0.178 C 
ATOM     18  N   UNL     1       0.877  -0.591   4.844  1.00  0.00    -0.296 N 
ATOM     19  C   UNL     1       2.238  -1.076   4.651  1.00  0.00     0.124 C 
ATOM     20  C   UNL     1       2.196  -2.454   5.285  1.00  0.00     0.024 C 
ATOM     21  C   UNL     1       1.362  -2.164   6.525  1.00  0.00     0.037 C 
BRANCH  18  22
ATOM     22  C   UNL     1       0.150  -0.021   3.814  1.00  0.00     0.410 C 
ATOM     23  O   UNL     1      -1.042   0.235   3.866  1.00  0.00    -0.224 OA
BRANCH  22  24
ATOM     24  O   UNL     1       0.928   0.189   2.720  1.00  0.00    -0.444 OA
BRANCH  24  25
ATOM     25  C   UNL     1       0.476   0.786   1.473  1.00  0.00     0.106 C 
ATOM     26  C   UNL     1       1.237   0.032   0.370  1.00  0.00     0.056 C 
ATOM     27  C   UNL     1       0.922   2.250   1.488  1.00  0.00     0.056 C 
ATOM     28  C   UNL     1      -1.023   0.678   1.177  1.00  0.00     0.056 C 
ENDBRANCH  24  25
ENDBRANCH  22  24
ENDBRANCH  18  22
ENDBRANCH  15  17
ENDBRANCH  11  15
ENDBRANCH   8  10
ENDBRANCH   4   8
ENDBRANCH   1   3
BRANCH   1  29
ATOM     29  O   UNL     1       0.207   3.102   6.168  1.00  0.00    -0.461 OA
BRANCH  29  30
ATOM     30  C   UNL     1       1.548   2.827   5.724  1.00  0.00     0.274 C 
BRANCH  30  31
ATOM     31  C   UNL     1       2.207   4.059   5.105  1.00  0.00     0.275 C 
BRANCH  31  32
ATOM     32  O   UNL     1       2.393   5.105   6.071  1.00  0.00    -0.458 OA
BRANCH  32  33
ATOM     33  C   UNL     1       1.354   5.965   6.186  1.00  0.00     0.338 C 
ATOM     34  O   UNL     1       0.328   5.996   5.531  1.00  0.00    -0.246 OA
BRANCH  33  35
ATOM     35  C   UNL     1       1.570   6.807   7.366  1.00  0.00     0.060 A 
ATOM     36  C   UNL     1       0.673   6.687   8.430  1.00  0.00     0.016 A 
ATOM     37  C   UNL     1       2.616   7.727   7.410  1.00  0.00     0.016 A 
ATOM     38  C   UNL     1       0.828   7.468   9.566  1.00  0.00     0.010 A 
ATOM     39  C   UNL     1       2.766   8.523   8.545  1.00  0.00     0.010 A 
ATOM     40  C   UNL     1       1.876   8.391   9.627  1.00  0.00    -0.014 A 
BRANCH  40  41
ATOM     41  C   UNL     1       2.031   9.249  10.816  1.00  0.00     0.031 A 
ATOM     42  C   UNL     1       1.627  10.687  10.741  1.00  0.00     0.074 A 
ATOM     43  C   UNL     1       2.550   8.728  11.941  1.00  0.00     0.049 A 
ATOM     44  N   UNL     1       1.842  11.652  11.595  1.00  0.00    -0.248 NA
ATOM     45  C   UNL     1       0.885  11.095   9.538  1.00  0.00     0.031 C 
ATOM     46  C   UNL     1       2.911   7.322  12.130  1.00  0.00     0.029 A 
ATOM     47  N   UNL     1       2.881   9.325  13.129  1.00  0.00    -0.354 N 
ATOM     48  C   UNL     1       1.286  12.787  11.024  1.00  0.00     0.074 A 
ATOM     49  C   UNL     1       0.728  12.394   9.747  1.00  0.00     0.031 C 
ATOM     50  C   UNL     1       3.435   7.168  13.356  1.00  0.00     0.029 A 
ATOM     51  C   UNL     1       3.498   8.472  14.010  1.00  0.00     0.049 A 
ATOM     52  H   UNL     1       2.696  10.270  13.330  1.00  0.00     0.167 HD
ATOM     53  C   UNL     1       1.254  14.042  11.528  1.00  0.00     0.037 A 
ATOM     54  C   UNL     1       4.092   8.731  15.189  1.00  0.00     0.037 A 
ATOM     55  C   UNL     1       1.807  14.405  12.807  1.00  0.00     0.049 A 
ATOM     56  C   UNL     1       4.117  10.149  15.689  1.00  0.00     0.074 A 
ATOM     57  C   UNL     1       1.810  15.639  13.430  1.00  0.00     0.029 A 
ATOM     58  N   UNL     1       2.460  13.523  13.658  1.00  0.00    -0.354 N 
ATOM     59  N   UNL     1       3.606  11.226  15.142  1.00  0.00    -0.248 NA
ATOM     60  C   UNL     1       4.815  10.391  16.957  1.00  0.00     0.031 C 
ATOM     61  C   UNL     1       2.505  15.515  14.638  1.00  0.00     0.029 A 
ATOM     62  C   UNL     1       2.899  14.194  14.787  1.00  0.00     0.049 A 
ATOM     63  H   UNL     1       2.592  12.563  13.485  1.00  0.00     0.167 HD
ATOM     64  C   UNL     1       3.914  12.273  15.999  1.00  0.00     0.074 A 
ATOM     65  C   UNL     1       4.638  11.696  17.115  1.00  0.00     0.031 C 
ATOM     66  C   UNL     1       3.630  13.592  15.874  1.00  0.00     0.037 A 
BRANCH  53  67
ATOM     67  C   UNL     1       0.641  15.115  10.680  1.00  0.00     0.064 A 
ATOM     68  C   UNL     1      -0.744  15.199  10.480  1.00  0.00     0.173 A 
ATOM     69  C   UNL     1       1.453  16.087  10.075  1.00  0.00     0.173 A 
ATOM     70  F   UNL     1      -1.562  14.284  11.021  1.00  0.00    -0.203 F 
ATOM     71  C   UNL     1      -1.293  16.206   9.689  1.00  0.00     0.198 A 
ATOM     72  C   UNL     1       0.899  17.105   9.305  1.00  0.00     0.198 A 
ATOM     73  F   UNL     1       2.785  16.049  10.235  1.00  0.00    -0.203 F 
ATOM     74  F   UNL     1      -2.616  16.245   9.477  1.00  0.00    -0.200 F 
ATOM     75  C   UNL     1      -0.472  17.161   9.108  1.00  0.00     0.200 A 
ATOM     76  F   UNL     1       1.694  18.032   8.751  1.00  0.00    -0.200 F 
ATOM     77  F   UNL     1      -1.002  18.132   8.351  1.00  0.00    -0.200 F 
ENDBRANCH  53  67
BRANCH  54  78
ATOM     78  C   UNL     1       4.751   7.633  15.941  1.00  0.00     0.064 A 
ATOM     79  C   UNL     1       4.225   7.171  17.154  1.00  0.00     0.173 A 
ATOM     80  C   UNL     1       5.915   7.017  15.456  1.00  0.00     0.173 A 
ATOM     81  F   UNL     1       3.130   7.747  17.671  1.00  0.00    -0.203 F 
ATOM     82  C   UNL     1       4.842   6.137  17.857  1.00  0.00     0.198 A 
ATOM     83  C   UNL     1       6.516   5.967  16.146  1.00  0.00     0.198 A 
ATOM     84  F   UNL     1       6.462   7.427  14.302  1.00  0.00    -0.203 F 
ATOM     85  F   UNL     1       4.340   5.738  19.033  1.00  0.00    -0.200 F 
ATOM     86  C   UNL     1       5.981   5.531  17.349  1.00  0.00     0.200 A 
ATOM     87  F   UNL     1       7.611   5.378  15.646  1.00  0.00    -0.200 F 
ATOM     88  F   UNL     1       6.569   4.533  18.022  1.00  0.00    -0.200 F 
ENDBRANCH  54  78
BRANCH  66  89
ATOM     89  C   UNL     1       4.105  14.494  16.973  1.00  0.00     0.064 A 
ATOM     90  C   UNL     1       5.458  14.843  17.093  1.00  0.00     0.173 A 
ATOM     91  C   UNL     1       3.196  15.044  17.888  1.00  0.00     0.173 A 
ATOM     92  F   UNL     1       6.366  14.326  16.252  1.00  0.00    -0.203 F 
ATOM     93  C   UNL     1       5.886  15.698  18.105  1.00  0.00     0.198 A 
ATOM     94  C   UNL     1       3.624  15.919  18.881  1.00  0.00     0.198 A 
ATOM     95  F   UNL     1       1.891  14.742  17.809  1.00  0.00    -0.203 F 
ATOM     96  F   UNL     1       7.189  15.987  18.228  1.00  0.00    -0.200 F 
ATOM     97  C   UNL     1       4.968  16.240  18.992  1.00  0.00     0.200 A 
ATOM     98  F   UNL     1       2.735  16.451  19.732  1.00  0.00    -0.200 F 
ATOM     99  F   UNL     1       5.382  17.069  19.961  1.00  0.00    -0.200 F 
ENDBRANCH  66  89
ENDBRANCH  40  41
ENDBRANCH  33  35
ENDBRANCH  32  33
ENDBRANCH  31  32
ENDBRANCH  30  31
ENDBRANCH  29  30
ENDBRANCH   1  29
TORSDOF 18
