REMARK SMILES COC(=O)c1c(NC(=O)/C=C/C(=O)OCCOC(=O)c2ccc(-c3c4nc(c(-c5c(F)c(F)c(F)c(F)c5F)c5ccc([nH]5)c(-c5c(F)c(F)c(F)c(F)c5F)c5nc(c(-c6c(F)c(F)c(F)c(F)c6F)c6ccc3[nH]6)C=C5)C=C4)cc2)sc(C)c1C
REMARK SMILES IDX 15 1 14 2 12 3 13 4 11 5 10 6 8 7 7 8 9 10 6 11 5 12 86 13
REMARK SMILES IDX 83 14 84 15 87 16 85 17 3 18 4 19 2 20 1 21 16 22 17 23
REMARK SMILES IDX 18 24 19 25 20 26 21 27 82 28 22 29 81 30 23 31 24 32 25 33
REMARK SMILES IDX 75 34 26 35 80 36 74 37 76 38 27 39 79 40 73 41 72 42 28 44
REMARK SMILES IDX 60 45 40 46 59 47 41 48 44 49 58 50 77 51 42 52 43 53 57 55
REMARK SMILES IDX 78 56 45 57 29 58 30 59 38 60 31 61 32 62 36 63 39 64 33 65
REMARK SMILES IDX 34 66 37 67 35 68 61 69 62 70 70 71 63 72 64 73 68 74 71 75
REMARK SMILES IDX 65 76 66 77 69 78 67 79 46 80 47 81 55 82 48 83 49 84 53 85
REMARK SMILES IDX 56 86 50 87 51 88 54 89 52 90
REMARK H PARENT 7 9 76 43 44 54
REMARK Flexibility Score: inf
ROOT
ATOM      1  C   UNL     1       3.615   1.705   0.568  1.00  0.00     0.275 C 
ENDROOT
BRANCH   1   2
ATOM      2  O   UNL     1       2.175   1.552   0.437  1.00  0.00    -0.459 OA
BRANCH   2   3
ATOM      3  C   UNL     1       1.434   2.629   0.818  1.00  0.00     0.331 C 
ATOM      4  O   UNL     1       1.855   3.613   1.408  1.00  0.00    -0.247 OA
BRANCH   3   5
ATOM      5  C   UNL     1       0.044   2.582   0.289  1.00  0.00     0.099 C 
ATOM      6  C   UNL     1      -0.654   1.454   0.092  1.00  0.00     0.079 C 
BRANCH   6   7
ATOM      7  C   UNL     1      -1.996   1.383  -0.549  1.00  0.00     0.249 C 
ATOM      8  N   UNL     1      -2.264   1.884  -1.795  1.00  0.00    -0.313 N 
ATOM      9  H   UNL     1      -3.208   1.829  -2.068  1.00  0.00     0.171 HD
ATOM     10  O   UNL     1      -2.894   0.815   0.074  1.00  0.00    -0.270 OA
BRANCH   8  11
ATOM     11  C   UNL     1      -1.426   2.453  -2.724  1.00  0.00     0.110 A 
ATOM     12  C   UNL     1      -0.068   2.466  -2.934  1.00  0.00     0.098 A 
ATOM     13  C   UNL     1       0.276   3.696  -3.608  1.00  0.00    -0.021 A 
ATOM     14  S   UNL     1      -2.224   3.301  -3.971  1.00  0.00    -0.122 S 
ATOM     15  C   UNL     1      -0.759   4.048  -4.462  1.00  0.00     0.007 A 
ATOM     16  C   UNL     1       1.576   4.422  -3.495  1.00  0.00     0.046 C 
ATOM     17  C   UNL     1      -0.713   4.968  -5.639  1.00  0.00     0.057 C 
BRANCH  12  18
ATOM     18  C   UNL     1       0.855   1.468  -2.439  1.00  0.00     0.341 C 
ATOM     19  O   UNL     1       2.006   1.739  -2.153  1.00  0.00    -0.246 OA
BRANCH  18  20
ATOM     20  O   UNL     1       0.320   0.213  -2.392  1.00  0.00    -0.465 OA
ATOM     21  C   UNL     1       1.189  -0.807  -1.892  1.00  0.00     0.282 C 
ENDBRANCH  18  20
ENDBRANCH  12  18
ENDBRANCH   8  11
ENDBRANCH   6   7
ENDBRANCH   3   5
ENDBRANCH   2   3
ENDBRANCH   1   2
BRANCH   1  22
ATOM     22  C   UNL     1       4.394   0.836  -0.448  1.00  0.00     0.275 C 
BRANCH  22  23
ATOM     23  O   UNL     1       4.600   1.532  -1.706  1.00  0.00    -0.458 OA
BRANCH  23  24
ATOM     24  C   UNL     1       4.660   0.746  -2.817  1.00  0.00     0.338 C 
ATOM     25  O   UNL     1       4.707  -0.473  -2.852  1.00  0.00    -0.246 OA
BRANCH  24  26
ATOM     26  C   UNL     1       4.491   1.577  -4.036  1.00  0.00     0.060 A 
ATOM     27  C   UNL     1       3.303   1.459  -4.766  1.00  0.00     0.016 A 
ATOM     28  C   UNL     1       5.469   2.477  -4.459  1.00  0.00     0.016 A 
ATOM     29  C   UNL     1       3.027   2.335  -5.821  1.00  0.00     0.010 A 
ATOM     30  C   UNL     1       5.228   3.293  -5.579  1.00  0.00     0.010 A 
ATOM     31  C   UNL     1       3.990   3.261  -6.248  1.00  0.00    -0.014 A 
BRANCH  31  32
ATOM     32  C   UNL     1       3.700   4.163  -7.402  1.00  0.00     0.031 A 
ATOM     33  C   UNL     1       3.478   3.587  -8.777  1.00  0.00     0.074 A 
ATOM     34  C   UNL     1       3.571   5.495  -7.227  1.00  0.00     0.049 A 
ATOM     35  N   UNL     1       3.205   4.205  -9.900  1.00  0.00    -0.248 NA
ATOM     36  C   UNL     1       3.559   2.124  -8.903  1.00  0.00     0.031 C 
ATOM     37  C   UNL     1       3.669   6.192  -5.948  1.00  0.00     0.029 A 
ATOM     38  N   UNL     1       3.309   6.501  -8.130  1.00  0.00    -0.354 N 
ATOM     39  C   UNL     1       3.077   3.209 -10.859  1.00  0.00     0.074 A 
ATOM     40  C   UNL     1       3.273   1.944 -10.184  1.00  0.00     0.031 C 
ATOM     41  C   UNL     1       3.442   7.503  -6.139  1.00  0.00     0.029 A 
ATOM     42  C   UNL     1       3.250   7.754  -7.565  1.00  0.00     0.049 A 
ATOM     43  H   UNL     1       3.176   6.339  -9.092  1.00  0.00     0.167 HD
ATOM     44  C   UNL     1       2.854   3.330 -12.189  1.00  0.00     0.037 A 
ATOM     45  C   UNL     1       3.094   8.968  -8.132  1.00  0.00     0.037 A 
ATOM     46  C   UNL     1       2.743   4.577 -12.895  1.00  0.00     0.049 A 
ATOM     47  C   UNL     1       2.990   9.078  -9.633  1.00  0.00     0.074 A 
ATOM     48  C   UNL     1       2.595   4.788 -14.255  1.00  0.00     0.029 A 
ATOM     49  N   UNL     1       2.796   5.827 -12.300  1.00  0.00    -0.354 N 
ATOM     50  N   UNL     1       2.892   8.129 -10.530  1.00  0.00    -0.248 NA
ATOM     51  C   UNL     1       3.009  10.436 -10.201  1.00  0.00     0.031 C 
ATOM     52  C   UNL     1       2.615   6.168 -14.490  1.00  0.00     0.029 A 
ATOM     53  C   UNL     1       2.721   6.815 -13.270  1.00  0.00     0.049 A 
ATOM     54  H   UNL     1       2.875   5.990 -11.333  1.00  0.00     0.167 HD
ATOM     55  C   UNL     1       2.832   8.772 -11.761  1.00  0.00     0.074 A 
ATOM     56  C   UNL     1       2.873  10.193 -11.496  1.00  0.00     0.031 C 
ATOM     57  C   UNL     1       2.763   8.229 -13.001  1.00  0.00     0.037 A 
BRANCH  44  58
ATOM     58  C   UNL     1       2.813   2.062 -12.986  1.00  0.00     0.064 A 
ATOM     59  C   UNL     1       1.689   1.225 -12.979  1.00  0.00     0.173 A 
ATOM     60  C   UNL     1       3.915   1.686 -13.767  1.00  0.00     0.173 A 
ATOM     61  F   UNL     1       0.621   1.534 -12.230  1.00  0.00    -0.203 F 
ATOM     62  C   UNL     1       1.679   0.042 -13.715  1.00  0.00     0.198 A 
ATOM     63  C   UNL     1       3.894   0.514 -14.516  1.00  0.00     0.198 A 
ATOM     64  F   UNL     1       5.014   2.456 -13.800  1.00  0.00    -0.203 F 
ATOM     65  F   UNL     1       0.612  -0.767 -13.665  1.00  0.00    -0.200 F 
ATOM     66  C   UNL     1       2.779  -0.310 -14.485  1.00  0.00     0.200 A 
ATOM     67  F   UNL     1       4.956   0.177 -15.261  1.00  0.00    -0.200 F 
ATOM     68  F   UNL     1       2.768  -1.450 -15.188  1.00  0.00    -0.200 F 
ENDBRANCH  44  58
BRANCH  45  69
ATOM     69  C   UNL     1       3.085  10.203  -7.299  1.00  0.00     0.064 A 
ATOM     70  C   UNL     1       1.945  11.018  -7.232  1.00  0.00     0.173 A 
ATOM     71  C   UNL     1       4.231  10.631  -6.612  1.00  0.00     0.173 A 
ATOM     72  F   UNL     1       0.836  10.672  -7.902  1.00  0.00    -0.203 F 
ATOM     73  C   UNL     1       1.958  12.220  -6.526  1.00  0.00     0.198 A 
ATOM     74  C   UNL     1       4.232  11.818  -5.880  1.00  0.00     0.198 A 
ATOM     75  F   UNL     1       5.354   9.900  -6.656  1.00  0.00    -0.203 F 
ATOM     76  F   UNL     1       0.874  13.008  -6.529  1.00  0.00    -0.200 F 
ATOM     77  C   UNL     1       3.100  12.616  -5.847  1.00  0.00     0.200 A 
ATOM     78  F   UNL     1       5.337  12.193  -5.221  1.00  0.00    -0.200 F 
ATOM     79  F   UNL     1       3.115  13.775  -5.174  1.00  0.00    -0.200 F 
ENDBRANCH  45  69
BRANCH  57  80
ATOM     80  C   UNL     1       2.718   9.168 -14.171  1.00  0.00     0.064 A 
ATOM     81  C   UNL     1       3.852   9.886 -14.578  1.00  0.00     0.173 A 
ATOM     82  C   UNL     1       1.544   9.311 -14.926  1.00  0.00     0.173 A 
ATOM     83  F   UNL     1       4.994   9.796 -13.881  1.00  0.00    -0.203 F 
ATOM     84  C   UNL     1       3.807  10.726 -15.688  1.00  0.00     0.198 A 
ATOM     85  C   UNL     1       1.511  10.131 -16.051  1.00  0.00     0.198 A 
ATOM     86  F   UNL     1       0.433   8.642 -14.582  1.00  0.00    -0.203 F 
ATOM     87  F   UNL     1       4.893  11.432 -16.037  1.00  0.00    -0.200 F 
ATOM     88  C   UNL     1       2.640  10.841 -16.429  1.00  0.00     0.200 A 
ATOM     89  F   UNL     1       0.385  10.231 -16.773  1.00  0.00    -0.200 F 
ATOM     90  F   UNL     1       2.602  11.641 -17.503  1.00  0.00    -0.200 F 
ENDBRANCH  57  80
ENDBRANCH  31  32
ENDBRANCH  24  26
ENDBRANCH  23  24
ENDBRANCH  22  23
ENDBRANCH   1  22
TORSDOF 15
