REMARK SMILES CC[NH2+][C@]1(C(=O)OCCOC(=O)c2ccc(-c3c4nc(c(-c5c(F)c(F)c(F)c(F)c5F)c5ccc([nH]5)c(-c5c(F)c(F)c(F)c(F)c5F)c5nc(c(-c6c(F)c(F)c(F)c(F)c6F)c6ccc3[nH]6)C=C5)C=C4)cc2)CCC[C@@H]1CC[N@H+]1C[C@H](C)OC[C@@H]1C
REMARK SMILES IDX 8 1 7 2 5 3 6 4 4 5 76 6 79 7 77 8 78 9 3 10 2 13 1 14 80 15
REMARK SMILES IDX 81 16 82 17 83 18 88 19 84 21 87 22 89 23 86 24 85 25 9 26
REMARK SMILES IDX 10 27 11 28 12 29 13 30 14 31 75 32 15 33 74 34 16 35 17 36
REMARK SMILES IDX 18 37 68 38 19 39 73 40 67 41 69 42 20 43 72 44 66 45 65 46
REMARK SMILES IDX 21 48 53 49 33 50 52 51 34 52 37 53 51 54 70 55 35 56 36 57
REMARK SMILES IDX 50 59 71 60 38 61 22 62 23 63 31 64 24 65 25 66 29 67 32 68
REMARK SMILES IDX 26 69 27 70 30 71 28 72 54 73 55 74 63 75 56 76 57 77 61 78
REMARK SMILES IDX 64 79 58 80 59 81 62 82 60 83 39 84 40 85 48 86 41 87 42 88
REMARK SMILES IDX 46 89 49 90 43 91 44 92 47 93 45 94
REMARK H PARENT 3 11 3 12 82 20 69 47 37 58
REMARK Flexibility Score: inf
ROOT
ATOM      1  C   UNL     1       2.876  -1.050  -0.540  1.00  0.00     0.274 C 
ENDROOT
BRANCH   1   2
ATOM      2  O   UNL     1       2.460  -0.582  -1.828  1.00  0.00    -0.457 OA
BRANCH   2   3
ATOM      3  C   UNL     1       1.808  -1.467  -2.633  1.00  0.00     0.368 C 
ATOM      4  O   UNL     1       1.738  -2.673  -2.424  1.00  0.00    -0.245 OA
BRANCH   3   5
ATOM      5  C   UNL     1       1.032  -0.717  -3.753  1.00  0.00     0.197 C 
ATOM      6  C   UNL     1       1.804   0.588  -4.106  1.00  0.00     0.081 C 
ATOM      7  C   UNL     1       1.111  -1.462  -5.131  1.00  0.00     0.068 C 
ATOM      8  C   UNL     1       1.353   0.949  -5.503  1.00  0.00     0.008 C 
ATOM      9  C   UNL     1       1.412  -0.391  -6.207  1.00  0.00     0.011 C 
BRANCH   5  10
ATOM     10  N   UNL     1      -0.335  -0.316  -3.316  1.00  0.00    -0.332 N 
ATOM     11  H   UNL     1      -0.290   0.650  -2.992  1.00  0.00     0.347 HD
ATOM     12  H   UNL     1      -0.938  -0.453  -4.127  1.00  0.00     0.347 HD
BRANCH  10  13
ATOM     13  C   UNL     1      -0.921  -1.122  -2.243  1.00  0.00     0.257 C 
ATOM     14  C   UNL     1      -2.389  -0.791  -1.997  1.00  0.00     0.071 C 
ENDBRANCH  10  13
ENDBRANCH   5  10
BRANCH   7  15
ATOM     15  C   UNL     1       0.035  -2.487  -5.569  1.00  0.00     0.072 C 
BRANCH  15  16
ATOM     16  C   UNL     1      -1.467  -2.129  -5.623  1.00  0.00     0.263 C 
BRANCH  16  17
ATOM     17  N   UNL     1      -1.774  -0.793  -6.151  1.00  0.00    -0.329 N 
ATOM     18  C   UNL     1      -1.801  -0.771  -7.638  1.00  0.00     0.294 C 
ATOM     19  C   UNL     1      -3.056  -0.246  -5.629  1.00  0.00     0.207 C 
ATOM     20  H   UNL     1      -1.015  -0.197  -5.822  1.00  0.00     0.348 HD
ATOM     21  C   UNL     1      -3.116  -1.259  -8.293  1.00  0.00     0.170 C 
ATOM     22  C   UNL     1      -4.309  -0.808  -6.323  1.00  0.00     0.225 C 
ATOM     23  C   UNL     1      -3.022   1.287  -5.696  1.00  0.00     0.078 C 
ATOM     24  O   UNL     1      -4.260  -0.599  -7.734  1.00  0.00    -0.366 OA
ATOM     25  C   UNL     1      -3.119  -0.965  -9.787  1.00  0.00     0.045 C 
ENDBRANCH  16  17
ENDBRANCH  15  16
ENDBRANCH   7  15
ENDBRANCH   3   5
ENDBRANCH   2   3
ENDBRANCH   1   2
BRANCH   1  26
ATOM     26  C   UNL     1       2.907   0.143   0.420  1.00  0.00     0.275 C 
BRANCH  26  27
ATOM     27  O   UNL     1       1.625   0.809   0.455  1.00  0.00    -0.458 OA
BRANCH  27  28
ATOM     28  C   UNL     1       1.528   1.895  -0.356  1.00  0.00     0.338 C 
ATOM     29  O   UNL     1       2.412   2.392  -1.034  1.00  0.00    -0.246 OA
BRANCH  28  30
ATOM     30  C   UNL     1       0.143   2.405  -0.371  1.00  0.00     0.060 A 
ATOM     31  C   UNL     1      -0.491   2.555  -1.606  1.00  0.00     0.016 A 
ATOM     32  C   UNL     1      -0.488   2.841   0.796  1.00  0.00     0.016 A 
ATOM     33  C   UNL     1      -1.754   3.129  -1.690  1.00  0.00     0.010 A 
ATOM     34  C   UNL     1      -1.751   3.444   0.713  1.00  0.00     0.010 A 
ATOM     35  C   UNL     1      -2.380   3.601  -0.533  1.00  0.00    -0.014 A 
BRANCH  35  36
ATOM     36  C   UNL     1      -3.647   4.351  -0.680  1.00  0.00     0.031 A 
ATOM     37  C   UNL     1      -3.598   5.840  -0.856  1.00  0.00     0.074 A 
ATOM     38  C   UNL     1      -4.814   3.691  -0.772  1.00  0.00     0.049 A 
ATOM     39  N   UNL     1      -4.580   6.689  -1.022  1.00  0.00    -0.248 NA
ATOM     40  C   UNL     1      -2.261   6.455  -0.866  1.00  0.00     0.031 C 
ATOM     41  C   UNL     1      -4.966   2.239  -0.711  1.00  0.00     0.029 A 
ATOM     42  N   UNL     1      -6.091   4.158  -0.954  1.00  0.00    -0.354 N 
ATOM     43  C   UNL     1      -3.982   7.932  -1.173  1.00  0.00     0.074 A 
ATOM     44  C   UNL     1      -2.553   7.734  -1.055  1.00  0.00     0.031 C 
ATOM     45  C   UNL     1      -6.266   1.931  -0.856  1.00  0.00     0.029 A 
ATOM     46  C   UNL     1      -7.039   3.166  -0.980  1.00  0.00     0.049 A 
ATOM     47  H   UNL     1      -6.307   5.113  -1.056  1.00  0.00     0.167 HD
ATOM     48  C   UNL     1      -4.574   9.129  -1.393  1.00  0.00     0.037 A 
ATOM     49  C   UNL     1      -8.379   3.252  -1.071  1.00  0.00     0.037 A 
ATOM     50  C   UNL     1      -5.996   9.326  -1.477  1.00  0.00     0.049 A 
ATOM     51  C   UNL     1      -9.018   4.612  -1.195  1.00  0.00     0.074 A 
ATOM     52  C   UNL     1      -6.700  10.509  -1.618  1.00  0.00     0.029 A 
ATOM     53  N   UNL     1      -6.934   8.306  -1.427  1.00  0.00    -0.354 N 
ATOM     54  N   UNL     1      -8.449   5.789  -1.292  1.00  0.00    -0.248 NA
ATOM     55  C   UNL     1     -10.487   4.653  -1.216  1.00  0.00     0.031 C 
ATOM     56  C   UNL     1      -8.067  10.207  -1.619  1.00  0.00     0.029 A 
ATOM     57  C   UNL     1      -8.212   8.833  -1.520  1.00  0.00     0.049 A 
ATOM     58  H   UNL     1      -6.723   7.348  -1.337  1.00  0.00     0.167 HD
ATOM     59  C   UNL     1      -9.485   6.706  -1.406  1.00  0.00     0.074 A 
ATOM     60  C   UNL     1     -10.718   5.947  -1.387  1.00  0.00     0.031 C 
ATOM     61  C   UNL     1      -9.425   8.056  -1.510  1.00  0.00     0.037 A 
BRANCH  48  62
ATOM     62  C   UNL     1      -3.678  10.323  -1.523  1.00  0.00     0.064 A 
ATOM     63  C   UNL     1      -2.932  10.553  -2.688  1.00  0.00     0.173 A 
ATOM     64  C   UNL     1      -3.582  11.258  -0.482  1.00  0.00     0.173 A 
ATOM     65  F   UNL     1      -2.977   9.678  -3.703  1.00  0.00    -0.203 F 
ATOM     66  C   UNL     1      -2.108  11.671  -2.799  1.00  0.00     0.198 A 
ATOM     67  C   UNL     1      -2.773  12.384  -0.605  1.00  0.00     0.198 A 
ATOM     68  F   UNL     1      -4.276  11.080   0.652  1.00  0.00    -0.203 F 
ATOM     69  F   UNL     1      -1.376  11.854  -3.906  1.00  0.00    -0.200 F 
ATOM     70  C   UNL     1      -2.034  12.587  -1.761  1.00  0.00     0.200 A 
ATOM     71  F   UNL     1      -2.708  13.272   0.396  1.00  0.00    -0.200 F 
ATOM     72  F   UNL     1      -1.243  13.664  -1.871  1.00  0.00    -0.200 F 
ENDBRANCH  48  62
BRANCH  49  73
ATOM     73  C   UNL     1      -9.217   2.026  -1.010  1.00  0.00     0.064 A 
ATOM     74  C   UNL     1      -9.974   1.606  -2.112  1.00  0.00     0.173 A 
ATOM     75  C   UNL     1      -9.311   1.274   0.171  1.00  0.00     0.173 A 
ATOM     76  F   UNL     1      -9.939   2.308  -3.255  1.00  0.00    -0.203 F 
ATOM     77  C   UNL     1     -10.811   0.495  -2.029  1.00  0.00     0.198 A 
ATOM     78  C   UNL     1     -10.125   0.146   0.244  1.00  0.00     0.198 A 
ATOM     79  F   UNL     1      -8.611   1.635   1.256  1.00  0.00    -0.203 F 
ATOM     80  F   UNL     1     -11.566   0.148  -3.079  1.00  0.00    -0.200 F 
ATOM     81  C   UNL     1     -10.883  -0.236  -0.852  1.00  0.00     0.200 A 
ATOM     82  F   UNL     1     -10.183  -0.563   1.379  1.00  0.00    -0.200 F 
ATOM     83  F   UNL     1     -11.691  -1.302  -0.771  1.00  0.00    -0.200 F 
ENDBRANCH  49  73
BRANCH  61  84
ATOM     84  C   UNL     1     -10.726   8.791  -1.640  1.00  0.00     0.064 A 
ATOM     85  C   UNL     1     -11.593   8.945  -0.548  1.00  0.00     0.173 A 
ATOM     86  C   UNL     1     -11.095   9.370  -2.862  1.00  0.00     0.173 A 
ATOM     87  F   UNL     1     -11.290   8.394   0.637  1.00  0.00    -0.203 F 
ATOM     88  C   UNL     1     -12.796   9.631  -0.683  1.00  0.00     0.198 A 
ATOM     89  C   UNL     1     -12.288  10.078  -2.987  1.00  0.00     0.198 A 
ATOM     90  F   UNL     1     -10.297   9.255  -3.934  1.00  0.00    -0.203 F 
ATOM     91  F   UNL     1     -13.632   9.726   0.360  1.00  0.00    -0.200 F 
ATOM     92  C   UNL     1     -13.140  10.201  -1.900  1.00  0.00     0.200 A 
ATOM     93  F   UNL     1     -12.614  10.637  -4.160  1.00  0.00    -0.200 F 
ATOM     94  F   UNL     1     -14.299  10.863  -2.027  1.00  0.00    -0.200 F 
ENDBRANCH  61  84
ENDBRANCH  35  36
ENDBRANCH  28  30
ENDBRANCH  27  28
ENDBRANCH  26  27
ENDBRANCH   1  26
TORSDOF 16
