REMARK SMILES O=C(OCCOC(=O)c1ccc(-c2c3nc(c(-c4c(F)c(F)c(F)c(F)c4F)c4ccc([nH]4)c(-c4c(F)c(F)c(F)c(F)c4F)c4nc(c(-c5c(F)c(F)c(F)c(F)c5F)c5ccc2[nH]5)C=C4)C=C3)cc1)C1=Cc2cc(S(F)(F)(F)(F)F)cc(Br)c2O[C@H]1C(F)(F)F
REMARK SMILES IDX 5 1 4 2 3 3 2 4 1 5 72 6 73 7 88 8 74 9 87 10 75 11 86 12
REMARK SMILES IDX 76 13 84 14 83 15 85 16 89 17 90 18 91 19 92 20 77 21 78 22
REMARK SMILES IDX 79 23 80 24 81 25 82 26 6 27 7 28 8 29 9 30 10 31 71 32
REMARK SMILES IDX 11 33 70 34 12 35 13 36 14 37 64 38 15 39 69 40 63 41 65 42
REMARK SMILES IDX 16 43 68 44 62 45 61 46 17 48 49 49 29 50 48 51 30 52 33 53
REMARK SMILES IDX 47 54 66 55 31 56 32 57 46 59 67 60 34 61 18 62 19 63 27 64
REMARK SMILES IDX 20 65 21 66 25 67 28 68 22 69 23 70 26 71 24 72 50 73 51 74
REMARK SMILES IDX 59 75 52 76 53 77 57 78 60 79 54 80 55 81 58 82 56 83 35 84
REMARK SMILES IDX 36 85 44 86 37 87 38 88 42 89 45 90 39 91 40 92 43 93 41 94
REMARK H PARENT 65 47 33 58
REMARK Flexibility Score: inf
ROOT
ATOM      1  C   UNL     1       4.843   0.539   1.313  1.00  0.00     0.275 C 
ENDROOT
BRANCH   1   2
ATOM      2  C   UNL     1       4.337   1.250   0.069  1.00  0.00     0.275 C 
BRANCH   2   3
ATOM      3  O   UNL     1       2.917   1.250   0.069  1.00  0.00    -0.459 OA
BRANCH   3   4
ATOM      4  C   UNL     1       2.207   0.021   0.074  1.00  0.00     0.338 C 
ATOM      5  O   UNL     1       0.936   0.021   0.074  1.00  0.00    -0.246 OA
BRANCH   4   6
ATOM      6  C   UNL     1       2.967  -1.296   0.079  1.00  0.00     0.087 C 
ATOM      7  C   UNL     1       4.327  -1.296   0.079  1.00  0.00     0.027 C 
ATOM      8  C   UNL     1       2.207  -2.612   0.085  1.00  0.00     0.316 C 
ATOM      9  C   UNL     1       5.087   0.021   0.074  1.00  0.00     0.020 A 
ATOM     10  O   UNL     1       3.514   0.883   1.633  1.00  0.00    -0.474 OA
ATOM     11  C   UNL     1       6.163   0.166  -0.786  1.00  0.00     0.036 A 
ATOM     12  C   UNL     1       4.714   1.005   0.883  1.00  0.00     0.142 A 
ATOM     13  C   UNL     1       6.968   1.297  -0.511  1.00  0.00     0.109 A 
ATOM     14  C   UNL     1       5.478   2.141   1.002  1.00  0.00     0.062 A 
ATOM     15  C   UNL     1       6.588   2.325   0.225  1.00  0.00     0.044 A 
ATOM     16  Br  UNL     1       4.970   3.516   2.303  1.00  0.00    -0.047 Br
BRANCH   8  17
ATOM     17  C   UNL     1       0.712  -2.334   0.084  1.00  0.00     0.430 C 
ATOM     18  F   UNL     1       0.250  -2.483   1.322  1.00  0.00    -0.167 F 
ATOM     19  F   UNL     1       0.395  -1.123  -0.366  1.00  0.00    -0.167 F 
ATOM     20  F   UNL     1       0.170  -3.257  -0.706  1.00  0.00    -0.167 F 
ENDBRANCH   8  17
BRANCH  13  21
ATOM     21  S   UNL     1       8.635   1.336  -1.216  1.00  0.00     0.310 S 
ATOM     22  F   UNL     1       9.310   1.342   0.219  1.00  0.00    -0.094 F 
ATOM     23  F   UNL     1       8.603   2.909  -1.133  1.00  0.00    -0.094 F 
ATOM     24  F   UNL     1      10.066   1.369  -1.822  1.00  0.00    -0.094 F 
ATOM     25  F   UNL     1       8.704  -0.241  -1.161  1.00  0.00    -0.094 F 
ATOM     26  F   UNL     1       7.228   1.285  -0.497  1.00  0.00    -0.094 F 
ENDBRANCH  13  21
ENDBRANCH   4   6
ENDBRANCH   3   4
ENDBRANCH   2   3
ENDBRANCH   1   2
BRANCH   1  27
ATOM     27  O   UNL     1       4.370  -0.800   1.318  1.00  0.00    -0.458 OA
BRANCH  27  28
ATOM     28  C   UNL     1       2.974  -1.059   1.319  1.00  0.00     0.338 C 
ATOM     29  O   UNL     1       2.148  -0.093   1.315  1.00  0.00    -0.246 OA
BRANCH  28  30
ATOM     30  C   UNL     1       2.467  -2.492   1.325  1.00  0.00     0.060 A 
ATOM     31  C   UNL     1       1.440  -2.833   0.461  1.00  0.00     0.016 A 
ATOM     32  C   UNL     1       3.009  -3.390   2.140  1.00  0.00     0.016 A 
ATOM     33  C   UNL     1       0.852  -4.090   0.737  1.00  0.00     0.010 A 
ATOM     34  C   UNL     1       2.463  -4.646   2.259  1.00  0.00     0.010 A 
ATOM     35  C   UNL     1       1.408  -5.031   1.479  1.00  0.00    -0.014 A 
BRANCH  35  36
ATOM     36  C   UNL     1       0.904  -6.465   1.465  1.00  0.00     0.031 A 
ATOM     37  C   UNL     1       0.446  -7.010   2.665  1.00  0.00     0.074 A 
ATOM     38  C   UNL     1       0.927  -7.150   0.262  1.00  0.00     0.049 A 
ATOM     39  N   UNL     1      -0.065  -8.226   2.864  1.00  0.00    -0.248 NA
ATOM     40  C   UNL     1       0.451  -6.295   3.950  1.00  0.00     0.031 C 
ATOM     41  C   UNL     1       1.380  -6.605  -0.955  1.00  0.00     0.029 A 
ATOM     42  N   UNL     1       0.532  -8.447   0.021  1.00  0.00    -0.354 N 
ATOM     43  C   UNL     1      -0.410  -8.377   4.145  1.00  0.00     0.074 A 
ATOM     44  C   UNL     1      -0.077  -7.140   4.863  1.00  0.00     0.031 C 
ATOM     45  C   UNL     1       1.270  -7.562  -1.913  1.00  0.00     0.029 A 
ATOM     46  C   UNL     1       0.746  -8.722  -1.311  1.00  0.00     0.049 A 
ATOM     47  H   UNL     1       0.160  -9.071   0.687  1.00  0.00     0.167 HD
ATOM     48  C   UNL     1      -0.990  -9.498   4.741  1.00  0.00     0.037 A 
ATOM     49  C   UNL     1       0.506  -9.911  -1.982  1.00  0.00     0.037 A 
ATOM     50  C   UNL     1      -1.270 -10.672   4.060  1.00  0.00     0.049 A 
ATOM     51  C   UNL     1      -0.021 -11.052  -1.373  1.00  0.00     0.074 A 
ATOM     52  C   UNL     1      -1.862 -11.808   4.644  1.00  0.00     0.029 A 
ATOM     53  N   UNL     1      -1.033 -10.955   2.733  1.00  0.00    -0.354 N 
ATOM     54  N   UNL     1      -0.402 -11.190  -0.102  1.00  0.00    -0.248 NA
ATOM     55  C   UNL     1      -0.248 -12.327  -2.066  1.00  0.00     0.031 C 
ATOM     56  C   UNL     1      -1.972 -12.766   3.686  1.00  0.00     0.029 A 
ATOM     57  C   UNL     1      -1.450 -12.244   2.487  1.00  0.00     0.049 A 
ATOM     58  H   UNL     1      -0.635 -10.341   2.074  1.00  0.00     0.167 HD
ATOM     59  C   UNL     1      -0.874 -12.421   0.106  1.00  0.00     0.074 A 
ATOM     60  C   UNL     1      -0.775 -13.172  -1.153  1.00  0.00     0.031 C 
ATOM     61  C   UNL     1      -1.386 -12.946   1.293  1.00  0.00     0.037 A 
BRANCH  48  62
ATOM     62  C   UNL     1      -1.335  -9.426   6.219  1.00  0.00     0.064 A 
ATOM     63  C   UNL     1      -2.223  -8.460   6.664  1.00  0.00     0.173 A 
ATOM     64  C   UNL     1      -0.775 -10.287   7.061  1.00  0.00     0.173 A 
ATOM     65  F   UNL     1      -2.994  -7.751   5.845  1.00  0.00    -0.203 F 
ATOM     66  C   UNL     1      -2.235  -8.297   8.069  1.00  0.00     0.198 A 
ATOM     67  C   UNL     1      -0.940 -10.147   8.418  1.00  0.00     0.198 A 
ATOM     68  F   UNL     1      -0.047 -11.294   6.587  1.00  0.00    -0.203 F 
ATOM     69  F   UNL     1      -2.766  -7.179   8.558  1.00  0.00    -0.200 F 
ATOM     70  C   UNL     1      -1.757  -9.177   8.930  1.00  0.00     0.200 A 
ATOM     71  F   UNL     1      -0.297 -10.966   9.245  1.00  0.00    -0.200 F 
ATOM     72  F   UNL     1      -2.053  -9.123  10.226  1.00  0.00    -0.200 F 
ENDBRANCH  48  62
BRANCH  49  73
ATOM     73  C   UNL     1       0.836  -9.976  -3.465  1.00  0.00     0.064 A 
ATOM     74  C   UNL     1      -0.174 -10.249  -4.373  1.00  0.00     0.173 A 
ATOM     75  C   UNL     1       2.084  -9.766  -3.865  1.00  0.00     0.173 A 
ATOM     76  F   UNL     1      -1.465 -10.216  -4.054  1.00  0.00    -0.203 F 
ATOM     77  C   UNL     1       0.293 -10.567  -5.670  1.00  0.00     0.198 A 
ATOM     78  C   UNL     1       2.441  -9.965  -5.177  1.00  0.00     0.198 A 
ATOM     79  F   UNL     1       2.998  -9.359  -2.988  1.00  0.00    -0.203 F 
ATOM     80  F   UNL     1      -0.548 -11.183  -6.497  1.00  0.00    -0.200 F 
ATOM     81  C   UNL     1       1.505 -10.294  -6.118  1.00  0.00     0.200 A 
ATOM     82  F   UNL     1       3.715  -9.835  -5.537  1.00  0.00    -0.200 F 
ATOM     83  F   UNL     1       1.800 -10.337  -7.414  1.00  0.00    -0.200 F 
ENDBRANCH  49  73
BRANCH  61  84
ATOM     84  C   UNL     1      -1.906 -14.374   1.276  1.00  0.00     0.064 A 
ATOM     85  C   UNL     1      -1.028 -15.393   0.941  1.00  0.00     0.173 A 
ATOM     86  C   UNL     1      -3.173 -14.629   1.581  1.00  0.00     0.173 A 
ATOM     87  F   UNL     1       0.289 -15.223   0.877  1.00  0.00    -0.203 F 
ATOM     88  C   UNL     1      -1.661 -16.630   0.674  1.00  0.00     0.198 A 
ATOM     89  C   UNL     1      -3.689 -15.893   1.424  1.00  0.00     0.198 A 
ATOM     90  F   UNL     1      -3.949 -13.652   2.042  1.00  0.00    -0.203 F 
ATOM     91  F   UNL     1      -0.967 -17.549   0.009  1.00  0.00    -0.200 F 
ATOM     92  C   UNL     1      -2.893 -16.935   1.040  1.00  0.00     0.200 A 
ATOM     93  F   UNL     1      -4.983 -16.105   1.651  1.00  0.00    -0.200 F 
ATOM     94  F   UNL     1      -3.335 -18.190   1.033  1.00  0.00    -0.200 F 
ENDBRANCH  61  84
ENDBRANCH  35  36
ENDBRANCH  28  30
ENDBRANCH  27  28
ENDBRANCH   1  27
TORSDOF 13
