REMARK SMILES COc1ccc(-c2ccc(C(=O)NCc3ccc(C(=O)OCCOC(=O)c4ccc(-c5c6nc(c(-c7c(F)c(F)c(F)c(F)c7F)c7ccc([nH]7)c(-c7c(F)c(F)c(F)c(F)c7F)c7nc(c(-c8c(F)c(F)c(F)c(F)c8F)c8ccc5[nH]8)C=C7)C=C6)cc4)cc3)o2)c([N+](=O)[O-])c1
REMARK SMILES IDX 21 1 19 2 20 3 18 4 15 5 16 6 91 7 17 8 90 9 14 10 13 11
REMARK SMILES IDX 11 12 12 13 10 15 7 16 8 17 92 18 9 19 6 20 3 21 4 22 97 23
REMARK SMILES IDX 5 24 93 25 2 26 1 27 94 28 95 29 96 30 22 31 23 32 24 33
REMARK SMILES IDX 25 34 26 35 27 36 28 37 89 38 29 39 88 40 30 41 31 42 32 43
REMARK SMILES IDX 82 44 33 45 87 46 81 47 83 48 34 49 86 50 80 51 79 52 35 54
REMARK SMILES IDX 67 55 47 56 66 57 48 58 51 59 65 60 84 61 49 62 50 63 64 65
REMARK SMILES IDX 85 66 52 67 36 68 37 69 45 70 38 71 39 72 43 73 46 74 40 75
REMARK SMILES IDX 41 76 44 77 42 78 68 79 69 80 77 81 70 82 71 83 75 84 78 85
REMARK SMILES IDX 72 86 73 87 76 88 74 89 53 90 54 91 62 92 55 93 56 94 60 95
REMARK SMILES IDX 63 96 57 97 58 98 61 99 59 100
REMARK H PARENT 13 14 83 53 51 64
REMARK Flexibility Score: inf
ROOT
ATOM      1  O   UNL     1       1.280  12.788   9.242  1.00  0.00    -0.458 OA
ENDROOT
BRANCH   1   2
ATOM      2  C   UNL     1       1.866  12.205   8.167  1.00  0.00     0.338 C 
ATOM      3  O   UNL     1       2.171  12.750   7.118  1.00  0.00    -0.246 OA
BRANCH   2   4
ATOM      4  C   UNL     1       2.210  10.793   8.464  1.00  0.00     0.060 A 
ATOM      5  C   UNL     1       2.963   8.123   8.960  1.00  0.00    -0.029 A 
ATOM      6  C   UNL     1       3.695   8.914   8.066  1.00  0.00     0.006 A 
ATOM      7  C   UNL     1       1.864   8.698   9.622  1.00  0.00     0.006 A 
ATOM      8  C   UNL     1       3.299  10.223   7.792  1.00  0.00     0.016 A 
ATOM      9  C   UNL     1       1.493  10.026   9.384  1.00  0.00     0.016 A 
BRANCH   5  10
ATOM     10  C   UNL     1       3.380   6.697   9.228  1.00  0.00     0.152 C 
BRANCH  10  11
ATOM     11  N   UNL     1       2.261   5.785   9.185  1.00  0.00    -0.345 N 
ATOM     12  C   UNL     1       1.691   5.059   8.169  1.00  0.00     0.287 C 
ATOM     13  O   UNL     1       0.730   4.362   8.509  1.00  0.00    -0.266 OA
ATOM     14  H   UNL     1       1.820   5.659  10.056  1.00  0.00     0.164 HD
BRANCH  12  15
ATOM     15  C   UNL     1       2.184   5.095   6.803  1.00  0.00     0.192 A 
ATOM     16  C   UNL     1       2.213   4.320   4.723  1.00  0.00     0.142 A 
ATOM     17  C   UNL     1       3.130   5.342   4.761  1.00  0.00     0.052 A 
ATOM     18  O   UNL     1       1.626   4.178   5.939  1.00  0.00    -0.451 OA
ATOM     19  C   UNL     1       3.100   5.846   6.087  1.00  0.00     0.057 A 
BRANCH  16  20
ATOM     20  C   UNL     1       1.747   3.410   3.693  1.00  0.00     0.095 A 
ATOM     21  C   UNL     1       0.757   1.773   1.601  1.00  0.00     0.125 A 
ATOM     22  C   UNL     1      -0.081   2.672   2.266  1.00  0.00     0.047 A 
ATOM     23  C   UNL     1       2.093   1.678   1.983  1.00  0.00     0.132 A 
ATOM     24  C   UNL     1       0.403   3.476   3.304  1.00  0.00     0.023 A 
ATOM     25  C   UNL     1       2.571   2.495   3.024  1.00  0.00     0.284 A 
BRANCH  21  26
ATOM     26  O   UNL     1       0.153   1.064   0.602  1.00  0.00    -0.497 OA
ATOM     27  C   UNL     1       0.910   0.026  -0.008  1.00  0.00     0.278 C 
ENDBRANCH  21  26
BRANCH  25  28
ATOM     28  N   UNL     1       3.971   2.350   3.388  1.00  0.00     0.063 N 
ATOM     29  O   UNL     1       4.241   2.112   4.572  1.00  0.00    -0.258 OA
ATOM     30  O   UNL     1       4.798   2.442   2.470  1.00  0.00    -0.258 OA
ENDBRANCH  25  28
ENDBRANCH  16  20
ENDBRANCH  12  15
ENDBRANCH  10  11
ENDBRANCH   5  10
ENDBRANCH   2   4
ENDBRANCH   1   2
BRANCH   1  31
ATOM     31  C   UNL     1       1.036  14.205   9.134  1.00  0.00     0.275 C 
BRANCH  31  32
ATOM     32  C   UNL     1       2.146  14.993   9.828  1.00  0.00     0.275 C 
BRANCH  32  33
ATOM     33  O   UNL     1       3.384  14.791   9.122  1.00  0.00    -0.458 OA
BRANCH  33  34
ATOM     34  C   UNL     1       4.470  14.540   9.886  1.00  0.00     0.338 C 
ATOM     35  O   UNL     1       4.541  14.527  11.102  1.00  0.00    -0.246 OA
BRANCH  34  36
ATOM     36  C   UNL     1       5.626  14.276   9.010  1.00  0.00     0.060 A 
ATOM     37  C   UNL     1       5.568  13.245   8.074  1.00  0.00     0.016 A 
ATOM     38  C   UNL     1       6.807  14.995   9.187  1.00  0.00     0.016 A 
ATOM     39  C   UNL     1       6.706  12.885   7.353  1.00  0.00     0.010 A 
ATOM     40  C   UNL     1       7.928  14.683   8.409  1.00  0.00     0.010 A 
ATOM     41  C   UNL     1       7.901  13.603   7.507  1.00  0.00    -0.014 A 
BRANCH  41  42
ATOM     42  C   UNL     1       9.135  13.193   6.779  1.00  0.00     0.031 A 
ATOM     43  C   UNL     1      10.358  12.772   7.551  1.00  0.00     0.074 A 
ATOM     44  C   UNL     1       9.170  13.178   5.432  1.00  0.00     0.049 A 
ATOM     45  N   UNL     1      11.576  12.549   7.122  1.00  0.00    -0.248 NA
ATOM     46  C   UNL     1      10.192  12.588   9.001  1.00  0.00     0.031 C 
ATOM     47  C   UNL     1       8.053  13.515   4.551  1.00  0.00     0.029 A 
ATOM     48  N   UNL     1      10.190  12.860   4.568  1.00  0.00    -0.354 N 
ATOM     49  C   UNL     1      12.330  12.264   8.253  1.00  0.00     0.074 A 
ATOM     50  C   UNL     1      11.434  12.333   9.387  1.00  0.00     0.031 C 
ATOM     51  C   UNL     1       8.435  13.351   3.274  1.00  0.00     0.029 A 
ATOM     52  C   UNL     1       9.845  12.972   3.243  1.00  0.00     0.049 A 
ATOM     53  H   UNL     1      11.084  12.578   4.869  1.00  0.00     0.167 HD
ATOM     54  C   UNL     1      13.651  11.974   8.338  1.00  0.00     0.037 A 
ATOM     55  C   UNL     1      10.585  12.823   2.128  1.00  0.00     0.037 A 
ATOM     56  C   UNL     1      14.532  11.838   7.207  1.00  0.00     0.049 A 
ATOM     57  C   UNL     1      12.049  12.504   2.247  1.00  0.00     0.074 A 
ATOM     58  C   UNL     1      15.882  11.530   7.195  1.00  0.00     0.029 A 
ATOM     59  N   UNL     1      14.143  11.981   5.884  1.00  0.00    -0.354 N 
ATOM     60  N   UNL     1      12.767  12.304   3.324  1.00  0.00    -0.248 NA
ATOM     61  C   UNL     1      12.811  12.413   0.992  1.00  0.00     0.031 C 
ATOM     62  C   UNL     1      16.315  11.509   5.865  1.00  0.00     0.029 A 
ATOM     63  C   UNL     1      15.228  11.772   5.048  1.00  0.00     0.049 A 
ATOM     64  H   UNL     1      13.231  12.198   5.583  1.00  0.00     0.167 HD
ATOM     65  C   UNL     1      14.060  12.064   2.882  1.00  0.00     0.074 A 
ATOM     66  C   UNL     1      14.026  12.118   1.435  1.00  0.00     0.031 C 
ATOM     67  C   UNL     1      15.178  11.831   3.611  1.00  0.00     0.037 A 
BRANCH  54  68
ATOM     68  C   UNL     1      14.238  11.814   9.708  1.00  0.00     0.064 A 
ATOM     69  C   UNL     1      14.011  10.669  10.484  1.00  0.00     0.173 A 
ATOM     70  C   UNL     1      15.073  12.812  10.235  1.00  0.00     0.173 A 
ATOM     71  F   UNL     1      13.208   9.695  10.030  1.00  0.00    -0.203 F 
ATOM     72  C   UNL     1      14.583  10.537  11.747  1.00  0.00     0.198 A 
ATOM     73  C   UNL     1      15.662  12.666  11.488  1.00  0.00     0.198 A 
ATOM     74  F   UNL     1      15.325  13.925   9.530  1.00  0.00    -0.203 F 
ATOM     75  F   UNL     1      14.321   9.452  12.489  1.00  0.00    -0.200 F 
ATOM     76  C   UNL     1      15.412  11.532  12.245  1.00  0.00     0.200 A 
ATOM     77  F   UNL     1      16.470  13.624  11.963  1.00  0.00    -0.200 F 
ATOM     78  F   UNL     1      15.965  11.400  13.459  1.00  0.00    -0.200 F 
ENDBRANCH  54  68
BRANCH  55  79
ATOM     79  C   UNL     1       9.955  13.009   0.796  1.00  0.00     0.064 A 
ATOM     80  C   UNL     1       9.744  11.918  -0.058  1.00  0.00     0.173 A 
ATOM     81  C   UNL     1       9.543  14.274   0.354  1.00  0.00     0.173 A 
ATOM     82  F   UNL     1      10.148  10.693   0.309  1.00  0.00    -0.203 F 
ATOM     83  C   UNL     1       9.147  12.086  -1.305  1.00  0.00     0.198 A 
ATOM     84  C   UNL     1       8.922  14.438  -0.882  1.00  0.00     0.198 A 
ATOM     85  F   UNL     1       9.727  15.350   1.134  1.00  0.00    -0.203 F 
ATOM     86  F   UNL     1       8.986  11.032  -2.117  1.00  0.00    -0.200 F 
ATOM     87  C   UNL     1       8.729  13.345  -1.712  1.00  0.00     0.200 A 
ATOM     88  F   UNL     1       8.509  15.653  -1.266  1.00  0.00    -0.200 F 
ATOM     89  F   UNL     1       8.144  13.505  -2.907  1.00  0.00    -0.200 F 
ENDBRANCH  55  79
BRANCH  67  90
ATOM     90  C   UNL     1      16.451  11.603   2.855  1.00  0.00     0.064 A 
ATOM     91  C   UNL     1      17.148  12.667   2.265  1.00  0.00     0.173 A 
ATOM     92  C   UNL     1      16.997  10.316   2.747  1.00  0.00     0.173 A 
ATOM     93  F   UNL     1      16.657  13.914   2.329  1.00  0.00    -0.203 F 
ATOM     94  C   UNL     1      18.338  12.447   1.577  1.00  0.00     0.198 A 
ATOM     95  C   UNL     1      18.197  10.102   2.076  1.00  0.00     0.198 A 
ATOM     96  F   UNL     1      16.367   9.267   3.298  1.00  0.00    -0.203 F 
ATOM     97  F   UNL     1      18.970  13.472   0.988  1.00  0.00    -0.200 F 
ATOM     98  C   UNL     1      18.864  11.166   1.487  1.00  0.00     0.200 A 
ATOM     99  F   UNL     1      18.707   8.865   1.995  1.00  0.00    -0.200 F 
ATOM    100  F   UNL     1      20.010  10.956   0.825  1.00  0.00    -0.200 F 
ENDBRANCH  67  90
ENDBRANCH  41  42
ENDBRANCH  34  36
ENDBRANCH  33  34
ENDBRANCH  32  33
ENDBRANCH  31  32
ENDBRANCH   1  31
TORSDOF 17
