REMARK SMILES O=C(OCCOC(=O)c1ccc(S(=O)(=O)NC[C@H]2CCCCO2)c(F)c1)c1ccc(-c2c3nc(c(-c4c(F)c(F)c(F)c(F)c4F)c4ccc([nH]4)c(-c4c(F)c(F)c(F)c(F)c4F)c4nc(c(-c5c(F)c(F)c(F)c(F)c5F)c5ccc2[nH]5)C=C4)C=C3)cc1
REMARK SMILES IDX 5 1 4 2 3 3 2 4 1 5 27 6 28 7 89 8 29 9 88 10 30 11 31 12
REMARK SMILES IDX 32 13 82 14 33 15 87 16 81 17 83 18 34 19 86 20 80 21 79 22
REMARK SMILES IDX 35 24 67 25 47 26 66 27 48 28 51 29 65 30 84 31 49 32 50 33
REMARK SMILES IDX 64 35 85 36 52 37 36 38 37 39 45 40 38 41 39 42 43 43 46 44
REMARK SMILES IDX 40 45 41 46 44 47 42 48 68 49 69 50 77 51 70 52 71 53 75 54
REMARK SMILES IDX 78 55 72 56 73 57 76 58 74 59 53 60 54 61 62 62 55 63 56 64
REMARK SMILES IDX 60 65 63 66 57 67 58 68 61 69 59 70 6 71 7 72 8 73 9 74
REMARK SMILES IDX 10 75 26 76 11 77 24 78 12 79 25 80 13 81 14 82 15 83 16 84
REMARK SMILES IDX 17 86 18 87 19 88 23 89 20 90 22 91 21 92
REMARK H PARENT 83 23 51 34 16 85
REMARK Flexibility Score: inf
ROOT
ATOM      1  C   UNL     1       6.469   6.518  -0.129  1.00  0.00     0.275 C 
ENDROOT
BRANCH   1   2
ATOM      2  C   UNL     1       6.905   7.636   0.820  1.00  0.00     0.275 C 
BRANCH   2   3
ATOM      3  O   UNL     1       7.097   7.235   2.189  1.00  0.00    -0.458 OA
BRANCH   3   4
ATOM      4  C   UNL     1       6.214   7.142   3.210  1.00  0.00     0.338 C 
ATOM      5  O   UNL     1       6.636   6.928   4.346  1.00  0.00    -0.246 OA
BRANCH   4   6
ATOM      6  C   UNL     1       4.731   7.163   3.029  1.00  0.00     0.060 A 
ATOM      7  C   UNL     1       4.040   7.935   2.094  1.00  0.00     0.016 A 
ATOM      8  C   UNL     1       3.979   6.379   3.927  1.00  0.00     0.016 A 
ATOM      9  C   UNL     1       2.646   7.886   2.016  1.00  0.00     0.010 A 
ATOM     10  C   UNL     1       2.583   6.331   3.858  1.00  0.00     0.010 A 
ATOM     11  C   UNL     1       1.910   7.098   2.904  1.00  0.00    -0.014 A 
BRANCH  11  12
ATOM     12  C   UNL     1       0.437   7.223   2.915  1.00  0.00     0.031 A 
ATOM     13  C   UNL     1      -0.194   8.174   3.883  1.00  0.00     0.074 A 
ATOM     14  C   UNL     1      -0.307   6.577   2.002  1.00  0.00     0.049 A 
ATOM     15  N   UNL     1      -1.443   8.550   3.976  1.00  0.00    -0.248 NA
ATOM     16  C   UNL     1       0.705   8.814   4.857  1.00  0.00     0.031 C 
ATOM     17  C   UNL     1       0.220   5.685   0.975  1.00  0.00     0.029 A 
ATOM     18  N   UNL     1      -1.660   6.582   1.778  1.00  0.00    -0.354 N 
ATOM     19  C   UNL     1      -1.470   9.505   4.981  1.00  0.00     0.074 A 
ATOM     20  C   UNL     1      -0.130   9.602   5.518  1.00  0.00     0.031 C 
ATOM     21  C   UNL     1      -0.798   5.196   0.248  1.00  0.00     0.029 A 
ATOM     22  C   UNL     1      -2.048   5.762   0.747  1.00  0.00     0.049 A 
ATOM     23  H   UNL     1      -2.292   7.121   2.306  1.00  0.00     0.167 HD
ATOM     24  C   UNL     1      -2.516  10.256   5.393  1.00  0.00     0.037 A 
ATOM     25  C   UNL     1      -3.275   5.513   0.252  1.00  0.00     0.037 A 
ATOM     26  C   UNL     1      -3.849  10.127   4.873  1.00  0.00     0.049 A 
ATOM     27  C   UNL     1      -4.444   6.282   0.802  1.00  0.00     0.074 A 
ATOM     28  C   UNL     1      -4.992  10.810   5.247  1.00  0.00     0.029 A 
ATOM     29  N   UNL     1      -4.218   9.244   3.867  1.00  0.00    -0.354 N 
ATOM     30  N   UNL     1      -4.458   7.204   1.734  1.00  0.00    -0.248 NA
ATOM     31  C   UNL     1      -5.760   6.003   0.213  1.00  0.00     0.031 C 
ATOM     32  C   UNL     1      -6.061  10.311   4.494  1.00  0.00     0.029 A 
ATOM     33  C   UNL     1      -5.576   9.351   3.619  1.00  0.00     0.049 A 
ATOM     34  H   UNL     1      -3.604   8.632   3.399  1.00  0.00     0.167 HD
ATOM     35  C   UNL     1      -5.772   7.641   1.821  1.00  0.00     0.074 A 
ATOM     36  C   UNL     1      -6.527   6.884   0.843  1.00  0.00     0.031 C 
ATOM     37  C   UNL     1      -6.301   8.590   2.631  1.00  0.00     0.037 A 
BRANCH  24  38
ATOM     38  C   UNL     1      -2.243  11.271   6.461  1.00  0.00     0.064 A 
ATOM     39  C   UNL     1      -2.706  11.077   7.769  1.00  0.00     0.173 A 
ATOM     40  C   UNL     1      -1.512  12.438   6.186  1.00  0.00     0.173 A 
ATOM     41  F   UNL     1      -3.403   9.975   8.083  1.00  0.00    -0.203 F 
ATOM     42  C   UNL     1      -2.446  12.015   8.765  1.00  0.00     0.198 A 
ATOM     43  C   UNL     1      -1.234  13.361   7.190  1.00  0.00     0.198 A 
ATOM     44  F   UNL     1      -1.029  12.657   4.953  1.00  0.00    -0.203 F 
ATOM     45  F   UNL     1      -2.904  11.813  10.008  1.00  0.00    -0.200 F 
ATOM     46  C   UNL     1      -1.704  13.151   8.477  1.00  0.00     0.200 A 
ATOM     47  F   UNL     1      -0.492  14.443   6.916  1.00  0.00    -0.200 F 
ATOM     48  F   UNL     1      -1.433  14.039   9.444  1.00  0.00    -0.200 F 
ENDBRANCH  24  38
BRANCH  25  49
ATOM     49  C   UNL     1      -3.434   4.537  -0.856  1.00  0.00     0.064 A 
ATOM     50  C   UNL     1      -3.257   3.162  -0.639  1.00  0.00     0.173 A 
ATOM     51  C   UNL     1      -3.724   4.959  -2.159  1.00  0.00     0.173 A 
ATOM     52  F   UNL     1      -2.974   2.707   0.590  1.00  0.00    -0.203 F 
ATOM     53  C   UNL     1      -3.349   2.249  -1.688  1.00  0.00     0.198 A 
ATOM     54  C   UNL     1      -3.837   4.043  -3.204  1.00  0.00     0.198 A 
ATOM     55  F   UNL     1      -3.915   6.261  -2.414  1.00  0.00    -0.203 F 
ATOM     56  F   UNL     1      -3.147   0.944  -1.460  1.00  0.00    -0.200 F 
ATOM     57  C   UNL     1      -3.642   2.690  -2.969  1.00  0.00     0.200 A 
ATOM     58  F   UNL     1      -4.135   4.471  -4.439  1.00  0.00    -0.200 F 
ATOM     59  F   UNL     1      -3.735   1.812  -3.978  1.00  0.00    -0.200 F 
ENDBRANCH  25  49
BRANCH  37  60
ATOM     60  C   UNL     1      -7.763   8.887   2.482  1.00  0.00     0.064 A 
ATOM     61  C   UNL     1      -8.184  10.103   1.923  1.00  0.00     0.173 A 
ATOM     62  C   UNL     1      -8.742   8.009   2.966  1.00  0.00     0.173 A 
ATOM     63  F   UNL     1      -7.283  10.980   1.453  1.00  0.00    -0.203 F 
ATOM     64  C   UNL     1      -9.534  10.436   1.868  1.00  0.00     0.198 A 
ATOM     65  C   UNL     1     -10.093   8.333   2.886  1.00  0.00     0.198 A 
ATOM     66  F   UNL     1      -8.387   6.830   3.498  1.00  0.00    -0.203 F 
ATOM     67  F   UNL     1      -9.912  11.617   1.361  1.00  0.00    -0.200 F 
ATOM     68  C   UNL     1     -10.487   9.550   2.348  1.00  0.00     0.200 A 
ATOM     69  F   UNL     1     -11.015   7.468   3.330  1.00  0.00    -0.200 F 
ATOM     70  F   UNL     1     -11.787   9.868   2.289  1.00  0.00    -0.200 F 
ENDBRANCH  37  60
ENDBRANCH  11  12
ENDBRANCH   4   6
ENDBRANCH   3   4
ENDBRANCH   2   3
ENDBRANCH   1   2
BRANCH   1  71
ATOM     71  O   UNL     1       5.461   5.660   0.424  1.00  0.00    -0.458 OA
BRANCH  71  72
ATOM     72  C   UNL     1       5.933   4.527   1.007  1.00  0.00     0.338 C 
ATOM     73  O   UNL     1       7.097   4.172   1.079  1.00  0.00    -0.246 OA
BRANCH  72  74
ATOM     74  C   UNL     1       4.827   3.808   1.674  1.00  0.00     0.063 A 
ATOM     75  C   UNL     1       3.565   3.701   1.083  1.00  0.00     0.017 A 
ATOM     76  C   UNL     1       5.061   3.239   2.932  1.00  0.00     0.056 A 
ATOM     77  C   UNL     1       2.535   3.058   1.774  1.00  0.00     0.026 A 
ATOM     78  C   UNL     1       4.024   2.605   3.618  1.00  0.00     0.144 A 
ATOM     79  C   UNL     1       2.759   2.531   3.056  1.00  0.00     0.118 A 
ATOM     80  F   UNL     1       4.291   2.091   4.824  1.00  0.00    -0.205 F 
BRANCH  79  81
ATOM     81  S   UNL     1       1.378   1.808   3.880  1.00  0.00     0.243 S 
ATOM     82  O   UNL     1       0.275   2.726   3.702  1.00  0.00    -0.207 OA
ATOM     83  O   UNL     1       1.298   0.444   3.406  1.00  0.00    -0.207 OA
BRANCH  81  84
ATOM     84  N   UNL     1       1.689   1.709   5.512  1.00  0.00    -0.208 NA
ATOM     85  H   UNL     1       2.549   1.167   5.598  1.00  0.00     0.141 HD
BRANCH  84  86
ATOM     86  C   UNL     1       1.865   2.873   6.381  1.00  0.00     0.130 C 
BRANCH  86  87
ATOM     87  C   UNL     1       0.549   3.595   6.728  1.00  0.00     0.133 C 
ATOM     88  C   UNL     1      -0.023   3.156   8.083  1.00  0.00     0.033 C 
ATOM     89  O   UNL     1       0.839   5.006   6.769  1.00  0.00    -0.377 OA
ATOM     90  C   UNL     1      -1.259   3.984   8.438  1.00  0.00     0.005 C 
ATOM     91  C   UNL     1      -0.340   5.788   6.962  1.00  0.00     0.160 C 
ATOM     92  C   UNL     1      -0.970   5.476   8.310  1.00  0.00     0.029 C 
ENDBRANCH  86  87
ENDBRANCH  84  86
ENDBRANCH  81  84
ENDBRANCH  79  81
ENDBRANCH  72  74
ENDBRANCH  71  72
ENDBRANCH   1  71
TORSDOF 15
