REMARK SMILES CCOc1cc2c(cc1OCC)[C@@H](C(=O)OCCOC(=O)c1ccc(-c3c4nc(c(-c5c(F)c(F)c(F)c(F)c5F)c5ccc([nH]5)c(-c5c(F)c(F)c(F)c(F)c5F)c5nc(c(-c6c(F)c(F)c(F)c(F)c6F)c6ccc3[nH]6)C=C5)C=C4)cc1)[C@H](c1ccc(F)cc1Cl)N(C)C2=O
REMARK SMILES IDX 17 1 16 2 14 3 15 4 13 5 4 6 5 7 9 8 6 9 8 10 7 11 96 12
REMARK SMILES IDX 94 13 97 14 85 15 95 16 3 17 2 18 1 19 10 20 11 21 12 22
REMARK SMILES IDX 86 23 87 24 92 25 88 26 91 27 93 28 89 29 90 30 18 31 19 32
REMARK SMILES IDX 20 33 21 34 22 35 23 36 84 37 24 38 83 39 25 40 26 41 27 42
REMARK SMILES IDX 77 43 28 44 82 45 76 46 78 47 29 48 81 49 75 50 74 51 30 53
REMARK SMILES IDX 62 54 42 55 61 56 43 57 46 58 60 59 79 60 44 61 45 62 59 64
REMARK SMILES IDX 80 65 47 66 31 67 32 68 40 69 33 70 34 71 38 72 41 73 35 74
REMARK SMILES IDX 36 75 39 76 37 77 63 78 64 79 72 80 65 81 66 82 70 83 73 84
REMARK SMILES IDX 67 85 68 86 71 87 69 88 48 89 49 90 57 91 50 92 51 93 55 94
REMARK SMILES IDX 58 95 52 96 53 97 56 98 54 99
REMARK H PARENT 78 52 46 63
REMARK Flexibility Score: inf
ROOT
ATOM      1  C   UNL     1       8.057  -2.063   1.797  1.00  0.00     0.274 C 
ENDROOT
BRANCH   1   2
ATOM      2  O   UNL     1       7.415  -0.772   1.776  1.00  0.00    -0.462 OA
BRANCH   2   3
ATOM      3  C   UNL     1       6.842  -0.360   2.932  1.00  0.00     0.316 C 
ATOM      4  O   UNL     1       6.866  -1.002   3.979  1.00  0.00    -0.251 OA
BRANCH   3   5
ATOM      5  C   UNL     1       6.106   0.971   2.833  1.00  0.00     0.157 C 
ATOM      6  C   UNL     1       1.920   0.427   2.030  1.00  0.00     0.161 A 
ATOM      7  C   UNL     1       2.834   0.630   0.982  1.00  0.00     0.064 A 
ATOM      8  C   UNL     1       2.367   0.397   3.359  1.00  0.00     0.161 A 
ATOM      9  C   UNL     1       4.193   0.766   1.242  1.00  0.00     0.048 A 
ATOM     10  C   UNL     1       3.736   0.551   3.606  1.00  0.00     0.056 A 
ATOM     11  C   UNL     1       4.644   0.748   2.560  1.00  0.00    -0.015 A 
ATOM     12  C   UNL     1       5.165   0.937   0.125  1.00  0.00     0.254 C 
ATOM     13  N   UNL     1       6.386   1.528   0.454  1.00  0.00    -0.333 N 
ATOM     14  O   UNL     1       4.875   0.543  -0.999  1.00  0.00    -0.269 OA
ATOM     15  C   UNL     1       6.665   2.005   1.811  1.00  0.00     0.135 C 
ATOM     16  C   UNL     1       7.423   1.614  -0.561  1.00  0.00     0.147 C 
BRANCH   6  17
ATOM     17  O   UNL     1       0.589   0.374   1.719  1.00  0.00    -0.490 OA
BRANCH  17  18
ATOM     18  C   UNL     1       0.234  -0.788   0.956  1.00  0.00     0.226 C 
ATOM     19  C   UNL     1       0.115  -0.470  -0.525  1.00  0.00     0.049 C 
ENDBRANCH  17  18
ENDBRANCH   6  17
BRANCH   8  20
ATOM     20  O   UNL     1       1.670   0.243   4.522  1.00  0.00    -0.490 OA
BRANCH  20  21
ATOM     21  C   UNL     1       0.263   0.052   4.521  1.00  0.00     0.226 C 
ATOM     22  C   UNL     1      -0.463   1.385   4.531  1.00  0.00     0.049 C 
ENDBRANCH  20  21
ENDBRANCH   8  20
BRANCH  15  23
ATOM     23  C   UNL     1       6.168   3.443   2.144  1.00  0.00    -0.005 A 
ATOM     24  C   UNL     1       6.511   3.933   3.435  1.00  0.00     0.010 A 
ATOM     25  C   UNL     1       5.385   4.305   1.343  1.00  0.00     0.049 A 
ATOM     26  C   UNL     1       6.022   5.143   3.933  1.00  0.00     0.040 A 
ATOM     27  C   UNL     1       4.901   5.524   1.849  1.00  0.00     0.060 A 
ATOM     28  Cl  UNL     1       4.950   4.034  -0.305  1.00  0.00    -0.084 Cl
ATOM     29  C   UNL     1       5.205   5.921   3.138  1.00  0.00     0.124 A 
ATOM     30  F   UNL     1       4.717   7.074   3.611  1.00  0.00    -0.207 F 
ENDBRANCH  15  23
ENDBRANCH   3   5
ENDBRANCH   2   3
ENDBRANCH   1   2
BRANCH   1  31
ATOM     31  C   UNL     1       9.573  -1.949   1.988  1.00  0.00     0.275 C 
BRANCH  31  32
ATOM     32  O   UNL     1       9.921  -1.461   3.298  1.00  0.00    -0.458 OA
BRANCH  32  33
ATOM     33  C   UNL     1       9.997  -0.115   3.395  1.00  0.00     0.338 C 
ATOM     34  O   UNL     1       9.854   0.701   2.498  1.00  0.00    -0.246 OA
BRANCH  33  35
ATOM     35  C   UNL     1      10.087   0.298   4.803  1.00  0.00     0.060 A 
ATOM     36  C   UNL     1       9.067   1.124   5.280  1.00  0.00     0.016 A 
ATOM     37  C   UNL     1      11.186  -0.002   5.605  1.00  0.00     0.016 A 
ATOM     38  C   UNL     1       9.145   1.685   6.545  1.00  0.00     0.010 A 
ATOM     39  C   UNL     1      11.268   0.563   6.884  1.00  0.00     0.010 A 
ATOM     40  C   UNL     1      10.260   1.429   7.347  1.00  0.00    -0.014 A 
BRANCH  40  41
ATOM     41  C   UNL     1      10.390   2.175   8.620  1.00  0.00     0.031 A 
ATOM     42  C   UNL     1      11.341   3.334   8.700  1.00  0.00     0.074 A 
ATOM     43  C   UNL     1       9.592   1.874   9.659  1.00  0.00     0.049 A 
ATOM     44  N   UNL     1      11.617   4.112   9.715  1.00  0.00    -0.248 NA
ATOM     45  C   UNL     1      12.077   3.666   7.469  1.00  0.00     0.031 C 
ATOM     46  C   UNL     1       8.586   0.812   9.670  1.00  0.00     0.029 A 
ATOM     47  N   UNL     1       9.491   2.446  10.902  1.00  0.00    -0.354 N 
ATOM     48  C   UNL     1      12.577   5.003   9.257  1.00  0.00     0.074 A 
ATOM     49  C   UNL     1      12.843   4.669   7.874  1.00  0.00     0.031 C 
ATOM     50  C   UNL     1       7.966   0.810  10.861  1.00  0.00     0.029 A 
ATOM     51  C   UNL     1       8.558   1.843  11.708  1.00  0.00     0.049 A 
ATOM     52  H   UNL     1      10.036   3.215  11.188  1.00  0.00     0.167 HD
ATOM     53  C   UNL     1      13.181   6.009   9.932  1.00  0.00     0.037 A 
ATOM     54  C   UNL     1       8.237   2.085  12.992  1.00  0.00     0.037 A 
ATOM     55  C   UNL     1      12.890   6.355  11.299  1.00  0.00     0.049 A 
ATOM     56  C   UNL     1       8.943   3.192  13.727  1.00  0.00     0.074 A 
ATOM     57  C   UNL     1      13.442   7.362  12.072  1.00  0.00     0.029 A 
ATOM     58  N   UNL     1      11.959   5.704  12.095  1.00  0.00    -0.354 N 
ATOM     59  N   UNL     1       9.864   4.019  13.292  1.00  0.00    -0.248 NA
ATOM     60  C   UNL     1       8.566   3.400  15.131  1.00  0.00     0.031 C 
ATOM     61  C   UNL     1      12.870   7.296  13.347  1.00  0.00     0.029 A 
ATOM     62  C   UNL     1      11.931   6.277  13.355  1.00  0.00     0.049 A 
ATOM     63  H   UNL     1      11.401   4.946  11.806  1.00  0.00     0.167 HD
ATOM     64  C   UNL     1      10.166   4.851  14.361  1.00  0.00     0.074 A 
ATOM     65  C   UNL     1       9.311   4.446  15.458  1.00  0.00     0.031 C 
ATOM     66  C   UNL     1      11.072   5.856  14.432  1.00  0.00     0.037 A 
BRANCH  53  67
ATOM     67  C   UNL     1      14.244   6.784   9.214  1.00  0.00     0.064 A 
ATOM     68  C   UNL     1      13.935   7.714   8.211  1.00  0.00     0.173 A 
ATOM     69  C   UNL     1      15.594   6.610   9.556  1.00  0.00     0.173 A 
ATOM     70  F   UNL     1      12.661   7.901   7.834  1.00  0.00    -0.203 F 
ATOM     71  C   UNL     1      14.940   8.428   7.564  1.00  0.00     0.198 A 
ATOM     72  C   UNL     1      16.594   7.343   8.924  1.00  0.00     0.198 A 
ATOM     73  F   UNL     1      15.942   5.731  10.508  1.00  0.00    -0.203 F 
ATOM     74  F   UNL     1      14.626   9.282   6.580  1.00  0.00    -0.200 F 
ATOM     75  C   UNL     1      16.267   8.248   7.925  1.00  0.00     0.200 A 
ATOM     76  F   UNL     1      17.875   7.172   9.280  1.00  0.00    -0.200 F 
ATOM     77  F   UNL     1      17.233   8.939   7.304  1.00  0.00    -0.200 F 
ENDBRANCH  53  67
BRANCH  54  78
ATOM     78  C   UNL     1       7.218   1.246  13.673  1.00  0.00     0.064 A 
ATOM     79  C   UNL     1       5.979   1.775  14.057  1.00  0.00     0.173 A 
ATOM     80  C   UNL     1       7.472  -0.102  13.968  1.00  0.00     0.173 A 
ATOM     81  F   UNL     1       5.700   3.065  13.820  1.00  0.00    -0.203 F 
ATOM     82  C   UNL     1       5.039   0.992  14.726  1.00  0.00     0.198 A 
ATOM     83  C   UNL     1       6.521  -0.891  14.611  1.00  0.00     0.198 A 
ATOM     84  F   UNL     1       8.644  -0.656  13.623  1.00  0.00    -0.203 F 
ATOM     85  F   UNL     1       3.881   1.535  15.124  1.00  0.00    -0.200 F 
ATOM     86  C   UNL     1       5.309  -0.341  14.997  1.00  0.00     0.200 A 
ATOM     87  F   UNL     1       6.782  -2.182  14.860  1.00  0.00    -0.200 F 
ATOM     88  F   UNL     1       4.404  -1.093  15.639  1.00  0.00    -0.200 F 
ENDBRANCH  54  78
BRANCH  66  89
ATOM     89  C   UNL     1      11.166   6.597  15.733  1.00  0.00     0.064 A 
ATOM     90  C   UNL     1      11.751   6.014  16.867  1.00  0.00     0.173 A 
ATOM     91  C   UNL     1      10.682   7.909  15.841  1.00  0.00     0.173 A 
ATOM     92  F   UNL     1      12.213   4.756  16.817  1.00  0.00    -0.203 F 
ATOM     93  C   UNL     1      11.821   6.709  18.071  1.00  0.00     0.198 A 
ATOM     94  C   UNL     1      10.778   8.610  17.039  1.00  0.00     0.198 A 
ATOM     95  F   UNL     1      10.120   8.512  14.783  1.00  0.00    -0.203 F 
ATOM     96  F   UNL     1      12.337   6.115  19.156  1.00  0.00    -0.200 F 
ATOM     97  C   UNL     1      11.339   8.007  18.155  1.00  0.00     0.200 A 
ATOM     98  F   UNL     1      10.322   9.868  17.116  1.00  0.00    -0.200 F 
ATOM     99  F   UNL     1      11.407   8.674  19.315  1.00  0.00    -0.200 F 
ENDBRANCH  66  89
ENDBRANCH  40  41
ENDBRANCH  33  35
ENDBRANCH  32  33
ENDBRANCH  31  32
ENDBRANCH   1  31
TORSDOF 16
