REMARK SMILES CC(C)=C1[C@H]2CC[C@@H]1[C@@H](C(=O)NNC(=O)COc1cc(C)c(Cl)c(C)c1)[C@H]2C(=O)OCCOC(=O)c1ccc(-c2c3nc(c(-c4c(F)c(F)c(F)c(F)c4F)c4ccc([nH]4)c(-c4c(F)c(F)c(F)c(F)c4F)c4nc(c(-c5c(F)c(F)c(F)c(F)c5F)c5ccc2[nH]5)C=C4)C=C3)cc1
REMARK SMILES IDX 30 1 28 2 29 3 27 4 1 5 2 6 3 7 4 8 5 9 8 10 6 11 7 12 9 13
REMARK SMILES IDX 10 14 11 15 12 16 13 18 14 19 15 21 16 22 17 23 18 24 19 25
REMARK SMILES IDX 26 26 20 27 24 28 21 29 22 30 25 31 23 32 31 33 32 34 33 35
REMARK SMILES IDX 34 36 35 37 36 38 37 39 98 40 38 41 97 42 39 43 40 44 41 45
REMARK SMILES IDX 91 46 42 47 96 48 90 49 92 50 43 51 95 52 89 53 88 54 44 56
REMARK SMILES IDX 76 57 56 58 75 59 57 60 60 61 74 62 93 63 58 64 59 65 73 67
REMARK SMILES IDX 94 68 61 69 45 70 46 71 54 72 47 73 48 74 52 75 55 76 49 77
REMARK SMILES IDX 50 78 53 79 51 80 77 81 78 82 86 83 79 84 80 85 84 86 87 87
REMARK SMILES IDX 81 88 82 89 85 90 83 91 62 92 63 93 71 94 64 95 65 96 69 97
REMARK SMILES IDX 72 98 66 99 67 100 70 101 68 102
REMARK H PARENT 12 17 13 20 92 55 60 66
REMARK Flexibility Score: inf
ROOT
ATOM      1  O   UNL     1       3.116  -3.101  -3.238  1.00  0.00    -0.462 OA
ENDROOT
BRANCH   1   2
ATOM      2  C   UNL     1       3.197  -2.227  -4.256  1.00  0.00     0.310 C 
ATOM      3  O   UNL     1       3.938  -2.352  -5.226  1.00  0.00    -0.252 OA
BRANCH   2   4
ATOM      4  C   UNL     1       2.349  -0.999  -4.077  1.00  0.00     0.119 C 
ATOM      5  C   UNL     1       0.226   0.264   0.019  1.00  0.00     0.039 C 
ATOM      6  C   UNL     1       0.085  -0.608  -1.203  1.00  0.00    -0.077 C 
ATOM      7  C   UNL     1      -0.874  -1.760  -1.075  1.00  0.00     0.039 C 
ATOM      8  C   UNL     1       0.799  -0.375  -2.319  1.00  0.00    -0.064 C 
ATOM      9  C   UNL     1       0.850  -1.063  -3.667  1.00  0.00     0.030 C 
ATOM     10  C   UNL     1       1.686   0.787  -2.629  1.00  0.00     0.029 C 
ATOM     11  C   UNL     1       0.147   0.084  -4.417  1.00  0.00     0.009 C 
ATOM     12  C   UNL     1       0.829   1.343  -3.807  1.00  0.00     0.009 C 
ATOM     13  C   UNL     1       2.942   0.075  -3.158  1.00  0.00     0.102 C 
BRANCH  13  14
ATOM     14  C   UNL     1       4.054  -0.330  -2.152  1.00  0.00     0.242 C 
ATOM     15  O   UNL     1       5.154   0.233  -2.256  1.00  0.00    -0.273 OA
ATOM     16  N   UNL     1       3.961  -1.274  -1.157  1.00  0.00    -0.267 N 
ATOM     17  H   UNL     1       4.780  -1.455  -0.641  1.00  0.00     0.191 HD
BRANCH  16  18
ATOM     18  N   UNL     1       2.837  -1.995  -0.809  1.00  0.00    -0.265 N 
ATOM     19  C   UNL     1       2.632  -2.800   0.273  1.00  0.00     0.276 C 
ATOM     20  H   UNL     1       2.075  -1.917  -1.429  1.00  0.00     0.191 HD
ATOM     21  O   UNL     1       1.467  -3.031   0.617  1.00  0.00    -0.269 OA
BRANCH  19  22
ATOM     22  C   UNL     1       3.787  -3.448   1.027  1.00  0.00     0.331 C 
BRANCH  22  23
ATOM     23  O   UNL     1       4.528  -4.488   0.405  1.00  0.00    -0.484 OA
BRANCH  23  24
ATOM     24  C   UNL     1       3.945  -5.676   0.052  1.00  0.00     0.120 A 
ATOM     25  C   UNL     1       2.591  -5.925  -0.164  1.00  0.00     0.051 A 
ATOM     26  C   UNL     1       4.863  -6.685  -0.259  1.00  0.00     0.051 A 
ATOM     27  C   UNL     1       2.157  -7.116  -0.790  1.00  0.00    -0.029 A 
ATOM     28  C   UNL     1       4.460  -7.910  -0.823  1.00  0.00    -0.029 A 
ATOM     29  C   UNL     1       0.721  -7.216  -1.248  1.00  0.00     0.046 C 
ATOM     30  C   UNL     1       3.099  -8.109  -1.111  1.00  0.00     0.047 A 
ATOM     31  C   UNL     1       5.509  -8.921  -1.197  1.00  0.00     0.046 C 
ATOM     32  Cl  UNL     1       2.595  -9.538  -1.956  1.00  0.00    -0.084 Cl
ENDBRANCH  23  24
ENDBRANCH  22  23
ENDBRANCH  19  22
ENDBRANCH  16  18
ENDBRANCH  13  14
ENDBRANCH   2   4
ENDBRANCH   1   2
BRANCH   1  33
ATOM     33  C   UNL     1       4.080  -4.171  -3.259  1.00  0.00     0.274 C 
BRANCH  33  34
ATOM     34  C   UNL     1       3.383  -5.492  -3.536  1.00  0.00     0.275 C 
BRANCH  34  35
ATOM     35  O   UNL     1       2.865  -5.530  -4.863  1.00  0.00    -0.458 OA
BRANCH  35  36
ATOM     36  C   UNL     1       1.611  -5.037  -5.002  1.00  0.00     0.338 C 
ATOM     37  O   UNL     1       0.841  -4.637  -4.156  1.00  0.00    -0.246 OA
BRANCH  36  38
ATOM     38  C   UNL     1       1.425  -4.883  -6.441  1.00  0.00     0.060 A 
ATOM     39  C   UNL     1       1.332  -3.589  -6.959  1.00  0.00     0.016 A 
ATOM     40  C   UNL     1       1.464  -6.011  -7.260  1.00  0.00     0.016 A 
ATOM     41  C   UNL     1       1.324  -3.412  -8.332  1.00  0.00     0.010 A 
ATOM     42  C   UNL     1       1.452  -5.833  -8.633  1.00  0.00     0.010 A 
ATOM     43  C   UNL     1       1.391  -4.534  -9.165  1.00  0.00    -0.014 A 
BRANCH  43  44
ATOM     44  C   UNL     1       1.332  -4.365 -10.622  1.00  0.00     0.031 A 
ATOM     45  C   UNL     1       0.040  -4.648 -11.313  1.00  0.00     0.074 A 
ATOM     46  C   UNL     1       2.441  -3.995 -11.284  1.00  0.00     0.049 A 
ATOM     47  N   UNL     1      -0.225  -4.678 -12.590  1.00  0.00    -0.248 NA
ATOM     48  C   UNL     1      -1.109  -4.957 -10.445  1.00  0.00     0.031 C 
ATOM     49  C   UNL     1       3.729  -3.683 -10.663  1.00  0.00     0.029 A 
ATOM     50  N   UNL     1       2.663  -3.835 -12.623  1.00  0.00    -0.354 N 
ATOM     51  C   UNL     1      -1.565  -5.022 -12.680  1.00  0.00     0.074 A 
ATOM     52  C   UNL     1      -2.053  -5.221 -11.334  1.00  0.00     0.031 C 
ATOM     53  C   UNL     1       4.613  -3.374 -11.626  1.00  0.00     0.029 A 
ATOM     54  C   UNL     1       3.961  -3.506 -12.925  1.00  0.00     0.049 A 
ATOM     55  H   UNL     1       1.961  -3.944 -13.305  1.00  0.00     0.167 HD
ATOM     56  C   UNL     1      -2.313  -5.154 -13.799  1.00  0.00     0.037 A 
ATOM     57  C   UNL     1       4.547  -3.357 -14.126  1.00  0.00     0.037 A 
ATOM     58  C   UNL     1      -1.789  -4.955 -15.123  1.00  0.00     0.049 A 
ATOM     59  C   UNL     1       3.700  -3.548 -15.355  1.00  0.00     0.074 A 
ATOM     60  C   UNL     1      -2.441  -5.054 -16.337  1.00  0.00     0.029 A 
ATOM     61  N   UNL     1      -0.469  -4.617 -15.399  1.00  0.00    -0.354 N 
ATOM     62  N   UNL     1       2.427  -3.858 -15.443  1.00  0.00    -0.248 NA
ATOM     63  C   UNL     1       4.365  -3.369 -16.651  1.00  0.00     0.031 C 
ATOM     64  C   UNL     1      -1.506  -4.817 -17.350  1.00  0.00     0.029 A 
ATOM     65  C   UNL     1      -0.282  -4.520 -16.767  1.00  0.00     0.049 A 
ATOM     66  H   UNL     1       0.230  -4.469 -14.722  1.00  0.00     0.167 HD
ATOM     67  C   UNL     1       2.132  -3.889 -16.797  1.00  0.00     0.074 A 
ATOM     68  C   UNL     1       3.358  -3.550 -17.494  1.00  0.00     0.031 C 
ATOM     69  C   UNL     1       0.958  -4.173 -17.415  1.00  0.00     0.037 A 
BRANCH  56  70
ATOM     70  C   UNL     1      -3.745  -5.561 -13.624  1.00  0.00     0.064 A 
ATOM     71  C   UNL     1      -4.694  -4.695 -13.058  1.00  0.00     0.173 A 
ATOM     72  C   UNL     1      -4.174  -6.837 -14.016  1.00  0.00     0.173 A 
ATOM     73  F   UNL     1      -4.331  -3.472 -12.643  1.00  0.00    -0.203 F 
ATOM     74  C   UNL     1      -6.012  -5.104 -12.864  1.00  0.00     0.198 A 
ATOM     75  C   UNL     1      -5.498  -7.232 -13.847  1.00  0.00     0.198 A 
ATOM     76  F   UNL     1      -3.306  -7.706 -14.555  1.00  0.00    -0.203 F 
ATOM     77  F   UNL     1      -6.886  -4.281 -12.269  1.00  0.00    -0.200 F 
ATOM     78  C   UNL     1      -6.414  -6.369 -13.264  1.00  0.00     0.200 A 
ATOM     79  F   UNL     1      -5.887  -8.454 -14.239  1.00  0.00    -0.200 F 
ATOM     80  F   UNL     1      -7.681  -6.762 -13.076  1.00  0.00    -0.200 F 
ENDBRANCH  56  70
BRANCH  57  81
ATOM     81  C   UNL     1       5.989  -3.012 -14.215  1.00  0.00     0.064 A 
ATOM     82  C   UNL     1       6.403  -1.760 -14.690  1.00  0.00     0.173 A 
ATOM     83  C   UNL     1       6.984  -3.919 -13.819  1.00  0.00     0.173 A 
ATOM     84  F   UNL     1       5.492  -0.865 -15.098  1.00  0.00    -0.203 F 
ATOM     85  C   UNL     1       7.755  -1.435 -14.781  1.00  0.00     0.198 A 
ATOM     86  C   UNL     1       8.335  -3.583 -13.884  1.00  0.00     0.198 A 
ATOM     87  F   UNL     1       6.643  -5.130 -13.354  1.00  0.00    -0.203 F 
ATOM     88  F   UNL     1       8.124  -0.246 -15.277  1.00  0.00    -0.200 F 
ATOM     89  C   UNL     1       8.720  -2.344 -14.372  1.00  0.00     0.200 A 
ATOM     90  F   UNL     1       9.262  -4.459 -13.475  1.00  0.00    -0.200 F 
ATOM     91  F   UNL     1      10.020  -2.028 -14.455  1.00  0.00    -0.200 F 
ENDBRANCH  57  81
BRANCH  69  92
ATOM     92  C   UNL     1       0.946  -4.093 -18.912  1.00  0.00     0.064 A 
ATOM     93  C   UNL     1       1.569  -5.068 -19.704  1.00  0.00     0.173 A 
ATOM     94  C   UNL     1       0.263  -3.052 -19.558  1.00  0.00     0.173 A 
ATOM     95  F   UNL     1       2.247  -6.073 -19.130  1.00  0.00    -0.203 F 
ATOM     96  C   UNL     1       1.527  -4.990 -21.093  1.00  0.00     0.198 A 
ATOM     97  C   UNL     1       0.197  -2.994 -20.946  1.00  0.00     0.198 A 
ATOM     98  F   UNL     1      -0.355  -2.100 -18.841  1.00  0.00    -0.203 F 
ATOM     99  F   UNL     1       2.167  -5.906 -21.832  1.00  0.00    -0.200 F 
ATOM    100  C   UNL     1       0.835  -3.959 -21.712  1.00  0.00     0.200 A 
ATOM    101  F   UNL     1      -0.484  -2.006 -21.542  1.00  0.00    -0.200 F 
ATOM    102  F   UNL     1       0.788  -3.891 -23.049  1.00  0.00    -0.200 F 
ENDBRANCH  69  92
ENDBRANCH  43  44
ENDBRANCH  36  38
ENDBRANCH  35  36
ENDBRANCH  34  35
ENDBRANCH  33  34
ENDBRANCH   1  33
TORSDOF 16
