REMARK SMILES CCN(CCC#N)C(=O)c1ccncc1/C=C/C(=O)OCCOC(=O)c1ccc(-c2c3nc(c(-c4c(F)c(F)c(F)c(F)c4F)c4ccc([nH]4)c(-c4c(F)c(F)c(F)c(F)c4F)c4nc(c(-c5c(F)c(F)c(F)c(F)c5F)c5ccc2[nH]5)C=C4)C=C3)cc1
REMARK SMILES IDX 18 1 19 2 17 3 16 4 15 5 10 6 11 7 12 8 14 9 13 10 8 11 9 12
REMARK SMILES IDX 3 13 2 14 1 15 4 16 5 17 6 18 7 19 20 20 21 21 22 22 23 23
REMARK SMILES IDX 24 24 25 25 26 26 27 27 88 28 28 29 87 30 29 31 30 32 31 33
REMARK SMILES IDX 81 34 32 35 86 36 80 37 82 38 33 39 85 40 79 41 78 42 34 44
REMARK SMILES IDX 66 45 46 46 65 47 47 48 50 49 64 50 83 51 48 52 49 53 63 55
REMARK SMILES IDX 84 56 51 57 35 58 36 59 44 60 37 61 38 62 42 63 45 64 39 65
REMARK SMILES IDX 40 66 43 67 41 68 67 69 68 70 76 71 69 72 70 73 74 74 77 75
REMARK SMILES IDX 71 76 72 77 75 78 73 79 52 80 53 81 61 82 54 83 55 84 59 85
REMARK SMILES IDX 62 86 56 87 57 88 60 89 58 90
REMARK H PARENT 82 43 50 54
REMARK Flexibility Score: inf
ROOT
ATOM      1  C   UNL     1       6.508   2.542  -0.697  1.00  0.00     0.330 C 
ATOM      2  O   UNL     1       7.680   2.845  -0.873  1.00  0.00    -0.247 OA
ENDROOT
BRANCH   1   3
ATOM      3  C   UNL     1       5.811   2.920   0.546  1.00  0.00     0.094 C 
ATOM      4  C   UNL     1       4.492   2.830   0.784  1.00  0.00     0.018 C 
BRANCH   4   5
ATOM      5  C   UNL     1       3.965   3.283   2.080  1.00  0.00     0.006 A 
ATOM      6  C   UNL     1       3.229   2.469   2.945  1.00  0.00     0.050 A 
ATOM      7  C   UNL     1       3.059   2.843   4.275  1.00  0.00     0.034 A 
ATOM      8  C   UNL     1       3.433   4.117   4.652  1.00  0.00     0.112 A 
ATOM      9  C   UNL     1       4.266   4.559   2.556  1.00  0.00     0.119 A 
ATOM     10  N   UNL     1       3.991   5.002   3.805  1.00  0.00    -0.264 NA
BRANCH   6  11
ATOM     11  C   UNL     1       2.624   1.204   2.484  1.00  0.00     0.254 C 
ATOM     12  O   UNL     1       3.378   0.295   2.148  1.00  0.00    -0.269 OA
BRANCH  11  13
ATOM     13  N   UNL     1       1.223   1.119   2.389  1.00  0.00    -0.338 N 
BRANCH  13  14
ATOM     14  C   UNL     1       0.684  -0.044   1.674  1.00  0.00     0.116 C 
ATOM     15  C   UNL     1       0.902   0.057   0.168  1.00  0.00     0.027 C 
ENDBRANCH  13  14
BRANCH  13  16
ATOM     16  C   UNL     1       0.243   2.137   2.831  1.00  0.00     0.135 C 
BRANCH  16  17
ATOM     17  C   UNL     1      -0.546   1.731   4.089  1.00  0.00     0.141 C 
BRANCH  17  18
ATOM     18  C   UNL     1       0.027   2.267   5.332  1.00  0.00     0.064 C 
ATOM     19  N   UNL     1       0.466   2.693   6.315  1.00  0.00    -0.198 NA
ENDBRANCH  17  18
ENDBRANCH  16  17
ENDBRANCH  13  16
ENDBRANCH  11  13
ENDBRANCH   6  11
ENDBRANCH   4   5
ENDBRANCH   1   3
BRANCH   1  20
ATOM     20  O   UNL     1       5.692   1.935  -1.586  1.00  0.00    -0.459 OA
BRANCH  20  21
ATOM     21  C   UNL     1       6.245   1.752  -2.900  1.00  0.00     0.275 C 
BRANCH  21  22
ATOM     22  C   UNL     1       5.798   2.875  -3.841  1.00  0.00     0.275 C 
BRANCH  22  23
ATOM     23  O   UNL     1       6.358   4.153  -3.474  1.00  0.00    -0.458 OA
BRANCH  23  24
ATOM     24  C   UNL     1       5.602   4.890  -2.627  1.00  0.00     0.338 C 
ATOM     25  O   UNL     1       4.508   4.603  -2.169  1.00  0.00    -0.246 OA
BRANCH  24  26
ATOM     26  C   UNL     1       6.322   6.110  -2.225  1.00  0.00     0.060 A 
ATOM     27  C   UNL     1       6.515   6.341  -0.860  1.00  0.00     0.016 A 
ATOM     28  C   UNL     1       6.688   7.075  -3.164  1.00  0.00     0.016 A 
ATOM     29  C   UNL     1       7.038   7.556  -0.423  1.00  0.00     0.010 A 
ATOM     30  C   UNL     1       7.232   8.287  -2.724  1.00  0.00     0.010 A 
ATOM     31  C   UNL     1       7.386   8.548  -1.350  1.00  0.00    -0.014 A 
BRANCH  31  32
ATOM     32  C   UNL     1       7.840   9.880  -0.872  1.00  0.00     0.031 A 
ATOM     33  C   UNL     1       6.959  11.084  -1.062  1.00  0.00     0.074 A 
ATOM     34  C   UNL     1       9.025  10.005  -0.246  1.00  0.00     0.049 A 
ATOM     35  N   UNL     1       7.194  12.341  -0.777  1.00  0.00    -0.248 NA
ATOM     36  C   UNL     1       5.637  10.842  -1.658  1.00  0.00     0.031 C 
ATOM     37  C   UNL     1       9.950   8.908   0.035  1.00  0.00     0.029 A 
ATOM     38  N   UNL     1       9.655  11.113   0.266  1.00  0.00    -0.354 N 
ATOM     39  C   UNL     1       6.060  13.039  -1.173  1.00  0.00     0.074 A 
ATOM     40  C   UNL     1       5.152  12.072  -1.753  1.00  0.00     0.031 C 
ATOM     41  C   UNL     1      11.024   9.394   0.677  1.00  0.00     0.029 A 
ATOM     42  C   UNL     1      10.890  10.843   0.801  1.00  0.00     0.049 A 
ATOM     43  H   UNL     1       9.259  12.014   0.250  1.00  0.00     0.167 HD
ATOM     44  C   UNL     1       5.797  14.363  -1.053  1.00  0.00     0.037 A 
ATOM     45  C   UNL     1      11.821  11.674   1.308  1.00  0.00     0.037 A 
ATOM     46  C   UNL     1       6.704  15.319  -0.469  1.00  0.00     0.049 A 
ATOM     47  C   UNL     1      11.535  13.153   1.356  1.00  0.00     0.074 A 
ATOM     48  C   UNL     1       6.529  16.681  -0.295  1.00  0.00     0.029 A 
ATOM     49  N   UNL     1       7.963  15.012   0.030  1.00  0.00    -0.354 N 
ATOM     50  N   UNL     1      10.459  13.804   0.985  1.00  0.00    -0.248 NA
ATOM     51  C   UNL     1      12.596  14.013   1.897  1.00  0.00     0.031 C 
ATOM     52  C   UNL     1       7.706  17.209   0.246  1.00  0.00     0.029 A 
ATOM     53  C   UNL     1       8.585  16.165   0.487  1.00  0.00     0.049 A 
ATOM     54  H   UNL     1       8.356  14.110   0.056  1.00  0.00     0.167 HD
ATOM     55  C   UNL     1      10.695  15.139   1.288  1.00  0.00     0.074 A 
ATOM     56  C   UNL     1      12.013  15.202   1.885  1.00  0.00     0.031 C 
ATOM     57  C   UNL     1       9.892  16.214   1.094  1.00  0.00     0.037 A 
BRANCH  44  58
ATOM     58  C   UNL     1       4.487  14.866  -1.594  1.00  0.00     0.064 A 
ATOM     59  C   UNL     1       3.259  14.529  -1.003  1.00  0.00     0.173 A 
ATOM     60  C   UNL     1       4.461  15.727  -2.703  1.00  0.00     0.173 A 
ATOM     61  F   UNL     1       3.222  13.702   0.053  1.00  0.00    -0.203 F 
ATOM     62  C   UNL     1       2.057  15.005  -1.522  1.00  0.00     0.198 A 
ATOM     63  C   UNL     1       3.261  16.231  -3.196  1.00  0.00     0.198 A 
ATOM     64  F   UNL     1       5.604  16.090  -3.304  1.00  0.00    -0.203 F 
ATOM     65  F   UNL     1       0.894  14.621  -0.976  1.00  0.00    -0.200 F 
ATOM     66  C   UNL     1       2.059  15.862  -2.612  1.00  0.00     0.200 A 
ATOM     67  F   UNL     1       3.267  17.074  -4.238  1.00  0.00    -0.200 F 
ATOM     68  F   UNL     1       0.902  16.325  -3.105  1.00  0.00    -0.200 F 
ENDBRANCH  44  58
BRANCH  45  69
ATOM     69  C   UNL     1      13.120  11.136   1.797  1.00  0.00     0.064 A 
ATOM     70  C   UNL     1      13.478  11.224   3.150  1.00  0.00     0.173 A 
ATOM     71  C   UNL     1      14.044  10.552   0.917  1.00  0.00     0.173 A 
ATOM     72  F   UNL     1      12.640  11.794   4.028  1.00  0.00    -0.203 F 
ATOM     73  C   UNL     1      14.720  10.779   3.597  1.00  0.00     0.198 A 
ATOM     74  C   UNL     1      15.271  10.073   1.372  1.00  0.00     0.198 A 
ATOM     75  F   UNL     1      13.755  10.443  -0.388  1.00  0.00    -0.203 F 
ATOM     76  F   UNL     1      15.062  10.937   4.883  1.00  0.00    -0.200 F 
ATOM     77  C   UNL     1      15.614  10.199   2.709  1.00  0.00     0.200 A 
ATOM     78  F   UNL     1      16.124   9.500   0.513  1.00  0.00    -0.200 F 
ATOM     79  F   UNL     1      16.809   9.774   3.140  1.00  0.00    -0.200 F 
ENDBRANCH  45  69
BRANCH  57  80
ATOM     80  C   UNL     1      10.384  17.545   1.594  1.00  0.00     0.064 A 
ATOM     81  C   UNL     1      11.477  18.205   1.013  1.00  0.00     0.173 A 
ATOM     82  C   UNL     1       9.732  18.180   2.663  1.00  0.00     0.173 A 
ATOM     83  F   UNL     1      12.145  17.640  -0.004  1.00  0.00    -0.203 F 
ATOM     84  C   UNL     1      11.924  19.428   1.510  1.00  0.00     0.198 A 
ATOM     85  C   UNL     1      10.154  19.422   3.130  1.00  0.00     0.198 A 
ATOM     86  F   UNL     1       8.674  17.601   3.252  1.00  0.00    -0.203 F 
ATOM     87  F   UNL     1      13.012  20.005   0.982  1.00  0.00    -0.200 F 
ATOM     88  C   UNL     1      11.258  20.038   2.562  1.00  0.00     0.200 A 
ATOM     89  F   UNL     1       9.495  20.019   4.132  1.00  0.00    -0.200 F 
ATOM     90  F   UNL     1      11.685  21.217   3.034  1.00  0.00    -0.200 F 
ENDBRANCH  57  80
ENDBRANCH  31  32
ENDBRANCH  24  26
ENDBRANCH  23  24
ENDBRANCH  22  23
ENDBRANCH  21  22
ENDBRANCH  20  21
ENDBRANCH   1  20
TORSDOF 18
