REMARK SMILES CC1=CC[C@@H]2C(=O)N(c3ccc(Cl)c(C(=O)OCCOC(=O)c4ccc(-c5c6nc(c(-c7c(F)c(F)c(F)c(F)c7F)c7ccc([nH]7)c(-c7c(F)c(F)c(F)c(F)c7F)c7nc(c(-c8c(F)c(F)c(F)c(F)c8F)c8ccc5[nH]8)C=C7)C=C6)cc4)c3)C(=O)[C@H]2C1
REMARK SMILES IDX 19 1 18 2 17 3 15 4 16 5 14 6 9 7 10 8 86 9 11 10 12 11
REMARK SMILES IDX 13 12 8 13 1 14 2 15 3 16 90 17 4 18 89 19 5 20 87 21 6 22
REMARK SMILES IDX 88 23 7 24 20 25 21 26 22 27 23 28 24 29 85 30 25 31 84 32
REMARK SMILES IDX 26 33 27 34 28 35 78 36 29 37 83 38 77 39 79 40 30 41 82 42
REMARK SMILES IDX 76 43 75 44 31 46 63 47 43 48 62 49 44 50 47 51 61 52 80 53
REMARK SMILES IDX 45 54 46 55 60 57 81 58 48 59 32 60 33 61 41 62 34 63 35 64
REMARK SMILES IDX 39 65 42 66 36 67 37 68 40 69 38 70 64 71 65 72 73 73 66 74
REMARK SMILES IDX 67 75 71 76 74 77 68 78 69 79 72 80 70 81 49 82 50 83 58 84
REMARK SMILES IDX 51 85 52 86 56 87 59 88 53 89 54 90 57 91 55 92
REMARK H PARENT 79 45 47 56
REMARK Flexibility Score: inf
ROOT
ATOM      1  C   UNL     1       1.918 -11.571   4.703  1.00  0.00     0.275 C 
ENDROOT
BRANCH   1   2
ATOM      2  C   UNL     1       0.915 -11.996   3.635  1.00  0.00     0.275 C 
BRANCH   2   3
ATOM      3  O   UNL     1       1.169 -11.307   2.391  1.00  0.00    -0.458 OA
BRANCH   3   4
ATOM      4  C   UNL     1       0.247 -10.389   2.026  1.00  0.00     0.339 C 
ATOM      5  O   UNL     1      -0.725 -10.029   2.674  1.00  0.00    -0.246 OA
BRANCH   4   6
ATOM      6  C   UNL     1       0.591  -9.746   0.743  1.00  0.00     0.080 A 
ATOM      7  C   UNL     1       0.656  -7.639  -0.492  1.00  0.00     0.053 A 
ATOM      8  C   UNL     1       0.797  -8.357  -1.680  1.00  0.00     0.028 A 
ATOM      9  C   UNL     1       0.557  -8.340   0.710  1.00  0.00     0.044 A 
ATOM     10  C   UNL     1       0.887  -9.755  -1.651  1.00  0.00     0.023 A 
ATOM     11  C   UNL     1       0.773 -10.457  -0.443  1.00  0.00     0.055 A 
ATOM     12  Cl  UNL     1       0.772 -12.181  -0.517  1.00  0.00    -0.083 Cl
BRANCH   7  13
ATOM     13  N   UNL     1       0.532  -6.235  -0.492  1.00  0.00    -0.250 N 
ATOM     14  C   UNL     1       1.150  -0.224   0.135  1.00  0.00     0.039 C 
ATOM     15  C   UNL     1       0.566  -1.584  -0.126  1.00  0.00    -0.076 C 
ATOM     16  C   UNL     1      -0.634  -1.738  -0.731  1.00  0.00    -0.027 C 
ATOM     17  C   UNL     1       1.416  -2.772   0.324  1.00  0.00     0.044 C 
ATOM     18  C   UNL     1      -1.217  -3.084  -1.115  1.00  0.00     0.041 C 
ATOM     19  C   UNL     1       0.589  -4.045   0.256  1.00  0.00     0.096 C 
ATOM     20  C   UNL     1      -0.099  -4.106  -1.100  1.00  0.00     0.096 C 
ATOM     21  C   UNL     1       1.258  -5.387   0.329  1.00  0.00     0.238 C 
ATOM     22  C   UNL     1      -0.421  -5.562  -1.237  1.00  0.00     0.238 C 
ATOM     23  O   UNL     1       2.206  -5.655   1.050  1.00  0.00    -0.274 OA
ATOM     24  O   UNL     1      -1.327  -6.022  -1.906  1.00  0.00    -0.274 OA
ENDBRANCH   7  13
ENDBRANCH   4   6
ENDBRANCH   3   4
ENDBRANCH   2   3
ENDBRANCH   1   2
BRANCH   1  25
ATOM     25  O   UNL     1       1.704 -10.187   5.035  1.00  0.00    -0.458 OA
BRANCH  25  26
ATOM     26  C   UNL     1       2.698  -9.341   4.688  1.00  0.00     0.338 C 
ATOM     27  O   UNL     1       3.787  -9.620   4.210  1.00  0.00    -0.246 OA
BRANCH  26  28
ATOM     28  C   UNL     1       2.262  -7.955   4.913  1.00  0.00     0.060 A 
ATOM     29  C   UNL     1       1.178  -7.471   4.192  1.00  0.00     0.016 A 
ATOM     30  C   UNL     1       3.015  -7.090   5.702  1.00  0.00     0.016 A 
ATOM     31  C   UNL     1       0.933  -6.102   4.134  1.00  0.00     0.010 A 
ATOM     32  C   UNL     1       2.677  -5.731   5.752  1.00  0.00     0.010 A 
ATOM     33  C   UNL     1       1.666  -5.206   4.924  1.00  0.00    -0.014 A 
BRANCH  33  34
ATOM     34  C   UNL     1       1.403  -3.736   4.852  1.00  0.00     0.031 A 
ATOM     35  C   UNL     1       2.529  -2.768   4.578  1.00  0.00     0.074 A 
ATOM     36  C   UNL     1       0.155  -3.249   5.016  1.00  0.00     0.049 A 
ATOM     37  N   UNL     1       2.545  -1.461   4.683  1.00  0.00    -0.248 NA
ATOM     38  C   UNL     1       3.812  -3.345   4.151  1.00  0.00     0.031 C 
ATOM     39  C   UNL     1      -1.047  -4.051   5.250  1.00  0.00     0.029 A 
ATOM     40  N   UNL     1      -0.314  -1.956   5.005  1.00  0.00    -0.354 N 
ATOM     41  C   UNL     1       3.854  -1.073   4.420  1.00  0.00     0.074 A 
ATOM     42  C   UNL     1       4.602  -2.280   4.141  1.00  0.00     0.031 C 
ATOM     43  C   UNL     1      -2.116  -3.244   5.304  1.00  0.00     0.029 A 
ATOM     44  C   UNL     1      -1.668  -1.859   5.223  1.00  0.00     0.049 A 
ATOM     45  H   UNL     1       0.265  -1.173   4.856  1.00  0.00     0.167 HD
ATOM     46  C   UNL     1       4.382   0.176   4.414  1.00  0.00     0.037 A 
ATOM     47  C   UNL     1      -2.461  -0.785   5.394  1.00  0.00     0.037 A 
ATOM     48  C   UNL     1       3.621   1.384   4.606  1.00  0.00     0.049 A 
ATOM     49  C   UNL     1      -1.853   0.589   5.384  1.00  0.00     0.074 A 
ATOM     50  C   UNL     1       4.062   2.696   4.578  1.00  0.00     0.029 A 
ATOM     51  N   UNL     1       2.255   1.429   4.843  1.00  0.00    -0.354 N 
ATOM     52  N   UNL     1      -0.606   0.939   5.194  1.00  0.00    -0.248 NA
ATOM     53  C   UNL     1      -2.762   1.715   5.639  1.00  0.00     0.031 C 
ATOM     54  C   UNL     1       2.970   3.534   4.830  1.00  0.00     0.029 A 
ATOM     55  C   UNL     1       1.840   2.746   4.970  1.00  0.00     0.049 A 
ATOM     56  H   UNL     1       1.667   0.642   4.910  1.00  0.00     0.167 HD
ATOM     57  C   UNL     1      -0.579   2.322   5.298  1.00  0.00     0.074 A 
ATOM     58  C   UNL     1      -1.940   2.751   5.543  1.00  0.00     0.031 C 
ATOM     59  C   UNL     1       0.482   3.160   5.207  1.00  0.00     0.037 A 
BRANCH  46  60
ATOM     60  C   UNL     1       5.866   0.309   4.220  1.00  0.00     0.064 A 
ATOM     61  C   UNL     1       6.481   0.082   2.981  1.00  0.00     0.173 A 
ATOM     62  C   UNL     1       6.679   0.725   5.288  1.00  0.00     0.173 A 
ATOM     63  F   UNL     1       5.752  -0.322   1.930  1.00  0.00    -0.203 F 
ATOM     64  C   UNL     1       7.857   0.240   2.824  1.00  0.00     0.198 A 
ATOM     65  C   UNL     1       8.049   0.911   5.120  1.00  0.00     0.198 A 
ATOM     66  F   UNL     1       6.141   0.969   6.493  1.00  0.00    -0.203 F 
ATOM     67  F   UNL     1       8.428  -0.023   1.641  1.00  0.00    -0.200 F 
ATOM     68  C   UNL     1       8.638   0.661   3.890  1.00  0.00     0.200 A 
ATOM     69  F   UNL     1       8.798   1.336   6.147  1.00  0.00    -0.200 F 
ATOM     70  F   UNL     1       9.959   0.824   3.733  1.00  0.00    -0.200 F 
ENDBRANCH  46  60
BRANCH  47  71
ATOM     71  C   UNL     1      -3.916  -0.972   5.637  1.00  0.00     0.064 A 
ATOM     72  C   UNL     1      -4.862  -0.578   4.681  1.00  0.00     0.173 A 
ATOM     73  C   UNL     1      -4.390  -1.559   6.820  1.00  0.00     0.173 A 
ATOM     74  F   UNL     1      -4.460   0.013   3.546  1.00  0.00    -0.203 F 
ATOM     75  C   UNL     1      -6.226  -0.759   4.902  1.00  0.00     0.198 A 
ATOM     76  C   UNL     1      -5.751  -1.770   7.026  1.00  0.00     0.198 A 
ATOM     77  F   UNL     1      -3.525  -1.952   7.768  1.00  0.00    -0.203 F 
ATOM     78  F   UNL     1      -7.112  -0.337   3.990  1.00  0.00    -0.200 F 
ATOM     79  C   UNL     1      -6.668  -1.364   6.070  1.00  0.00     0.200 A 
ATOM     80  F   UNL     1      -6.171  -2.370   8.147  1.00  0.00    -0.200 F 
ATOM     81  F   UNL     1      -7.979  -1.550   6.275  1.00  0.00    -0.200 F 
ENDBRANCH  47  71
BRANCH  59  82
ATOM     82  C   UNL     1       0.206   4.628   5.339  1.00  0.00     0.064 A 
ATOM     83  C   UNL     1      -0.105   5.210   6.577  1.00  0.00     0.173 A 
ATOM     84  C   UNL     1       0.278   5.467   4.217  1.00  0.00     0.173 A 
ATOM     85  F   UNL     1      -0.204   4.446   7.675  1.00  0.00    -0.203 F 
ATOM     86  C   UNL     1      -0.358   6.575   6.682  1.00  0.00     0.198 A 
ATOM     87  C   UNL     1       0.052   6.836   4.330  1.00  0.00     0.198 A 
ATOM     88  F   UNL     1       0.576   4.959   3.011  1.00  0.00    -0.203 F 
ATOM     89  F   UNL     1      -0.699   7.102   7.866  1.00  0.00    -0.200 F 
ATOM     90  C   UNL     1      -0.273   7.387   5.561  1.00  0.00     0.200 A 
ATOM     91  F   UNL     1       0.143   7.620   3.248  1.00  0.00    -0.200 F 
ATOM     92  F   UNL     1      -0.514   8.701   5.664  1.00  0.00    -0.200 F 
ENDBRANCH  59  82
ENDBRANCH  33  34
ENDBRANCH  26  28
ENDBRANCH  25  26
ENDBRANCH   1  25
TORSDOF 12
