REMARK SMILES CC(=O)O[C@H]1C[C@@H](C(=O)OCCOC(=O)c2ccc(-c3c4nc(c(-c5c(F)c(F)c(F)c(F)c5F)c5ccc([nH]5)c(-c5c(F)c(F)c(F)c(F)c5F)c5nc(c(-c6c(F)c(F)c(F)c(F)c6F)c6ccc3[nH]6)C=C5)C=C4)cc2)N(S(=O)(=O)c2ccc(F)cc2)C1
REMARK SMILES IDX 11 1 10 2 8 3 9 4 7 5 5 6 6 7 90 8 79 9 4 10 2 11 1 12 3 13
REMARK SMILES IDX 80 14 81 15 82 16 83 17 84 18 89 19 85 20 88 21 86 22 87 23
REMARK SMILES IDX 12 24 13 25 14 26 15 27 16 28 17 29 78 30 18 31 77 32 19 33
REMARK SMILES IDX 20 34 21 35 71 36 22 37 76 38 70 39 72 40 23 41 75 42 69 43
REMARK SMILES IDX 68 44 24 46 56 47 36 48 55 49 37 50 40 51 54 52 73 53 38 54
REMARK SMILES IDX 39 55 53 57 74 58 41 59 25 60 26 61 34 62 27 63 28 64 32 65
REMARK SMILES IDX 35 66 29 67 30 68 33 69 31 70 57 71 58 72 66 73 59 74 60 75
REMARK SMILES IDX 64 76 67 77 61 78 62 79 65 80 63 81 42 82 43 83 51 84 44 85
REMARK SMILES IDX 45 86 49 87 52 88 46 89 47 90 50 91 48 92
REMARK H PARENT 72 45 40 56
REMARK Flexibility Score: inf
ROOT
ATOM      1  C   UNL     1       0.091  -9.078   1.558  1.00  0.00     0.274 C 
ENDROOT
BRANCH   1   2
ATOM      2  O   UNL     1       0.374  -8.147   0.492  1.00  0.00    -0.461 OA
BRANCH   2   3
ATOM      3  C   UNL     1      -0.099  -6.870   0.619  1.00  0.00     0.324 C 
ATOM      4  O   UNL     1      -0.729  -6.451   1.580  1.00  0.00    -0.250 OA
BRANCH   3   5
ATOM      5  C   UNL     1       0.294  -6.048  -0.591  1.00  0.00     0.187 C 
ATOM      6  C   UNL     1       0.245  -3.972  -1.836  1.00  0.00     0.194 C 
ATOM      7  C   UNL     1       0.190  -4.527  -0.419  1.00  0.00     0.079 C 
ATOM      8  C   UNL     1       0.083  -5.192  -2.759  1.00  0.00     0.148 C 
ATOM      9  N   UNL     1      -0.410  -6.311  -1.887  1.00  0.00    -0.180 NA
BRANCH   6  10
ATOM     10  O   UNL     1      -0.849  -3.074  -2.043  1.00  0.00    -0.461 OA
BRANCH  10  11
ATOM     11  C   UNL     1      -0.643  -2.219  -3.080  1.00  0.00     0.302 C 
ATOM     12  C   UNL     1      -1.720  -2.383  -4.107  1.00  0.00     0.139 C 
ATOM     13  O   UNL     1       0.367  -1.549  -3.237  1.00  0.00    -0.253 OA
ENDBRANCH  10  11
ENDBRANCH   6  10
BRANCH   9  14
ATOM     14  S   UNL     1      -2.124  -6.436  -1.870  1.00  0.00     0.243 S 
ATOM     15  O   UNL     1      -2.649  -5.388  -1.037  1.00  0.00    -0.207 OA
ATOM     16  O   UNL     1      -2.552  -6.564  -3.254  1.00  0.00    -0.207 OA
BRANCH  14  17
ATOM     17  C   UNL     1      -2.477  -7.995  -1.094  1.00  0.00     0.082 A 
ATOM     18  C   UNL     1      -2.266  -9.181  -1.806  1.00  0.00     0.025 A 
ATOM     19  C   UNL     1      -3.042  -8.026   0.189  1.00  0.00     0.025 A 
ATOM     20  C   UNL     1      -2.577 -10.404  -1.210  1.00  0.00     0.040 A 
ATOM     21  C   UNL     1      -3.334  -9.254   0.785  1.00  0.00     0.040 A 
ATOM     22  C   UNL     1      -3.095 -10.431   0.082  1.00  0.00     0.123 A 
ATOM     23  F   UNL     1      -3.356 -11.608   0.664  1.00  0.00    -0.207 F 
ENDBRANCH  14  17
ENDBRANCH   9  14
ENDBRANCH   3   5
ENDBRANCH   2   3
ENDBRANCH   1   2
BRANCH   1  24
ATOM     24  C   UNL     1       1.284  -9.285   2.496  1.00  0.00     0.275 C 
BRANCH  24  25
ATOM     25  O   UNL     1       1.453  -8.164   3.382  1.00  0.00    -0.458 OA
BRANCH  25  26
ATOM     26  C   UNL     1       2.197  -7.168   2.859  1.00  0.00     0.338 C 
ATOM     27  O   UNL     1       2.780  -7.168   1.785  1.00  0.00    -0.246 OA
BRANCH  26  28
ATOM     28  C   UNL     1       2.071  -5.942   3.658  1.00  0.00     0.060 A 
ATOM     29  C   UNL     1       1.686  -4.806   2.950  1.00  0.00     0.016 A 
ATOM     30  C   UNL     1       2.464  -5.844   4.989  1.00  0.00     0.016 A 
ATOM     31  C   UNL     1       1.783  -3.547   3.507  1.00  0.00     0.010 A 
ATOM     32  C   UNL     1       2.547  -4.572   5.569  1.00  0.00     0.010 A 
ATOM     33  C   UNL     1       2.265  -3.418   4.809  1.00  0.00    -0.014 A 
BRANCH  33  34
ATOM     34  C   UNL     1       2.667  -2.071   5.267  1.00  0.00     0.031 A 
ATOM     35  C   UNL     1       4.134  -1.764   5.380  1.00  0.00     0.074 A 
ATOM     36  C   UNL     1       1.747  -1.111   5.462  1.00  0.00     0.049 A 
ATOM     37  N   UNL     1       4.730  -0.702   5.855  1.00  0.00    -0.248 NA
ATOM     38  C   UNL     1       5.059  -2.801   4.891  1.00  0.00     0.031 C 
ATOM     39  C   UNL     1       0.306  -1.267   5.259  1.00  0.00     0.029 A 
ATOM     40  N   UNL     1       1.891   0.193   5.859  1.00  0.00    -0.354 N 
ATOM     41  C   UNL     1       6.091  -0.967   5.775  1.00  0.00     0.074 A 
ATOM     42  C   UNL     1       6.237  -2.290   5.211  1.00  0.00     0.031 C 
ATOM     43  C   UNL     1      -0.301  -0.100   5.529  1.00  0.00     0.029 A 
ATOM     44  C   UNL     1       0.699   0.860   5.986  1.00  0.00     0.049 A 
ATOM     45  H   UNL     1       2.765   0.610   6.036  1.00  0.00     0.167 HD
ATOM     46  C   UNL     1       7.122  -0.172   6.144  1.00  0.00     0.037 A 
ATOM     47  C   UNL     1       0.448   2.094   6.458  1.00  0.00     0.037 A 
ATOM     48  C   UNL     1       6.953   1.161   6.658  1.00  0.00     0.049 A 
ATOM     49  C   UNL     1       1.607   2.938   6.917  1.00  0.00     0.074 A 
ATOM     50  C   UNL     1       7.919   2.059   7.072  1.00  0.00     0.029 A 
ATOM     51  N   UNL     1       5.725   1.791   6.815  1.00  0.00    -0.354 N 
ATOM     52  N   UNL     1       2.890   2.662   6.904  1.00  0.00    -0.248 NA
ATOM     53  C   UNL     1       1.284   4.262   7.462  1.00  0.00     0.031 C 
ATOM     54  C   UNL     1       7.272   3.215   7.525  1.00  0.00     0.029 A 
ATOM     55  C   UNL     1       5.908   3.061   7.334  1.00  0.00     0.049 A 
ATOM     56  H   UNL     1       4.853   1.393   6.591  1.00  0.00     0.167 HD
ATOM     57  C   UNL     1       3.529   3.788   7.405  1.00  0.00     0.074 A 
ATOM     58  C   UNL     1       2.490   4.755   7.702  1.00  0.00     0.031 C 
ATOM     59  C   UNL     1       4.853   4.007   7.602  1.00  0.00     0.037 A 
BRANCH  46  60
ATOM     60  C   UNL     1       8.508  -0.745   6.059  1.00  0.00     0.064 A 
ATOM     61  C   UNL     1       9.140  -1.004   4.833  1.00  0.00     0.173 A 
ATOM     62  C   UNL     1       9.217  -1.038   7.234  1.00  0.00     0.173 A 
ATOM     63  F   UNL     1       8.501  -0.764   3.679  1.00  0.00    -0.203 F 
ATOM     64  C   UNL     1      10.416  -1.563   4.789  1.00  0.00     0.198 A 
ATOM     65  C   UNL     1      10.505  -1.566   7.186  1.00  0.00     0.198 A 
ATOM     66  F   UNL     1       8.660  -0.813   8.434  1.00  0.00    -0.203 F 
ATOM     67  F   UNL     1      10.976  -1.858   3.607  1.00  0.00    -0.200 F 
ATOM     68  C   UNL     1      11.100  -1.837   5.964  1.00  0.00     0.200 A 
ATOM     69  F   UNL     1      11.166  -1.819   8.324  1.00  0.00    -0.200 F 
ATOM     70  F   UNL     1      12.327  -2.373   5.920  1.00  0.00    -0.200 F 
ENDBRANCH  46  60
BRANCH  47  71
ATOM     71  C   UNL     1      -0.951   2.588   6.550  1.00  0.00     0.064 A 
ATOM     72  C   UNL     1      -1.394   3.664   5.768  1.00  0.00     0.173 A 
ATOM     73  C   UNL     1      -1.874   2.002   7.431  1.00  0.00     0.173 A 
ATOM     74  F   UNL     1      -0.544   4.275   4.929  1.00  0.00    -0.203 F 
ATOM     75  C   UNL     1      -2.697   4.145   5.876  1.00  0.00     0.198 A 
ATOM     76  C   UNL     1      -3.186   2.463   7.514  1.00  0.00     0.198 A 
ATOM     77  F   UNL     1      -1.504   0.971   8.204  1.00  0.00    -0.203 F 
ATOM     78  F   UNL     1      -3.079   5.207   5.154  1.00  0.00    -0.200 F 
ATOM     79  C   UNL     1      -3.594   3.540   6.743  1.00  0.00     0.200 A 
ATOM     80  F   UNL     1      -4.052   1.865   8.343  1.00  0.00    -0.200 F 
ATOM     81  F   UNL     1      -4.848   4.001   6.844  1.00  0.00    -0.200 F 
ENDBRANCH  47  71
BRANCH  59  82
ATOM     82  C   UNL     1       5.251   5.364   8.103  1.00  0.00     0.064 A 
ATOM     83  C   UNL     1       4.983   5.779   9.416  1.00  0.00     0.173 A 
ATOM     84  C   UNL     1       5.935   6.253   7.259  1.00  0.00     0.173 A 
ATOM     85  F   UNL     1       4.320   4.971  10.257  1.00  0.00    -0.203 F 
ATOM     86  C   UNL     1       5.352   7.048   9.853  1.00  0.00     0.198 A 
ATOM     87  C   UNL     1       6.334   7.507   7.710  1.00  0.00     0.198 A 
ATOM     88  F   UNL     1       6.225   5.900   5.997  1.00  0.00    -0.203 F 
ATOM     89  F   UNL     1       5.032   7.447  11.091  1.00  0.00    -0.200 F 
ATOM     90  C   UNL     1       6.032   7.908   9.002  1.00  0.00     0.200 A 
ATOM     91  F   UNL     1       7.006   8.329   6.892  1.00  0.00    -0.200 F 
ATOM     92  F   UNL     1       6.389   9.128   9.427  1.00  0.00    -0.200 F 
ENDBRANCH  59  82
ENDBRANCH  33  34
ENDBRANCH  26  28
ENDBRANCH  25  26
ENDBRANCH  24  25
ENDBRANCH   1  24
TORSDOF 15
