REMARK SMILES CCOC(=O)CS[C@H]1CC(=O)N(c2ccc(C(=O)OCCOC(=O)c3ccc(-c4c5nc(c(-c6c(F)c(F)c(F)c(F)c6F)c6ccc([nH]6)c(-c6c(F)c(F)c(F)c(F)c6F)c6nc(c(-c7c(F)c(F)c(F)c(F)c7F)c7ccc4[nH]7)C=C6)C=C5)cc3)c(O)c2)C1=O
REMARK SMILES IDX 17 1 18 2 16 3 13 4 14 5 90 6 15 7 88 8 12 9 8 10 9 11 91 12
REMARK SMILES IDX 10 13 92 14 11 15 7 16 6 17 4 18 5 19 3 20 2 21 1 22 89 23
REMARK SMILES IDX 19 25 20 26 21 27 22 28 23 29 24 30 25 31 26 32 87 33 27 34
REMARK SMILES IDX 86 35 28 36 29 37 30 38 80 39 31 40 85 41 79 42 81 43 32 44
REMARK SMILES IDX 84 45 78 46 77 47 33 49 65 50 45 51 64 52 46 53 49 54 63 55
REMARK SMILES IDX 82 56 47 57 48 58 62 60 83 61 50 62 34 63 35 64 43 65 36 66
REMARK SMILES IDX 37 67 41 68 44 69 38 70 39 71 42 72 40 73 66 74 67 75 75 76
REMARK SMILES IDX 68 77 69 78 73 79 76 80 70 81 71 82 74 83 72 84 51 85 52 86
REMARK SMILES IDX 60 87 53 88 54 89 58 90 61 91 55 92 56 93 59 94 57 95
REMARK H PARENT 89 24 81 48 49 59
REMARK Flexibility Score: inf
ROOT
ATOM      1  C   UNL     1      10.038  -0.784   0.757  1.00  0.00     0.342 C 
ATOM      2  O   UNL     1      10.734  -0.577   1.732  1.00  0.00    -0.246 OA
ENDROOT
BRANCH   1   3
ATOM      3  C   UNL     1       8.616  -1.204   0.861  1.00  0.00     0.101 A 
ATOM      4  C   UNL     1       5.899  -1.863   1.246  1.00  0.00     0.055 A 
ATOM      5  C   UNL     1       6.596  -1.135   2.213  1.00  0.00     0.028 A 
ATOM      6  C   UNL     1       6.578  -2.273   0.089  1.00  0.00     0.074 A 
ATOM      7  C   UNL     1       7.954  -0.867   2.049  1.00  0.00     0.022 A 
ATOM      8  C   UNL     1       7.913  -1.900  -0.124  1.00  0.00     0.132 A 
BRANCH   4   9
ATOM      9  N   UNL     1       4.547  -2.203   1.482  1.00  0.00    -0.249 N 
ATOM     10  C   UNL     1       2.631  -3.492   1.843  1.00  0.00     0.146 C 
ATOM     11  C   UNL     1       2.307  -2.042   2.139  1.00  0.00     0.125 C 
ATOM     12  C   UNL     1       4.010  -3.442   1.222  1.00  0.00     0.247 C 
ATOM     13  C   UNL     1       3.635  -1.352   2.060  1.00  0.00     0.235 C 
ATOM     14  O   UNL     1       4.546  -4.396   0.674  1.00  0.00    -0.273 OA
ATOM     15  O   UNL     1       3.788  -0.179   2.376  1.00  0.00    -0.274 OA
BRANCH  10  16
ATOM     16  S   UNL     1       2.700  -4.477   3.393  1.00  0.00    -0.136 SA
BRANCH  16  17
ATOM     17  C   UNL     1       1.106  -5.359   3.278  1.00  0.00     0.192 C 
BRANCH  17  18
ATOM     18  C   UNL     1       1.199  -6.585   2.395  1.00  0.00     0.315 C 
ATOM     19  O   UNL     1       0.980  -7.726   2.778  1.00  0.00    -0.251 OA
BRANCH  18  20
ATOM     20  O   UNL     1       1.510  -6.235   1.116  1.00  0.00    -0.465 OA
BRANCH  20  21
ATOM     21  C   UNL     1       1.716  -7.308   0.188  1.00  0.00     0.229 C 
ATOM     22  C   UNL     1       3.109  -7.888   0.347  1.00  0.00     0.049 C 
ENDBRANCH  20  21
ENDBRANCH  18  20
ENDBRANCH  17  18
ENDBRANCH  16  17
ENDBRANCH  10  16
ENDBRANCH   4   9
BRANCH   8  23
ATOM     23  O   UNL     1       8.456  -2.267  -1.325  1.00  0.00    -0.507 OA
ATOM     24  H   UNL     1       9.344  -2.045  -1.525  1.00  0.00     0.293 HD
ENDBRANCH   8  23
ENDBRANCH   1   3
BRANCH   1  25
ATOM     25  O   UNL     1      10.386  -0.568  -0.541  1.00  0.00    -0.458 OA
BRANCH  25  26
ATOM     26  C   UNL     1      11.702  -0.002  -0.738  1.00  0.00     0.275 C 
BRANCH  26  27
ATOM     27  C   UNL     1      11.626   1.510  -0.961  1.00  0.00     0.275 C 
BRANCH  27  28
ATOM     28  O   UNL     1      11.153   2.158   0.235  1.00  0.00    -0.458 OA
BRANCH  28  29
ATOM     29  C   UNL     1      10.126   3.023   0.077  1.00  0.00     0.338 C 
ATOM     30  O   UNL     1       9.589   3.362  -0.963  1.00  0.00    -0.246 OA
BRANCH  29  31
ATOM     31  C   UNL     1       9.664   3.480   1.399  1.00  0.00     0.060 A 
ATOM     32  C   UNL     1       9.017   2.564   2.221  1.00  0.00     0.016 A 
ATOM     33  C   UNL     1       9.732   4.821   1.770  1.00  0.00     0.016 A 
ATOM     34  C   UNL     1       8.382   2.981   3.388  1.00  0.00     0.010 A 
ATOM     35  C   UNL     1       9.150   5.233   2.980  1.00  0.00     0.010 A 
ATOM     36  C   UNL     1       8.437   4.324   3.786  1.00  0.00    -0.014 A 
BRANCH  36  37
ATOM     37  C   UNL     1       7.670   4.771   4.987  1.00  0.00     0.031 A 
ATOM     38  C   UNL     1       6.543   5.763   4.840  1.00  0.00     0.074 A 
ATOM     39  C   UNL     1       7.920   4.242   6.202  1.00  0.00     0.049 A 
ATOM     40  N   UNL     1       5.818   6.344   5.766  1.00  0.00    -0.248 NA
ATOM     41  C   UNL     1       6.186   6.160   3.469  1.00  0.00     0.031 C 
ATOM     42  C   UNL     1       8.939   3.232   6.493  1.00  0.00     0.029 A 
ATOM     43  N   UNL     1       7.318   4.462   7.419  1.00  0.00    -0.354 N 
ATOM     44  C   UNL     1       4.953   7.198   5.093  1.00  0.00     0.074 A 
ATOM     45  C   UNL     1       5.252   7.075   3.683  1.00  0.00     0.031 C 
ATOM     46  C   UNL     1       8.857   2.884   7.787  1.00  0.00     0.029 A 
ATOM     47  C   UNL     1       7.833   3.696   8.438  1.00  0.00     0.049 A 
ATOM     48  H   UNL     1       6.586   5.107   7.548  1.00  0.00     0.167 HD
ATOM     49  C   UNL     1       3.990   8.006   5.601  1.00  0.00     0.037 A 
ATOM     50  C   UNL     1       7.534   3.666   9.751  1.00  0.00     0.037 A 
ATOM     51  C   UNL     1       3.649   8.096   6.998  1.00  0.00     0.049 A 
ATOM     52  C   UNL     1       6.483   4.598  10.293  1.00  0.00     0.074 A 
ATOM     53  C   UNL     1       2.705   8.906   7.607  1.00  0.00     0.029 A 
ATOM     54  N   UNL     1       4.223   7.330   8.001  1.00  0.00    -0.354 N 
ATOM     55  N   UNL     1       5.722   5.452   9.654  1.00  0.00    -0.248 NA
ATOM     56  C   UNL     1       6.263   4.572  11.747  1.00  0.00     0.031 C 
ATOM     57  C   UNL     1       2.723   8.645   8.982  1.00  0.00     0.029 A 
ATOM     58  C   UNL     1       3.651   7.647   9.223  1.00  0.00     0.049 A 
ATOM     59  H   UNL     1       4.931   6.659   7.865  1.00  0.00     0.167 HD
ATOM     60  C   UNL     1       4.925   6.050  10.621  1.00  0.00     0.074 A 
ATOM     61  C   UNL     1       5.274   5.442  11.887  1.00  0.00     0.031 C 
ATOM     62  C   UNL     1       3.995   7.024  10.474  1.00  0.00     0.037 A 
BRANCH  49  63
ATOM     63  C   UNL     1       3.238   8.880   4.641  1.00  0.00     0.064 A 
ATOM     64  C   UNL     1       2.267   8.358   3.774  1.00  0.00     0.173 A 
ATOM     65  C   UNL     1       3.456  10.266   4.625  1.00  0.00     0.173 A 
ATOM     66  F   UNL     1       2.030   7.038   3.742  1.00  0.00    -0.203 F 
ATOM     67  C   UNL     1       1.555   9.191   2.914  1.00  0.00     0.198 A 
ATOM     68  C   UNL     1       2.724  11.098   3.784  1.00  0.00     0.198 A 
ATOM     69  F   UNL     1       4.369  10.816   5.441  1.00  0.00    -0.203 F 
ATOM     70  F   UNL     1       0.657   8.667   2.068  1.00  0.00    -0.200 F 
ATOM     71  C   UNL     1       1.778  10.560   2.925  1.00  0.00     0.200 A 
ATOM     72  F   UNL     1       2.930  12.422   3.806  1.00  0.00    -0.200 F 
ATOM     73  F   UNL     1       1.082  11.360   2.105  1.00  0.00    -0.200 F 
ENDBRANCH  49  63
BRANCH  50  74
ATOM     74  C   UNL     1       8.256   2.741  10.666  1.00  0.00     0.064 A 
ATOM     75  C   UNL     1       7.585   1.688  11.305  1.00  0.00     0.173 A 
ATOM     76  C   UNL     1       9.617   2.916  10.954  1.00  0.00     0.173 A 
ATOM     77  F   UNL     1       6.275   1.498  11.088  1.00  0.00    -0.203 F 
ATOM     78  C   UNL     1       8.244   0.860  12.213  1.00  0.00     0.198 A 
ATOM     79  C   UNL     1      10.282   2.067  11.836  1.00  0.00     0.198 A 
ATOM     80  F   UNL     1      10.304   3.913  10.377  1.00  0.00    -0.203 F 
ATOM     81  F   UNL     1       7.565  -0.101  12.854  1.00  0.00    -0.200 F 
ATOM     82  C   UNL     1       9.593   1.047  12.473  1.00  0.00     0.200 A 
ATOM     83  F   UNL     1      11.588   2.246  12.078  1.00  0.00    -0.200 F 
ATOM     84  F   UNL     1      10.225   0.253  13.348  1.00  0.00    -0.200 F 
ENDBRANCH  50  74
BRANCH  62  85
ATOM     85  C   UNL     1       3.265   7.464  11.709  1.00  0.00     0.064 A 
ATOM     86  C   UNL     1       3.893   8.237  12.697  1.00  0.00     0.173 A 
ATOM     87  C   UNL     1       1.919   7.118  11.900  1.00  0.00     0.173 A 
ATOM     88  F   UNL     1       5.183   8.580  12.567  1.00  0.00    -0.203 F 
ATOM     89  C   UNL     1       3.209   8.618  13.848  1.00  0.00     0.198 A 
ATOM     90  C   UNL     1       1.231   7.524  13.040  1.00  0.00     0.198 A 
ATOM     91  F   UNL     1       1.272   6.385  10.982  1.00  0.00    -0.203 F 
ATOM     92  F   UNL     1       3.844   9.310  14.805  1.00  0.00    -0.200 F 
ATOM     93  C   UNL     1       1.878   8.265  14.017  1.00  0.00     0.200 A 
ATOM     94  F   UNL     1      -0.058   7.190  13.198  1.00  0.00    -0.200 F 
ATOM     95  F   UNL     1       1.223   8.630  15.127  1.00  0.00    -0.200 F 
ENDBRANCH  62  85
ENDBRANCH  36  37
ENDBRANCH  29  31
ENDBRANCH  28  29
ENDBRANCH  27  28
ENDBRANCH  26  27
ENDBRANCH  25  26
ENDBRANCH   1  25
TORSDOF 18
