REMARK SMILES CC(C)c1ccc(C(=O)NNC(=O)[C@@H]2CC=CC[C@@H]2C(=O)OCCOC(=O)c2ccc(-c3c4nc(c(-c5c(F)c(F)c(F)c(F)c5F)c5ccc([nH]5)c(-c5c(F)c(F)c(F)c(F)c5F)c5nc(c(-c6c(F)c(F)c(F)c(F)c6F)c6ccc3[nH]6)C=C5)C=C4)cc2)cc1
REMARK SMILES IDX 23 1 22 2 20 3 21 4 19 5 14 6 15 7 16 8 18 9 17 10 12 11
REMARK SMILES IDX 11 12 13 14 10 15 8 16 9 17 7 19 4 20 5 21 92 22 6 23 91 24
REMARK SMILES IDX 2 25 1 26 3 27 24 28 25 29 26 30 27 31 28 32 29 33 90 34
REMARK SMILES IDX 30 35 89 36 31 37 32 38 33 39 83 40 34 41 88 42 82 43 84 44
REMARK SMILES IDX 35 45 87 46 81 47 80 48 36 50 68 51 48 52 67 53 49 54 52 55
REMARK SMILES IDX 66 56 85 57 50 58 51 59 65 61 86 62 53 63 37 64 38 65 46 66
REMARK SMILES IDX 39 67 40 68 44 69 47 70 41 71 42 72 45 73 43 74 69 75 70 76
REMARK SMILES IDX 78 77 71 78 72 79 76 80 79 81 73 82 74 83 77 84 75 85 54 86
REMARK SMILES IDX 55 87 63 88 56 89 57 90 61 91 64 92 58 93 59 94 62 95 60 96
REMARK H PARENT 11 13 10 18 84 49 52 60
REMARK Flexibility Score: inf
ROOT
ATOM      1  C   UNL     1     -11.424  -7.360  -0.257  1.00  0.00     0.274 C 
ENDROOT
BRANCH   1   2
ATOM      2  O   UNL     1      -9.983  -7.454  -0.225  1.00  0.00    -0.462 OA
BRANCH   2   3
ATOM      3  C   UNL     1      -9.282  -6.440  -0.806  1.00  0.00     0.310 C 
ATOM      4  O   UNL     1      -9.772  -5.425  -1.276  1.00  0.00    -0.252 OA
BRANCH   3   5
ATOM      5  C   UNL     1      -7.800  -6.783  -0.835  1.00  0.00     0.116 C 
ATOM      6  C   UNL     1      -6.921  -5.822  -0.007  1.00  0.00     0.098 C 
ATOM      7  C   UNL     1      -6.759  -4.449  -0.704  1.00  0.00     0.041 C 
ATOM      8  C   UNL     1      -6.636  -4.503  -2.195  1.00  0.00    -0.030 C 
ATOM      9  C   UNL     1      -7.335  -6.894  -2.298  1.00  0.00     0.043 C 
ATOM     10  C   UNL     1      -6.886  -5.604  -2.912  1.00  0.00    -0.030 C 
BRANCH   6  11
ATOM     11  C   UNL     1      -7.396  -5.577   1.431  1.00  0.00     0.242 C 
ATOM     12  N   UNL     1      -7.838  -6.610   2.213  1.00  0.00    -0.267 N 
ATOM     13  H   UNL     1      -8.553  -6.433   2.866  1.00  0.00     0.191 HD
ATOM     14  O   UNL     1      -7.346  -4.461   1.951  1.00  0.00    -0.273 OA
BRANCH  12  15
ATOM     15  N   UNL     1      -7.324  -7.889   2.126  1.00  0.00    -0.263 N 
ATOM     16  C   UNL     1      -7.608  -8.983   2.918  1.00  0.00     0.269 C 
ATOM     17  O   UNL     1      -7.144 -10.064   2.542  1.00  0.00    -0.267 OA
ATOM     18  H   UNL     1      -6.672  -8.041   1.405  1.00  0.00     0.191 HD
BRANCH  16  19
ATOM     19  C   UNL     1      -8.405  -8.953   4.182  1.00  0.00     0.041 A 
ATOM     20  C   UNL     1      -9.754  -9.207   6.684  1.00  0.00    -0.045 A 
ATOM     21  C   UNL     1      -9.590 -10.311   5.843  1.00  0.00     0.005 A 
ATOM     22  C   UNL     1      -9.245  -7.973   6.244  1.00  0.00     0.005 A 
ATOM     23  C   UNL     1      -8.938 -10.181   4.609  1.00  0.00     0.014 A 
ATOM     24  C   UNL     1      -8.546  -7.854   5.031  1.00  0.00     0.014 A 
BRANCH  20  25
ATOM     25  C   UNL     1     -10.403  -9.293   8.060  1.00  0.00     0.013 C 
ATOM     26  C   UNL     1     -11.165 -10.593   8.346  1.00  0.00     0.012 C 
ATOM     27  C   UNL     1      -9.354  -9.077   9.160  1.00  0.00     0.012 C 
ENDBRANCH  20  25
ENDBRANCH  16  19
ENDBRANCH  12  15
ENDBRANCH   6  11
ENDBRANCH   3   5
ENDBRANCH   2   3
ENDBRANCH   1   2
BRANCH   1  28
ATOM     28  C   UNL     1     -11.960  -6.885   1.091  1.00  0.00     0.275 C 
BRANCH  28  29
ATOM     29  O   UNL     1     -11.640  -5.494   1.234  1.00  0.00    -0.458 OA
BRANCH  29  30
ATOM     30  C   UNL     1     -11.430  -5.049   2.493  1.00  0.00     0.338 C 
ATOM     31  O   UNL     1     -11.570  -5.672   3.530  1.00  0.00    -0.246 OA
BRANCH  30  32
ATOM     32  C   UNL     1     -10.922  -3.663   2.429  1.00  0.00     0.060 A 
ATOM     33  C   UNL     1      -9.994  -3.320   1.450  1.00  0.00     0.016 A 
ATOM     34  C   UNL     1     -11.262  -2.734   3.413  1.00  0.00     0.016 A 
ATOM     35  C   UNL     1      -9.321  -2.106   1.510  1.00  0.00     0.010 A 
ATOM     36  C   UNL     1     -10.658  -1.469   3.409  1.00  0.00     0.010 A 
ATOM     37  C   UNL     1      -9.649  -1.155   2.480  1.00  0.00    -0.014 A 
BRANCH  37  38
ATOM     38  C   UNL     1      -8.887   0.121   2.557  1.00  0.00     0.031 A 
ATOM     39  C   UNL     1      -8.151   0.479   3.819  1.00  0.00     0.074 A 
ATOM     40  C   UNL     1      -8.795   0.940   1.490  1.00  0.00     0.049 A 
ATOM     41  N   UNL     1      -7.632   1.626   4.180  1.00  0.00    -0.248 NA
ATOM     42  C   UNL     1      -7.982  -0.594   4.811  1.00  0.00     0.031 C 
ATOM     43  C   UNL     1      -9.357   0.678   0.164  1.00  0.00     0.029 A 
ATOM     44  N   UNL     1      -8.175   2.158   1.350  1.00  0.00    -0.354 N 
ATOM     45  C   UNL     1      -7.144   1.432   5.466  1.00  0.00     0.074 A 
ATOM     46  C   UNL     1      -7.410   0.053   5.817  1.00  0.00     0.031 C 
ATOM     47  C   UNL     1      -9.016   1.676  -0.664  1.00  0.00     0.029 A 
ATOM     48  C   UNL     1      -8.310   2.701   0.096  1.00  0.00     0.049 A 
ATOM     49  H   UNL     1      -7.682   2.599   2.078  1.00  0.00     0.167 HD
ATOM     50  C   UNL     1      -6.541   2.331   6.279  1.00  0.00     0.037 A 
ATOM     51  C   UNL     1      -7.958   3.911  -0.378  1.00  0.00     0.037 A 
ATOM     52  C   UNL     1      -6.208   3.678   5.896  1.00  0.00     0.049 A 
ATOM     53  C   UNL     1      -7.342   4.912   0.558  1.00  0.00     0.074 A 
ATOM     54  C   UNL     1      -5.605   4.669   6.650  1.00  0.00     0.029 A 
ATOM     55  N   UNL     1      -6.426   4.212   4.635  1.00  0.00    -0.354 N 
ATOM     56  N   UNL     1      -7.000   4.769   1.815  1.00  0.00    -0.248 NA
ATOM     57  C   UNL     1      -7.101   6.258   0.019  1.00  0.00     0.031 C 
ATOM     58  C   UNL     1      -5.482   5.813   5.853  1.00  0.00     0.029 A 
ATOM     59  C   UNL     1      -5.978   5.522   4.593  1.00  0.00     0.049 A 
ATOM     60  H   UNL     1      -6.839   3.731   3.881  1.00  0.00     0.167 HD
ATOM     61  C   UNL     1      -6.502   5.999   2.216  1.00  0.00     0.074 A 
ATOM     62  C   UNL     1      -6.564   6.873   1.063  1.00  0.00     0.031 C 
ATOM     63  C   UNL     1      -6.045   6.375   3.435  1.00  0.00     0.037 A 
BRANCH  50  64
ATOM     64  C   UNL     1      -6.249   1.906   7.686  1.00  0.00     0.064 A 
ATOM     65  C   UNL     1      -5.185   1.051   8.004  1.00  0.00     0.173 A 
ATOM     66  C   UNL     1      -7.037   2.397   8.740  1.00  0.00     0.173 A 
ATOM     67  F   UNL     1      -4.414   0.543   7.031  1.00  0.00    -0.203 F 
ATOM     68  C   UNL     1      -4.931   0.689   9.325  1.00  0.00     0.198 A 
ATOM     69  C   UNL     1      -6.765   2.052  10.060  1.00  0.00     0.198 A 
ATOM     70  F   UNL     1      -8.065   3.220   8.488  1.00  0.00    -0.203 F 
ATOM     71  F   UNL     1      -3.931  -0.159   9.605  1.00  0.00    -0.200 F 
ATOM     72  C   UNL     1      -5.716   1.194  10.351  1.00  0.00     0.200 A 
ATOM     73  F   UNL     1      -7.520   2.547  11.050  1.00  0.00    -0.200 F 
ATOM     74  F   UNL     1      -5.465   0.848  11.622  1.00  0.00    -0.200 F 
ENDBRANCH  50  64
BRANCH  51  75
ATOM     75  C   UNL     1      -8.247   4.267  -1.791  1.00  0.00     0.064 A 
ATOM     76  C   UNL     1      -7.208   4.457  -2.712  1.00  0.00     0.173 A 
ATOM     77  C   UNL     1      -9.563   4.426  -2.249  1.00  0.00     0.173 A 
ATOM     78  F   UNL     1      -5.932   4.348  -2.313  1.00  0.00    -0.203 F 
ATOM     79  C   UNL     1      -7.476   4.796  -4.036  1.00  0.00     0.198 A 
ATOM     80  C   UNL     1      -9.831   4.735  -3.580  1.00  0.00     0.198 A 
ATOM     81  F   UNL     1     -10.593   4.264  -1.405  1.00  0.00    -0.203 F 
ATOM     82  F   UNL     1      -6.464   5.011  -4.888  1.00  0.00    -0.200 F 
ATOM     83  C   UNL     1      -8.786   4.926  -4.471  1.00  0.00     0.200 A 
ATOM     84  F   UNL     1     -11.099   4.848  -3.998  1.00  0.00    -0.200 F 
ATOM     85  F   UNL     1      -9.043   5.243  -5.748  1.00  0.00    -0.200 F 
ENDBRANCH  51  75
BRANCH  63  86
ATOM     86  C   UNL     1      -5.558   7.785   3.574  1.00  0.00     0.064 A 
ATOM     87  C   UNL     1      -6.453   8.861   3.654  1.00  0.00     0.173 A 
ATOM     88  C   UNL     1      -4.186   8.058   3.658  1.00  0.00     0.173 A 
ATOM     89  F   UNL     1      -7.775   8.648   3.560  1.00  0.00    -0.203 F 
ATOM     90  C   UNL     1      -5.989  10.166   3.793  1.00  0.00     0.198 A 
ATOM     91  C   UNL     1      -3.726   9.362   3.819  1.00  0.00     0.198 A 
ATOM     92  F   UNL     1      -3.292   7.061   3.589  1.00  0.00    -0.203 F 
ATOM     93  F   UNL     1      -6.859  11.185   3.827  1.00  0.00    -0.200 F 
ATOM     94  C   UNL     1      -4.627  10.415   3.881  1.00  0.00     0.200 A 
ATOM     95  F   UNL     1      -2.410   9.601   3.910  1.00  0.00    -0.200 F 
ATOM     96  F   UNL     1      -4.182  11.671   4.017  1.00  0.00    -0.200 F 
ENDBRANCH  63  86
ENDBRANCH  37  38
ENDBRANCH  30  32
ENDBRANCH  29  30
ENDBRANCH  28  29
ENDBRANCH   1  28
TORSDOF 15
