REMARK SMILES Cc1cc(C(=O)OCCOC(=O)c2ccc(-c3c4nc(c(-c5c(F)c(F)c(F)c(F)c5F)c5ccc([nH]5)c(-c5c(F)c(F)c(F)c(F)c5F)c5nc(c(-c6c(F)c(F)c(F)c(F)c6F)c6ccc3[nH]6)C=C5)C=C4)cc2)ccc1NC(=O)N1C[C@@H](C)[C@H](C)C1
REMARK SMILES IDX 9 1 8 2 7 3 5 4 6 5 4 6 1 7 2 8 3 9 78 10 77 11 76 12 79 13
REMARK SMILES IDX 80 14 81 16 82 17 83 18 88 19 84 20 86 21 85 22 87 23 10 24
REMARK SMILES IDX 11 25 12 26 13 27 14 28 75 29 15 30 74 31 16 32 17 33 18 34
REMARK SMILES IDX 68 35 19 36 73 37 67 38 69 39 20 40 72 41 66 42 65 43 21 45
REMARK SMILES IDX 53 46 33 47 52 48 34 49 37 50 51 51 70 52 35 53 36 54 50 56
REMARK SMILES IDX 71 57 38 58 22 59 23 60 31 61 24 62 25 63 29 64 32 65 26 66
REMARK SMILES IDX 27 67 30 68 28 69 54 70 55 71 63 72 56 73 57 74 61 75 64 76
REMARK SMILES IDX 58 77 59 78 62 79 60 80 39 81 40 82 48 83 41 84 42 85 46 86
REMARK SMILES IDX 49 87 43 88 44 89 47 90 45 91
REMARK H PARENT 79 15 69 44 37 55
REMARK Flexibility Score: inf
ROOT
ATOM      1  C   UNL     1      -3.969  -4.168  -2.811  1.00  0.00     0.275 C 
ENDROOT
BRANCH   1   2
ATOM      2  C   UNL     1      -4.027  -2.810  -2.101  1.00  0.00     0.275 C 
BRANCH   2   3
ATOM      3  O   UNL     1      -2.816  -2.052  -2.223  1.00  0.00    -0.458 OA
BRANCH   3   4
ATOM      4  C   UNL     1      -2.607  -1.235  -1.164  1.00  0.00     0.338 C 
ATOM      5  O   UNL     1      -3.315  -1.123  -0.174  1.00  0.00    -0.246 OA
BRANCH   4   6
ATOM      6  C   UNL     1      -1.510  -0.292  -1.389  1.00  0.00     0.060 A 
ATOM      7  C   UNL     1       2.011   0.345  -0.110  1.00  0.00     0.046 C 
ATOM      8  C   UNL     1       0.639   0.621  -0.663  1.00  0.00    -0.027 A 
ATOM      9  C   UNL     1      -0.217  -0.475  -0.880  1.00  0.00     0.021 A 
ATOM     10  C   UNL     1       0.118   1.898  -0.897  1.00  0.00     0.045 A 
ATOM     11  C   UNL     1      -1.073   2.026  -1.629  1.00  0.00     0.027 A 
ATOM     12  C   UNL     1      -1.911   0.949  -1.841  1.00  0.00     0.018 A 
BRANCH  10  13
ATOM     13  N   UNL     1       0.729   3.054  -0.368  1.00  0.00    -0.308 N 
ATOM     14  C   UNL     1       0.140   4.280  -0.174  1.00  0.00     0.321 C 
ATOM     15  H   UNL     1       1.676   2.974  -0.111  1.00  0.00     0.171 HD
ATOM     16  O   UNL     1       0.816   5.304  -0.236  1.00  0.00    -0.248 OA
ATOM     17  N   UNL     1      -1.210   4.299   0.085  1.00  0.00    -0.324 N 
ATOM     18  C   UNL     1      -2.090   5.277  -0.512  1.00  0.00     0.125 C 
ATOM     19  C   UNL     1      -1.845   3.585   1.185  1.00  0.00     0.125 C 
ATOM     20  C   UNL     1      -3.332   5.321   0.370  1.00  0.00     0.010 C 
ATOM     21  C   UNL     1      -3.324   3.975   1.125  1.00  0.00     0.010 C 
ATOM     22  C   UNL     1      -4.606   5.522  -0.442  1.00  0.00     0.010 C 
ATOM     23  C   UNL     1      -3.969   4.084   2.505  1.00  0.00     0.010 C 
ENDBRANCH  10  13
ENDBRANCH   4   6
ENDBRANCH   3   4
ENDBRANCH   2   3
ENDBRANCH   1   2
BRANCH   1  24
ATOM     24  O   UNL     1      -2.733  -4.941  -2.839  1.00  0.00    -0.458 OA
BRANCH  24  25
ATOM     25  C   UNL     1      -1.642  -4.769  -2.063  1.00  0.00     0.338 C 
ATOM     26  O   UNL     1      -0.497  -4.847  -2.500  1.00  0.00    -0.246 OA
BRANCH  25  27
ATOM     27  C   UNL     1      -1.883  -4.499  -0.642  1.00  0.00     0.060 A 
ATOM     28  C   UNL     1      -0.941  -3.737   0.069  1.00  0.00     0.016 A 
ATOM     29  C   UNL     1      -3.085  -4.888  -0.063  1.00  0.00     0.016 A 
ATOM     30  C   UNL     1      -1.250  -3.249   1.328  1.00  0.00     0.010 A 
ATOM     31  C   UNL     1      -3.457  -4.301   1.116  1.00  0.00     0.010 A 
ATOM     32  C   UNL     1      -2.515  -3.537   1.827  1.00  0.00    -0.014 A 
BRANCH  32  33
ATOM     33  C   UNL     1      -2.817  -3.497   3.242  1.00  0.00     0.031 A 
ATOM     34  C   UNL     1      -3.418  -2.314   3.864  1.00  0.00     0.074 A 
ATOM     35  C   UNL     1      -2.685  -4.744   3.751  1.00  0.00     0.049 A 
ATOM     36  N   UNL     1      -3.461  -2.122   5.132  1.00  0.00    -0.248 NA
ATOM     37  C   UNL     1      -3.985  -1.194   3.116  1.00  0.00     0.031 C 
ATOM     38  C   UNL     1      -3.199  -5.377   4.947  1.00  0.00     0.029 A 
ATOM     39  N   UNL     1      -1.863  -5.741   3.177  1.00  0.00    -0.354 N 
ATOM     40  C   UNL     1      -4.357  -1.096   5.369  1.00  0.00     0.074 A 
ATOM     41  C   UNL     1      -4.511  -0.445   4.095  1.00  0.00     0.031 C 
ATOM     42  C   UNL     1      -2.449  -6.472   5.197  1.00  0.00     0.029 A 
ATOM     43  C   UNL     1      -1.347  -6.481   4.236  1.00  0.00     0.049 A 
ATOM     44  H   UNL     1      -1.691  -5.884   2.218  1.00  0.00     0.167 HD
ATOM     45  C   UNL     1      -4.989  -1.079   6.580  1.00  0.00     0.037 A 
ATOM     46  C   UNL     1      -0.026  -6.292   4.529  1.00  0.00     0.037 A 
ATOM     47  C   UNL     1      -4.444  -2.165   7.399  1.00  0.00     0.049 A 
ATOM     48  C   UNL     1       0.088  -5.586   5.856  1.00  0.00     0.074 A 
ATOM     49  C   UNL     1      -4.876  -3.466   7.596  1.00  0.00     0.029 A 
ATOM     50  N   UNL     1      -3.103  -2.128   7.767  1.00  0.00    -0.354 N 
ATOM     51  N   UNL     1      -0.736  -4.660   6.277  1.00  0.00    -0.248 NA
ATOM     52  C   UNL     1       1.060  -5.997   6.859  1.00  0.00     0.031 C 
ATOM     53  C   UNL     1      -3.746  -4.237   7.982  1.00  0.00     0.029 A 
ATOM     54  C   UNL     1      -2.636  -3.405   8.020  1.00  0.00     0.049 A 
ATOM     55  H   UNL     1      -2.562  -1.309   7.837  1.00  0.00     0.167 HD
ATOM     56  C   UNL     1      -0.491  -4.431   7.606  1.00  0.00     0.074 A 
ATOM     57  C   UNL     1       0.656  -5.271   7.913  1.00  0.00     0.031 C 
ATOM     58  C   UNL     1      -1.252  -3.623   8.403  1.00  0.00     0.037 A 
BRANCH  45  59
ATOM     59  C   UNL     1      -6.266  -0.344   6.956  1.00  0.00     0.064 A 
ATOM     60  C   UNL     1      -6.986  -0.736   8.114  1.00  0.00     0.173 A 
ATOM     61  C   UNL     1      -6.874   0.697   6.228  1.00  0.00     0.173 A 
ATOM     62  F   UNL     1      -6.511  -1.669   8.950  1.00  0.00    -0.203 F 
ATOM     63  C   UNL     1      -8.225  -0.189   8.464  1.00  0.00     0.198 A 
ATOM     64  C   UNL     1      -8.120   1.240   6.575  1.00  0.00     0.198 A 
ATOM     65  F   UNL     1      -6.285   1.259   5.170  1.00  0.00    -0.203 F 
ATOM     66  F   UNL     1      -8.860  -0.628   9.560  1.00  0.00    -0.200 F 
ATOM     67  C   UNL     1      -8.800   0.792   7.687  1.00  0.00     0.200 A 
ATOM     68  F   UNL     1      -8.656   2.209   5.817  1.00  0.00    -0.200 F 
ATOM     69  F   UNL     1      -9.991   1.311   8.015  1.00  0.00    -0.200 F 
ENDBRANCH  45  59
BRANCH  46  70
ATOM     70  C   UNL     1       0.852  -6.077   3.324  1.00  0.00     0.064 A 
ATOM     71  C   UNL     1       0.787  -7.019   2.268  1.00  0.00     0.173 A 
ATOM     72  C   UNL     1       1.535  -4.885   3.049  1.00  0.00     0.173 A 
ATOM     73  F   UNL     1       0.159  -8.193   2.456  1.00  0.00    -0.203 F 
ATOM     74  C   UNL     1       1.273  -6.743   0.989  1.00  0.00     0.198 A 
ATOM     75  C   UNL     1       2.046  -4.619   1.768  1.00  0.00     0.198 A 
ATOM     76  F   UNL     1       1.648  -3.933   3.985  1.00  0.00    -0.203 F 
ATOM     77  F   UNL     1       1.078  -7.620  -0.007  1.00  0.00    -0.200 F 
ATOM     78  C   UNL     1       1.894  -5.535   0.736  1.00  0.00     0.200 A 
ATOM     79  F   UNL     1       2.608  -3.429   1.506  1.00  0.00    -0.200 F 
ATOM     80  F   UNL     1       2.294  -5.227  -0.506  1.00  0.00    -0.200 F 
ENDBRANCH  46  70
BRANCH  58  81
ATOM     81  C   UNL     1      -0.768  -3.038   9.705  1.00  0.00     0.064 A 
ATOM     82  C   UNL     1       0.591  -2.828   9.989  1.00  0.00     0.173 A 
ATOM     83  C   UNL     1      -1.680  -2.495  10.642  1.00  0.00     0.173 A 
ATOM     84  F   UNL     1       1.550  -3.150   9.110  1.00  0.00    -0.203 F 
ATOM     85  C   UNL     1       1.011  -2.218  11.168  1.00  0.00     0.198 A 
ATOM     86  C   UNL     1      -1.256  -1.807  11.774  1.00  0.00     0.198 A 
ATOM     87  F   UNL     1      -3.007  -2.579  10.472  1.00  0.00    -0.203 F 
ATOM     88  F   UNL     1       2.322  -2.112  11.424  1.00  0.00    -0.200 F 
ATOM     89  C   UNL     1       0.089  -1.695  12.053  1.00  0.00     0.200 A 
ATOM     90  F   UNL     1      -2.161  -1.233  12.579  1.00  0.00    -0.200 F 
ATOM     91  F   UNL     1       0.498  -1.061  13.159  1.00  0.00    -0.200 F 
ENDBRANCH  58  81
ENDBRANCH  32  33
ENDBRANCH  25  27
ENDBRANCH  24  25
ENDBRANCH   1  24
TORSDOF 12
