REMARK SMILES CCOc1cc(C(=O)N2CCC(C(=O)OCCOC(=O)c3ccc(-c4c5nc(c(-c6c(F)c(F)c(F)c(F)c6F)c6ccc([nH]6)c(-c6c(F)c(F)c(F)c(F)c6F)c6nc(c(-c7c(F)c(F)c(F)c(F)c7F)c7ccc4[nH]7)C=C6)C=C5)cc3)(c3ccccc3)CC2)ccc1OC
REMARK SMILES IDX 16 1 15 2 13 3 14 4 12 5 7 6 8 7 9 8 10 9 91 10 11 11 90 12
REMARK SMILES IDX 6 13 4 14 5 15 94 16 93 17 92 18 3 19 2 20 1 21 95 22 96 23
REMARK SMILES IDX 84 24 85 25 89 26 86 27 88 28 87 29 17 30 18 31 19 32 20 33
REMARK SMILES IDX 21 34 22 35 83 36 23 37 82 38 24 39 25 40 26 41 76 42 27 43
REMARK SMILES IDX 81 44 75 45 77 46 28 47 80 48 74 49 73 50 29 52 61 53 41 54
REMARK SMILES IDX 60 55 42 56 45 57 59 58 78 59 43 60 44 61 58 63 79 64 46 65
REMARK SMILES IDX 30 66 31 67 39 68 32 69 33 70 37 71 40 72 34 73 35 74 38 75
REMARK SMILES IDX 36 76 62 77 63 78 71 79 64 80 65 81 69 82 72 83 66 84 67 85
REMARK SMILES IDX 70 86 68 87 47 88 48 89 56 90 49 91 50 92 54 93 57 94 51 95
REMARK SMILES IDX 52 96 55 97 53 98
REMARK H PARENT 77 51 45 62
REMARK Flexibility Score: inf
ROOT
ATOM      1  C   UNL     1       7.783 -11.256   0.027  1.00  0.00     0.274 C 
ENDROOT
BRANCH   1   2
ATOM      2  O   UNL     1       7.534  -9.894  -0.380  1.00  0.00    -0.461 OA
BRANCH   2   3
ATOM      3  C   UNL     1       8.043  -8.906   0.409  1.00  0.00     0.316 C 
ATOM      4  O   UNL     1       8.648  -9.140   1.450  1.00  0.00    -0.251 OA
BRANCH   3   5
ATOM      5  C   UNL     1       7.683  -7.470  -0.108  1.00  0.00     0.096 C 
ATOM      6  C   UNL     1       4.573  -4.920  -1.841  1.00  0.00     0.253 C 
ATOM      7  O   UNL     1       4.125  -5.084  -2.973  1.00  0.00    -0.269 OA
ATOM      8  N   UNL     1       5.536  -5.758  -1.259  1.00  0.00    -0.339 N 
ATOM      9  C   UNL     1       6.473  -6.384  -2.178  1.00  0.00     0.121 C 
ATOM     10  C   UNL     1       5.842  -5.750   0.170  1.00  0.00     0.121 C 
ATOM     11  C   UNL     1       7.301  -7.541  -1.618  1.00  0.00     0.045 C 
ATOM     12  C   UNL     1       6.401  -7.075   0.660  1.00  0.00     0.045 C 
BRANCH   6  13
ATOM     13  C   UNL     1       4.154  -3.705  -1.100  1.00  0.00     0.043 A 
ATOM     14  C   UNL     1       2.437  -2.190  -0.318  1.00  0.00     0.161 A 
ATOM     15  C   UNL     1       2.804  -3.365  -0.994  1.00  0.00     0.064 A 
ATOM     16  C   UNL     1       3.411  -1.391   0.299  1.00  0.00     0.160 A 
ATOM     17  C   UNL     1       4.760  -1.709   0.118  1.00  0.00     0.051 A 
ATOM     18  C   UNL     1       5.133  -2.842  -0.599  1.00  0.00     0.018 A 
BRANCH  14  19
ATOM     19  O   UNL     1       1.112  -1.855  -0.241  1.00  0.00    -0.490 OA
BRANCH  19  20
ATOM     20  C   UNL     1       0.571  -1.478  -1.515  1.00  0.00     0.226 C 
ATOM     21  C   UNL     1      -0.130  -0.139  -1.360  1.00  0.00     0.049 C 
ENDBRANCH  19  20
ENDBRANCH  14  19
BRANCH  16  22
ATOM     22  O   UNL     1       3.229  -0.261   1.046  1.00  0.00    -0.493 OA
ATOM     23  C   UNL     1       1.975  -0.089   1.690  1.00  0.00     0.278 C 
ENDBRANCH  16  22
ENDBRANCH   6  13
BRANCH   5  24
ATOM     24  C   UNL     1       8.819  -6.449   0.230  1.00  0.00    -0.031 A 
ATOM     25  C   UNL     1       9.348  -6.366   1.538  1.00  0.00     0.005 A 
ATOM     26  C   UNL     1       9.344  -5.541  -0.707  1.00  0.00     0.005 A 
ATOM     27  C   UNL     1      10.358  -5.458   1.878  1.00  0.00     0.000 A 
ATOM     28  C   UNL     1      10.323  -4.599  -0.357  1.00  0.00     0.000 A 
ATOM     29  C   UNL     1      10.838  -4.563   0.933  1.00  0.00     0.000 A 
ENDBRANCH   5  24
ENDBRANCH   3   5
ENDBRANCH   2   3
ENDBRANCH   1   2
BRANCH   1  30
ATOM     30  C   UNL     1       8.872 -11.871  -0.846  1.00  0.00     0.275 C 
BRANCH  30  31
ATOM     31  O   UNL     1      10.097 -11.148  -0.638  1.00  0.00    -0.458 OA
BRANCH  31  32
ATOM     32  C   UNL     1      10.731 -10.714  -1.745  1.00  0.00     0.338 C 
ATOM     33  O   UNL     1      10.441 -10.937  -2.915  1.00  0.00    -0.246 OA
BRANCH  32  34
ATOM     34  C   UNL     1      11.866  -9.872  -1.345  1.00  0.00     0.060 A 
ATOM     35  C   UNL     1      11.623  -8.695  -0.640  1.00  0.00     0.016 A 
ATOM     36  C   UNL     1      13.161 -10.197  -1.746  1.00  0.00     0.016 A 
ATOM     37  C   UNL     1      12.665  -7.813  -0.373  1.00  0.00     0.010 A 
ATOM     38  C   UNL     1      14.218  -9.338  -1.423  1.00  0.00     0.010 A 
ATOM     39  C   UNL     1      13.975  -8.123  -0.755  1.00  0.00    -0.014 A 
BRANCH  39  40
ATOM     40  C   UNL     1      15.067  -7.137  -0.530  1.00  0.00     0.031 A 
ATOM     41  C   UNL     1      15.756  -6.509  -1.710  1.00  0.00     0.074 A 
ATOM     42  C   UNL     1      15.409  -6.755   0.715  1.00  0.00     0.049 A 
ATOM     43  N   UNL     1      16.826  -5.754  -1.742  1.00  0.00    -0.248 NA
ATOM     44  C   UNL     1      15.160  -6.764  -3.031  1.00  0.00     0.031 C 
ATOM     45  C   UNL     1      14.768  -7.211   1.948  1.00  0.00     0.029 A 
ATOM     46  N   UNL     1      16.376  -5.880   1.147  1.00  0.00    -0.354 N 
ATOM     47  C   UNL     1      17.061  -5.491  -3.085  1.00  0.00     0.074 A 
ATOM     48  C   UNL     1      16.018  -6.156  -3.837  1.00  0.00     0.031 C 
ATOM     49  C   UNL     1      15.333  -6.586   2.994  1.00  0.00     0.029 A 
ATOM     50  C   UNL     1      16.427  -5.747   2.513  1.00  0.00     0.049 A 
ATOM     51  H   UNL     1      16.975  -5.394   0.536  1.00  0.00     0.167 HD
ATOM     52  C   UNL     1      18.062  -4.766  -3.639  1.00  0.00     0.037 A 
ATOM     53  C   UNL     1      17.283  -5.056   3.292  1.00  0.00     0.037 A 
ATOM     54  C   UNL     1      19.072  -4.066  -2.892  1.00  0.00     0.049 A 
ATOM     55  C   UNL     1      18.414  -4.297   2.654  1.00  0.00     0.074 A 
ATOM     56  C   UNL     1      20.145  -3.330  -3.365  1.00  0.00     0.029 A 
ATOM     57  N   UNL     1      19.120  -3.998  -1.508  1.00  0.00    -0.354 N 
ATOM     58  N   UNL     1      18.688  -4.131   1.383  1.00  0.00    -0.248 NA
ATOM     59  C   UNL     1      19.374  -3.652   3.563  1.00  0.00     0.031 C 
ATOM     60  C   UNL     1      20.858  -2.838  -2.265  1.00  0.00     0.029 A 
ATOM     61  C   UNL     1      20.208  -3.238  -1.109  1.00  0.00     0.049 A 
ATOM     62  H   UNL     1      18.477  -4.427  -0.898  1.00  0.00     0.167 HD
ATOM     63  C   UNL     1      19.845  -3.366   1.339  1.00  0.00     0.074 A 
ATOM     64  C   UNL     1      20.208  -3.074   2.710  1.00  0.00     0.031 C 
ATOM     65  C   UNL     1      20.552  -2.954   0.259  1.00  0.00     0.037 A 
BRANCH  52  66
ATOM     66  C   UNL     1      18.142  -4.736  -5.135  1.00  0.00     0.064 A 
ATOM     67  C   UNL     1      17.266  -3.962  -5.909  1.00  0.00     0.173 A 
ATOM     68  C   UNL     1      19.130  -5.477  -5.800  1.00  0.00     0.173 A 
ATOM     69  F   UNL     1      16.293  -3.252  -5.320  1.00  0.00    -0.203 F 
ATOM     70  C   UNL     1      17.364  -3.948  -7.298  1.00  0.00     0.198 A 
ATOM     71  C   UNL     1      19.241  -5.442  -7.187  1.00  0.00     0.198 A 
ATOM     72  F   UNL     1      19.993  -6.231  -5.103  1.00  0.00    -0.203 F 
ATOM     73  F   UNL     1      16.492  -3.234  -8.023  1.00  0.00    -0.200 F 
ATOM     74  C   UNL     1      18.354  -4.683  -7.935  1.00  0.00     0.200 A 
ATOM     75  F   UNL     1      20.203  -6.146  -7.799  1.00  0.00    -0.200 F 
ATOM     76  F   UNL     1      18.449  -4.665  -9.272  1.00  0.00    -0.200 F 
ENDBRANCH  52  66
BRANCH  53  77
ATOM     77  C   UNL     1      17.133  -5.086   4.771  1.00  0.00     0.064 A 
ATOM     78  C   UNL     1      16.765  -3.935   5.481  1.00  0.00     0.173 A 
ATOM     79  C   UNL     1      17.372  -6.257   5.505  1.00  0.00     0.173 A 
ATOM     80  F   UNL     1      16.556  -2.783   4.826  1.00  0.00    -0.203 F 
ATOM     81  C   UNL     1      16.653  -3.952   6.870  1.00  0.00     0.198 A 
ATOM     82  C   UNL     1      17.230  -6.280   6.890  1.00  0.00     0.198 A 
ATOM     83  F   UNL     1      17.735  -7.383   4.874  1.00  0.00    -0.203 F 
ATOM     84  F   UNL     1      16.343  -2.826   7.528  1.00  0.00    -0.200 F 
ATOM     85  C   UNL     1      16.878  -5.126   7.572  1.00  0.00     0.200 A 
ATOM     86  F   UNL     1      17.439  -7.420   7.564  1.00  0.00    -0.200 F 
ATOM     87  F   UNL     1      16.765  -5.143   8.907  1.00  0.00    -0.200 F 
ENDBRANCH  53  77
BRANCH  65  88
ATOM     88  C   UNL     1      21.779  -2.132   0.516  1.00  0.00     0.064 A 
ATOM     89  C   UNL     1      22.962  -2.716   0.993  1.00  0.00     0.173 A 
ATOM     90  C   UNL     1      21.785  -0.756   0.246  1.00  0.00     0.173 A 
ATOM     91  F   UNL     1      22.998  -4.026   1.280  1.00  0.00    -0.203 F 
ATOM     92  C   UNL     1      24.102  -1.947   1.208  1.00  0.00     0.198 A 
ATOM     93  C   UNL     1      22.934   0.006   0.441  1.00  0.00     0.198 A 
ATOM     94  F   UNL     1      20.680  -0.152  -0.216  1.00  0.00    -0.203 F 
ATOM     95  F   UNL     1      25.210  -2.518   1.700  1.00  0.00    -0.200 F 
ATOM     96  C   UNL     1      24.089  -0.589   0.926  1.00  0.00     0.200 A 
ATOM     97  F   UNL     1      22.923   1.316   0.161  1.00  0.00    -0.200 F 
ATOM     98  F   UNL     1      25.189   0.149   1.130  1.00  0.00    -0.200 F 
ENDBRANCH  65  88
ENDBRANCH  39  40
ENDBRANCH  32  34
ENDBRANCH  31  32
ENDBRANCH  30  31
ENDBRANCH   1  30
TORSDOF 16
