REMARK SMILES CC[NH2+][C@@]1(C(=O)OCCOC(=O)c2ccc(-c3c4nc(c(-c5c(F)c(F)c(F)c(F)c5F)c5ccc([nH]5)c(-c5c(F)c(F)c(F)c(F)c5F)c5nc(c(-c6c(F)c(F)c(F)c(F)c6F)c6ccc3[nH]6)C=C5)C=C4)cc2)CC[C@@H](n2cnc3ccccc32)C1
REMARK SMILES IDX 8 1 7 2 5 3 6 4 4 5 76 6 88 7 77 8 78 9 3 10 2 13 1 14 79 15
REMARK SMILES IDX 80 16 87 17 81 18 82 19 86 20 83 21 85 22 84 23 9 24 10 25
REMARK SMILES IDX 11 26 12 27 13 28 14 29 75 30 15 31 74 32 16 33 17 34 18 35
REMARK SMILES IDX 68 36 19 37 73 38 67 39 69 40 20 41 72 42 66 43 65 44 21 46
REMARK SMILES IDX 53 47 33 48 52 49 34 50 37 51 51 52 70 53 35 54 36 55 50 57
REMARK SMILES IDX 71 58 38 59 22 60 23 61 31 62 24 63 25 64 29 65 32 66 26 67
REMARK SMILES IDX 27 68 30 69 28 70 54 71 55 72 63 73 56 74 57 75 61 76 64 77
REMARK SMILES IDX 58 78 59 79 62 80 60 81 39 82 40 83 48 84 41 85 42 86 46 87
REMARK SMILES IDX 49 88 43 89 44 90 47 91 45 92
REMARK H PARENT 3 11 3 12 69 45 37 56
REMARK Flexibility Score: inf
ROOT
ATOM      1  C   UNL     1      -3.378  -0.741  -4.676  1.00  0.00     0.274 C 
ENDROOT
BRANCH   1   2
ATOM      2  O   UNL     1      -1.965  -0.511  -4.856  1.00  0.00    -0.457 OA
BRANCH   2   3
ATOM      3  C   UNL     1      -1.294   0.374  -4.053  1.00  0.00     0.368 C 
ATOM      4  O   UNL     1      -1.949   1.185  -3.401  1.00  0.00    -0.245 OA
BRANCH   3   5
ATOM      5  C   UNL     1       0.554   0.111  -4.171  1.00  0.00     0.196 C 
ATOM      6  C   UNL     1       0.675   0.831  -5.766  1.00  0.00     0.083 C 
ATOM      7  C   UNL     1       0.306  -1.507  -5.073  1.00  0.00     0.106 C 
ATOM      8  C   UNL     1       1.158  -0.228  -6.793  1.00  0.00     0.033 C 
ATOM      9  C   UNL     1       1.440  -1.548  -6.049  1.00  0.00     0.096 C 
BRANCH   5  10
ATOM     10  N   UNL     1       1.895   0.374  -2.545  1.00  0.00    -0.332 N 
ATOM     11  H   UNL     1       2.087  -0.590  -2.275  1.00  0.00     0.347 HD
ATOM     12  H   UNL     1       2.412   1.116  -3.017  1.00  0.00     0.347 HD
BRANCH  10  13
ATOM     13  C   UNL     1       1.933   1.127  -1.127  1.00  0.00     0.257 C 
ATOM     14  C   UNL     1       2.727   0.388  -0.040  1.00  0.00     0.071 C 
ENDBRANCH  10  13
ENDBRANCH   5  10
BRANCH   9  15
ATOM     15  N   UNL     1       2.621  -1.600  -5.189  1.00  0.00    -0.327 N 
ATOM     16  C   UNL     1       3.791  -0.966  -5.596  1.00  0.00     0.200 A 
ATOM     17  C   UNL     1       2.328  -1.143  -3.888  1.00  0.00     0.068 A 
ATOM     18  N   UNL     1       3.820   0.323  -5.290  1.00  0.00    -0.237 NA
ATOM     19  C   UNL     1       2.802   0.476  -4.385  1.00  0.00     0.088 A 
ATOM     20  C   UNL     1       0.929  -1.365  -2.715  1.00  0.00     0.028 A 
ATOM     21  C   UNL     1       1.869   1.917  -3.861  1.00  0.00     0.030 A 
ATOM     22  C   UNL     1      -0.031   0.101  -2.177  1.00  0.00     0.002 A 
ATOM     23  C   UNL     1       0.419   1.754  -2.831  1.00  0.00     0.002 A 
ENDBRANCH   9  15
ENDBRANCH   3   5
ENDBRANCH   2   3
ENDBRANCH   1   2
BRANCH   1  24
ATOM     24  C   UNL     1      -3.586  -2.114  -4.011  1.00  0.00     0.275 C 
BRANCH  24  25
ATOM     25  O   UNL     1      -3.157  -2.149  -2.622  1.00  0.00    -0.458 OA
BRANCH  25  26
ATOM     26  C   UNL     1      -2.565  -3.311  -2.216  1.00  0.00     0.338 C 
ATOM     27  O   UNL     1      -2.259  -4.251  -2.934  1.00  0.00    -0.246 OA
BRANCH  26  28
ATOM     28  C   UNL     1      -2.129  -3.273  -0.791  1.00  0.00     0.060 A 
ATOM     29  C   UNL     1      -1.073  -2.433  -0.531  1.00  0.00     0.016 A 
ATOM     30  C   UNL     1      -2.465  -4.177   0.203  1.00  0.00     0.016 A 
ATOM     31  C   UNL     1      -0.275  -2.493   0.599  1.00  0.00     0.010 A 
ATOM     32  C   UNL     1      -1.743  -4.177   1.430  1.00  0.00     0.010 A 
ATOM     33  C   UNL     1      -0.622  -3.341   1.634  1.00  0.00    -0.014 A 
BRANCH  33  34
ATOM     34  C   UNL     1       0.245  -3.345   2.851  1.00  0.00     0.031 A 
ATOM     35  C   UNL     1       1.024  -4.576   3.219  1.00  0.00     0.074 A 
ATOM     36  C   UNL     1       0.450  -2.213   3.564  1.00  0.00     0.049 A 
ATOM     37  N   UNL     1       1.697  -4.840   4.310  1.00  0.00    -0.248 NA
ATOM     38  C   UNL     1       1.063  -5.647   2.213  1.00  0.00     0.031 C 
ATOM     39  C   UNL     1      -0.087  -0.891   3.232  1.00  0.00     0.029 A 
ATOM     40  N   UNL     1       1.177  -1.986   4.711  1.00  0.00    -0.354 N 
ATOM     41  C   UNL     1       2.195  -6.127   4.147  1.00  0.00     0.074 A 
ATOM     42  C   UNL     1       1.752  -6.586   2.847  1.00  0.00     0.031 C 
ATOM     43  C   UNL     1       0.328   0.001   4.144  1.00  0.00     0.029 A 
ATOM     44  C   UNL     1       1.075  -0.696   5.183  1.00  0.00     0.049 A 
ATOM     45  H   UNL     1       1.719  -2.680   5.152  1.00  0.00     0.167 HD
ATOM     46  C   UNL     1       2.937  -6.859   5.014  1.00  0.00     0.037 A 
ATOM     47  C   UNL     1       1.477  -0.150   6.350  1.00  0.00     0.037 A 
ATOM     48  C   UNL     1       3.383  -6.385   6.300  1.00  0.00     0.049 A 
ATOM     49  C   UNL     1       2.166  -1.030   7.363  1.00  0.00     0.074 A 
ATOM     50  C   UNL     1       4.084  -7.069   7.278  1.00  0.00     0.029 A 
ATOM     51  N   UNL     1       3.173  -5.102   6.787  1.00  0.00    -0.354 N 
ATOM     52  N   UNL     1       2.539  -2.283   7.257  1.00  0.00    -0.248 NA
ATOM     53  C   UNL     1       2.471  -0.426   8.668  1.00  0.00     0.031 C 
ATOM     54  C   UNL     1       4.236  -6.224   8.382  1.00  0.00     0.029 A 
ATOM     55  C   UNL     1       3.706  -4.985   8.062  1.00  0.00     0.049 A 
ATOM     56  H   UNL     1       2.714  -4.381   6.298  1.00  0.00     0.167 HD
ATOM     57  C   UNL     1       3.150  -2.604   8.463  1.00  0.00     0.074 A 
ATOM     58  C   UNL     1       3.116  -1.409   9.278  1.00  0.00     0.031 C 
ATOM     59  C   UNL     1       3.686  -3.785   8.860  1.00  0.00     0.037 A 
BRANCH  46  60
ATOM     60  C   UNL     1       3.234  -8.282   4.635  1.00  0.00     0.064 A 
ATOM     61  C   UNL     1       4.108  -8.615   3.590  1.00  0.00     0.173 A 
ATOM     62  C   UNL     1       2.625  -9.334   5.338  1.00  0.00     0.173 A 
ATOM     63  F   UNL     1       4.705  -7.650   2.874  1.00  0.00    -0.203 F 
ATOM     64  C   UNL     1       4.328  -9.945   3.237  1.00  0.00     0.198 A 
ATOM     65  C   UNL     1       2.877 -10.662   5.008  1.00  0.00     0.198 A 
ATOM     66  F   UNL     1       1.784  -9.074   6.351  1.00  0.00    -0.203 F 
ATOM     67  F   UNL     1       5.112 -10.238   2.190  1.00  0.00    -0.200 F 
ATOM     68  C   UNL     1       3.717 -10.967   3.949  1.00  0.00     0.200 A 
ATOM     69  F   UNL     1       2.297 -11.647   5.709  1.00  0.00    -0.200 F 
ATOM     70  F   UNL     1       3.929 -12.245   3.607  1.00  0.00    -0.200 F 
ENDBRANCH  46  60
BRANCH  47  71
ATOM     71  C   UNL     1       1.165   1.273   6.679  1.00  0.00     0.064 A 
ATOM     72  C   UNL     1       2.185   2.200   6.944  1.00  0.00     0.173 A 
ATOM     73  C   UNL     1      -0.160   1.720   6.814  1.00  0.00     0.173 A 
ATOM     74  F   UNL     1       3.470   1.822   6.865  1.00  0.00    -0.203 F 
ATOM     75  C   UNL     1       1.894   3.498   7.364  1.00  0.00     0.198 A 
ATOM     76  C   UNL     1      -0.450   3.030   7.190  1.00  0.00     0.198 A 
ATOM     77  F   UNL     1      -1.181   0.880   6.589  1.00  0.00    -0.203 F 
ATOM     78  F   UNL     1       2.889   4.334   7.688  1.00  0.00    -0.200 F 
ATOM     79  C   UNL     1       0.577   3.914   7.480  1.00  0.00     0.200 A 
ATOM     80  F   UNL     1      -1.725   3.429   7.288  1.00  0.00    -0.200 F 
ATOM     81  F   UNL     1       0.297   5.159   7.891  1.00  0.00    -0.200 F 
ENDBRANCH  47  71
BRANCH  59  82
ATOM     82  C   UNL     1       4.342  -3.830  10.213  1.00  0.00     0.064 A 
ATOM     83  C   UNL     1       3.607  -3.728  11.403  1.00  0.00     0.173 A 
ATOM     84  C   UNL     1       5.730  -4.018  10.316  1.00  0.00     0.173 A 
ATOM     85  F   UNL     1       2.280  -3.533  11.364  1.00  0.00    -0.203 F 
ATOM     86  C   UNL     1       4.240  -3.779  12.643  1.00  0.00     0.198 A 
ATOM     87  C   UNL     1       6.353  -4.111  11.557  1.00  0.00     0.198 A 
ATOM     88  F   UNL     1       6.482  -4.130   9.211  1.00  0.00    -0.203 F 
ATOM     89  F   UNL     1       3.525  -3.618  13.766  1.00  0.00    -0.200 F 
ATOM     90  C   UNL     1       5.610  -3.980  12.720  1.00  0.00     0.200 A 
ATOM     91  F   UNL     1       7.674  -4.327  11.627  1.00  0.00    -0.200 F 
ATOM     92  F   UNL     1       6.215  -4.041  13.914  1.00  0.00    -0.200 F 
ENDBRANCH  59  82
ENDBRANCH  33  34
ENDBRANCH  26  28
ENDBRANCH  25  26
ENDBRANCH  24  25
ENDBRANCH   1  24
TORSDOF 14
