REMARK SMILES C[C@@H](C(=O)OCCOC(=O)c1ccc(-c2c3nc(c(-c4c(F)c(F)c(F)c(F)c4F)c4ccc([nH]4)c(-c4c(F)c(F)c(F)c(F)c4F)c4nc(c(-c5c(F)c(F)c(F)c(F)c5F)c5ccc2[nH]5)C=C4)C=C3)cc1)c1ccc(C[C@H]2CCCC2=O)cc1F
REMARK SMILES IDX 6 1 5 2 3 3 4 4 2 5 1 6 74 7 75 8 86 9 76 10 85 11 87 12
REMARK SMILES IDX 77 13 78 14 79 15 80 16 83 17 81 18 82 19 84 20 7 21 8 22
REMARK SMILES IDX 9 23 10 24 11 25 12 26 73 27 13 28 72 29 14 30 15 31 16 32
REMARK SMILES IDX 66 33 17 34 71 35 65 36 67 37 18 38 70 39 64 40 63 41 19 43
REMARK SMILES IDX 51 44 31 45 50 46 32 47 35 48 49 49 68 50 33 51 34 52 48 54
REMARK SMILES IDX 69 55 36 56 20 57 21 58 29 59 22 60 23 61 27 62 30 63 24 64
REMARK SMILES IDX 25 65 28 66 26 67 52 68 53 69 61 70 54 71 55 72 59 73 62 74
REMARK SMILES IDX 56 75 57 76 60 77 58 78 37 79 38 80 46 81 39 82 40 83 44 84
REMARK SMILES IDX 47 85 41 86 42 87 45 88 43 89
REMARK H PARENT 67 42 35 53
REMARK Flexibility Score: inf
ROOT
ATOM      1  C   UNL     1       2.790  -0.846  -3.508  1.00  0.00     0.274 C 
ENDROOT
BRANCH   1   2
ATOM      2  O   UNL     1       2.338  -0.378  -2.219  1.00  0.00    -0.462 OA
BRANCH   2   3
ATOM      3  C   UNL     1       1.266   0.461  -2.215  1.00  0.00     0.313 C 
ATOM      4  O   UNL     1       0.731   0.896  -3.229  1.00  0.00    -0.252 OA
BRANCH   3   5
ATOM      5  C   UNL     1       0.831   0.857  -0.798  1.00  0.00     0.129 C 
ATOM      6  C   UNL     1       1.575   0.097   0.305  1.00  0.00     0.025 C 
BRANCH   5   7
ATOM      7  C   UNL     1      -0.689   0.831  -0.661  1.00  0.00     0.002 A 
ATOM      8  C   UNL     1      -1.437   1.925  -1.130  1.00  0.00     0.008 A 
ATOM      9  C   UNL     1      -1.399  -0.261  -0.151  1.00  0.00     0.127 A 
ATOM     10  C   UNL     1      -2.837   1.916  -1.095  1.00  0.00     0.004 A 
ATOM     11  C   UNL     1      -2.795  -0.271  -0.098  1.00  0.00     0.043 A 
ATOM     12  F   UNL     1      -0.757  -1.360   0.264  1.00  0.00    -0.207 F 
ATOM     13  C   UNL     1      -3.533   0.813  -0.585  1.00  0.00    -0.044 A 
BRANCH  13  14
ATOM     14  C   UNL     1      -5.043   0.776  -0.614  1.00  0.00     0.047 C 
BRANCH  14  15
ATOM     15  C   UNL     1      -5.773   1.410   0.570  1.00  0.00     0.060 C 
ATOM     16  C   UNL     1      -5.489   0.783   1.938  1.00  0.00     0.012 C 
ATOM     17  C   UNL     1      -5.369   2.849   0.789  1.00  0.00     0.136 C 
ATOM     18  C   UNL     1      -4.400   1.638   2.573  1.00  0.00     0.009 C 
ATOM     19  C   UNL     1      -4.687   3.061   2.115  1.00  0.00     0.076 C 
ATOM     20  O   UNL     1      -5.582   3.748  -0.016  1.00  0.00    -0.299 OA
ENDBRANCH  14  15
ENDBRANCH  13  14
ENDBRANCH   5   7
ENDBRANCH   3   5
ENDBRANCH   2   3
ENDBRANCH   1   2
BRANCH   1  21
ATOM     21  C   UNL     1       2.281  -2.264  -3.752  1.00  0.00     0.275 C 
BRANCH  21  22
ATOM     22  O   UNL     1       0.848  -2.228  -3.853  1.00  0.00    -0.458 OA
BRANCH  22  23
ATOM     23  C   UNL     1       0.172  -3.184  -3.175  1.00  0.00     0.338 C 
ATOM     24  O   UNL     1       0.646  -4.126  -2.565  1.00  0.00    -0.246 OA
BRANCH  23  25
ATOM     25  C   UNL     1      -1.283  -2.934  -3.286  1.00  0.00     0.060 A 
ATOM     26  C   UNL     1      -1.790  -1.636  -3.306  1.00  0.00     0.016 A 
ATOM     27  C   UNL     1      -2.166  -4.016  -3.287  1.00  0.00     0.016 A 
ATOM     28  C   UNL     1      -3.167  -1.424  -3.236  1.00  0.00     0.010 A 
ATOM     29  C   UNL     1      -3.550  -3.796  -3.300  1.00  0.00     0.010 A 
ATOM     30  C   UNL     1      -4.074  -2.494  -3.223  1.00  0.00    -0.014 A 
BRANCH  30  31
ATOM     31  C   UNL     1      -5.543  -2.259  -3.052  1.00  0.00     0.031 A 
ATOM     32  C   UNL     1      -6.307  -2.963  -1.954  1.00  0.00     0.074 A 
ATOM     33  C   UNL     1      -6.213  -1.382  -3.829  1.00  0.00     0.049 A 
ATOM     34  N   UNL     1      -7.602  -3.063  -1.773  1.00  0.00    -0.248 NA
ATOM     35  C   UNL     1      -5.511  -3.648  -0.923  1.00  0.00     0.031 C 
ATOM     36  C   UNL     1      -5.628  -0.561  -4.887  1.00  0.00     0.029 A 
ATOM     37  N   UNL     1      -7.541  -1.019  -3.830  1.00  0.00    -0.354 N 
ATOM     38  C   UNL     1      -7.772  -3.895  -0.673  1.00  0.00     0.074 A 
ATOM     39  C   UNL     1      -6.449  -4.248  -0.205  1.00  0.00     0.031 C 
ATOM     40  C   UNL     1      -6.567   0.256  -5.385  1.00  0.00     0.029 A 
ATOM     41  C   UNL     1      -7.850  -0.063  -4.767  1.00  0.00     0.049 A 
ATOM     42  H   UNL     1      -8.207  -1.407  -3.217  1.00  0.00     0.167 HD
ATOM     43  C   UNL     1      -8.926  -4.334  -0.113  1.00  0.00     0.037 A 
ATOM     44  C   UNL     1      -9.033   0.467  -5.134  1.00  0.00     0.037 A 
ATOM     45  C   UNL     1     -10.245  -3.918  -0.516  1.00  0.00     0.049 A 
ATOM     46  C   UNL     1     -10.301  -0.031  -4.501  1.00  0.00     0.074 A 
ATOM     47  C   UNL     1     -11.470  -4.313  -0.004  1.00  0.00     0.029 A 
ATOM     48  N   UNL     1     -10.510  -2.986  -1.507  1.00  0.00    -0.354 N 
ATOM     49  N   UNL     1     -10.456  -0.921  -3.553  1.00  0.00    -0.248 NA
ATOM     50  C   UNL     1     -11.561   0.520  -5.021  1.00  0.00     0.031 C 
ATOM     51  C   UNL     1     -12.478  -3.633  -0.697  1.00  0.00     0.029 A 
ATOM     52  C   UNL     1     -11.878  -2.790  -1.617  1.00  0.00     0.049 A 
ATOM     53  H   UNL     1      -9.828  -2.531  -2.051  1.00  0.00     0.167 HD
ATOM     54  C   UNL     1     -11.826  -1.045  -3.370  1.00  0.00     0.074 A 
ATOM     55  C   UNL     1     -12.459  -0.114  -4.281  1.00  0.00     0.031 C 
ATOM     56  C   UNL     1     -12.499  -1.871  -2.534  1.00  0.00     0.037 A 
BRANCH  43  57
ATOM     57  C   UNL     1      -8.826  -5.355   0.982  1.00  0.00     0.064 A 
ATOM     58  C   UNL     1      -8.432  -5.015   2.283  1.00  0.00     0.173 A 
ATOM     59  C   UNL     1      -9.193  -6.687   0.732  1.00  0.00     0.173 A 
ATOM     60  F   UNL     1      -8.058  -3.759   2.568  1.00  0.00    -0.203 F 
ATOM     61  C   UNL     1      -8.393  -5.976   3.291  1.00  0.00     0.198 A 
ATOM     62  C   UNL     1      -9.177  -7.639   1.747  1.00  0.00     0.198 A 
ATOM     63  F   UNL     1      -9.585  -7.061  -0.495  1.00  0.00    -0.203 F 
ATOM     64  F   UNL     1      -7.982  -5.638   4.521  1.00  0.00    -0.200 F 
ATOM     65  C   UNL     1      -8.774  -7.284   3.025  1.00  0.00     0.200 A 
ATOM     66  F   UNL     1      -9.557  -8.899   1.490  1.00  0.00    -0.200 F 
ATOM     67  F   UNL     1      -8.747  -8.203   4.000  1.00  0.00    -0.200 F 
ENDBRANCH  43  57
BRANCH  44  68
ATOM     68  C   UNL     1      -9.076   1.496  -6.207  1.00  0.00     0.064 A 
ATOM     69  C   UNL     1      -9.411   2.825  -5.917  1.00  0.00     0.173 A 
ATOM     70  C   UNL     1      -8.771   1.173  -7.537  1.00  0.00     0.173 A 
ATOM     71  F   UNL     1      -9.748   3.172  -4.666  1.00  0.00    -0.203 F 
ATOM     72  C   UNL     1      -9.435   3.793  -6.918  1.00  0.00     0.198 A 
ATOM     73  C   UNL     1      -8.765   2.148  -8.531  1.00  0.00     0.198 A 
ATOM     74  F   UNL     1      -8.454  -0.088  -7.867  1.00  0.00    -0.203 F 
ATOM     75  F   UNL     1      -9.793   5.050  -6.623  1.00  0.00    -0.200 F 
ATOM     76  C   UNL     1      -9.101   3.457  -8.222  1.00  0.00     0.200 A 
ATOM     77  F   UNL     1      -8.430   1.819  -9.786  1.00  0.00    -0.200 F 
ATOM     78  F   UNL     1      -9.110   4.392  -9.181  1.00  0.00    -0.200 F 
ENDBRANCH  44  68
BRANCH  56  79
ATOM     79  C   UNL     1     -13.996  -1.805  -2.563  1.00  0.00     0.064 A 
ATOM     80  C   UNL     1     -14.729  -2.375  -3.614  1.00  0.00     0.173 A 
ATOM     81  C   UNL     1     -14.705  -1.189  -1.522  1.00  0.00     0.173 A 
ATOM     82  F   UNL     1     -14.093  -2.962  -4.639  1.00  0.00    -0.203 F 
ATOM     83  C   UNL     1     -16.120  -2.312  -3.631  1.00  0.00     0.198 A 
ATOM     84  C   UNL     1     -16.096  -1.145  -1.532  1.00  0.00     0.198 A 
ATOM     85  F   UNL     1     -14.048  -0.633  -0.493  1.00  0.00    -0.203 F 
ATOM     86  F   UNL     1     -16.799  -2.829  -4.664  1.00  0.00    -0.200 F 
ATOM     87  C   UNL     1     -16.802  -1.702  -2.589  1.00  0.00     0.200 A 
ATOM     88  F   UNL     1     -16.755  -0.561  -0.521  1.00  0.00    -0.200 F 
ATOM     89  F   UNL     1     -18.141  -1.642  -2.607  1.00  0.00    -0.200 F 
ENDBRANCH  56  79
ENDBRANCH  30  31
ENDBRANCH  23  25
ENDBRANCH  22  23
ENDBRANCH  21  22
ENDBRANCH   1  21
TORSDOF 14
