REMARK SMILES Cc1cc(C(=O)N[C@@H](C)C(=O)OCCOC(=O)c2ccc(-c3c4nc(c(-c5c(F)c(F)c(F)c(F)c5F)c5ccc([nH]5)c(-c5c(F)c(F)c(F)c(F)c5F)c5nc(c(-c6c(F)c(F)c(F)c(F)c6F)c6ccc3[nH]6)C=C5)C=C4)cc2)cc(C)c1OC(F)F
REMARK SMILES IDX 13 1 12 2 10 3 11 4 8 5 9 6 7 7 5 8 6 9 4 11 1 12 2 13 3 14
REMARK SMILES IDX 84 15 82 16 81 17 83 18 85 19 86 20 87 21 88 22 14 23 15 24
REMARK SMILES IDX 16 25 17 26 18 27 19 28 80 29 20 30 79 31 21 32 22 33 23 34
REMARK SMILES IDX 73 35 24 36 78 37 72 38 74 39 25 40 77 41 71 42 70 43 26 45
REMARK SMILES IDX 58 46 38 47 57 48 39 49 42 50 56 51 75 52 40 53 41 54 55 56
REMARK SMILES IDX 76 57 43 58 27 59 28 60 36 61 29 62 30 63 34 64 37 65 31 66
REMARK SMILES IDX 32 67 35 68 33 69 59 70 60 71 68 72 61 73 62 74 66 75 69 76
REMARK SMILES IDX 63 77 64 78 67 79 65 80 44 81 45 82 53 83 46 84 47 85 51 86
REMARK SMILES IDX 54 87 48 88 49 89 52 90 50 91
REMARK H PARENT 7 10 74 44 42 55
REMARK Flexibility Score: inf
ROOT
ATOM      1  C   UNL     1      -6.282  -1.695  -2.661  1.00  0.00     0.274 C 
ENDROOT
BRANCH   1   2
ATOM      2  O   UNL     1      -5.504  -1.166  -1.568  1.00  0.00    -0.461 OA
BRANCH   2   3
ATOM      3  C   UNL     1      -5.073  -2.076  -0.655  1.00  0.00     0.328 C 
ATOM      4  O   UNL     1      -5.373  -3.265  -0.653  1.00  0.00    -0.250 OA
BRANCH   3   5
ATOM      5  C   UNL     1      -4.129  -1.470   0.394  1.00  0.00     0.189 C 
ATOM      6  C   UNL     1      -4.735  -1.682   1.778  1.00  0.00     0.043 C 
BRANCH   5   7
ATOM      7  N   UNL     1      -3.806  -0.052   0.227  1.00  0.00    -0.339 N 
ATOM      8  C   UNL     1      -2.659   0.684   0.393  1.00  0.00     0.251 C 
ATOM      9  O   UNL     1      -2.757   1.907   0.278  1.00  0.00    -0.269 OA
ATOM     10  H   UNL     1      -4.575   0.488  -0.067  1.00  0.00     0.164 HD
BRANCH   8  11
ATOM     11  C   UNL     1      -1.305   0.095   0.627  1.00  0.00     0.040 A 
ATOM     12  C   UNL     1       2.192   1.405  -0.028  1.00  0.00     0.048 C 
ATOM     13  C   UNL     1       1.139   0.401   0.353  1.00  0.00    -0.008 A 
ATOM     14  C   UNL     1      -0.198   0.852   0.216  1.00  0.00     0.021 A 
ATOM     15  C   UNL     1       1.365  -0.905   0.813  1.00  0.00     0.131 A 
ATOM     16  C   UNL     1       0.254  -1.668   1.254  1.00  0.00    -0.008 A 
ATOM     17  C   UNL     1      -1.050  -1.131   1.225  1.00  0.00     0.021 A 
ATOM     18  C   UNL     1       0.403  -3.078   1.775  1.00  0.00     0.048 C 
BRANCH  15  19
ATOM     19  O   UNL     1       2.548  -1.566   0.966  1.00  0.00    -0.434 OA
BRANCH  19  20
ATOM     20  C   UNL     1       3.727  -1.260   0.239  1.00  0.00     0.542 C 
ATOM     21  F   UNL     1       3.438  -0.733  -0.968  1.00  0.00    -0.167 F 
ATOM     22  F   UNL     1       4.452  -0.364   0.948  1.00  0.00    -0.167 F 
ENDBRANCH  19  20
ENDBRANCH  15  19
ENDBRANCH   8  11
ENDBRANCH   5   7
ENDBRANCH   3   5
ENDBRANCH   2   3
ENDBRANCH   1   2
BRANCH   1  23
ATOM     23  C   UNL     1      -5.591  -1.407  -3.992  1.00  0.00     0.275 C 
BRANCH  23  24
ATOM     24  O   UNL     1      -4.262  -1.965  -3.999  1.00  0.00    -0.458 OA
BRANCH  24  25
ATOM     25  C   UNL     1      -3.267  -1.063  -3.848  1.00  0.00     0.338 C 
ATOM     26  O   UNL     1      -3.363   0.150  -3.747  1.00  0.00    -0.246 OA
BRANCH  25  27
ATOM     27  C   UNL     1      -1.981  -1.762  -3.745  1.00  0.00     0.060 A 
ATOM     28  C   UNL     1      -1.504  -2.082  -2.476  1.00  0.00     0.016 A 
ATOM     29  C   UNL     1      -1.190  -1.975  -4.874  1.00  0.00     0.016 A 
ATOM     30  C   UNL     1      -0.214  -2.582  -2.325  1.00  0.00     0.010 A 
ATOM     31  C   UNL     1       0.099  -2.503  -4.721  1.00  0.00     0.010 A 
ATOM     32  C   UNL     1       0.609  -2.783  -3.441  1.00  0.00    -0.014 A 
BRANCH  32  33
ATOM     33  C   UNL     1       2.022  -3.205  -3.243  1.00  0.00     0.031 A 
ATOM     34  C   UNL     1       3.143  -2.248  -3.543  1.00  0.00     0.074 A 
ATOM     35  C   UNL     1       2.307  -4.421  -2.738  1.00  0.00     0.049 A 
ATOM     36  N   UNL     1       4.437  -2.452  -3.500  1.00  0.00    -0.248 NA
ATOM     37  C   UNL     1       2.761  -0.880  -3.928  1.00  0.00     0.031 C 
ATOM     38  C   UNL     1       1.320  -5.426  -2.348  1.00  0.00     0.029 A 
ATOM     39  N   UNL     1       3.516  -5.016  -2.466  1.00  0.00    -0.354 N 
ATOM     40  C   UNL     1       5.020  -1.248  -3.877  1.00  0.00     0.074 A 
ATOM     41  C   UNL     1       3.942  -0.320  -4.148  1.00  0.00     0.031 C 
ATOM     42  C   UNL     1       1.960  -6.510  -1.880  1.00  0.00     0.029 A 
ATOM     43  C   UNL     1       3.401  -6.299  -1.990  1.00  0.00     0.049 A 
ATOM     44  H   UNL     1       4.381  -4.566  -2.600  1.00  0.00     0.167 HD
ATOM     45  C   UNL     1       6.335  -0.940  -3.978  1.00  0.00     0.037 A 
ATOM     46  C   UNL     1       4.346  -7.217  -1.710  1.00  0.00     0.037 A 
ATOM     47  C   UNL     1       7.415  -1.841  -3.678  1.00  0.00     0.049 A 
ATOM     48  C   UNL     1       5.797  -6.875  -1.912  1.00  0.00     0.074 A 
ATOM     49  C   UNL     1       8.778  -1.601  -3.731  1.00  0.00     0.029 A 
ATOM     50  N   UNL     1       7.255  -3.154  -3.267  1.00  0.00    -0.354 N 
ATOM     51  N   UNL     1       6.335  -5.741  -2.285  1.00  0.00    -0.248 NA
ATOM     52  C   UNL     1       6.771  -7.950  -1.667  1.00  0.00     0.031 C 
ATOM     53  C   UNL     1       9.444  -2.781  -3.382  1.00  0.00     0.029 A 
ATOM     54  C   UNL     1       8.495  -3.744  -3.080  1.00  0.00     0.049 A 
ATOM     55  H   UNL     1       6.389  -3.602  -3.129  1.00  0.00     0.167 HD
ATOM     56  C   UNL     1       7.705  -5.962  -2.316  1.00  0.00     0.074 A 
ATOM     57  C   UNL     1       7.921  -7.331  -1.899  1.00  0.00     0.031 C 
ATOM     58  C   UNL     1       8.696  -5.107  -2.667  1.00  0.00     0.037 A 
BRANCH  45  59
ATOM     59  C   UNL     1       6.687   0.432  -4.463  1.00  0.00     0.064 A 
ATOM     60  C   UNL     1       6.626   1.549  -3.618  1.00  0.00     0.173 A 
ATOM     61  C   UNL     1       7.145   0.619  -5.775  1.00  0.00     0.173 A 
ATOM     62  F   UNL     1       6.185   1.418  -2.358  1.00  0.00    -0.203 F 
ATOM     63  C   UNL     1       7.001   2.809  -4.076  1.00  0.00     0.198 A 
ATOM     64  C   UNL     1       7.536   1.876  -6.224  1.00  0.00     0.198 A 
ATOM     65  F   UNL     1       7.225  -0.423  -6.617  1.00  0.00    -0.203 F 
ATOM     66  F   UNL     1       6.915   3.870  -3.261  1.00  0.00    -0.200 F 
ATOM     67  C   UNL     1       7.461   2.971  -5.375  1.00  0.00     0.200 A 
ATOM     68  F   UNL     1       7.989   2.029  -7.476  1.00  0.00    -0.200 F 
ATOM     69  F   UNL     1       7.832   4.183  -5.811  1.00  0.00    -0.200 F 
ENDBRANCH  45  59
BRANCH  46  70
ATOM     70  C   UNL     1       3.950  -8.573  -1.251  1.00  0.00     0.064 A 
ATOM     71  C   UNL     1       4.217  -8.999   0.057  1.00  0.00     0.173 A 
ATOM     72  C   UNL     1       3.320  -9.477  -2.118  1.00  0.00     0.173 A 
ATOM     73  F   UNL     1       4.845  -8.180   0.913  1.00  0.00    -0.203 F 
ATOM     74  C   UNL     1       3.878 -10.284   0.476  1.00  0.00     0.198 A 
ATOM     75  C   UNL     1       2.957 -10.751  -1.690  1.00  0.00     0.198 A 
ATOM     76  F   UNL     1       3.050  -9.117  -3.382  1.00  0.00    -0.203 F 
ATOM     77  F   UNL     1       4.182 -10.683   1.719  1.00  0.00    -0.200 F 
ATOM     78  C   UNL     1       3.243 -11.156  -0.396  1.00  0.00     0.200 A 
ATOM     79  F   UNL     1       2.336 -11.587  -2.534  1.00  0.00    -0.200 F 
ATOM     80  F   UNL     1       2.916 -12.391   0.009  1.00  0.00    -0.200 F 
ENDBRANCH  46  70
BRANCH  58  81
ATOM     81  C   UNL     1      10.103  -5.621  -2.602  1.00  0.00     0.064 A 
ATOM     82  C   UNL     1      10.604  -6.496  -3.576  1.00  0.00     0.173 A 
ATOM     83  C   UNL     1      10.967  -5.209  -1.577  1.00  0.00     0.173 A 
ATOM     84  F   UNL     1       9.809  -6.932  -4.564  1.00  0.00    -0.203 F 
ATOM     85  C   UNL     1      11.918  -6.954  -3.517  1.00  0.00     0.198 A 
ATOM     86  C   UNL     1      12.287  -5.651  -1.534  1.00  0.00     0.198 A 
ATOM     87  F   UNL     1      10.534  -4.371  -0.624  1.00  0.00    -0.203 F 
ATOM     88  F   UNL     1      12.366  -7.819  -4.437  1.00  0.00    -0.200 F 
ATOM     89  C   UNL     1      12.759  -6.526  -2.500  1.00  0.00     0.200 A 
ATOM     90  F   UNL     1      13.101  -5.232  -0.555  1.00  0.00    -0.200 F 
ATOM     91  F   UNL     1      14.024  -6.965  -2.447  1.00  0.00    -0.200 F 
ENDBRANCH  58  81
ENDBRANCH  32  33
ENDBRANCH  25  27
ENDBRANCH  24  25
ENDBRANCH  23  24
ENDBRANCH   1  23
TORSDOF 15
