REMARK SMILES O=C(OCCOC(=O)[C@@]1([C@@H]2CCC[C@@H]2O)CCCc2ccccc21)c1ccc(-c2c3nc(c(-c4c(F)c(F)c(F)c(F)c4F)c4ccc([nH]4)c(-c4c(F)c(F)c(F)c(F)c4F)c4nc(c(-c5c(F)c(F)c(F)c(F)c5F)c5ccc2[nH]5)C=C4)C=C3)cc1
REMARK SMILES IDX 4 1 3 2 2 3 1 4 25 5 26 6 87 7 27 8 86 9 28 10 29 11 30 12
REMARK SMILES IDX 80 13 31 14 85 15 79 16 81 17 32 18 84 19 78 20 77 21 33 23
REMARK SMILES IDX 65 24 45 25 64 26 46 27 49 28 63 29 82 30 47 31 48 32 62 34
REMARK SMILES IDX 83 35 50 36 34 37 35 38 43 39 36 40 37 41 41 42 44 43 38 44
REMARK SMILES IDX 39 45 42 46 40 47 66 48 67 49 75 50 68 51 69 52 73 53 76 54
REMARK SMILES IDX 70 55 71 56 74 57 72 58 51 59 52 60 60 61 53 62 54 63 58 64
REMARK SMILES IDX 61 65 55 66 56 67 59 68 57 69 5 70 6 71 7 72 8 73 9 74 16 75
REMARK SMILES IDX 24 76 17 77 19 78 23 79 18 80 20 81 22 82 21 83 10 84 11 85
REMARK SMILES IDX 14 86 12 87 13 88 15 89
REMARK H PARENT 81 22 49 33 15 90
REMARK Flexibility Score: inf
ROOT
ATOM      1  C   UNL     1      -0.823   3.217   0.588  1.00  0.00     0.275 C 
ENDROOT
BRANCH   1   2
ATOM      2  O   UNL     1      -0.859   3.829   1.881  1.00  0.00    -0.458 OA
BRANCH   2   3
ATOM      3  C   UNL     1       0.052   4.816   2.054  1.00  0.00     0.338 C 
ATOM      4  O   UNL     1       0.502   5.558   1.200  1.00  0.00    -0.246 OA
BRANCH   3   5
ATOM      5  C   UNL     1       0.645   4.628   3.397  1.00  0.00     0.060 A 
ATOM      6  C   UNL     1      -0.021   3.920   4.401  1.00  0.00     0.016 A 
ATOM      7  C   UNL     1       1.969   5.029   3.580  1.00  0.00     0.016 A 
ATOM      8  C   UNL     1       0.645   3.605   5.579  1.00  0.00     0.010 A 
ATOM      9  C   UNL     1       2.665   4.627   4.712  1.00  0.00     0.010 A 
ATOM     10  C   UNL     1       1.992   3.951   5.738  1.00  0.00    -0.014 A 
BRANCH  10  11
ATOM     11  C   UNL     1       2.636   3.743   7.050  1.00  0.00     0.031 A 
ATOM     12  C   UNL     1       2.919   4.950   7.889  1.00  0.00     0.074 A 
ATOM     13  C   UNL     1       2.886   2.503   7.508  1.00  0.00     0.049 A 
ATOM     14  N   UNL     1       3.225   5.009   9.156  1.00  0.00    -0.248 NA
ATOM     15  C   UNL     1       2.820   6.265   7.232  1.00  0.00     0.031 C 
ATOM     16  C   UNL     1       2.656   1.269   6.763  1.00  0.00     0.029 A 
ATOM     17  N   UNL     1       3.391   2.073   8.705  1.00  0.00    -0.354 N 
ATOM     18  C   UNL     1       3.268   6.361   9.456  1.00  0.00     0.074 A 
ATOM     19  C   UNL     1       3.112   7.089   8.222  1.00  0.00     0.031 C 
ATOM     20  C   UNL     1       3.069   0.220   7.494  1.00  0.00     0.029 A 
ATOM     21  C   UNL     1       3.539   0.710   8.782  1.00  0.00     0.049 A 
ATOM     22  H   UNL     1       3.627   2.683   9.441  1.00  0.00     0.167 HD
ATOM     23  C   UNL     1       3.333   6.941  10.675  1.00  0.00     0.037 A 
ATOM     24  C   UNL     1       3.968  -0.055   9.802  1.00  0.00     0.037 A 
ATOM     25  C   UNL     1       3.511   6.195  11.885  1.00  0.00     0.049 A 
ATOM     26  C   UNL     1       4.156   0.611  11.136  1.00  0.00     0.074 A 
ATOM     27  C   UNL     1       3.573   6.647  13.187  1.00  0.00     0.029 A 
ATOM     28  N   UNL     1       3.680   4.816  11.923  1.00  0.00    -0.354 N 
ATOM     29  N   UNL     1       4.040   1.881  11.446  1.00  0.00    -0.248 NA
ATOM     30  C   UNL     1       4.449  -0.264  12.277  1.00  0.00     0.031 C 
ATOM     31  C   UNL     1       3.816   5.542  14.012  1.00  0.00     0.029 A 
ATOM     32  C   UNL     1       3.866   4.398  13.226  1.00  0.00     0.049 A 
ATOM     33  H   UNL     1       3.668   4.223  11.137  1.00  0.00     0.167 HD
ATOM     34  C   UNL     1       4.165   1.952  12.824  1.00  0.00     0.074 A 
ATOM     35  C   UNL     1       4.396   0.595  13.286  1.00  0.00     0.031 C 
ATOM     36  C   UNL     1       4.066   3.031  13.639  1.00  0.00     0.037 A 
BRANCH  23  37
ATOM     37  C   UNL     1       3.173   8.430  10.704  1.00  0.00     0.064 A 
ATOM     38  C   UNL     1       1.941   9.029  10.383  1.00  0.00     0.173 A 
ATOM     39  C   UNL     1       4.267   9.267  10.948  1.00  0.00     0.173 A 
ATOM     40  F   UNL     1       0.871   8.267  10.107  1.00  0.00    -0.203 F 
ATOM     41  C   UNL     1       1.827  10.410  10.256  1.00  0.00     0.198 A 
ATOM     42  C   UNL     1       4.141  10.651  10.847  1.00  0.00     0.198 A 
ATOM     43  F   UNL     1       5.466   8.745  11.244  1.00  0.00    -0.203 F 
ATOM     44  F   UNL     1       0.664  10.952   9.865  1.00  0.00    -0.200 F 
ATOM     45  C   UNL     1       2.927  11.220  10.487  1.00  0.00     0.200 A 
ATOM     46  F   UNL     1       5.205  11.436  11.066  1.00  0.00    -0.200 F 
ATOM     47  F   UNL     1       2.825  12.548  10.339  1.00  0.00    -0.200 F 
ENDBRANCH  23  37
BRANCH  24  48
ATOM     48  C   UNL     1       4.128  -1.521   9.622  1.00  0.00     0.064 A 
ATOM     49  C   UNL     1       3.210  -2.431  10.163  1.00  0.00     0.173 A 
ATOM     50  C   UNL     1       5.202  -2.041   8.884  1.00  0.00     0.173 A 
ATOM     51  F   UNL     1       2.168  -1.984  10.879  1.00  0.00    -0.203 F 
ATOM     52  C   UNL     1       3.372  -3.806   9.994  1.00  0.00     0.198 A 
ATOM     53  C   UNL     1       5.355  -3.415   8.703  1.00  0.00     0.198 A 
ATOM     54  F   UNL     1       6.102  -1.212   8.335  1.00  0.00    -0.203 F 
ATOM     55  F   UNL     1       2.496  -4.654  10.549  1.00  0.00    -0.200 F 
ATOM     56  C   UNL     1       4.444  -4.297   9.263  1.00  0.00     0.200 A 
ATOM     57  F   UNL     1       6.386  -3.885   7.987  1.00  0.00    -0.200 F 
ATOM     58  F   UNL     1       4.599  -5.618   9.103  1.00  0.00    -0.200 F 
ENDBRANCH  24  48
BRANCH  36  59
ATOM     59  C   UNL     1       4.132   2.771  15.111  1.00  0.00     0.064 A 
ATOM     60  C   UNL     1       5.338   2.459  15.751  1.00  0.00     0.173 A 
ATOM     61  C   UNL     1       2.971   2.879  15.892  1.00  0.00     0.173 A 
ATOM     62  F   UNL     1       6.467   2.330  15.039  1.00  0.00    -0.203 F 
ATOM     63  C   UNL     1       5.375   2.240  17.124  1.00  0.00     0.198 A 
ATOM     64  C   UNL     1       3.018   2.688  17.268  1.00  0.00     0.198 A 
ATOM     65  F   UNL     1       1.796   3.180  15.319  1.00  0.00    -0.203 F 
ATOM     66  F   UNL     1       6.529   1.898  17.713  1.00  0.00    -0.200 F 
ATOM     67  C   UNL     1       4.219   2.362  17.881  1.00  0.00     0.200 A 
ATOM     68  F   UNL     1       1.903   2.817  17.999  1.00  0.00    -0.200 F 
ATOM     69  F   UNL     1       4.260   2.158  19.205  1.00  0.00    -0.200 F 
ENDBRANCH  36  59
ENDBRANCH  10  11
ENDBRANCH   3   5
ENDBRANCH   2   3
ENDBRANCH   1   2
BRANCH   1  70
ATOM     70  C   UNL     1       0.108   1.999   0.633  1.00  0.00     0.274 C 
BRANCH  70  71
ATOM     71  O   UNL     1       1.431   2.288   1.151  1.00  0.00    -0.461 OA
BRANCH  71  72
ATOM     72  C   UNL     1       2.505   1.976   0.355  1.00  0.00     0.317 C 
ATOM     73  O   UNL     1       2.387   1.740  -0.842  1.00  0.00    -0.251 OA
BRANCH  72  74
ATOM     74  C   UNL     1       3.880   1.963   1.139  1.00  0.00     0.098 C 
ATOM     75  C   UNL     1       4.749   0.887   0.428  1.00  0.00     0.024 C 
ATOM     76  C   UNL     1       4.611   3.321   0.975  1.00  0.00    -0.027 A 
ATOM     77  C   UNL     1       6.198   0.836   0.884  1.00  0.00     0.006 C 
ATOM     78  C   UNL     1       6.021   3.395   0.935  1.00  0.00    -0.044 A 
ATOM     79  C   UNL     1       3.902   4.528   0.868  1.00  0.00     0.005 A 
ATOM     80  C   UNL     1       6.901   2.180   0.781  1.00  0.00     0.036 C 
ATOM     81  C   UNL     1       6.666   4.649   0.930  1.00  0.00     0.004 A 
ATOM     82  C   UNL     1       4.552   5.767   0.826  1.00  0.00     0.000 A 
ATOM     83  C   UNL     1       5.936   5.830   0.892  1.00  0.00     0.000 A 
BRANCH  74  84
ATOM     84  C   UNL     1       3.614   1.649   2.675  1.00  0.00     0.040 C 
ATOM     85  C   UNL     1       4.782   1.753   3.687  1.00  0.00     0.008 C 
ATOM     86  C   UNL     1       2.983   0.285   3.029  1.00  0.00     0.119 C 
ATOM     87  C   UNL     1       5.075   0.353   4.230  1.00  0.00     0.003 C 
ATOM     88  C   UNL     1       4.123  -0.591   3.522  1.00  0.00     0.032 C 
BRANCH  86  89
ATOM     89  O   UNL     1       2.300  -0.357   1.977  1.00  0.00    -0.393 OA
ATOM     90  H   UNL     1       2.921  -0.548   1.257  1.00  0.00     0.210 HD
ENDBRANCH  86  89
ENDBRANCH  74  84
ENDBRANCH  72  74
ENDBRANCH  71  72
ENDBRANCH  70  71
ENDBRANCH   1  70
TORSDOF 13
