REMARK SMILES O=C(OCCOC(=O)[C@@H]1C[N@H+](Cc2ccco2)CC12CCOCC2)c1ccc(-c2c3nc(c(-c4c(F)c(F)c(F)c(F)c4F)c4ccc([nH]4)c(-c4c(F)c(F)c(F)c(F)c4F)c4nc(c(-c5c(F)c(F)c(F)c(F)c5F)c5ccc2[nH]5)C=C4)C=C3)cc1
REMARK SMILES IDX 4 1 3 2 2 3 1 4 25 5 26 6 87 7 27 8 86 9 28 10 29 11 30 12
REMARK SMILES IDX 80 13 31 14 85 15 79 16 81 17 32 18 84 19 78 20 77 21 33 23
REMARK SMILES IDX 65 24 45 25 64 26 46 27 49 28 63 29 82 30 47 31 48 32 62 34
REMARK SMILES IDX 83 35 50 36 34 37 35 38 43 39 36 40 37 41 41 42 44 43 38 44
REMARK SMILES IDX 39 45 42 46 40 47 66 48 67 49 75 50 68 51 69 52 73 53 76 54
REMARK SMILES IDX 70 55 71 56 74 57 72 58 51 59 52 60 60 61 53 62 54 63 58 64
REMARK SMILES IDX 61 65 55 66 56 67 59 68 57 69 5 70 6 71 7 72 8 73 9 74 10 75
REMARK SMILES IDX 19 76 11 77 18 78 20 79 24 80 21 82 23 83 22 84 12 85 13 86
REMARK SMILES IDX 14 87 17 88 15 89 16 90
REMARK H PARENT 81 22 49 33 11 81
REMARK Flexibility Score: inf
ROOT
ATOM      1  C   UNL     1       6.938  -2.354   2.671  1.00  0.00     0.275 C 
ENDROOT
BRANCH   1   2
ATOM      2  O   UNL     1       6.871  -1.789   1.346  1.00  0.00    -0.458 OA
BRANCH   2   3
ATOM      3  C   UNL     1       5.729  -1.258   0.863  1.00  0.00     0.338 C 
ATOM      4  O   UNL     1       5.551  -0.037   0.832  1.00  0.00    -0.246 OA
BRANCH   3   5
ATOM      5  C   UNL     1       4.764  -2.203   0.193  1.00  0.00     0.060 A 
ATOM      6  C   UNL     1       4.722  -3.586   0.410  1.00  0.00     0.016 A 
ATOM      7  C   UNL     1       3.743  -1.641  -0.588  1.00  0.00     0.016 A 
ATOM      8  C   UNL     1       3.586  -4.348   0.028  1.00  0.00     0.010 A 
ATOM      9  C   UNL     1       2.622  -2.404  -0.985  1.00  0.00     0.010 A 
ATOM     10  C   UNL     1       2.465  -3.749  -0.582  1.00  0.00    -0.014 A 
BRANCH  10  11
ATOM     11  C   UNL     1       1.214  -4.546  -0.927  1.00  0.00     0.031 A 
ATOM     12  C   UNL     1       1.136  -4.953  -2.355  1.00  0.00     0.074 A 
ATOM     13  C   UNL     1       0.157  -4.889  -0.131  1.00  0.00     0.049 A 
ATOM     14  N   UNL     1       0.194  -5.615  -2.964  1.00  0.00    -0.248 NA
ATOM     15  C   UNL     1       2.219  -4.470  -3.233  1.00  0.00     0.031 C 
ATOM     16  C   UNL     1      -0.141  -4.319   1.156  1.00  0.00     0.029 A 
ATOM     17  N   UNL     1      -0.928  -5.745  -0.253  1.00  0.00    -0.354 N 
ATOM     18  C   UNL     1       0.601  -5.671  -4.278  1.00  0.00     0.074 A 
ATOM     19  C   UNL     1       1.776  -4.844  -4.416  1.00  0.00     0.031 C 
ATOM     20  C   UNL     1      -1.107  -4.937   1.831  1.00  0.00     0.029 A 
ATOM     21  C   UNL     1      -1.749  -5.795   0.876  1.00  0.00     0.049 A 
ATOM     22  H   UNL     1      -1.104  -6.272  -1.066  1.00  0.00     0.167 HD
ATOM     23  C   UNL     1       0.080  -6.421  -5.268  1.00  0.00     0.037 A 
ATOM     24  C   UNL     1      -2.968  -6.316   1.121  1.00  0.00     0.037 A 
ATOM     25  C   UNL     1      -1.136  -7.163  -5.138  1.00  0.00     0.049 A 
ATOM     26  C   UNL     1      -3.600  -7.020  -0.023  1.00  0.00     0.074 A 
ATOM     27  C   UNL     1      -1.780  -7.936  -6.081  1.00  0.00     0.029 A 
ATOM     28  N   UNL     1      -1.919  -7.190  -3.985  1.00  0.00    -0.354 N 
ATOM     29  N   UNL     1      -3.147  -7.125  -1.246  1.00  0.00    -0.248 NA
ATOM     30  C   UNL     1      -4.891  -7.665   0.220  1.00  0.00     0.031 C 
ATOM     31  C   UNL     1      -2.968  -8.407  -5.511  1.00  0.00     0.029 A 
ATOM     32  C   UNL     1      -3.042  -7.972  -4.196  1.00  0.00     0.049 A 
ATOM     33  H   UNL     1      -1.705  -6.723  -3.146  1.00  0.00     0.167 HD
ATOM     34  C   UNL     1      -4.081  -7.872  -1.925  1.00  0.00     0.074 A 
ATOM     35  C   UNL     1      -5.124  -8.204  -0.968  1.00  0.00     0.031 C 
ATOM     36  C   UNL     1      -4.065  -8.259  -3.221  1.00  0.00     0.037 A 
BRANCH  23  37
ATOM     37  C   UNL     1       0.900  -6.443  -6.517  1.00  0.00     0.064 A 
ATOM     38  C   UNL     1       2.174  -7.044  -6.516  1.00  0.00     0.173 A 
ATOM     39  C   UNL     1       0.515  -5.707  -7.642  1.00  0.00     0.173 A 
ATOM     40  F   UNL     1       2.610  -7.704  -5.431  1.00  0.00    -0.203 F 
ATOM     41  C   UNL     1       3.053  -6.857  -7.577  1.00  0.00     0.198 A 
ATOM     42  C   UNL     1       1.387  -5.550  -8.716  1.00  0.00     0.198 A 
ATOM     43  F   UNL     1      -0.672  -5.084  -7.669  1.00  0.00    -0.203 F 
ATOM     44  F   UNL     1       4.300  -7.343  -7.506  1.00  0.00    -0.200 F 
ATOM     45  C   UNL     1       2.658  -6.109  -8.675  1.00  0.00     0.200 A 
ATOM     46  F   UNL     1       1.017  -4.813  -9.771  1.00  0.00    -0.200 F 
ATOM     47  F   UNL     1       3.517  -5.897  -9.682  1.00  0.00    -0.200 F 
ENDBRANCH  23  37
BRANCH  24  48
ATOM     48  C   UNL     1      -3.690  -6.121   2.425  1.00  0.00     0.064 A 
ATOM     49  C   UNL     1      -3.936  -7.197   3.293  1.00  0.00     0.173 A 
ATOM     50  C   UNL     1      -4.161  -4.860   2.837  1.00  0.00     0.173 A 
ATOM     51  F   UNL     1      -3.541  -8.432   2.950  1.00  0.00    -0.203 F 
ATOM     52  C   UNL     1      -4.627  -7.026   4.497  1.00  0.00     0.198 A 
ATOM     53  C   UNL     1      -4.820  -4.682   4.058  1.00  0.00     0.198 A 
ATOM     54  F   UNL     1      -3.960  -3.783   2.064  1.00  0.00    -0.203 F 
ATOM     55  F   UNL     1      -4.887  -8.086   5.275  1.00  0.00    -0.200 F 
ATOM     56  C   UNL     1      -5.061  -5.768   4.883  1.00  0.00     0.200 A 
ATOM     57  F   UNL     1      -5.220  -3.459   4.433  1.00  0.00    -0.200 F 
ATOM     58  F   UNL     1      -5.716  -5.604   6.041  1.00  0.00    -0.200 F 
ENDBRANCH  24  48
BRANCH  36  59
ATOM     59  C   UNL     1      -5.193  -9.143  -3.625  1.00  0.00     0.064 A 
ATOM     60  C   UNL     1      -6.496  -8.652  -3.780  1.00  0.00     0.173 A 
ATOM     61  C   UNL     1      -4.962 -10.513  -3.802  1.00  0.00     0.173 A 
ATOM     62  F   UNL     1      -6.760  -7.354  -3.570  1.00  0.00    -0.203 F 
ATOM     63  C   UNL     1      -7.543  -9.518  -4.069  1.00  0.00     0.198 A 
ATOM     64  C   UNL     1      -6.005 -11.368  -4.127  1.00  0.00     0.198 A 
ATOM     65  F   UNL     1      -3.730 -11.018  -3.643  1.00  0.00    -0.203 F 
ATOM     66  F   UNL     1      -8.796  -9.050  -4.137  1.00  0.00    -0.200 F 
ATOM     67  C   UNL     1      -7.295 -10.872  -4.249  1.00  0.00     0.200 A 
ATOM     68  F   UNL     1      -5.765 -12.674  -4.302  1.00  0.00    -0.200 F 
ATOM     69  F   UNL     1      -8.307 -11.707  -4.521  1.00  0.00    -0.200 F 
ENDBRANCH  36  59
ENDBRANCH  10  11
ENDBRANCH   3   5
ENDBRANCH   2   3
ENDBRANCH   1   2
BRANCH   1  70
ATOM     70  C   UNL     1       6.390  -1.601   3.901  1.00  0.00     0.274 C 
BRANCH  70  71
ATOM     71  O   UNL     1       5.166  -0.889   3.697  1.00  0.00    -0.462 OA
BRANCH  71  72
ATOM     72  C   UNL     1       4.541  -0.492   4.845  1.00  0.00     0.315 C 
ATOM     73  O   UNL     1       5.096  -0.504   5.942  1.00  0.00    -0.252 OA
BRANCH  72  74
ATOM     74  C   UNL     1       3.094  -0.029   4.628  1.00  0.00     0.166 C 
ATOM     75  C   UNL     1       2.330  -0.057   5.967  1.00  0.00     0.278 C 
ATOM     76  C   UNL     1       2.192  -0.853   3.693  1.00  0.00     0.043 C 
ATOM     77  N   UNL     1       1.241  -1.020   5.877  1.00  0.00    -0.327 N 
ATOM     78  C   UNL     1       0.878  -1.101   4.488  1.00  0.00     0.270 C 
ATOM     79  C   UNL     1       1.820  -0.095   2.398  1.00  0.00     0.042 C 
ATOM     80  C   UNL     1       2.882  -2.149   3.276  1.00  0.00     0.042 C 
ATOM     81  H   UNL     1       0.464  -0.660   6.432  1.00  0.00     0.348 HD
ATOM     82  C   UNL     1       0.933  -0.981   1.556  1.00  0.00     0.161 C 
ATOM     83  C   UNL     1       1.942  -2.994   2.528  1.00  0.00     0.161 C 
ATOM     84  O   UNL     1       1.578  -2.227   1.387  1.00  0.00    -0.381 OA
BRANCH  77  85
ATOM     85  C   UNL     1       1.296  -2.268   6.643  1.00  0.00     0.338 C 
BRANCH  85  86
ATOM     86  C   UNL     1       2.197  -3.373   6.192  1.00  0.00     0.157 A 
ATOM     87  C   UNL     1       3.546  -3.636   6.341  1.00  0.00     0.052 A 
ATOM     88  O   UNL     1       1.606  -4.417   5.527  1.00  0.00    -0.463 OA
ATOM     89  C   UNL     1       3.796  -4.876   5.696  1.00  0.00     0.042 A 
ATOM     90  C   UNL     1       2.579  -5.322   5.238  1.00  0.00     0.195 A 
ENDBRANCH  85  86
ENDBRANCH  77  85
ENDBRANCH  72  74
ENDBRANCH  71  72
ENDBRANCH  70  71
ENDBRANCH   1  70
TORSDOF 13
