REMARK SMILES O=C(Cc1csc(NC(=O)c2ccccc2Cl)n1)OCCOC(=O)c1ccc(-c2c3nc(c(-c4c(F)c(F)c(F)c(F)c4F)c4ccc([nH]4)c(-c4c(F)c(F)c(F)c(F)c4F)c4nc(c(-c5c(F)c(F)c(F)c(F)c5F)c5ccc2[nH]5)C=C4)C=C3)cc1
REMARK SMILES IDX 20 1 19 2 2 3 1 4 3 5 4 6 5 7 18 8 6 9 7 10 8 11 9 12 10 14
REMARK SMILES IDX 11 15 12 16 16 17 13 18 15 19 17 20 14 21 21 22 22 23 23 24
REMARK SMILES IDX 24 25 25 26 26 27 87 28 27 29 86 30 28 31 29 32 30 33 80 34
REMARK SMILES IDX 31 35 85 36 79 37 81 38 32 39 84 40 78 41 77 42 33 44 65 45
REMARK SMILES IDX 45 46 64 47 46 48 49 49 63 50 82 51 47 52 48 53 62 55 83 56
REMARK SMILES IDX 50 57 34 58 35 59 43 60 36 61 37 62 41 63 44 64 38 65 39 66
REMARK SMILES IDX 42 67 40 68 66 69 67 70 75 71 68 72 69 73 73 74 76 75 70 76
REMARK SMILES IDX 71 77 74 78 72 79 51 80 52 81 60 82 53 83 54 84 58 85 61 86
REMARK SMILES IDX 55 87 56 88 59 89 57 90
REMARK H PARENT 8 13 81 43 49 54
REMARK Flexibility Score: inf
ROOT
ATOM      1  C   UNL     1       4.588   0.072  -0.942  1.00  0.00     0.274 C 
ENDROOT
BRANCH   1   2
ATOM      2  O   UNL     1       3.234  -0.435  -0.960  1.00  0.00    -0.462 OA
BRANCH   2   3
ATOM      3  C   UNL     1       2.501  -0.730   0.139  1.00  0.00     0.312 C 
ATOM      4  O   UNL     1       1.467  -1.390   0.033  1.00  0.00    -0.252 OA
BRANCH   3   5
ATOM      5  C   UNL     1       2.945  -0.215   1.481  1.00  0.00     0.179 C 
BRANCH   5   6
ATOM      6  C   UNL     1       3.628  -1.237   2.304  1.00  0.00     0.065 A 
ATOM      7  C   UNL     1       3.086  -2.415   2.777  1.00  0.00     0.093 A 
ATOM      8  N   UNL     1       4.931  -0.985   2.710  1.00  0.00    -0.224 NA
ATOM      9  S   UNL     1       4.222  -3.195   3.780  1.00  0.00    -0.105 S 
ATOM     10  C   UNL     1       5.390  -2.015   3.377  1.00  0.00     0.189 A 
BRANCH  10  11
ATOM     11  N   UNL     1       6.689  -2.085   3.809  1.00  0.00    -0.298 N 
ATOM     12  C   UNL     1       7.459  -3.193   4.075  1.00  0.00     0.258 C 
ATOM     13  H   UNL     1       7.135  -1.218   3.948  1.00  0.00     0.172 HD
ATOM     14  O   UNL     1       8.553  -3.092   4.625  1.00  0.00    -0.269 OA
BRANCH  12  15
ATOM     15  C   UNL     1       7.014  -4.528   3.636  1.00  0.00     0.058 A 
ATOM     16  C   UNL     1       6.655  -5.446   4.632  1.00  0.00     0.015 A 
ATOM     17  C   UNL     1       6.826  -4.833   2.281  1.00  0.00     0.053 A 
ATOM     18  C   UNL     1       6.012  -6.629   4.271  1.00  0.00     0.001 A 
ATOM     19  C   UNL     1       6.181  -6.021   1.932  1.00  0.00     0.021 A 
ATOM     20  Cl  UNL     1       7.319  -3.773   1.009  1.00  0.00    -0.083 Cl
ATOM     21  C   UNL     1       5.756  -6.905   2.926  1.00  0.00     0.002 A 
ENDBRANCH  12  15
ENDBRANCH  10  11
ENDBRANCH   5   6
ENDBRANCH   3   5
ENDBRANCH   2   3
ENDBRANCH   1   2
BRANCH   1  22
ATOM     22  C   UNL     1       4.632   1.564  -1.285  1.00  0.00     0.275 C 
BRANCH  22  23
ATOM     23  O   UNL     1       4.135   2.349  -0.183  1.00  0.00    -0.458 OA
BRANCH  23  24
ATOM     24  C   UNL     1       2.833   2.720  -0.254  1.00  0.00     0.338 C 
ATOM     25  O   UNL     1       2.091   2.588  -1.212  1.00  0.00    -0.246 OA
BRANCH  24  26
ATOM     26  C   UNL     1       2.360   3.113   1.098  1.00  0.00     0.060 A 
ATOM     27  C   UNL     1       1.040   2.792   1.440  1.00  0.00     0.016 A 
ATOM     28  C   UNL     1       3.199   3.712   2.045  1.00  0.00     0.016 A 
ATOM     29  C   UNL     1       0.551   3.090   2.714  1.00  0.00     0.010 A 
ATOM     30  C   UNL     1       2.707   4.014   3.321  1.00  0.00     0.010 A 
ATOM     31  C   UNL     1       1.373   3.727   3.654  1.00  0.00    -0.014 A 
BRANCH  31  32
ATOM     32  C   UNL     1       0.775   4.222   4.920  1.00  0.00     0.031 A 
ATOM     33  C   UNL     1       0.315   5.651   4.991  1.00  0.00     0.074 A 
ATOM     34  C   UNL     1       0.593   3.407   5.974  1.00  0.00     0.049 A 
ATOM     35  N   UNL     1      -0.322   6.273   5.951  1.00  0.00    -0.248 NA
ATOM     36  C   UNL     1       0.612   6.492   3.821  1.00  0.00     0.031 C 
ATOM     37  C   UNL     1       0.996   2.004   6.043  1.00  0.00     0.029 A 
ATOM     38  N   UNL     1       0.013   3.651   7.196  1.00  0.00    -0.354 N 
ATOM     39  C   UNL     1      -0.530   7.565   5.487  1.00  0.00     0.074 A 
ATOM     40  C   UNL     1       0.102   7.657   4.188  1.00  0.00     0.031 C 
ATOM     41  C   UNL     1       0.656   1.512   7.248  1.00  0.00     0.029 A 
ATOM     42  C   UNL     1       0.015   2.565   8.035  1.00  0.00     0.049 A 
ATOM     43  H   UNL     1      -0.368   4.524   7.446  1.00  0.00     0.167 HD
ATOM     44  C   UNL     1      -1.210   8.577   6.075  1.00  0.00     0.037 A 
ATOM     45  C   UNL     1      -0.450   2.438   9.294  1.00  0.00     0.037 A 
ATOM     46  C   UNL     1      -1.816   8.506   7.378  1.00  0.00     0.049 A 
ATOM     47  C   UNL     1      -1.150   3.601   9.954  1.00  0.00     0.074 A 
ATOM     48  C   UNL     1      -2.520   9.485   8.058  1.00  0.00     0.029 A 
ATOM     49  N   UNL     1      -1.778   7.394   8.204  1.00  0.00    -0.354 N 
ATOM     50  N   UNL     1      -1.401   4.797   9.480  1.00  0.00    -0.248 NA
ATOM     51  C   UNL     1      -1.650   3.385  11.320  1.00  0.00     0.031 C 
ATOM     52  C   UNL     1      -2.873   8.978   9.313  1.00  0.00     0.029 A 
ATOM     53  C   UNL     1      -2.431   7.668   9.396  1.00  0.00     0.049 A 
ATOM     54  H   UNL     1      -1.350   6.536   7.978  1.00  0.00     0.167 HD
ATOM     55  C   UNL     1      -2.110   5.462  10.473  1.00  0.00     0.074 A 
ATOM     56  C   UNL     1      -2.267   4.531  11.570  1.00  0.00     0.031 C 
ATOM     57  C   UNL     1      -2.588   6.731  10.477  1.00  0.00     0.037 A 
BRANCH  44  58
ATOM     58  C   UNL     1      -1.335   9.855   5.302  1.00  0.00     0.064 A 
ATOM     59  C   UNL     1      -2.172   9.946   4.179  1.00  0.00     0.173 A 
ATOM     60  C   UNL     1      -0.639  11.006   5.699  1.00  0.00     0.173 A 
ATOM     61  F   UNL     1      -2.846   8.867   3.751  1.00  0.00    -0.203 F 
ATOM     62  C   UNL     1      -2.291  11.137   3.469  1.00  0.00     0.198 A 
ATOM     63  C   UNL     1      -0.780  12.202   5.002  1.00  0.00     0.198 A 
ATOM     64  F   UNL     1       0.173  10.970   6.766  1.00  0.00    -0.203 F 
ATOM     65  F   UNL     1      -3.063  11.189   2.375  1.00  0.00    -0.200 F 
ATOM     66  C   UNL     1      -1.601  12.265   3.885  1.00  0.00     0.200 A 
ATOM     67  F   UNL     1      -0.120  13.295   5.409  1.00  0.00    -0.200 F 
ATOM     68  F   UNL     1      -1.720  13.413   3.204  1.00  0.00    -0.200 F 
ENDBRANCH  44  58
BRANCH  45  69
ATOM     69  C   UNL     1      -0.283   1.155  10.026  1.00  0.00     0.064 A 
ATOM     70  C   UNL     1      -1.385   0.348  10.343  1.00  0.00     0.173 A 
ATOM     71  C   UNL     1       0.980   0.736  10.469  1.00  0.00     0.173 A 
ATOM     72  F   UNL     1      -2.617   0.721   9.967  1.00  0.00    -0.203 F 
ATOM     73  C   UNL     1      -1.234  -0.812  11.101  1.00  0.00     0.198 A 
ATOM     74  C   UNL     1       1.133  -0.439  11.202  1.00  0.00     0.198 A 
ATOM     75  F   UNL     1       2.066   1.474  10.195  1.00  0.00    -0.203 F 
ATOM     76  F   UNL     1      -2.312  -1.532  11.441  1.00  0.00    -0.200 F 
ATOM     77  C   UNL     1       0.025  -1.206  11.527  1.00  0.00     0.200 A 
ATOM     78  F   UNL     1       2.353  -0.820  11.606  1.00  0.00    -0.200 F 
ATOM     79  F   UNL     1       0.169  -2.317  12.261  1.00  0.00    -0.200 F 
ENDBRANCH  45  69
BRANCH  57  80
ATOM     80  C   UNL     1      -3.354   7.178  11.690  1.00  0.00     0.064 A 
ATOM     81  C   UNL     1      -2.719   7.413  12.919  1.00  0.00     0.173 A 
ATOM     82  C   UNL     1      -4.737   7.404  11.613  1.00  0.00     0.173 A 
ATOM     83  F   UNL     1      -1.401   7.200  13.049  1.00  0.00    -0.203 F 
ATOM     84  C   UNL     1      -3.446   7.827  14.033  1.00  0.00     0.198 A 
ATOM     85  C   UNL     1      -5.455   7.847  12.722  1.00  0.00     0.198 A 
ATOM     86  F   UNL     1      -5.393   7.204  10.460  1.00  0.00    -0.203 F 
ATOM     87  F   UNL     1      -2.826   7.994  15.210  1.00  0.00    -0.200 F 
ATOM     88  C   UNL     1      -4.811   8.049  13.932  1.00  0.00     0.200 A 
ATOM     89  F   UNL     1      -6.772   8.074  12.618  1.00  0.00    -0.200 F 
ATOM     90  F   UNL     1      -5.507   8.449  15.005  1.00  0.00    -0.200 F 
ENDBRANCH  57  80
ENDBRANCH  31  32
ENDBRANCH  24  26
ENDBRANCH  23  24
ENDBRANCH  22  23
ENDBRANCH   1  22
TORSDOF 14
