REMARK SMILES Cc1ccc(-c2cc([C@@H](C)C(=O)OCCOC(=O)c3ccc(-c4c5nc(c(-c6c(F)c(F)c(F)c(F)c6F)c6ccc([nH]6)c(-c6c(F)c(F)c(F)c(F)c6F)c6nc(c(-c7c(F)c(F)c(F)c(F)c7F)c7ccc4[nH]7)C=C6)C=C5)cc3)ccc2C[C@H]2CCCC2=O)cc1
REMARK SMILES IDX 14 1 13 2 11 3 12 4 9 5 10 6 8 7 6 8 7 9 84 10 83 11 82 12
REMARK SMILES IDX 5 13 1 14 2 15 3 16 93 17 4 18 92 19 85 20 86 21 87 22 90 23
REMARK SMILES IDX 88 24 89 25 91 26 15 27 16 28 17 29 18 30 19 31 20 32 81 33
REMARK SMILES IDX 21 34 80 35 22 36 23 37 24 38 74 39 25 40 79 41 73 42 75 43
REMARK SMILES IDX 26 44 78 45 72 46 71 47 27 49 59 50 39 51 58 52 40 53 43 54
REMARK SMILES IDX 57 55 76 56 41 57 42 58 56 60 77 61 44 62 28 63 29 64 37 65
REMARK SMILES IDX 30 66 31 67 35 68 38 69 32 70 33 71 36 72 34 73 60 74 61 75
REMARK SMILES IDX 69 76 62 77 63 78 67 79 70 80 64 81 65 82 68 83 66 84 45 85
REMARK SMILES IDX 46 86 54 87 47 88 48 89 52 90 55 91 49 92 50 93 53 94 51 95
REMARK H PARENT 75 48 43 59
REMARK Flexibility Score: inf
ROOT
ATOM      1  C   UNL     1      -7.523   2.641   1.004  1.00  0.00     0.274 C 
ENDROOT
BRANCH   1   2
ATOM      2  O   UNL     1      -6.694   1.913   0.102  1.00  0.00    -0.462 OA
BRANCH   2   3
ATOM      3  C   UNL     1      -7.338   0.950  -0.628  1.00  0.00     0.313 C 
ATOM      4  O   UNL     1      -8.515   0.656  -0.480  1.00  0.00    -0.252 OA
BRANCH   3   5
ATOM      5  C   UNL     1      -6.338   0.243  -1.558  1.00  0.00     0.126 C 
ATOM      6  C   UNL     1      -6.953  -0.700  -2.587  1.00  0.00     0.025 C 
BRANCH   5   7
ATOM      7  C   UNL     1      -5.363  -0.478  -0.666  1.00  0.00    -0.033 A 
ATOM      8  C   UNL     1      -3.163  -0.537   0.353  1.00  0.00    -0.015 A 
ATOM      9  C   UNL     1      -4.014  -0.115  -0.673  1.00  0.00     0.013 A 
ATOM     10  C   UNL     1      -3.723  -1.256   1.434  1.00  0.00    -0.039 A 
ATOM     11  C   UNL     1      -5.035  -1.748   1.338  1.00  0.00     0.004 A 
ATOM     12  C   UNL     1      -5.848  -1.374   0.288  1.00  0.00     0.005 A 
BRANCH   8  13
ATOM     13  C   UNL     1      -1.720  -0.301   0.221  1.00  0.00    -0.018 A 
ATOM     14  C   UNL     1       2.564   0.162  -0.078  1.00  0.00     0.044 C 
ATOM     15  C   UNL     1       1.073   0.021  -0.014  1.00  0.00    -0.051 A 
ATOM     16  C   UNL     1       0.508  -1.256  -0.028  1.00  0.00     0.004 A 
ATOM     17  C   UNL     1       0.233   1.138   0.075  1.00  0.00     0.004 A 
ATOM     18  C   UNL     1      -0.871  -1.411   0.080  1.00  0.00     0.009 A 
ATOM     19  C   UNL     1      -1.154   0.980   0.185  1.00  0.00     0.009 A 
ENDBRANCH   8  13
BRANCH  10  20
ATOM     20  C   UNL     1      -3.008  -1.452   2.754  1.00  0.00     0.047 C 
BRANCH  20  21
ATOM     21  C   UNL     1      -3.460  -0.514   3.889  1.00  0.00     0.060 C 
ATOM     22  C   UNL     1      -3.250   0.986   3.663  1.00  0.00     0.012 C 
ATOM     23  C   UNL     1      -4.942  -0.582   4.192  1.00  0.00     0.136 C 
ATOM     24  C   UNL     1      -4.597   1.568   3.258  1.00  0.00     0.009 C 
ATOM     25  C   UNL     1      -5.651   0.725   3.958  1.00  0.00     0.076 C 
ATOM     26  O   UNL     1      -5.511  -1.587   4.604  1.00  0.00    -0.299 OA
ENDBRANCH  20  21
ENDBRANCH  10  20
ENDBRANCH   5   7
ENDBRANCH   3   5
ENDBRANCH   2   3
ENDBRANCH   1   2
BRANCH   1  27
ATOM     27  C   UNL     1      -6.845   3.937   1.477  1.00  0.00     0.275 C 
BRANCH  27  28
ATOM     28  O   UNL     1      -5.843   4.614   0.655  1.00  0.00    -0.458 OA
BRANCH  28  29
ATOM     29  C   UNL     1      -5.539   4.459  -0.665  1.00  0.00     0.338 C 
ATOM     30  O   UNL     1      -4.406   4.498  -1.077  1.00  0.00    -0.246 OA
BRANCH  29  31
ATOM     31  C   UNL     1      -6.678   4.249  -1.586  1.00  0.00     0.060 A 
ATOM     32  C   UNL     1      -6.502   3.500  -2.765  1.00  0.00     0.016 A 
ATOM     33  C   UNL     1      -7.939   4.660  -1.192  1.00  0.00     0.016 A 
ATOM     34  C   UNL     1      -7.616   3.023  -3.464  1.00  0.00     0.010 A 
ATOM     35  C   UNL     1      -9.024   4.059  -1.776  1.00  0.00     0.010 A 
ATOM     36  C   UNL     1      -8.879   3.267  -2.931  1.00  0.00    -0.014 A 
BRANCH  36  37
ATOM     37  C   UNL     1     -10.154   2.998  -3.586  1.00  0.00     0.031 A 
ATOM     38  C   UNL     1     -10.829   1.689  -3.634  1.00  0.00     0.074 A 
ATOM     39  C   UNL     1     -10.786   4.146  -3.917  1.00  0.00     0.049 A 
ATOM     40  N   UNL     1     -11.898   1.460  -4.315  1.00  0.00    -0.248 NA
ATOM     41  C   UNL     1     -10.379   0.507  -2.924  1.00  0.00     0.031 C 
ATOM     42  C   UNL     1     -12.175   4.416  -4.226  1.00  0.00     0.029 A 
ATOM     43  N   UNL     1     -10.146   5.379  -4.138  1.00  0.00    -0.354 N 
ATOM     44  C   UNL     1     -12.416   0.239  -3.925  1.00  0.00     0.074 A 
ATOM     45  C   UNL     1     -11.389  -0.350  -3.109  1.00  0.00     0.031 C 
ATOM     46  C   UNL     1     -12.230   5.576  -4.910  1.00  0.00     0.029 A 
ATOM     47  C   UNL     1     -10.856   5.982  -5.184  1.00  0.00     0.049 A 
ATOM     48  H   UNL     1      -9.365   5.741  -3.660  1.00  0.00     0.167 HD
ATOM     49  C   UNL     1     -13.707  -0.052  -4.259  1.00  0.00     0.037 A 
ATOM     50  C   UNL     1     -10.238   6.008  -6.406  1.00  0.00     0.037 A 
ATOM     51  C   UNL     1     -14.233   0.995  -5.132  1.00  0.00     0.049 A 
ATOM     52  C   UNL     1     -10.931   5.114  -7.414  1.00  0.00     0.074 A 
ATOM     53  C   UNL     1     -14.969   2.148  -4.920  1.00  0.00     0.029 A 
ATOM     54  N   UNL     1     -13.670   1.121  -6.385  1.00  0.00    -0.354 N 
ATOM     55  N   UNL     1     -11.828   4.218  -7.097  1.00  0.00    -0.248 NA
ATOM     56  C   UNL     1     -10.649   5.128  -8.846  1.00  0.00     0.031 C 
ATOM     57  C   UNL     1     -14.763   3.006  -6.045  1.00  0.00     0.029 A 
ATOM     58  C   UNL     1     -13.922   2.360  -6.935  1.00  0.00     0.049 A 
ATOM     59  H   UNL     1     -13.152   0.413  -6.832  1.00  0.00     0.167 HD
ATOM     60  C   UNL     1     -12.286   3.604  -8.222  1.00  0.00     0.074 A 
ATOM     61  C   UNL     1     -11.484   4.171  -9.292  1.00  0.00     0.031 C 
ATOM     62  C   UNL     1     -13.296   2.689  -8.205  1.00  0.00     0.037 A 
BRANCH  49  63
ATOM     63  C   UNL     1     -14.577  -1.151  -3.684  1.00  0.00     0.064 A 
ATOM     64  C   UNL     1     -15.986  -1.024  -3.727  1.00  0.00     0.173 A 
ATOM     65  C   UNL     1     -14.117  -2.327  -3.062  1.00  0.00     0.173 A 
ATOM     66  F   UNL     1     -16.578   0.006  -4.346  1.00  0.00    -0.203 F 
ATOM     67  C   UNL     1     -16.850  -1.948  -3.134  1.00  0.00     0.198 A 
ATOM     68  C   UNL     1     -14.983  -3.238  -2.439  1.00  0.00     0.198 A 
ATOM     69  F   UNL     1     -12.826  -2.670  -3.076  1.00  0.00    -0.203 F 
ATOM     70  F   UNL     1     -18.176  -1.760  -3.207  1.00  0.00    -0.200 F 
ATOM     71  C   UNL     1     -16.348  -3.045  -2.468  1.00  0.00     0.200 A 
ATOM     72  F   UNL     1     -14.479  -4.314  -1.815  1.00  0.00    -0.200 F 
ATOM     73  F   UNL     1     -17.175  -3.919  -1.879  1.00  0.00    -0.200 F 
ENDBRANCH  49  63
BRANCH  50  74
ATOM     74  C   UNL     1      -8.751   6.218  -6.282  1.00  0.00     0.064 A 
ATOM     75  C   UNL     1      -8.293   7.305  -5.497  1.00  0.00     0.173 A 
ATOM     76  C   UNL     1      -7.817   5.215  -6.569  1.00  0.00     0.173 A 
ATOM     77  F   UNL     1      -9.133   8.304  -5.179  1.00  0.00    -0.203 F 
ATOM     78  C   UNL     1      -7.027   7.309  -4.910  1.00  0.00     0.198 A 
ATOM     79  C   UNL     1      -6.532   5.243  -6.011  1.00  0.00     0.198 A 
ATOM     80  F   UNL     1      -8.163   4.152  -7.308  1.00  0.00    -0.203 F 
ATOM     81  F   UNL     1      -6.691   8.280  -4.048  1.00  0.00    -0.200 F 
ATOM     82  C   UNL     1      -6.154   6.266  -5.152  1.00  0.00     0.200 A 
ATOM     83  F   UNL     1      -5.684   4.228  -6.236  1.00  0.00    -0.200 F 
ATOM     84  F   UNL     1      -4.967   6.224  -4.529  1.00  0.00    -0.200 F 
ENDBRANCH  50  74
BRANCH  62  85
ATOM     85  C   UNL     1     -13.806   2.031  -9.444  1.00  0.00     0.064 A 
ATOM     86  C   UNL     1     -14.180   2.775 -10.569  1.00  0.00     0.173 A 
ATOM     87  C   UNL     1     -14.053   0.644  -9.486  1.00  0.00     0.173 A 
ATOM     88  F   UNL     1     -14.030   4.108 -10.589  1.00  0.00    -0.203 F 
ATOM     89  C   UNL     1     -14.729   2.159 -11.691  1.00  0.00     0.198 A 
ATOM     90  C   UNL     1     -14.664   0.043 -10.579  1.00  0.00     0.198 A 
ATOM     91  F   UNL     1     -13.684  -0.165  -8.481  1.00  0.00    -0.203 F 
ATOM     92  F   UNL     1     -15.014   2.891 -12.776  1.00  0.00    -0.200 F 
ATOM     93  C   UNL     1     -14.986   0.797 -11.690  1.00  0.00     0.200 A 
ATOM     94  F   UNL     1     -14.930  -1.271 -10.552  1.00  0.00    -0.200 F 
ATOM     95  F   UNL     1     -15.535   0.212 -12.761  1.00  0.00    -0.200 F 
ENDBRANCH  62  85
ENDBRANCH  36  37
ENDBRANCH  29  31
ENDBRANCH  28  29
ENDBRANCH  27  28
ENDBRANCH   1  27
TORSDOF 15
