REMARK SMILES CC(=O)N[C@H]1[C@@H](O[C@H](C)C(=O)OCCOC(=O)c2ccc(-c3c4nc(c(-c5c(F)c(F)c(F)c(F)c5F)c5ccc([nH]5)c(-c5c(F)c(F)c(F)c(F)c5F)c5nc(c(-c6c(F)c(F)c(F)c(F)c6F)c6ccc3[nH]6)C=C5)C=C4)cc2)[C@H]2OC(C)(C)OC[C@@H]2O[C@H]1Sc1ccc(Cl)cc1
REMARK SMILES IDX 13 1 12 2 10 3 11 4 8 5 9 6 7 7 6 8 5 9 90 10 81 11 89 12
REMARK SMILES IDX 82 13 88 14 83 15 87 16 84 17 85 18 86 19 4 20 1 21 2 22
REMARK SMILES IDX 3 23 91 25 92 26 93 27 98 28 94 29 97 30 95 31 96 32 14 33
REMARK SMILES IDX 15 34 16 35 17 36 18 37 19 38 80 39 20 40 79 41 21 42 22 43
REMARK SMILES IDX 23 44 73 45 24 46 78 47 72 48 74 49 25 50 77 51 71 52 70 53
REMARK SMILES IDX 26 55 58 56 38 57 57 58 39 59 42 60 56 61 75 62 40 63 41 64
REMARK SMILES IDX 55 66 76 67 43 68 27 69 28 70 36 71 29 72 30 73 34 74 37 75
REMARK SMILES IDX 31 76 32 77 35 78 33 79 59 80 60 81 68 82 61 83 62 84 66 85
REMARK SMILES IDX 69 86 63 87 64 88 67 89 65 90 44 91 45 92 53 93 46 94 47 95
REMARK SMILES IDX 51 96 54 97 48 98 49 99 52 100 50 101
REMARK H PARENT 4 24 74 54 42 65
REMARK Flexibility Score: inf
ROOT
ATOM      1  C   UNL     1       8.421   1.248   0.190  1.00  0.00     0.274 C 
ENDROOT
BRANCH   1   2
ATOM      2  O   UNL     1       7.716   1.999   1.209  1.00  0.00    -0.460 OA
BRANCH   2   3
ATOM      3  C   UNL     1       6.627   1.395   1.750  1.00  0.00     0.335 C 
ATOM      4  O   UNL     1       6.397   0.200   1.620  1.00  0.00    -0.249 OA
BRANCH   3   5
ATOM      5  C   UNL     1       5.640   2.316   2.505  1.00  0.00     0.225 C 
ATOM      6  C   UNL     1       6.445   3.110   3.539  1.00  0.00     0.051 C 
BRANCH   5   7
ATOM      7  O   UNL     1       4.777   3.213   1.792  1.00  0.00    -0.358 OA
BRANCH   7   8
ATOM      8  C   UNL     1       3.720   2.681   0.986  1.00  0.00     0.177 C 
ATOM      9  C   UNL     1       4.236   2.044  -0.302  1.00  0.00     0.153 C 
ATOM     10  C   UNL     1       4.999   3.167  -1.108  1.00  0.00     0.206 C 
ATOM     11  C   UNL     1       2.686   3.741   0.405  1.00  0.00     0.184 C 
ATOM     12  O   UNL     1       3.964   3.953  -1.739  1.00  0.00    -0.356 OA
ATOM     13  O   UNL     1       2.043   4.527   1.399  1.00  0.00    -0.342 OA
ATOM     14  C   UNL     1       3.227   4.641  -0.744  1.00  0.00     0.177 C 
ATOM     15  C   UNL     1       1.029   5.393   0.856  1.00  0.00     0.163 C 
ATOM     16  C   UNL     1       2.065   5.433  -1.310  1.00  0.00     0.198 C 
ATOM     17  C   UNL     1       0.704   6.380   1.977  1.00  0.00     0.075 C 
ATOM     18  C   UNL     1      -0.245   4.632   0.476  1.00  0.00     0.075 C 
ATOM     19  O   UNL     1       1.479   6.185  -0.250  1.00  0.00    -0.348 OA
BRANCH   9  20
ATOM     20  N   UNL     1       4.766   0.687  -0.293  1.00  0.00    -0.347 N 
ATOM     21  C   UNL     1       3.082  -0.434   1.174  1.00  0.00     0.114 C 
ATOM     22  C   UNL     1       4.197  -0.478   0.163  1.00  0.00     0.217 C 
ATOM     23  O   UNL     1       4.631  -1.555  -0.245  1.00  0.00    -0.275 OA
ATOM     24  H   UNL     1       5.670   0.589  -0.671  1.00  0.00     0.163 HD
ENDBRANCH   9  20
BRANCH  10  25
ATOM     25  S   UNL     1       6.490   4.275  -0.569  1.00  0.00    -0.092 SA
BRANCH  25  26
ATOM     26  C   UNL     1       6.347   5.387   0.873  1.00  0.00     0.010 A 
ATOM     27  C   UNL     1       5.229   5.865   1.573  1.00  0.00     0.016 A 
ATOM     28  C   UNL     1       7.585   5.840   1.376  1.00  0.00     0.016 A 
ATOM     29  C   UNL     1       5.309   6.702   2.701  1.00  0.00     0.021 A 
ATOM     30  C   UNL     1       7.686   6.667   2.517  1.00  0.00     0.021 A 
ATOM     31  C   UNL     1       6.542   7.092   3.179  1.00  0.00     0.041 A 
ATOM     32  Cl  UNL     1       6.644   8.061   4.593  1.00  0.00    -0.084 Cl
ENDBRANCH  25  26
ENDBRANCH  10  25
ENDBRANCH   7   8
ENDBRANCH   5   7
ENDBRANCH   3   5
ENDBRANCH   2   3
ENDBRANCH   1   2
BRANCH   1  33
ATOM     33  C   UNL     1       9.498   0.270   0.685  1.00  0.00     0.275 C 
BRANCH  33  34
ATOM     34  O   UNL     1       8.945  -0.842   1.407  1.00  0.00    -0.458 OA
BRANCH  34  35
ATOM     35  C   UNL     1       8.829  -0.641   2.744  1.00  0.00     0.338 C 
ATOM     36  O   UNL     1       9.298   0.286   3.380  1.00  0.00    -0.246 OA
BRANCH  35  37
ATOM     37  C   UNL     1       7.826  -1.572   3.311  1.00  0.00     0.060 A 
ATOM     38  C   UNL     1       6.872  -1.012   4.175  1.00  0.00     0.016 A 
ATOM     39  C   UNL     1       7.769  -2.928   2.984  1.00  0.00     0.016 A 
ATOM     40  C   UNL     1       5.853  -1.792   4.702  1.00  0.00     0.010 A 
ATOM     41  C   UNL     1       6.779  -3.729   3.565  1.00  0.00     0.010 A 
ATOM     42  C   UNL     1       5.833  -3.164   4.439  1.00  0.00    -0.014 A 
BRANCH  42  43
ATOM     43  C   UNL     1       4.972  -4.016   5.287  1.00  0.00     0.031 A 
ATOM     44  C   UNL     1       5.540  -4.486   6.594  1.00  0.00     0.074 A 
ATOM     45  C   UNL     1       3.701  -4.290   4.949  1.00  0.00     0.049 A 
ATOM     46  N   UNL     1       5.000  -5.239   7.516  1.00  0.00    -0.248 NA
ATOM     47  C   UNL     1       6.909  -4.037   6.908  1.00  0.00     0.031 C 
ATOM     48  C   UNL     1       3.031  -3.828   3.737  1.00  0.00     0.029 A 
ATOM     49  N   UNL     1       2.745  -5.022   5.607  1.00  0.00    -0.354 N 
ATOM     50  C   UNL     1       5.959  -5.353   8.512  1.00  0.00     0.074 A 
ATOM     51  C   UNL     1       7.120  -4.608   8.082  1.00  0.00     0.031 C 
ATOM     52  C   UNL     1       1.770  -4.294   3.733  1.00  0.00     0.029 A 
ATOM     53  C   UNL     1       1.558  -5.116   4.924  1.00  0.00     0.049 A 
ATOM     54  H   UNL     1       2.897  -5.441   6.485  1.00  0.00     0.167 HD
ATOM     55  C   UNL     1       5.877  -6.026   9.682  1.00  0.00     0.037 A 
ATOM     56  C   UNL     1       0.445  -5.815   5.223  1.00  0.00     0.037 A 
ATOM     57  C   UNL     1       4.731  -6.790  10.089  1.00  0.00     0.049 A 
ATOM     58  C   UNL     1       0.412  -6.629   6.495  1.00  0.00     0.074 A 
ATOM     59  C   UNL     1       4.559  -7.548  11.233  1.00  0.00     0.029 A 
ATOM     60  N   UNL     1       3.560  -6.899   9.352  1.00  0.00    -0.354 N 
ATOM     61  N   UNL     1       1.325  -6.745   7.431  1.00  0.00    -0.248 NA
ATOM     62  C   UNL     1      -0.803  -7.416   6.749  1.00  0.00     0.031 C 
ATOM     63  C   UNL     1       3.300  -8.153  11.166  1.00  0.00     0.029 A 
ATOM     64  C   UNL     1       2.666  -7.726  10.010  1.00  0.00     0.049 A 
ATOM     65  H   UNL     1       3.391  -6.455   8.490  1.00  0.00     0.167 HD
ATOM     66  C   UNL     1       0.788  -7.596   8.389  1.00  0.00     0.074 A 
ATOM     67  C   UNL     1      -0.539  -7.950   7.933  1.00  0.00     0.031 C 
ATOM     68  C   UNL     1       1.343  -8.051   9.540  1.00  0.00     0.037 A 
BRANCH  55  69
ATOM     69  C   UNL     1       7.082  -6.000  10.573  1.00  0.00     0.064 A 
ATOM     70  C   UNL     1       7.452  -4.845  11.278  1.00  0.00     0.173 A 
ATOM     71  C   UNL     1       7.874  -7.147  10.727  1.00  0.00     0.173 A 
ATOM     72  F   UNL     1       6.742  -3.715  11.143  1.00  0.00    -0.203 F 
ATOM     73  C   UNL     1       8.584  -4.834  12.088  1.00  0.00     0.198 A 
ATOM     74  C   UNL     1       8.989  -7.141  11.560  1.00  0.00     0.198 A 
ATOM     75  F   UNL     1       7.566  -8.275  10.069  1.00  0.00    -0.203 F 
ATOM     76  F   UNL     1       8.947  -3.706  12.715  1.00  0.00    -0.200 F 
ATOM     77  C   UNL     1       9.347  -5.983  12.235  1.00  0.00     0.200 A 
ATOM     78  F   UNL     1       9.720  -8.254  11.705  1.00  0.00    -0.200 F 
ATOM     79  F   UNL     1      10.433  -5.973  13.019  1.00  0.00    -0.200 F 
ENDBRANCH  55  69
BRANCH  56  80
ATOM     80  C   UNL     1      -0.718  -5.817   4.293  1.00  0.00     0.064 A 
ATOM     81  C   UNL     1      -1.954  -5.273   4.671  1.00  0.00     0.173 A 
ATOM     82  C   UNL     1      -0.631  -6.409   3.024  1.00  0.00     0.173 A 
ATOM     83  F   UNL     1      -2.101  -4.722   5.885  1.00  0.00    -0.203 F 
ATOM     84  C   UNL     1      -3.062  -5.343   3.827  1.00  0.00     0.198 A 
ATOM     85  C   UNL     1      -1.730  -6.448   2.167  1.00  0.00     0.198 A 
ATOM     86  F   UNL     1       0.524  -6.952   2.614  1.00  0.00    -0.203 F 
ATOM     87  F   UNL     1      -4.246  -4.868   4.238  1.00  0.00    -0.200 F 
ATOM     88  C   UNL     1      -2.947  -5.925   2.574  1.00  0.00     0.200 A 
ATOM     89  F   UNL     1      -1.611  -7.003   0.953  1.00  0.00    -0.200 F 
ATOM     90  F   UNL     1      -4.012  -5.994   1.764  1.00  0.00    -0.200 F 
ENDBRANCH  56  80
BRANCH  68  91
ATOM     91  C   UNL     1       0.505  -8.946  10.406  1.00  0.00     0.064 A 
ATOM     92  C   UNL     1       0.221 -10.270  10.042  1.00  0.00     0.173 A 
ATOM     93  C   UNL     1       0.029  -8.488  11.644  1.00  0.00     0.173 A 
ATOM     94  F   UNL     1       0.644 -10.752   8.863  1.00  0.00    -0.203 F 
ATOM     95  C   UNL     1      -0.529 -11.095  10.875  1.00  0.00     0.198 A 
ATOM     96  C   UNL     1      -0.694  -9.325  12.489  1.00  0.00     0.198 A 
ATOM     97  F   UNL     1       0.282  -7.232  12.044  1.00  0.00    -0.203 F 
ATOM     98  F   UNL     1      -0.828 -12.343  10.487  1.00  0.00    -0.200 F 
ATOM     99  C   UNL     1      -0.979 -10.625  12.101  1.00  0.00     0.200 A 
ATOM    100  F   UNL     1      -1.113  -8.874  13.679  1.00  0.00    -0.200 F 
ATOM    101  F   UNL     1      -1.692 -11.424  12.906  1.00  0.00    -0.200 F 
ENDBRANCH  68  91
ENDBRANCH  42  43
ENDBRANCH  35  37
ENDBRANCH  34  35
ENDBRANCH  33  34
ENDBRANCH   1  33
TORSDOF 16
