REMARK SMILES C[C@H]([NH3+])C(=O)N1CCC[C@H]1C(=O)OCCOC(=O)c1ccc(-c2c3nc(c(-c4c(F)c(F)c(F)c(F)c4F)c4ccc([nH]4)c(-c4c(F)c(F)c(F)c(F)c4F)c4nc(c(-c5c(F)c(F)c(F)c(F)c5F)c5ccc2[nH]5)C=C4)C=C3)cc1
REMARK SMILES IDX 14 1 13 2 11 3 12 4 10 5 6 6 7 7 8 8 9 9 4 10 5 11 2 12 1 13
REMARK SMILES IDX 3 14 15 18 16 19 17 20 18 21 19 22 20 23 81 24 21 25 80 26
REMARK SMILES IDX 22 27 23 28 24 29 74 30 25 31 79 32 73 33 75 34 26 35 78 36
REMARK SMILES IDX 72 37 71 38 27 40 59 41 39 42 58 43 40 44 43 45 57 46 76 47
REMARK SMILES IDX 41 48 42 49 56 51 77 52 44 53 28 54 29 55 37 56 30 57 31 58
REMARK SMILES IDX 35 59 38 60 32 61 33 62 36 63 34 64 60 65 61 66 69 67 62 68
REMARK SMILES IDX 63 69 67 70 70 71 64 72 65 73 68 74 66 75 45 76 46 77 54 78
REMARK SMILES IDX 47 79 48 80 52 81 55 82 49 83 50 84 53 85 51 86
REMARK H PARENT 3 15 3 16 3 17 75 39 43 50
REMARK Flexibility Score: inf
ROOT
ATOM      1  C   UNL     1      -6.435   1.530   0.124  1.00  0.00     0.274 C 
ENDROOT
BRANCH   1   2
ATOM      2  O   UNL     1      -5.342   2.059  -0.654  1.00  0.00    -0.461 OA
BRANCH   2   3
ATOM      3  C   UNL     1      -4.150   2.217  -0.005  1.00  0.00     0.328 C 
ATOM      4  O   UNL     1      -4.009   2.023   1.195  1.00  0.00    -0.250 OA
BRANCH   3   5
ATOM      5  C   UNL     1      -3.035   2.703  -0.967  1.00  0.00     0.195 C 
ATOM      6  N   UNL     1      -1.704   2.069  -0.786  1.00  0.00    -0.324 N 
ATOM      7  C   UNL     1      -1.270   1.426  -2.015  1.00  0.00     0.121 C 
ATOM      8  C   UNL     1      -2.029   2.166  -3.098  1.00  0.00     0.024 C 
ATOM      9  C   UNL     1      -3.374   2.423  -2.443  1.00  0.00     0.039 C 
BRANCH   6  10
ATOM     10  C   UNL     1      -0.928   2.385   0.313  1.00  0.00     0.281 C 
ATOM     11  O   UNL     1      -1.358   3.170   1.166  1.00  0.00    -0.268 OA
BRANCH  10  12
ATOM     12  C   UNL     1       0.518   1.848   0.475  1.00  0.00     0.268 C 
ATOM     13  C   UNL     1       1.509   2.842  -0.117  1.00  0.00     0.086 C 
BRANCH  12  14
ATOM     14  N   UNL     1       0.757   0.489  -0.042  1.00  0.00    -0.348 N 
ATOM     15  H   UNL     1       0.634   0.484  -1.054  1.00  0.00     0.345 HD
ATOM     16  H   UNL     1       0.093  -0.158   0.384  1.00  0.00     0.345 HD
ATOM     17  H   UNL     1       1.708   0.201   0.187  1.00  0.00     0.345 HD
ENDBRANCH  12  14
ENDBRANCH  10  12
ENDBRANCH   6  10
ENDBRANCH   3   5
ENDBRANCH   2   3
ENDBRANCH   1   2
BRANCH   1  18
ATOM     18  C   UNL     1      -6.544   0.016  -0.056  1.00  0.00     0.275 C 
BRANCH  18  19
ATOM     19  O   UNL     1      -5.439  -0.638   0.596  1.00  0.00    -0.458 OA
BRANCH  19  20
ATOM     20  C   UNL     1      -4.609  -1.350  -0.196  1.00  0.00     0.338 C 
ATOM     21  O   UNL     1      -4.703  -1.550  -1.395  1.00  0.00    -0.246 OA
BRANCH  20  22
ATOM     22  C   UNL     1      -3.481  -1.851   0.606  1.00  0.00     0.060 A 
ATOM     23  C   UNL     1      -2.559  -0.942   1.116  1.00  0.00     0.016 A 
ATOM     24  C   UNL     1      -3.259  -3.221   0.740  1.00  0.00     0.016 A 
ATOM     25  C   UNL     1      -1.380  -1.396   1.697  1.00  0.00     0.010 A 
ATOM     26  C   UNL     1      -2.097  -3.675   1.380  1.00  0.00     0.010 A 
ATOM     27  C   UNL     1      -1.119  -2.766   1.824  1.00  0.00    -0.014 A 
BRANCH  27  28
ATOM     28  C   UNL     1       0.210  -3.223   2.322  1.00  0.00     0.031 A 
ATOM     29  C   UNL     1       1.087  -4.082   1.446  1.00  0.00     0.074 A 
ATOM     30  C   UNL     1       0.683  -2.816   3.517  1.00  0.00     0.049 A 
ATOM     31  N   UNL     1       2.186  -4.729   1.749  1.00  0.00    -0.248 NA
ATOM     32  C   UNL     1       0.668  -4.244   0.045  1.00  0.00     0.031 C 
ATOM     33  C   UNL     1      -0.004  -1.913   4.441  1.00  0.00     0.029 A 
ATOM     34  N   UNL     1       1.874  -3.088   4.148  1.00  0.00    -0.354 N 
ATOM     35  C   UNL     1       2.544  -5.428   0.603  1.00  0.00     0.074 A 
ATOM     36  C   UNL     1       1.557  -5.117  -0.409  1.00  0.00     0.031 C 
ATOM     37  C   UNL     1       0.799  -1.655   5.485  1.00  0.00     0.029 A 
ATOM     38  C   UNL     1       2.016  -2.449   5.355  1.00  0.00     0.049 A 
ATOM     39  H   UNL     1       2.560  -3.684   3.769  1.00  0.00     0.167 HD
ATOM     40  C   UNL     1       3.596  -6.260   0.417  1.00  0.00     0.037 A 
ATOM     41  C   UNL     1       2.997  -2.521   6.275  1.00  0.00     0.037 A 
ATOM     42  C   UNL     1       4.623  -6.506   1.394  1.00  0.00     0.049 A 
ATOM     43  C   UNL     1       4.154  -3.453   6.048  1.00  0.00     0.074 A 
ATOM     44  C   UNL     1       5.712  -7.357   1.310  1.00  0.00     0.029 A 
ATOM     45  N   UNL     1       4.708  -5.867   2.621  1.00  0.00    -0.354 N 
ATOM     46  N   UNL     1       4.412  -4.215   5.014  1.00  0.00    -0.248 NA
ATOM     47  C   UNL     1       5.139  -3.560   7.134  1.00  0.00     0.031 C 
ATOM     48  C   UNL     1       6.450  -7.243   2.494  1.00  0.00     0.029 A 
ATOM     49  C   UNL     1       5.835  -6.301   3.301  1.00  0.00     0.049 A 
ATOM     50  H   UNL     1       4.064  -5.205   2.960  1.00  0.00     0.167 HD
ATOM     51  C   UNL     1       5.583  -4.892   5.324  1.00  0.00     0.074 A 
ATOM     52  C   UNL     1       6.003  -4.430   6.630  1.00  0.00     0.031 C 
ATOM     53  C   UNL     1       6.242  -5.826   4.597  1.00  0.00     0.037 A 
BRANCH  40  54
ATOM     54  C   UNL     1       3.672  -7.003  -0.882  1.00  0.00     0.064 A 
ATOM     55  C   UNL     1       4.088  -6.386  -2.069  1.00  0.00     0.173 A 
ATOM     56  C   UNL     1       3.362  -8.372  -0.924  1.00  0.00     0.173 A 
ATOM     57  F   UNL     1       4.377  -5.076  -2.084  1.00  0.00    -0.203 F 
ATOM     58  C   UNL     1       4.179  -7.110  -3.256  1.00  0.00     0.198 A 
ATOM     59  C   UNL     1       3.476  -9.097  -2.106  1.00  0.00     0.198 A 
ATOM     60  F   UNL     1       2.962  -9.008   0.187  1.00  0.00    -0.203 F 
ATOM     61  F   UNL     1       4.547  -6.494  -4.388  1.00  0.00    -0.200 F 
ATOM     62  C   UNL     1       3.881  -8.465  -3.272  1.00  0.00     0.200 A 
ATOM     63  F   UNL     1       3.195 -10.407  -2.117  1.00  0.00    -0.200 F 
ATOM     64  F   UNL     1       3.976  -9.161  -4.413  1.00  0.00    -0.200 F 
ENDBRANCH  40  54
BRANCH  41  65
ATOM     65  C   UNL     1       2.903  -1.720   7.523  1.00  0.00     0.064 A 
ATOM     66  C   UNL     1       3.784  -0.658   7.765  1.00  0.00     0.173 A 
ATOM     67  C   UNL     1       1.937  -2.006   8.499  1.00  0.00     0.173 A 
ATOM     68  F   UNL     1       4.745  -0.368   6.876  1.00  0.00    -0.203 F 
ATOM     69  C   UNL     1       3.706   0.085   8.942  1.00  0.00     0.198 A 
ATOM     70  C   UNL     1       1.843  -1.245   9.661  1.00  0.00     0.198 A 
ATOM     71  F   UNL     1       1.077  -3.018   8.318  1.00  0.00    -0.203 F 
ATOM     72  F   UNL     1       4.588   1.068   9.170  1.00  0.00    -0.200 F 
ATOM     73  C   UNL     1       2.731  -0.204   9.885  1.00  0.00     0.200 A 
ATOM     74  F   UNL     1       0.894  -1.522  10.566  1.00  0.00    -0.200 F 
ATOM     75  F   UNL     1       2.655   0.513  11.014  1.00  0.00    -0.200 F 
ENDBRANCH  41  65
BRANCH  53  76
ATOM     76  C   UNL     1       7.492  -6.396   5.191  1.00  0.00     0.064 A 
ATOM     77  C   UNL     1       7.440  -7.349   6.218  1.00  0.00     0.173 A 
ATOM     78  C   UNL     1       8.751  -6.010   4.710  1.00  0.00     0.173 A 
ATOM     79  F   UNL     1       6.258  -7.737   6.720  1.00  0.00    -0.203 F 
ATOM     80  C   UNL     1       8.607  -7.883   6.755  1.00  0.00     0.198 A 
ATOM     81  C   UNL     1       9.915  -6.560   5.236  1.00  0.00     0.198 A 
ATOM     82  F   UNL     1       8.849  -5.103   3.726  1.00  0.00    -0.203 F 
ATOM     83  F   UNL     1       8.538  -8.767   7.760  1.00  0.00    -0.200 F 
ATOM     84  C   UNL     1       9.843  -7.492   6.261  1.00  0.00     0.200 A 
ATOM     85  F   UNL     1      11.109  -6.186   4.754  1.00  0.00    -0.200 F 
ATOM     86  F   UNL     1      10.966  -8.008   6.779  1.00  0.00    -0.200 F 
ENDBRANCH  53  76
ENDBRANCH  27  28
ENDBRANCH  20  22
ENDBRANCH  19  20
ENDBRANCH  18  19
ENDBRANCH   1  18
TORSDOF 14
