REMARK SMILES CCCCCCNC(=O)Oc1cccc(-c2ccc(CC(=O)OCCOC(=O)c3ccc(-c4c5nc(c(-c6c(F)c(F)c(F)c(F)c6F)c6ccc([nH]6)c(-c6c(F)c(F)c(F)c(F)c6F)c6nc(c(-c7c(F)c(F)c(F)c(F)c7F)c7ccc4[nH]7)C=C6)C=C5)cc3)cc2F)c1
REMARK SMILES IDX 20 1 19 2 16 3 17 4 93 5 18 6 92 7 94 8 15 9 11 10 12 11
REMARK SMILES IDX 95 12 13 13 14 14 10 15 8 16 7 17 9 19 6 20 5 21 4 22 3 23
REMARK SMILES IDX 2 24 1 25 21 26 22 27 23 28 24 29 25 30 26 31 27 32 28 33
REMARK SMILES IDX 29 34 30 35 91 36 31 37 90 38 32 39 33 40 34 41 84 42 35 43
REMARK SMILES IDX 89 44 83 45 85 46 36 47 88 48 82 49 81 50 37 52 69 53 49 54
REMARK SMILES IDX 68 55 50 56 53 57 67 58 86 59 51 60 52 61 66 63 87 64 54 65
REMARK SMILES IDX 38 66 39 67 47 68 40 69 41 70 45 71 48 72 42 73 43 74 46 75
REMARK SMILES IDX 44 76 70 77 71 78 79 79 72 80 73 81 77 82 80 83 74 84 75 85
REMARK SMILES IDX 78 86 76 87 55 88 56 89 64 90 57 91 58 92 62 93 65 94 59 95
REMARK SMILES IDX 60 96 63 97 61 98
REMARK H PARENT 7 18 85 51 53 62
REMARK Flexibility Score: inf
ROOT
ATOM      1  C   UNL     1      -4.683 -13.270   0.184  1.00  0.00     0.158 C 
ENDROOT
BRANCH   1   2
ATOM      2  C   UNL     1      -4.811 -12.011  -0.638  1.00  0.00    -0.034 A 
ATOM      3  C   UNL     1      -4.984  -9.614  -2.146  1.00  0.00     0.018 A 
ATOM      4  C   UNL     1      -4.860 -10.856  -2.784  1.00  0.00     0.012 A 
ATOM      5  C   UNL     1      -5.020  -9.602  -0.746  1.00  0.00     0.131 A 
ATOM      6  C   UNL     1      -4.769 -12.038  -2.039  1.00  0.00     0.005 A 
ATOM      7  C   UNL     1      -4.940 -10.775   0.002  1.00  0.00     0.044 A 
ATOM      8  F   UNL     1      -5.138  -8.442  -0.081  1.00  0.00    -0.206 F 
BRANCH   3   9
ATOM      9  C   UNL     1      -5.065  -8.367  -2.915  1.00  0.00    -0.012 A 
ATOM     10  C   UNL     1      -4.214  -6.157  -3.435  1.00  0.00     0.133 A 
ATOM     11  C   UNL     1      -5.282  -5.918  -4.295  1.00  0.00     0.047 A 
ATOM     12  C   UNL     1      -4.105  -7.360  -2.738  1.00  0.00     0.056 A 
ATOM     13  C   UNL     1      -6.234  -6.916  -4.491  1.00  0.00     0.004 A 
ATOM     14  C   UNL     1      -6.123  -8.133  -3.810  1.00  0.00     0.009 A 
BRANCH  10  15
ATOM     15  O   UNL     1      -3.328  -5.100  -3.184  1.00  0.00    -0.410 OA
BRANCH  15  16
ATOM     16  C   UNL     1      -1.982  -5.345  -3.409  1.00  0.00     0.412 C 
ATOM     17  N   UNL     1      -1.174  -4.318  -3.004  1.00  0.00    -0.321 N 
ATOM     18  H   UNL     1      -0.209  -4.428  -3.165  1.00  0.00     0.167 HD
ATOM     19  O   UNL     1      -1.506  -6.352  -3.919  1.00  0.00    -0.224 OA
BRANCH  17  20
ATOM     20  C   UNL     1      -1.588  -3.086  -2.364  1.00  0.00     0.119 C 
BRANCH  20  21
ATOM     21  C   UNL     1      -0.983  -2.934  -0.968  1.00  0.00     0.021 C 
BRANCH  21  22
ATOM     22  C   UNL     1       0.548  -2.836  -0.932  1.00  0.00     0.002 C 
BRANCH  22  23
ATOM     23  C   UNL     1       1.159  -1.699  -1.758  1.00  0.00    -0.000 C 
BRANCH  23  24
ATOM     24  C   UNL     1       0.680  -0.291  -1.396  1.00  0.00    -0.003 C 
ATOM     25  C   UNL     1       1.040   0.122   0.023  1.00  0.00     0.004 C 
ENDBRANCH  23  24
ENDBRANCH  22  23
ENDBRANCH  21  22
ENDBRANCH  20  21
ENDBRANCH  17  20
ENDBRANCH  15  16
ENDBRANCH  10  15
ENDBRANCH   3   9
ENDBRANCH   1   2
BRANCH   1  26
ATOM     26  C   UNL     1      -5.819 -14.261   0.097  1.00  0.00     0.310 C 
ATOM     27  O   UNL     1      -5.663 -15.447   0.370  1.00  0.00    -0.252 OA
BRANCH  26  28
ATOM     28  O   UNL     1      -7.002 -13.698  -0.264  1.00  0.00    -0.462 OA
BRANCH  28  29
ATOM     29  C   UNL     1      -8.119 -14.599  -0.387  1.00  0.00     0.274 C 
BRANCH  29  30
ATOM     30  C   UNL     1      -8.309 -15.028  -1.840  1.00  0.00     0.275 C 
BRANCH  30  31
ATOM     31  O   UNL     1      -7.141 -15.732  -2.299  1.00  0.00    -0.458 OA
BRANCH  31  32
ATOM     32  C   UNL     1      -6.547 -15.233  -3.405  1.00  0.00     0.338 C 
ATOM     33  O   UNL     1      -6.906 -14.295  -4.094  1.00  0.00    -0.246 OA
BRANCH  32  34
ATOM     34  C   UNL     1      -5.333 -16.009  -3.691  1.00  0.00     0.060 A 
ATOM     35  C   UNL     1      -4.208 -15.874  -2.875  1.00  0.00     0.016 A 
ATOM     36  C   UNL     1      -5.285 -16.798  -4.840  1.00  0.00     0.016 A 
ATOM     37  C   UNL     1      -3.015 -16.502  -3.225  1.00  0.00     0.010 A 
ATOM     38  C   UNL     1      -4.105 -17.472  -5.160  1.00  0.00     0.010 A 
ATOM     39  C   UNL     1      -2.955 -17.315  -4.366  1.00  0.00    -0.014 A 
BRANCH  39  40
ATOM     40  C   UNL     1      -1.694 -18.001  -4.739  1.00  0.00     0.031 A 
ATOM     41  C   UNL     1      -0.963 -17.607  -5.991  1.00  0.00     0.074 A 
ATOM     42  C   UNL     1      -1.224 -18.998  -3.967  1.00  0.00     0.049 A 
ATOM     43  N   UNL     1       0.062 -18.181  -6.566  1.00  0.00    -0.248 NA
ATOM     44  C   UNL     1      -1.454 -16.411  -6.692  1.00  0.00     0.031 C 
ATOM     45  C   UNL     1      -1.824 -19.451  -2.712  1.00  0.00     0.029 A 
ATOM     46  N   UNL     1      -0.137 -19.820  -4.133  1.00  0.00    -0.354 N 
ATOM     47  C   UNL     1       0.317 -17.441  -7.713  1.00  0.00     0.074 A 
ATOM     48  C   UNL     1      -0.663 -16.377  -7.756  1.00  0.00     0.031 C 
ATOM     49  C   UNL     1      -1.095 -20.465  -2.219  1.00  0.00     0.029 A 
ATOM     50  C   UNL     1      -0.016 -20.772  -3.152  1.00  0.00     0.049 A 
ATOM     51  H   UNL     1       0.495 -19.734  -4.884  1.00  0.00     0.167 HD
ATOM     52  C   UNL     1       1.282 -17.636  -8.642  1.00  0.00     0.037 A 
ATOM     53  C   UNL     1       0.845 -21.801  -3.037  1.00  0.00     0.037 A 
ATOM     54  C   UNL     1       2.279 -18.672  -8.575  1.00  0.00     0.049 A 
ATOM     55  C   UNL     1       1.874 -22.022  -4.111  1.00  0.00     0.074 A 
ATOM     56  C   UNL     1       3.328 -18.918  -9.445  1.00  0.00     0.029 A 
ATOM     57  N   UNL     1       2.352 -19.634  -7.579  1.00  0.00    -0.354 N 
ATOM     58  N   UNL     1       2.108 -21.318  -5.191  1.00  0.00    -0.248 NA
ATOM     59  C   UNL     1       2.750 -23.192  -3.955  1.00  0.00     0.031 C 
ATOM     60  C   UNL     1       4.012 -20.053  -8.996  1.00  0.00     0.029 A 
ATOM     61  C   UNL     1       3.412 -20.491  -7.826  1.00  0.00     0.049 A 
ATOM     62  H   UNL     1       1.740 -19.698  -6.810  1.00  0.00     0.167 HD
ATOM     63  C   UNL     1       3.166 -21.945  -5.833  1.00  0.00     0.074 A 
ATOM     64  C   UNL     1       3.539 -23.080  -5.015  1.00  0.00     0.031 C 
ATOM     65  C   UNL     1       3.772 -21.612  -6.998  1.00  0.00     0.037 A 
BRANCH  52  66
ATOM     66  C   UNL     1       1.299 -16.725  -9.833  1.00  0.00     0.064 A 
ATOM     67  C   UNL     1       1.759 -15.404  -9.746  1.00  0.00     0.173 A 
ATOM     68  C   UNL     1       0.907 -17.205 -11.092  1.00  0.00     0.173 A 
ATOM     69  F   UNL     1       2.135 -14.896  -8.563  1.00  0.00    -0.203 F 
ATOM     70  C   UNL     1       1.813 -14.591 -10.876  1.00  0.00     0.198 A 
ATOM     71  C   UNL     1       0.983 -16.397 -12.223  1.00  0.00     0.198 A 
ATOM     72  F   UNL     1       0.465 -18.464 -11.227  1.00  0.00    -0.203 F 
ATOM     73  F   UNL     1       2.229 -13.321 -10.767  1.00  0.00    -0.200 F 
ATOM     74  C   UNL     1       1.432 -15.090 -12.113  1.00  0.00     0.200 A 
ATOM     75  F   UNL     1       0.625 -16.884 -13.419  1.00  0.00    -0.200 F 
ATOM     76  F   UNL     1       1.497 -14.309 -13.201  1.00  0.00    -0.200 F 
ENDBRANCH  52  66
BRANCH  53  77
ATOM     77  C   UNL     1       0.753 -22.720  -1.874  1.00  0.00     0.064 A 
ATOM     78  C   UNL     1       1.750 -22.736  -0.891  1.00  0.00     0.173 A 
ATOM     79  C   UNL     1      -0.325 -23.605  -1.729  1.00  0.00     0.173 A 
ATOM     80  F   UNL     1       2.813 -21.926  -1.003  1.00  0.00    -0.203 F 
ATOM     81  C   UNL     1       1.681 -23.615   0.188  1.00  0.00     0.198 A 
ATOM     82  C   UNL     1      -0.407 -24.465  -0.636  1.00  0.00     0.198 A 
ATOM     83  F   UNL     1      -1.303 -23.630  -2.646  1.00  0.00    -0.203 F 
ATOM     84  F   UNL     1       2.670 -23.642   1.091  1.00  0.00    -0.200 F 
ATOM     85  C   UNL     1       0.600 -24.474   0.318  1.00  0.00     0.200 A 
ATOM     86  F   UNL     1      -1.457 -25.286  -0.509  1.00  0.00    -0.200 F 
ATOM     87  F   UNL     1       0.533 -25.318   1.356  1.00  0.00    -0.200 F 
ENDBRANCH  53  77
BRANCH  65  88
ATOM     88  C   UNL     1       4.919 -22.470  -7.440  1.00  0.00     0.064 A 
ATOM     89  C   UNL     1       4.712 -23.749  -7.974  1.00  0.00     0.173 A 
ATOM     90  C   UNL     1       6.236 -21.994  -7.356  1.00  0.00     0.173 A 
ATOM     91  F   UNL     1       3.472 -24.254  -8.057  1.00  0.00    -0.203 F 
ATOM     92  C   UNL     1       5.787 -24.531  -8.391  1.00  0.00     0.198 A 
ATOM     93  C   UNL     1       7.305 -22.768  -7.796  1.00  0.00     0.198 A 
ATOM     94  F   UNL     1       6.484 -20.774  -6.856  1.00  0.00    -0.203 F 
ATOM     95  F   UNL     1       5.571 -25.768  -8.859  1.00  0.00    -0.200 F 
ATOM     96  C   UNL     1       7.080 -24.038  -8.307  1.00  0.00     0.200 A 
ATOM     97  F   UNL     1       8.554 -22.287  -7.723  1.00  0.00    -0.200 F 
ATOM     98  F   UNL     1       8.113 -24.790  -8.711  1.00  0.00    -0.200 F 
ENDBRANCH  65  88
ENDBRANCH  39  40
ENDBRANCH  32  34
ENDBRANCH  31  32
ENDBRANCH  30  31
ENDBRANCH  29  30
ENDBRANCH  28  29
ENDBRANCH  26  28
ENDBRANCH   1  26
TORSDOF 20
