REMARK SMILES Cc1cc2c(c(C)c1Br)C=C(C(=O)OCCOC(=O)c1ccc(-c3c4nc(c(-c5c(F)c(F)c(F)c(F)c5F)c5ccc([nH]5)c(-c5c(F)c(F)c(F)c(F)c5F)c5nc(c(-c6c(F)c(F)c(F)c(F)c6F)c6ccc3[nH]6)C=C5)C=C4)cc1)[C@@H](C(F)(F)F)O2
REMARK SMILES IDX 16 1 15 2 14 3 12 4 13 5 11 6 1 7 2 8 3 9 8 10 4 11 6 12
REMARK SMILES IDX 9 13 5 14 88 15 7 16 10 17 83 18 84 19 85 20 86 21 87 22
REMARK SMILES IDX 17 23 18 24 19 25 20 26 21 27 82 28 22 29 81 30 23 31 24 32
REMARK SMILES IDX 25 33 75 34 26 35 80 36 74 37 76 38 27 39 79 40 73 41 72 42
REMARK SMILES IDX 28 44 60 45 40 46 59 47 41 48 44 49 58 50 77 51 42 52 43 53
REMARK SMILES IDX 57 55 78 56 45 57 29 58 30 59 38 60 31 61 32 62 36 63 39 64
REMARK SMILES IDX 33 65 34 66 37 67 35 68 61 69 62 70 70 71 63 72 64 73 68 74
REMARK SMILES IDX 71 75 65 76 66 77 69 78 67 79 46 80 47 81 55 82 48 83 49 84
REMARK SMILES IDX 53 85 56 86 50 87 51 88 54 89 52 90
REMARK H PARENT 76 43 44 54
REMARK Flexibility Score: inf
ROOT
ATOM      1  C   UNL     1      -1.912  -7.444  -6.903  1.00  0.00     0.275 C 
ENDROOT
BRANCH   1   2
ATOM      2  C   UNL     1      -0.484  -7.448  -6.358  1.00  0.00     0.275 C 
BRANCH   2   3
ATOM      3  O   UNL     1      -0.364  -6.596  -5.198  1.00  0.00    -0.459 OA
BRANCH   3   4
ATOM      4  C   UNL     1       0.202  -5.388  -5.420  1.00  0.00     0.338 C 
ATOM      5  O   UNL     1       0.610  -4.958  -6.489  1.00  0.00    -0.246 OA
BRANCH   4   6
ATOM      6  C   UNL     1       0.254  -4.602  -4.173  1.00  0.00     0.087 C 
ATOM      7  C   UNL     1       1.027  -0.104   0.424  1.00  0.00     0.046 C 
ATOM      8  C   UNL     1       0.612  -0.876  -0.801  1.00  0.00    -0.033 A 
ATOM      9  C   UNL     1       0.856  -2.258  -0.797  1.00  0.00     0.051 A 
ATOM     10  C   UNL     1       0.072  -0.282  -1.960  1.00  0.00     0.024 A 
ATOM     11  C   UNL     1       0.588  -3.042  -1.915  1.00  0.00     0.128 A 
ATOM     12  C   UNL     1      -0.237  -1.068  -3.098  1.00  0.00    -0.026 A 
ATOM     13  Br  UNL     1      -0.209   1.612  -1.985  1.00  0.00    -0.050 Br
ATOM     14  C   UNL     1       0.056  -2.459  -3.068  1.00  0.00     0.021 A 
ATOM     15  O   UNL     1       0.866  -4.374  -1.778  1.00  0.00    -0.475 OA
ATOM     16  C   UNL     1      -0.865  -0.474  -4.339  1.00  0.00     0.046 C 
ATOM     17  C   UNL     1      -0.135  -3.323  -4.229  1.00  0.00     0.027 C 
ATOM     18  C   UNL     1       0.871  -5.221  -2.957  1.00  0.00     0.316 C 
BRANCH  18  19
ATOM     19  C   UNL     1       2.310  -5.690  -3.231  1.00  0.00     0.430 C 
ATOM     20  F   UNL     1       2.876  -6.223  -2.123  1.00  0.00    -0.167 F 
ATOM     21  F   UNL     1       2.345  -6.653  -4.184  1.00  0.00    -0.167 F 
ATOM     22  F   UNL     1       3.105  -4.679  -3.650  1.00  0.00    -0.167 F 
ENDBRANCH  18  19
ENDBRANCH   4   6
ENDBRANCH   3   4
ENDBRANCH   2   3
ENDBRANCH   1   2
BRANCH   1  23
ATOM     23  O   UNL     1      -2.249  -6.136  -7.400  1.00  0.00    -0.458 OA
BRANCH  23  24
ATOM     24  C   UNL     1      -3.192  -5.469  -6.697  1.00  0.00     0.338 C 
ATOM     25  O   UNL     1      -3.816  -5.864  -5.727  1.00  0.00    -0.246 OA
BRANCH  24  26
ATOM     26  C   UNL     1      -3.347  -4.104  -7.228  1.00  0.00     0.060 A 
ATOM     27  C   UNL     1      -2.258  -3.243  -7.201  1.00  0.00     0.016 A 
ATOM     28  C   UNL     1      -4.607  -3.620  -7.573  1.00  0.00     0.016 A 
ATOM     29  C   UNL     1      -2.449  -1.875  -7.366  1.00  0.00     0.010 A 
ATOM     30  C   UNL     1      -4.768  -2.260  -7.876  1.00  0.00     0.010 A 
ATOM     31  C   UNL     1      -3.703  -1.355  -7.720  1.00  0.00    -0.014 A 
BRANCH  31  32
ATOM     32  C   UNL     1      -3.900   0.121  -7.871  1.00  0.00     0.031 A 
ATOM     33  C   UNL     1      -5.002   0.827  -7.116  1.00  0.00     0.074 A 
ATOM     34  C   UNL     1      -3.073   0.856  -8.645  1.00  0.00     0.049 A 
ATOM     35  N   UNL     1      -5.467   2.043  -7.271  1.00  0.00    -0.248 NA
ATOM     36  C   UNL     1      -5.679   0.064  -6.056  1.00  0.00     0.031 C 
ATOM     37  C   UNL     1      -1.918   0.342  -9.383  1.00  0.00     0.029 A 
ATOM     38  N   UNL     1      -3.059   2.204  -8.921  1.00  0.00    -0.354 N 
ATOM     39  C   UNL     1      -6.531   2.162  -6.383  1.00  0.00     0.074 A 
ATOM     40  C   UNL     1      -6.642   0.898  -5.688  1.00  0.00     0.031 C 
ATOM     41  C   UNL     1      -1.266   1.362  -9.955  1.00  0.00     0.029 A 
ATOM     42  C   UNL     1      -2.026   2.587  -9.743  1.00  0.00     0.049 A 
ATOM     43  H   UNL     1      -3.727   2.833  -8.565  1.00  0.00     0.167 HD
ATOM     44  C   UNL     1      -7.340   3.229  -6.171  1.00  0.00     0.037 A 
ATOM     45  C   UNL     1      -1.743   3.775 -10.313  1.00  0.00     0.037 A 
ATOM     46  C   UNL     1      -7.179   4.510  -6.811  1.00  0.00     0.049 A 
ATOM     47  C   UNL     1      -2.678   4.931 -10.100  1.00  0.00     0.074 A 
ATOM     48  C   UNL     1      -7.956   5.647  -6.673  1.00  0.00     0.029 A 
ATOM     49  N   UNL     1      -6.151   4.834  -7.685  1.00  0.00    -0.354 N 
ATOM     50  N   UNL     1      -3.753   4.995  -9.355  1.00  0.00    -0.248 NA
ATOM     51  C   UNL     1      -2.380   6.167 -10.836  1.00  0.00     0.031 C 
ATOM     52  C   UNL     1      -7.419   6.649  -7.488  1.00  0.00     0.029 A 
ATOM     53  C   UNL     1      -6.279   6.151  -8.097  1.00  0.00     0.049 A 
ATOM     54  H   UNL     1      -5.437   4.219  -7.970  1.00  0.00     0.167 HD
ATOM     55  C   UNL     1      -4.257   6.276  -9.525  1.00  0.00     0.074 A 
ATOM     56  C   UNL     1      -3.358   6.965 -10.428  1.00  0.00     0.031 C 
ATOM     57  C   UNL     1      -5.373   6.827  -8.989  1.00  0.00     0.037 A 
BRANCH  44  58
ATOM     58  C   UNL     1      -8.499   3.062  -5.230  1.00  0.00     0.064 A 
ATOM     59  C   UNL     1      -8.326   2.990  -3.841  1.00  0.00     0.173 A 
ATOM     60  C   UNL     1      -9.812   3.051  -5.728  1.00  0.00     0.173 A 
ATOM     61  F   UNL     1      -7.093   2.984  -3.314  1.00  0.00    -0.203 F 
ATOM     62  C   UNL     1      -9.424   2.899  -2.986  1.00  0.00     0.198 A 
ATOM     63  C   UNL     1     -10.907   2.990  -4.870  1.00  0.00     0.198 A 
ATOM     64  F   UNL     1     -10.035   3.126  -7.049  1.00  0.00    -0.203 F 
ATOM     65  F   UNL     1      -9.234   2.798  -1.663  1.00  0.00    -0.200 F 
ATOM     66  C   UNL     1     -10.712   2.910  -3.500  1.00  0.00     0.200 A 
ATOM     67  F   UNL     1     -12.151   3.018  -5.369  1.00  0.00    -0.200 F 
ATOM     68  F   UNL     1     -11.766   2.842  -2.675  1.00  0.00    -0.200 F 
ENDBRANCH  44  58
BRANCH  45  69
ATOM     69  C   UNL     1      -0.540   3.908 -11.178  1.00  0.00     0.064 A 
ATOM     70  C   UNL     1       0.547   4.698 -10.783  1.00  0.00     0.173 A 
ATOM     71  C   UNL     1      -0.437   3.222 -12.399  1.00  0.00     0.173 A 
ATOM     72  F   UNL     1       0.485   5.399  -9.641  1.00  0.00    -0.203 F 
ATOM     73  C   UNL     1       1.694   4.791 -11.570  1.00  0.00     0.198 A 
ATOM     74  C   UNL     1       0.723   3.287 -13.167  1.00  0.00     0.198 A 
ATOM     75  F   UNL     1      -1.451   2.456 -12.827  1.00  0.00    -0.203 F 
ATOM     76  F   UNL     1       2.708   5.576 -11.183  1.00  0.00    -0.200 F 
ATOM     77  C   UNL     1       1.786   4.074 -12.754  1.00  0.00     0.200 A 
ATOM     78  F   UNL     1       0.814   2.576 -14.299  1.00  0.00    -0.200 F 
ATOM     79  F   UNL     1       2.898   4.144 -13.497  1.00  0.00    -0.200 F 
ENDBRANCH  45  69
BRANCH  57  80
ATOM     80  C   UNL     1      -5.673   8.255  -9.336  1.00  0.00     0.064 A 
ATOM     81  C   UNL     1      -6.158   8.615 -10.601  1.00  0.00     0.173 A 
ATOM     82  C   UNL     1      -5.524   9.265  -8.374  1.00  0.00     0.173 A 
ATOM     83  F   UNL     1      -6.304   7.687 -11.558  1.00  0.00    -0.203 F 
ATOM     84  C   UNL     1      -6.468   9.940 -10.895  1.00  0.00     0.198 A 
ATOM     85  C   UNL     1      -5.859  10.584  -8.663  1.00  0.00     0.198 A 
ATOM     86  F   UNL     1      -5.069   8.969  -7.147  1.00  0.00    -0.203 F 
ATOM     87  F   UNL     1      -6.896  10.269 -12.122  1.00  0.00    -0.200 F 
ATOM     88  C   UNL     1      -6.326  10.921  -9.925  1.00  0.00     0.200 A 
ATOM     89  F   UNL     1      -5.734  11.528  -7.721  1.00  0.00    -0.200 F 
ATOM     90  F   UNL     1      -6.635  12.194 -10.207  1.00  0.00    -0.200 F 
ENDBRANCH  57  80
ENDBRANCH  31  32
ENDBRANCH  24  26
ENDBRANCH  23  24
ENDBRANCH   1  23
TORSDOF 12
