REMARK SMILES COc1cccc([C@H](CC(=O)OCCOC(=O)c2ccc(-c3c4nc(c(-c5c(F)c(F)c(F)c(F)c5F)c5ccc([nH]5)c(-c5c(F)c(F)c(F)c(F)c5F)c5nc(c(-c6c(F)c(F)c(F)c(F)c6F)c6ccc3[nH]6)C=C5)C=C4)cc2)NS(=O)(=O)c2ccc3c(c2)C[C@@H](C)N3C(C)=O)c1
REMARK SMILES IDX 12 1 10 2 11 3 9 4 8 5 7 6 3 7 4 8 98 9 5 10 6 11 2 12 1 13
REMARK SMILES IDX 81 14 82 16 83 17 84 18 85 19 86 20 90 21 87 22 89 23 88 24
REMARK SMILES IDX 91 25 94 26 92 27 93 28 95 29 96 30 97 31 13 32 14 33 15 34
REMARK SMILES IDX 16 35 17 36 18 37 19 38 80 39 20 40 79 41 21 42 22 43 23 44
REMARK SMILES IDX 73 45 24 46 78 47 72 48 74 49 25 50 77 51 71 52 70 53 26 55
REMARK SMILES IDX 58 56 38 57 57 58 39 59 42 60 56 61 75 62 40 63 41 64 55 66
REMARK SMILES IDX 76 67 43 68 27 69 28 70 36 71 29 72 30 73 34 74 37 75 31 76
REMARK SMILES IDX 32 77 35 78 33 79 59 80 60 81 68 82 61 83 62 84 66 85 69 86
REMARK SMILES IDX 63 87 64 88 67 89 65 90 44 91 45 92 53 93 46 94 47 95 51 96
REMARK SMILES IDX 54 97 48 98 49 99 52 100 50 101
REMARK H PARENT 81 15 74 54 42 65
REMARK Flexibility Score: inf
ROOT
ATOM      1  O   UNL     1       2.424   1.481  -4.073  1.00  0.00    -0.462 OA
ENDROOT
BRANCH   1   2
ATOM      2  C   UNL     1       1.729   2.299  -3.254  1.00  0.00     0.307 C 
ATOM      3  O   UNL     1       0.609   2.056  -2.817  1.00  0.00    -0.252 OA
BRANCH   2   4
ATOM      4  C   UNL     1       2.450   3.591  -2.936  1.00  0.00     0.147 C 
BRANCH   4   5
ATOM      5  C   UNL     1       3.989   3.503  -2.877  1.00  0.00     0.111 C 
BRANCH   5   6
ATOM      6  C   UNL     1       4.571   3.706  -4.263  1.00  0.00    -0.026 A 
ATOM      7  C   UNL     1       5.552   5.153  -5.929  1.00  0.00     0.119 A 
ATOM      8  C   UNL     1       5.880   4.059  -6.721  1.00  0.00     0.046 A 
ATOM      9  C   UNL     1       4.809   4.993  -4.763  1.00  0.00     0.051 A 
ATOM     10  C   UNL     1       5.571   2.776  -6.278  1.00  0.00     0.004 A 
ATOM     11  C   UNL     1       4.966   2.601  -5.034  1.00  0.00     0.005 A 
BRANCH   7  12
ATOM     12  O   UNL     1       6.039   6.385  -6.279  1.00  0.00    -0.497 OA
ATOM     13  C   UNL     1       7.048   6.777  -5.334  1.00  0.00     0.278 C 
ENDBRANCH   7  12
ENDBRANCH   5   6
BRANCH   5  14
ATOM     14  N   UNL     1       4.471   4.484  -1.868  1.00  0.00    -0.203 NA
ATOM     15  H   UNL     1       4.149   4.135  -0.966  1.00  0.00     0.142 HD
BRANCH  14  16
ATOM     16  S   UNL     1       6.091   4.883  -1.653  1.00  0.00     0.241 S 
ATOM     17  O   UNL     1       6.901   4.596  -2.807  1.00  0.00    -0.207 OA
ATOM     18  O   UNL     1       6.020   6.229  -1.111  1.00  0.00    -0.207 OA
BRANCH  16  19
ATOM     19  C   UNL     1       6.681   3.837  -0.362  1.00  0.00     0.082 A 
ATOM     20  C   UNL     1       6.606   2.432  -0.469  1.00  0.00     0.024 A 
ATOM     21  C   UNL     1       7.283   4.456   0.734  1.00  0.00     0.027 A 
ATOM     22  C   UNL     1       7.079   1.618   0.569  1.00  0.00     0.028 A 
ATOM     23  C   UNL     1       7.698   3.647   1.760  1.00  0.00    -0.021 A 
ATOM     24  C   UNL     1       7.570   2.252   1.692  1.00  0.00     0.047 A 
ATOM     25  C   UNL     1       8.341   4.055   3.048  1.00  0.00     0.063 C 
ATOM     26  N   UNL     1       7.997   1.709   2.925  1.00  0.00    -0.309 N 
ATOM     27  C   UNL     1       7.931   2.842   3.893  1.00  0.00     0.092 C 
ATOM     28  C   UNL     1       6.475   3.010   4.396  1.00  0.00     0.032 C 
BRANCH  26  29
ATOM     29  C   UNL     1       8.884   0.650   2.929  1.00  0.00     0.224 C 
ATOM     30  C   UNL     1      10.279   1.011   3.393  1.00  0.00     0.115 C 
ATOM     31  O   UNL     1       8.640  -0.453   2.443  1.00  0.00    -0.275 OA
ENDBRANCH  26  29
ENDBRANCH  16  19
ENDBRANCH  14  16
ENDBRANCH   5  14
ENDBRANCH   4   5
ENDBRANCH   2   4
ENDBRANCH   1   2
BRANCH   1  32
ATOM     32  C   UNL     1       1.846   0.203  -4.404  1.00  0.00     0.274 C 
BRANCH  32  33
ATOM     33  C   UNL     1       2.493  -0.913  -3.581  1.00  0.00     0.275 C 
BRANCH  33  34
ATOM     34  O   UNL     1       2.076  -0.843  -2.205  1.00  0.00    -0.458 OA
BRANCH  34  35
ATOM     35  C   UNL     1       2.902  -0.154  -1.386  1.00  0.00     0.338 C 
ATOM     36  O   UNL     1       3.976   0.350  -1.666  1.00  0.00    -0.246 OA
BRANCH  35  37
ATOM     37  C   UNL     1       2.239   0.052  -0.093  1.00  0.00     0.060 A 
ATOM     38  C   UNL     1       1.870   1.353   0.261  1.00  0.00     0.016 A 
ATOM     39  C   UNL     1       2.042  -1.010   0.788  1.00  0.00     0.016 A 
ATOM     40  C   UNL     1       1.298   1.601   1.503  1.00  0.00     0.010 A 
ATOM     41  C   UNL     1       1.459  -0.761   2.033  1.00  0.00     0.010 A 
ATOM     42  C   UNL     1       1.093   0.546   2.401  1.00  0.00    -0.014 A 
BRANCH  42  43
ATOM     43  C   UNL     1       0.532   0.821   3.743  1.00  0.00     0.031 A 
ATOM     44  C   UNL     1       1.416   0.733   4.951  1.00  0.00     0.074 A 
ATOM     45  C   UNL     1      -0.765   1.155   3.869  1.00  0.00     0.049 A 
ATOM     46  N   UNL     1       1.107   0.862   6.216  1.00  0.00    -0.248 NA
ATOM     47  C   UNL     1       2.838   0.456   4.703  1.00  0.00     0.031 C 
ATOM     48  C   UNL     1      -1.706   1.311   2.760  1.00  0.00     0.029 A 
ATOM     49  N   UNL     1      -1.516   1.418   4.986  1.00  0.00    -0.354 N 
ATOM     50  C   UNL     1       2.288   0.657   6.916  1.00  0.00     0.074 A 
ATOM     51  C   UNL     1       3.315   0.372   5.936  1.00  0.00     0.031 C 
ATOM     52  C   UNL     1      -2.909   1.649   3.251  1.00  0.00     0.029 A 
ATOM     53  C   UNL     1      -2.835   1.680   4.709  1.00  0.00     0.049 A 
ATOM     54  H   UNL     1      -1.146   1.419   5.898  1.00  0.00     0.167 HD
ATOM     55  C   UNL     1       2.491   0.706   8.254  1.00  0.00     0.037 A 
ATOM     56  C   UNL     1      -3.872   1.893   5.542  1.00  0.00     0.037 A 
ATOM     57  C   UNL     1       1.459   0.994   9.218  1.00  0.00     0.049 A 
ATOM     58  C   UNL     1      -3.632   1.872   7.027  1.00  0.00     0.074 A 
ATOM     59  C   UNL     1       1.565   1.096  10.594  1.00  0.00     0.029 A 
ATOM     60  N   UNL     1       0.124   1.216   8.904  1.00  0.00    -0.354 N 
ATOM     61  N   UNL     1      -2.510   1.699   7.683  1.00  0.00    -0.248 NA
ATOM     62  C   UNL     1      -4.805   2.074   7.888  1.00  0.00     0.031 C 
ATOM     63  C   UNL     1       0.287   1.317  11.117  1.00  0.00     0.029 A 
ATOM     64  C   UNL     1      -0.608   1.421  10.064  1.00  0.00     0.049 A 
ATOM     65  H   UNL     1      -0.247   1.227   7.993  1.00  0.00     0.167 HD
ATOM     66  C   UNL     1      -2.834   1.799   9.029  1.00  0.00     0.074 A 
ATOM     67  C   UNL     1      -4.257   2.062   9.095  1.00  0.00     0.031 C 
ATOM     68  C   UNL     1      -2.026   1.685  10.113  1.00  0.00     0.037 A 
BRANCH  55  69
ATOM     69  C   UNL     1       3.874   0.397   8.755  1.00  0.00     0.064 A 
ATOM     70  C   UNL     1       4.960   1.254   8.520  1.00  0.00     0.173 A 
ATOM     71  C   UNL     1       4.113  -0.773   9.494  1.00  0.00     0.173 A 
ATOM     72  F   UNL     1       4.794   2.379   7.808  1.00  0.00    -0.203 F 
ATOM     73  C   UNL     1       6.239   0.933   8.972  1.00  0.00     0.198 A 
ATOM     74  C   UNL     1       5.385  -1.073   9.975  1.00  0.00     0.198 A 
ATOM     75  F   UNL     1       3.111  -1.626   9.753  1.00  0.00    -0.203 F 
ATOM     76  F   UNL     1       7.271   1.737   8.679  1.00  0.00    -0.200 F 
ATOM     77  C   UNL     1       6.448  -0.226   9.704  1.00  0.00     0.200 A 
ATOM     78  F   UNL     1       5.582  -2.185  10.695  1.00  0.00    -0.200 F 
ATOM     79  F   UNL     1       7.678  -0.529  10.143  1.00  0.00    -0.200 F 
ENDBRANCH  55  69
BRANCH  56  80
ATOM     80  C   UNL     1      -5.229   2.137   4.987  1.00  0.00     0.064 A 
ATOM     81  C   UNL     1      -5.845   3.389   5.116  1.00  0.00     0.173 A 
ATOM     82  C   UNL     1      -5.935   1.129   4.313  1.00  0.00     0.173 A 
ATOM     83  F   UNL     1      -5.221   4.378   5.773  1.00  0.00    -0.203 F 
ATOM     84  C   UNL     1      -7.121   3.620   4.605  1.00  0.00     0.198 A 
ATOM     85  C   UNL     1      -7.197   1.370   3.775  1.00  0.00     0.198 A 
ATOM     86  F   UNL     1      -5.391  -0.087   4.162  1.00  0.00    -0.203 F 
ATOM     87  F   UNL     1      -7.704   4.814   4.780  1.00  0.00    -0.200 F 
ATOM     88  C   UNL     1      -7.792   2.613   3.928  1.00  0.00     0.200 A 
ATOM     89  F   UNL     1      -7.837   0.399   3.109  1.00  0.00    -0.200 F 
ATOM     90  F   UNL     1      -9.015   2.839   3.429  1.00  0.00    -0.200 F 
ENDBRANCH  56  80
BRANCH  68  91
ATOM     91  C   UNL     1      -2.654   1.886  11.463  1.00  0.00     0.064 A 
ATOM     92  C   UNL     1      -3.541   0.949  12.014  1.00  0.00     0.173 A 
ATOM     93  C   UNL     1      -2.336   3.017  12.230  1.00  0.00     0.173 A 
ATOM     94  F   UNL     1      -3.891  -0.142  11.316  1.00  0.00    -0.203 F 
ATOM     95  C   UNL     1      -4.107   1.152  13.271  1.00  0.00     0.198 A 
ATOM     96  C   UNL     1      -2.877   3.200  13.500  1.00  0.00     0.198 A 
ATOM     97  F   UNL     1      -1.488   3.942  11.753  1.00  0.00    -0.203 F 
ATOM     98  F   UNL     1      -4.993   0.271  13.754  1.00  0.00    -0.200 F 
ATOM     99  C   UNL     1      -3.768   2.272  14.015  1.00  0.00     0.200 A 
ATOM    100  F   UNL     1      -2.535   4.274  14.224  1.00  0.00    -0.200 F 
ATOM    101  F   UNL     1      -4.308   2.461  15.227  1.00  0.00    -0.200 F 
ENDBRANCH  68  91
ENDBRANCH  42  43
ENDBRANCH  35  37
ENDBRANCH  34  35
ENDBRANCH  33  34
ENDBRANCH  32  33
ENDBRANCH   1  32
TORSDOF 18
