REMARK SMILES O=C(OCCOC(=O)c1ccccc1OCC[S@](=O)c1cccc(F)c1)c1ccc(-c2c3nc(c(-c4c(F)c(F)c(F)c(F)c4F)c4ccc([nH]4)c(-c4c(F)c(F)c(F)c(F)c4F)c4nc(c(-c5c(F)c(F)c(F)c(F)c5F)c5ccc2[nH]5)C=C4)C=C3)cc1
REMARK SMILES IDX 6 1 5 2 4 3 3 4 2 5 1 6 27 7 28 8 89 9 29 10 88 11 30 12
REMARK SMILES IDX 31 13 32 14 82 15 33 16 87 17 81 18 83 19 34 20 86 21 80 22
REMARK SMILES IDX 79 23 35 25 67 26 47 27 66 28 48 29 51 30 65 31 84 32 49 33
REMARK SMILES IDX 50 34 64 36 85 37 52 38 36 39 37 40 45 41 38 42 39 43 43 44
REMARK SMILES IDX 46 45 40 46 41 47 44 48 42 49 68 50 69 51 77 52 70 53 71 54
REMARK SMILES IDX 75 55 78 56 72 57 73 58 76 59 74 60 53 61 54 62 62 63 55 64
REMARK SMILES IDX 56 65 60 66 63 67 57 68 58 69 61 70 59 71 7 72 8 73 9 74
REMARK SMILES IDX 10 75 14 76 11 77 13 78 12 79 15 80 16 81 17 82 18 83 19 84
REMARK SMILES IDX 20 85 21 86 26 87 22 88 24 89 23 90 25 91
REMARK H PARENT 83 24 51 35
REMARK Flexibility Score: inf
ROOT
ATOM      1  O   UNL     1       3.075  -0.678   2.464  1.00  0.00    -0.458 OA
ENDROOT
BRANCH   1   2
ATOM      2  C   UNL     1       3.356   0.723   2.320  1.00  0.00     0.275 C 
BRANCH   2   3
ATOM      3  C   UNL     1       3.369   1.175   0.842  1.00  0.00     0.275 C 
BRANCH   3   4
ATOM      4  O   UNL     1       2.128   0.890   0.135  1.00  0.00    -0.458 OA
BRANCH   4   5
ATOM      5  C   UNL     1       1.988   0.384  -1.129  1.00  0.00     0.338 C 
ATOM      6  O   UNL     1       1.017   0.655  -1.827  1.00  0.00    -0.246 OA
BRANCH   5   7
ATOM      7  C   UNL     1       2.878  -0.701  -1.603  1.00  0.00     0.060 A 
ATOM      8  C   UNL     1       3.348  -1.902  -0.421  1.00  0.00     0.016 A 
ATOM      9  C   UNL     1       3.637  -0.770  -3.219  1.00  0.00     0.016 A 
ATOM     10  C   UNL     1       4.628  -3.177  -0.752  1.00  0.00     0.010 A 
ATOM     11  C   UNL     1       4.805  -2.082  -3.624  1.00  0.00     0.010 A 
ATOM     12  C   UNL     1       5.372  -3.299  -2.399  1.00  0.00    -0.014 A 
BRANCH  12  13
ATOM     13  C   UNL     1       6.258  -4.474  -2.717  1.00  0.00     0.031 A 
ATOM     14  C   UNL     1       6.859  -4.498  -4.079  1.00  0.00     0.074 A 
ATOM     15  C   UNL     1       6.341  -5.577  -1.927  1.00  0.00     0.049 A 
ATOM     16  N   UNL     1       7.077  -5.506  -4.871  1.00  0.00    -0.248 NA
ATOM     17  C   UNL     1       7.215  -3.192  -4.661  1.00  0.00     0.031 C 
ATOM     18  C   UNL     1       6.071  -5.706  -0.494  1.00  0.00     0.029 A 
ATOM     19  N   UNL     1       6.518  -6.895  -2.280  1.00  0.00    -0.354 N 
ATOM     20  C   UNL     1       7.528  -4.930  -6.046  1.00  0.00     0.074 A 
ATOM     21  C   UNL     1       7.329  -3.507  -5.941  1.00  0.00     0.031 C 
ATOM     22  C   UNL     1       5.747  -6.963  -0.173  1.00  0.00     0.029 A 
ATOM     23  C   UNL     1       6.029  -7.780  -1.329  1.00  0.00     0.049 A 
ATOM     24  H   UNL     1       6.945  -7.181  -3.120  1.00  0.00     0.167 HD
ATOM     25  C   UNL     1       8.208  -5.526  -7.046  1.00  0.00     0.037 A 
ATOM     26  C   UNL     1       5.895  -9.117  -1.343  1.00  0.00     0.037 A 
ATOM     27  C   UNL     1       8.569  -6.911  -6.988  1.00  0.00     0.049 A 
ATOM     28  C   UNL     1       6.570  -9.794  -2.488  1.00  0.00     0.074 A 
ATOM     29  C   UNL     1       9.379  -7.631  -7.839  1.00  0.00     0.029 A 
ATOM     30  N   UNL     1       8.164  -7.775  -5.976  1.00  0.00    -0.354 N 
ATOM     31  N   UNL     1       7.071  -9.244  -3.567  1.00  0.00    -0.248 NA
ATOM     32  C   UNL     1       6.790 -11.235  -2.372  1.00  0.00     0.031 C 
ATOM     33  C   UNL     1       9.405  -8.951  -7.380  1.00  0.00     0.029 A 
ATOM     34  C   UNL     1       8.665  -9.038  -6.208  1.00  0.00     0.049 A 
ATOM     35  H   UNL     1       7.603  -7.521  -5.207  1.00  0.00     0.167 HD
ATOM     36  C   UNL     1       7.738 -10.253  -4.226  1.00  0.00     0.074 A 
ATOM     37  C   UNL     1       7.571 -11.451  -3.420  1.00  0.00     0.031 C 
ATOM     38  C   UNL     1       8.444 -10.194  -5.379  1.00  0.00     0.037 A 
BRANCH  25  39
ATOM     39  C   UNL     1       8.659  -4.672  -8.191  1.00  0.00     0.064 A 
ATOM     40  C   UNL     1       9.594  -3.634  -8.030  1.00  0.00     0.173 A 
ATOM     41  C   UNL     1       8.132  -4.882  -9.471  1.00  0.00     0.173 A 
ATOM     42  F   UNL     1      10.114  -3.370  -6.821  1.00  0.00    -0.203 F 
ATOM     43  C   UNL     1       9.949  -2.814  -9.097  1.00  0.00     0.198 A 
ATOM     44  C   UNL     1       8.521  -4.087 -10.546  1.00  0.00     0.198 A 
ATOM     45  F   UNL     1       7.229  -5.852  -9.679  1.00  0.00    -0.203 F 
ATOM     46  F   UNL     1      10.781  -1.782  -8.899  1.00  0.00    -0.200 F 
ATOM     47  C   UNL     1       9.420  -3.048 -10.356  1.00  0.00     0.200 A 
ATOM     48  F   UNL     1       8.013  -4.317 -11.764  1.00  0.00    -0.200 F 
ATOM     49  F   UNL     1       9.768  -2.264 -11.386  1.00  0.00    -0.200 F 
ENDBRANCH  25  39
BRANCH  26  50
ATOM     50  C   UNL     1       5.302  -9.866  -0.199  1.00  0.00     0.064 A 
ATOM     51  C   UNL     1       6.101 -10.598   0.692  1.00  0.00     0.173 A 
ATOM     52  C   UNL     1       3.917  -9.874   0.028  1.00  0.00     0.173 A 
ATOM     53  F   UNL     1       7.434 -10.598   0.548  1.00  0.00    -0.203 F 
ATOM     54  C   UNL     1       5.538 -11.367   1.712  1.00  0.00     0.198 A 
ATOM     55  C   UNL     1       3.355 -10.626   1.063  1.00  0.00     0.198 A 
ATOM     56  F   UNL     1       3.103  -9.153  -0.756  1.00  0.00    -0.203 F 
ATOM     57  F   UNL     1       6.328 -12.104   2.506  1.00  0.00    -0.200 F 
ATOM     58  C   UNL     1       4.164 -11.388   1.891  1.00  0.00     0.200 A 
ATOM     59  F   UNL     1       2.028 -10.620   1.253  1.00  0.00    -0.200 F 
ATOM     60  F   UNL     1       3.623 -12.144   2.857  1.00  0.00    -0.200 F 
ENDBRANCH  26  50
BRANCH  38  61
ATOM     61  C   UNL     1       9.062 -11.473  -5.821  1.00  0.00     0.064 A 
ATOM     62  C   UNL     1       8.270 -12.534  -6.278  1.00  0.00     0.173 A 
ATOM     63  C   UNL     1      10.455 -11.620  -5.823  1.00  0.00     0.173 A 
ATOM     64  F   UNL     1       6.931 -12.434  -6.261  1.00  0.00    -0.203 F 
ATOM     65  C   UNL     1       8.854 -13.717  -6.698  1.00  0.00     0.198 A 
ATOM     66  C   UNL     1      11.037 -12.787  -6.295  1.00  0.00     0.198 A 
ATOM     67  F   UNL     1      11.245 -10.625  -5.391  1.00  0.00    -0.203 F 
ATOM     68  F   UNL     1       8.080 -14.747  -7.066  1.00  0.00    -0.200 F 
ATOM     69  C   UNL     1      10.237 -13.837  -6.722  1.00  0.00     0.200 A 
ATOM     70  F   UNL     1      12.372 -12.894  -6.340  1.00  0.00    -0.200 F 
ATOM     71  F   UNL     1      10.800 -14.973  -7.151  1.00  0.00    -0.200 F 
ENDBRANCH  38  61
ENDBRANCH  12  13
ENDBRANCH   5   7
ENDBRANCH   4   5
ENDBRANCH   3   4
ENDBRANCH   2   3
ENDBRANCH   1   2
BRANCH   1  72
ATOM     72  C   UNL     1       1.788  -1.073   2.433  1.00  0.00     0.342 C 
ATOM     73  O   UNL     1       0.829  -0.346   2.628  1.00  0.00    -0.246 OA
BRANCH  72  74
ATOM     74  C   UNL     1       1.683  -2.461   1.868  1.00  0.00     0.102 A 
ATOM     75  C   UNL     1       0.527  -2.625   1.049  1.00  0.00     0.019 A 
ATOM     76  C   UNL     1       2.683  -3.462   1.815  1.00  0.00     0.133 A 
ATOM     77  C   UNL     1       0.278  -3.799   0.339  1.00  0.00     0.001 A 
ATOM     78  C   UNL     1       2.306  -4.715   1.264  1.00  0.00     0.047 A 
ATOM     79  C   UNL     1       1.122  -4.879   0.525  1.00  0.00     0.004 A 
BRANCH  76  80
ATOM     80  O   UNL     1       4.060  -3.395   1.974  1.00  0.00    -0.492 OA
BRANCH  80  81
ATOM     81  C   UNL     1       5.044  -2.311   1.835  1.00  0.00     0.243 C 
BRANCH  81  82
ATOM     82  C   UNL     1       5.750  -1.516   0.553  1.00  0.00     0.152 C 
BRANCH  82  83
ATOM     83  S   UNL     1       5.187  -1.206  -1.496  1.00  0.00     0.056 S 
ATOM     84  O   UNL     1       5.066   0.285  -1.683  1.00  0.00    -0.254 OA
BRANCH  83  85
ATOM     85  C   UNL     1       3.278  -2.769  -2.292  1.00  0.00     0.042 A 
ATOM     86  C   UNL     1       2.183  -2.606  -3.314  1.00  0.00     0.018 A 
ATOM     87  C   UNL     1       3.129  -4.302  -1.986  1.00  0.00     0.057 A 
ATOM     88  C   UNL     1       1.516  -3.665  -4.036  1.00  0.00     0.004 A 
ATOM     89  C   UNL     1       2.486  -5.316  -2.705  1.00  0.00     0.124 A 
ATOM     90  C   UNL     1       1.737  -5.010  -3.792  1.00  0.00     0.039 A 
ATOM     91  F   UNL     1       2.647  -6.589  -2.315  1.00  0.00    -0.207 F 
ENDBRANCH  83  85
ENDBRANCH  82  83
ENDBRANCH  81  82
ENDBRANCH  80  81
ENDBRANCH  76  80
ENDBRANCH  72  74
ENDBRANCH   1  72
TORSDOF 16
