REMARK SMILES Cc1cc(S[C@@H](C)c2ccc(C(=O)OCCOC(=O)c3ccc(-c4c5nc(c(-c6c(F)c(F)c(F)c(F)c6F)c6ccc([nH]6)c(-c6c(F)c(F)c(F)c(F)c6F)c6nc(c(-c7c(F)c(F)c(F)c(F)c7F)c7ccc4[nH]7)C=C6)C=C5)cc3)o2)n(C)n1
REMARK SMILES IDX 15 1 14 2 12 3 13 4 11 5 8 6 9 7 83 8 10 9 6 10 7 11 5 12
REMARK SMILES IDX 4 13 1 14 2 15 3 16 86 17 84 18 85 19 16 20 17 21 18 22
REMARK SMILES IDX 19 23 20 24 21 25 82 26 22 27 81 28 23 29 24 30 25 31 75 32
REMARK SMILES IDX 26 33 80 34 74 35 76 36 27 37 79 38 73 39 72 40 28 42 60 43
REMARK SMILES IDX 40 44 59 45 41 46 44 47 58 48 77 49 42 50 43 51 57 53 78 54
REMARK SMILES IDX 45 55 29 56 30 57 38 58 31 59 32 60 36 61 39 62 33 63 34 64
REMARK SMILES IDX 37 65 35 66 61 67 62 68 70 69 63 70 64 71 68 72 71 73 65 74
REMARK SMILES IDX 66 75 69 76 67 77 46 78 47 79 55 80 48 81 49 82 53 83 56 84
REMARK SMILES IDX 50 85 51 86 54 87 52 88
REMARK H PARENT 76 41 44 52
REMARK Flexibility Score: inf
ROOT
ATOM      1  C   UNL     1      -3.059  -2.499  -5.871  1.00  0.00     0.275 C 
ENDROOT
BRANCH   1   2
ATOM      2  O   UNL     1      -2.537  -3.443  -4.915  1.00  0.00    -0.456 OA
BRANCH   2   3
ATOM      3  C   UNL     1      -1.361  -3.111  -4.306  1.00  0.00     0.374 C 
ATOM      4  O   UNL     1      -0.745  -2.071  -4.522  1.00  0.00    -0.242 OA
BRANCH   3   5
ATOM      5  C   UNL     1      -0.973  -4.149  -3.376  1.00  0.00     0.211 A 
ATOM      6  C   UNL     1       0.153  -4.955  -1.638  1.00  0.00     0.118 A 
ATOM      7  C   UNL     1      -0.688  -5.962  -2.070  1.00  0.00     0.048 A 
ATOM      8  O   UNL     1       0.015  -3.875  -2.468  1.00  0.00    -0.453 OA
ATOM      9  C   UNL     1      -1.414  -5.444  -3.173  1.00  0.00     0.058 A 
BRANCH   6  10
ATOM     10  C   UNL     1       1.107  -4.857  -0.472  1.00  0.00     0.116 C 
ATOM     11  C   UNL     1       0.417  -5.184   0.865  1.00  0.00     0.028 C 
BRANCH  10  12
ATOM     12  S   UNL     1       2.042  -3.265  -0.399  1.00  0.00    -0.096 SA
BRANCH  12  13
ATOM     13  C   UNL     1       0.844  -2.158   0.181  1.00  0.00     0.095 A 
ATOM     14  C   UNL     1      -2.385  -0.947   1.304  1.00  0.00     0.069 C 
ATOM     15  C   UNL     1      -0.973  -1.198   0.968  1.00  0.00     0.061 A 
ATOM     16  C   UNL     1      -0.524  -2.211   0.117  1.00  0.00     0.060 A 
ATOM     17  N   UNL     1       0.037  -0.447   1.424  1.00  0.00    -0.178 NA
ATOM     18  N   UNL     1       1.135  -0.994   0.844  1.00  0.00    -0.262 N 
ATOM     19  C   UNL     1       2.371  -0.244   0.834  1.00  0.00     0.175 C 
ENDBRANCH  12  13
ENDBRANCH  10  12
ENDBRANCH   6  10
ENDBRANCH   3   5
ENDBRANCH   2   3
ENDBRANCH   1   2
BRANCH   1  20
ATOM     20  C   UNL     1      -4.151  -1.611  -5.265  1.00  0.00     0.275 C 
BRANCH  20  21
ATOM     21  O   UNL     1      -3.594  -0.514  -4.513  1.00  0.00    -0.458 OA
BRANCH  21  22
ATOM     22  C   UNL     1      -3.507  -0.721  -3.181  1.00  0.00     0.338 C 
ATOM     23  O   UNL     1      -3.843  -1.722  -2.567  1.00  0.00    -0.246 OA
BRANCH  22  24
ATOM     24  C   UNL     1      -2.856   0.418  -2.514  1.00  0.00     0.060 A 
ATOM     25  C   UNL     1      -1.514   0.284  -2.200  1.00  0.00     0.016 A 
ATOM     26  C   UNL     1      -3.589   1.481  -1.980  1.00  0.00     0.016 A 
ATOM     27  C   UNL     1      -0.955   1.123  -1.237  1.00  0.00     0.010 A 
ATOM     28  C   UNL     1      -2.986   2.362  -1.055  1.00  0.00     0.010 A 
ATOM     29  C   UNL     1      -1.686   2.134  -0.579  1.00  0.00    -0.014 A 
BRANCH  29  30
ATOM     30  C   UNL     1      -1.098   2.773   0.669  1.00  0.00     0.031 A 
ATOM     31  C   UNL     1      -1.824   2.743   2.015  1.00  0.00     0.074 A 
ATOM     32  C   UNL     1       0.190   3.190   0.677  1.00  0.00     0.049 A 
ATOM     33  N   UNL     1      -1.359   3.000   3.222  1.00  0.00    -0.248 NA
ATOM     34  C   UNL     1      -3.243   2.350   2.026  1.00  0.00     0.031 C 
ATOM     35  C   UNL     1       1.062   3.252  -0.496  1.00  0.00     0.029 A 
ATOM     36  N   UNL     1       1.019   3.568   1.714  1.00  0.00    -0.354 N 
ATOM     37  C   UNL     1      -2.397   2.730   4.112  1.00  0.00     0.074 A 
ATOM     38  C   UNL     1      -3.528   2.314   3.319  1.00  0.00     0.031 C 
ATOM     39  C   UNL     1       2.316   3.514  -0.102  1.00  0.00     0.029 A 
ATOM     40  C   UNL     1       2.327   3.767   1.336  1.00  0.00     0.049 A 
ATOM     41  H   UNL     1       0.703   3.685   2.640  1.00  0.00     0.167 HD
ATOM     42  C   UNL     1      -2.434   2.830   5.465  1.00  0.00     0.037 A 
ATOM     43  C   UNL     1       3.418   4.136   2.041  1.00  0.00     0.037 A 
ATOM     44  C   UNL     1      -1.374   3.352   6.286  1.00  0.00     0.049 A 
ATOM     45  C   UNL     1       3.289   4.433   3.511  1.00  0.00     0.074 A 
ATOM     46  C   UNL     1      -1.393   3.637   7.642  1.00  0.00     0.029 A 
ATOM     47  N   UNL     1      -0.118   3.704   5.824  1.00  0.00    -0.354 N 
ATOM     48  N   UNL     1       2.282   4.219   4.319  1.00  0.00    -0.248 NA
ATOM     49  C   UNL     1       4.449   5.066   4.159  1.00  0.00     0.031 C 
ATOM     50  C   UNL     1      -0.184   4.254   7.979  1.00  0.00     0.029 A 
ATOM     51  C   UNL     1       0.623   4.266   6.854  1.00  0.00     0.049 A 
ATOM     52  H   UNL     1       0.202   3.576   4.902  1.00  0.00     0.167 HD
ATOM     53  C   UNL     1       2.682   4.691   5.563  1.00  0.00     0.074 A 
ATOM     54  C   UNL     1       4.043   5.157   5.417  1.00  0.00     0.031 C 
ATOM     55  C   UNL     1       1.972   4.749   6.717  1.00  0.00     0.037 A 
BRANCH  42  56
ATOM     56  C   UNL     1      -3.728   2.482   6.150  1.00  0.00     0.064 A 
ATOM     57  C   UNL     1      -4.124   1.155   6.377  1.00  0.00     0.173 A 
ATOM     58  C   UNL     1      -4.564   3.507   6.620  1.00  0.00     0.173 A 
ATOM     59  F   UNL     1      -3.370   0.138   5.935  1.00  0.00    -0.203 F 
ATOM     60  C   UNL     1      -5.317   0.870   7.041  1.00  0.00     0.198 A 
ATOM     61  C   UNL     1      -5.742   3.218   7.303  1.00  0.00     0.198 A 
ATOM     62  F   UNL     1      -4.228   4.791   6.430  1.00  0.00    -0.203 F 
ATOM     63  F   UNL     1      -5.696  -0.403   7.223  1.00  0.00    -0.200 F 
ATOM     64  C   UNL     1      -6.120   1.901   7.508  1.00  0.00     0.200 A 
ATOM     65  F   UNL     1      -6.510   4.216   7.761  1.00  0.00    -0.200 F 
ATOM     66  F   UNL     1      -7.264   1.625   8.151  1.00  0.00    -0.200 F 
ENDBRANCH  42  56
BRANCH  43  67
ATOM     67  C   UNL     1       4.729   4.328   1.353  1.00  0.00     0.064 A 
ATOM     68  C   UNL     1       5.866   3.593   1.721  1.00  0.00     0.173 A 
ATOM     69  C   UNL     1       4.883   5.285   0.337  1.00  0.00     0.173 A 
ATOM     70  F   UNL     1       5.793   2.694   2.714  1.00  0.00    -0.203 F 
ATOM     71  C   UNL     1       7.099   3.814   1.107  1.00  0.00     0.198 A 
ATOM     72  C   UNL     1       6.101   5.468  -0.311  1.00  0.00     0.198 A 
ATOM     73  F   UNL     1       3.840   6.040  -0.041  1.00  0.00    -0.203 F 
ATOM     74  F   UNL     1       8.183   3.144   1.523  1.00  0.00    -0.200 F 
ATOM     75  C   UNL     1       7.212   4.741   0.082  1.00  0.00     0.200 A 
ATOM     76  F   UNL     1       6.196   6.352  -1.314  1.00  0.00    -0.200 F 
ATOM     77  F   UNL     1       8.393   4.942  -0.518  1.00  0.00    -0.200 F 
ENDBRANCH  43  67
BRANCH  55  78
ATOM     78  C   UNL     1       2.652   5.334   7.923  1.00  0.00     0.064 A 
ATOM     79  C   UNL     1       2.998   6.693   7.990  1.00  0.00     0.173 A 
ATOM     80  C   UNL     1       2.954   4.530   9.034  1.00  0.00     0.173 A 
ATOM     81  F   UNL     1       2.739   7.508   6.956  1.00  0.00    -0.203 F 
ATOM     82  C   UNL     1       3.660   7.213   9.100  1.00  0.00     0.198 A 
ATOM     83  C   UNL     1       3.582   5.062  10.158  1.00  0.00     0.198 A 
ATOM     84  F   UNL     1       2.635   3.227   9.034  1.00  0.00    -0.203 F 
ATOM     85  F   UNL     1       4.041   8.498   9.109  1.00  0.00    -0.200 F 
ATOM     86  C   UNL     1       3.948   6.398  10.184  1.00  0.00     0.200 A 
ATOM     87  F   UNL     1       3.842   4.277  11.212  1.00  0.00    -0.200 F 
ATOM     88  F   UNL     1       4.589   6.899  11.249  1.00  0.00    -0.200 F 
ENDBRANCH  55  78
ENDBRANCH  29  30
ENDBRANCH  22  24
ENDBRANCH  21  22
ENDBRANCH  20  21
ENDBRANCH   1  20
TORSDOF 14
