REMARK SMILES O=C(OCCOC(=O)c1ccc(-c2c3nc(c(-c4c(F)c(F)c(F)c(F)c4F)c4ccc([nH]4)c(-c4c(F)c(F)c(F)c(F)c4F)c4nc(c(-c5c(F)c(F)c(F)c(F)c5F)c5ccc2[nH]5)C=C4)C=C3)cc1)c1ccc(C#CC#C[C@H]2C[C@@H](O)C2)cc1
REMARK SMILES IDX 4 1 3 2 2 3 1 4 72 5 73 6 86 7 74 8 85 9 75 10 76 11 77 12
REMARK SMILES IDX 78 13 79 14 80 15 84 16 81 17 82 18 83 19 5 21 6 22 7 23
REMARK SMILES IDX 8 24 9 25 10 26 71 27 11 28 70 29 12 30 13 31 14 32 64 33
REMARK SMILES IDX 15 34 69 35 63 36 65 37 16 38 68 39 62 40 61 41 17 43 49 44
REMARK SMILES IDX 29 45 48 46 30 47 33 48 47 49 66 50 31 51 32 52 46 54 67 55
REMARK SMILES IDX 34 56 18 57 19 58 27 59 20 60 21 61 25 62 28 63 22 64 23 65
REMARK SMILES IDX 26 66 24 67 50 68 51 69 59 70 52 71 53 72 57 73 60 74 54 75
REMARK SMILES IDX 55 76 58 77 56 78 35 79 36 80 44 81 37 82 38 83 42 84 45 85
REMARK SMILES IDX 39 86 40 87 43 88 41 89
REMARK H PARENT 83 20 65 42 33 53
REMARK Flexibility Score: inf
ROOT
ATOM      1  C   UNL     1       4.260  -1.351  -0.184  1.00  0.00     0.275 C 
ENDROOT
BRANCH   1   2
ATOM      2  O   UNL     1       3.078  -0.903   0.498  1.00  0.00    -0.458 OA
BRANCH   2   3
ATOM      3  C   UNL     1       2.750   0.327   0.951  1.00  0.00     0.338 C 
ATOM      4  O   UNL     1       1.660   0.459   1.511  1.00  0.00    -0.246 OA
BRANCH   3   5
ATOM      5  C   UNL     1       3.582   1.571   0.771  1.00  0.00     0.060 A 
ATOM      6  C   UNL     1       4.738   1.708  -0.003  1.00  0.00     0.017 A 
ATOM      7  C   UNL     1       3.067   2.742   1.360  1.00  0.00     0.017 A 
ATOM      8  C   UNL     1       5.282   2.961  -0.292  1.00  0.00     0.018 A 
ATOM      9  C   UNL     1       3.645   3.993   1.123  1.00  0.00     0.018 A 
ATOM     10  C   UNL     1       4.714   4.106   0.245  1.00  0.00     0.026 A 
BRANCH  10  11
ATOM     11  C   UNL     1       5.217   5.377  -0.151  1.00  0.00    -0.053 C 
ATOM     12  C   UNL     1       5.699   6.402  -0.538  1.00  0.00    -0.010 C 
BRANCH  12  13
ATOM     13  C   UNL     1       6.419   7.656  -1.017  1.00  0.00    -0.015 C 
ATOM     14  C   UNL     1       7.080   8.607  -1.319  1.00  0.00    -0.085 C 
BRANCH  14  15
ATOM     15  C   UNL     1       7.949   9.725  -1.586  1.00  0.00     0.070 C 
ATOM     16  C   UNL     1       7.343  11.128  -1.349  1.00  0.00     0.048 C 
ATOM     17  C   UNL     1       8.942  10.053  -0.442  1.00  0.00     0.048 C 
ATOM     18  C   UNL     1       8.715  11.545  -0.769  1.00  0.00     0.116 C 
BRANCH  18  19
ATOM     19  O   UNL     1       8.695  12.452   0.346  1.00  0.00    -0.393 OA
ATOM     20  H   UNL     1       8.086  12.118   1.023  1.00  0.00     0.210 HD
ENDBRANCH  18  19
ENDBRANCH  14  15
ENDBRANCH  12  13
ENDBRANCH  10  11
ENDBRANCH   3   5
ENDBRANCH   2   3
ENDBRANCH   1   2
BRANCH   1  21
ATOM     21  C   UNL     1       4.144  -1.220  -1.714  1.00  0.00     0.275 C 
BRANCH  21  22
ATOM     22  O   UNL     1       3.726   0.096  -2.145  1.00  0.00    -0.458 OA
BRANCH  22  23
ATOM     23  C   UNL     1       2.387   0.282  -2.300  1.00  0.00     0.338 C 
ATOM     24  O   UNL     1       1.536  -0.590  -2.263  1.00  0.00    -0.246 OA
BRANCH  23  25
ATOM     25  C   UNL     1       2.064   1.739  -2.360  1.00  0.00     0.060 A 
ATOM     26  C   UNL     1       0.913   2.188  -1.700  1.00  0.00     0.016 A 
ATOM     27  C   UNL     1       2.868   2.669  -3.027  1.00  0.00     0.016 A 
ATOM     28  C   UNL     1       0.555   3.547  -1.720  1.00  0.00     0.010 A 
ATOM     29  C   UNL     1       2.513   4.033  -3.035  1.00  0.00     0.010 A 
ATOM     30  C   UNL     1       1.341   4.490  -2.400  1.00  0.00    -0.014 A 
BRANCH  30  31
ATOM     31  C   UNL     1       0.892   5.918  -2.522  1.00  0.00     0.031 A 
ATOM     32  C   UNL     1       0.383   6.434  -3.844  1.00  0.00     0.074 A 
ATOM     33  C   UNL     1       0.901   6.771  -1.475  1.00  0.00     0.049 A 
ATOM     34  N   UNL     1      -0.063   7.628  -4.155  1.00  0.00    -0.248 NA
ATOM     35  C   UNL     1       0.361   5.478  -4.959  1.00  0.00     0.031 C 
ATOM     36  C   UNL     1       1.305   6.423  -0.121  1.00  0.00     0.029 A 
ATOM     37  N   UNL     1       0.568   8.106  -1.383  1.00  0.00    -0.354 N 
ATOM     38  C   UNL     1      -0.431   7.562  -5.492  1.00  0.00     0.074 A 
ATOM     39  C   UNL     1      -0.106   6.226  -5.949  1.00  0.00     0.031 C 
ATOM     40  C   UNL     1       1.242   7.514   0.662  1.00  0.00     0.029 A 
ATOM     41  C   UNL     1       0.781   8.649  -0.135  1.00  0.00     0.049 A 
ATOM     42  H   UNL     1       0.211   8.624  -2.140  1.00  0.00     0.167 HD
ATOM     43  C   UNL     1      -1.007   8.514  -6.267  1.00  0.00     0.037 A 
ATOM     44  C   UNL     1       0.625   9.910   0.324  1.00  0.00     0.037 A 
ATOM     45  C   UNL     1      -1.335   9.849  -5.833  1.00  0.00     0.049 A 
ATOM     46  C   UNL     1       0.074  10.979  -0.590  1.00  0.00     0.074 A 
ATOM     47  C   UNL     1      -1.950  10.859  -6.555  1.00  0.00     0.029 A 
ATOM     48  N   UNL     1      -1.062  10.370  -4.578  1.00  0.00    -0.354 N 
ATOM     49  N   UNL     1      -0.327  10.881  -1.833  1.00  0.00    -0.248 NA
ATOM     50  C   UNL     1      -0.066  12.333  -0.029  1.00  0.00     0.031 C 
ATOM     51  C   UNL     1      -1.973  12.013  -5.768  1.00  0.00     0.029 A 
ATOM     52  C   UNL     1      -1.455  11.701  -4.524  1.00  0.00     0.049 A 
ATOM     53  H   UNL     1      -0.650   9.872  -3.836  1.00  0.00     0.167 HD
ATOM     54  C   UNL     1      -0.806  12.138  -2.183  1.00  0.00     0.074 A 
ATOM     55  C   UNL     1      -0.661  12.982  -1.019  1.00  0.00     0.031 C 
ATOM     56  C   UNL     1      -1.324  12.549  -3.367  1.00  0.00     0.037 A 
BRANCH  43  57
ATOM     57  C   UNL     1      -1.312   8.157  -7.694  1.00  0.00     0.064 A 
ATOM     58  C   UNL     1      -2.326   7.245  -8.027  1.00  0.00     0.173 A 
ATOM     59  C   UNL     1      -0.628   8.789  -8.744  1.00  0.00     0.173 A 
ATOM     60  F   UNL     1      -3.007   6.609  -7.063  1.00  0.00    -0.203 F 
ATOM     61  C   UNL     1      -2.623   6.960  -9.358  1.00  0.00     0.198 A 
ATOM     62  C   UNL     1      -0.953   8.530 -10.072  1.00  0.00     0.198 A 
ATOM     63  F   UNL     1       0.342   9.678  -8.480  1.00  0.00    -0.203 F 
ATOM     64  F   UNL     1      -3.563   6.052  -9.653  1.00  0.00    -0.200 F 
ATOM     65  C   UNL     1      -1.944   7.610 -10.378  1.00  0.00     0.200 A 
ATOM     66  F   UNL     1      -0.311   9.176 -11.055  1.00  0.00    -0.200 F 
ATOM     67  F   UNL     1      -2.243   7.347 -11.657  1.00  0.00    -0.200 F 
ENDBRANCH  43  57
BRANCH  44  68
ATOM     68  C   UNL     1       0.995  10.259   1.727  1.00  0.00     0.064 A 
ATOM     69  C   UNL     1       0.032  10.695   2.651  1.00  0.00     0.173 A 
ATOM     70  C   UNL     1       2.333  10.242   2.149  1.00  0.00     0.173 A 
ATOM     71  F   UNL     1      -1.259  10.762   2.291  1.00  0.00    -0.203 F 
ATOM     72  C   UNL     1       0.396  11.137   3.922  1.00  0.00     0.198 A 
ATOM     73  C   UNL     1       2.692  10.648   3.434  1.00  0.00     0.198 A 
ATOM     74  F   UNL     1       3.299   9.845   1.308  1.00  0.00    -0.203 F 
ATOM     75  F   UNL     1      -0.536  11.624   4.752  1.00  0.00    -0.200 F 
ATOM     76  C   UNL     1       1.725  11.110   4.314  1.00  0.00     0.200 A 
ATOM     77  F   UNL     1       3.977  10.612   3.811  1.00  0.00    -0.200 F 
ATOM     78  F   UNL     1       2.077  11.545   5.532  1.00  0.00    -0.200 F 
ENDBRANCH  44  68
BRANCH  56  79
ATOM     79  C   UNL     1      -1.824  13.967  -3.464  1.00  0.00     0.064 A 
ATOM     80  C   UNL     1      -0.958  15.069  -3.411  1.00  0.00     0.173 A 
ATOM     81  C   UNL     1      -3.192  14.225  -3.655  1.00  0.00     0.173 A 
ATOM     82  F   UNL     1       0.358  14.886  -3.220  1.00  0.00    -0.203 F 
ATOM     83  C   UNL     1      -1.443  16.372  -3.509  1.00  0.00     0.198 A 
ATOM     84  C   UNL     1      -3.669  15.526  -3.794  1.00  0.00     0.198 A 
ATOM     85  F   UNL     1      -4.069  13.212  -3.724  1.00  0.00    -0.203 F 
ATOM     86  F   UNL     1      -0.602  17.409  -3.395  1.00  0.00    -0.200 F 
ATOM     87  C   UNL     1      -2.796  16.599  -3.709  1.00  0.00     0.200 A 
ATOM     88  F   UNL     1      -4.974  15.741  -4.009  1.00  0.00    -0.200 F 
ATOM     89  F   UNL     1      -3.260  17.852  -3.815  1.00  0.00    -0.200 F 
ENDBRANCH  56  79
ENDBRANCH  30  31
ENDBRANCH  23  25
ENDBRANCH  22  23
ENDBRANCH  21  22
ENDBRANCH   1  21
TORSDOF 15
