REMARK SMILES O=C(OCCOC(=O)[C@@H](Cc1cccc(F)c1)[C@H]1CCCCC[C@@H]1O)c1ccc(-c2c3nc(c(-c4c(F)c(F)c(F)c(F)c4F)c4ccc([nH]4)c(-c4c(F)c(F)c(F)c(F)c4F)c4nc(c(-c5c(F)c(F)c(F)c(F)c5F)c5ccc2[nH]5)C=C4)C=C3)cc1
REMARK SMILES IDX 6 1 5 2 4 3 3 4 2 5 1 6 26 7 27 8 88 9 28 10 87 11 29 12
REMARK SMILES IDX 30 13 31 14 81 15 32 16 86 17 80 18 82 19 33 20 85 21 79 22
REMARK SMILES IDX 78 23 34 25 66 26 46 27 65 28 47 29 50 30 64 31 83 32 48 33
REMARK SMILES IDX 49 34 63 36 84 37 51 38 35 39 36 40 44 41 37 42 38 43 42 44
REMARK SMILES IDX 45 45 39 46 40 47 43 48 41 49 67 50 68 51 76 52 69 53 70 54
REMARK SMILES IDX 74 55 77 56 71 57 72 58 75 59 73 60 52 61 53 62 61 63 54 64
REMARK SMILES IDX 55 65 59 66 62 67 56 68 57 69 60 70 58 71 7 72 8 73 9 74
REMARK SMILES IDX 10 75 11 76 12 77 17 78 13 79 15 80 14 81 16 82 18 83 19 84
REMARK SMILES IDX 20 85 24 87 23 88 22 89 21 90 25 92
REMARK H PARENT 82 24 50 35 25 93
REMARK Flexibility Score: 90.00
ROOT
ATOM      1  O   UNL     1       3.253  -1.240  -2.279  1.00  0.00    -0.462 OA
ENDROOT
BRANCH   1   2
ATOM      2  C   UNL     1       3.498  -2.451  -1.533  1.00  0.00     0.274 C 
BRANCH   2   3
ATOM      3  C   UNL     1       4.203  -2.172  -0.202  1.00  0.00     0.275 C 
BRANCH   3   4
ATOM      4  O   UNL     1       3.313  -1.596   0.755  1.00  0.00    -0.458 OA
BRANCH   4   5
ATOM      5  C   UNL     1       3.109  -0.294   1.008  1.00  0.00     0.338 C 
ATOM      6  O   UNL     1       2.380   0.022   1.948  1.00  0.00    -0.246 OA
BRANCH   5   7
ATOM      7  C   UNL     1       3.647   0.828   0.181  1.00  0.00     0.060 A 
ATOM      8  C   UNL     1       4.565   0.816  -1.428  1.00  0.00     0.016 A 
ATOM      9  C   UNL     1       3.123   2.421   0.871  1.00  0.00     0.016 A 
ATOM     10  C   UNL     1       4.938   2.396  -2.275  1.00  0.00     0.010 A 
ATOM     11  C   UNL     1       3.346   3.936  -0.086  1.00  0.00     0.010 A 
ATOM     12  C   UNL     1       4.334   3.985  -1.622  1.00  0.00    -0.014 A 
BRANCH  12  13
ATOM     13  C   UNL     1       4.773   5.312  -2.238  1.00  0.00     0.031 A 
ATOM     14  C   UNL     1       5.172   6.520  -1.401  1.00  0.00     0.074 A 
ATOM     15  C   UNL     1       4.975   5.448  -3.565  1.00  0.00     0.049 A 
ATOM     16  N   UNL     1       6.142   7.375  -1.639  1.00  0.00    -0.248 NA
ATOM     17  C   UNL     1       4.517   6.779  -0.117  1.00  0.00     0.031 C 
ATOM     18  C   UNL     1       4.733   4.434  -4.573  1.00  0.00     0.029 A 
ATOM     19  N   UNL     1       5.419   6.521  -4.306  1.00  0.00    -0.354 N 
ATOM     20  C   UNL     1       6.350   8.055  -0.447  1.00  0.00     0.074 A 
ATOM     21  C   UNL     1       5.376   7.578   0.498  1.00  0.00     0.031 C 
ATOM     22  C   UNL     1       4.962   4.925  -5.794  1.00  0.00     0.029 A 
ATOM     23  C   UNL     1       5.388   6.305  -5.662  1.00  0.00     0.049 A 
ATOM     24  H   UNL     1       5.729   7.363  -3.901  1.00  0.00     0.167 HD
ATOM     25  C   UNL     1       7.216   9.055  -0.167  1.00  0.00     0.037 A 
ATOM     26  C   UNL     1       5.663   7.114  -6.700  1.00  0.00     0.037 A 
ATOM     27  C   UNL     1       7.771   9.895  -1.186  1.00  0.00     0.049 A 
ATOM     28  C   UNL     1       6.285   8.442  -6.413  1.00  0.00     0.074 A 
ATOM     29  C   UNL     1       8.463  11.082  -1.044  1.00  0.00     0.029 A 
ATOM     30  N   UNL     1       7.539   9.717  -2.543  1.00  0.00    -0.354 N 
ATOM     31  N   UNL     1       6.666   8.925  -5.256  1.00  0.00    -0.248 NA
ATOM     32  C   UNL     1       6.554   9.320  -7.556  1.00  0.00     0.031 C 
ATOM     33  C   UNL     1       8.526  11.688  -2.304  1.00  0.00     0.029 A 
ATOM     34  C   UNL     1       7.968  10.830  -3.241  1.00  0.00     0.049 A 
ATOM     35  H   UNL     1       7.130   8.918  -2.947  1.00  0.00     0.167 HD
ATOM     36  C   UNL     1       7.254  10.148  -5.528  1.00  0.00     0.074 A 
ATOM     37  C   UNL     1       7.164  10.340  -6.963  1.00  0.00     0.031 C 
ATOM     38  C   UNL     1       7.838  11.015  -4.665  1.00  0.00     0.037 A 
BRANCH  25  39
ATOM     39  C   UNL     1       7.447   9.373   1.280  1.00  0.00     0.064 A 
ATOM     40  C   UNL     1       6.831  10.466   1.905  1.00  0.00     0.173 A 
ATOM     41  C   UNL     1       8.286   8.558   2.060  1.00  0.00     0.173 A 
ATOM     42  F   UNL     1       6.001  11.258   1.212  1.00  0.00    -0.203 F 
ATOM     43  C   UNL     1       7.046  10.733   3.256  1.00  0.00     0.198 A 
ATOM     44  C   UNL     1       8.495   8.826   3.412  1.00  0.00     0.198 A 
ATOM     45  F   UNL     1       8.883   7.488   1.514  1.00  0.00    -0.203 F 
ATOM     46  F   UNL     1       6.435  11.776   3.836  1.00  0.00    -0.200 F 
ATOM     47  C   UNL     1       7.875   9.913   4.008  1.00  0.00     0.200 A 
ATOM     48  F   UNL     1       9.282   8.023   4.141  1.00  0.00    -0.200 F 
ATOM     49  F   UNL     1       8.064  10.163   5.312  1.00  0.00    -0.200 F 
ENDBRANCH  25  39
BRANCH  26  50
ATOM     50  C   UNL     1       5.345   6.633  -8.071  1.00  0.00     0.064 A 
ATOM     51  C   UNL     1       4.006   6.420  -8.451  1.00  0.00     0.173 A 
ATOM     52  C   UNL     1       6.344   6.243  -8.969  1.00  0.00     0.173 A 
ATOM     53  F   UNL     1       3.010   6.758  -7.618  1.00  0.00    -0.203 F 
ATOM     54  C   UNL     1       3.685   5.801  -9.657  1.00  0.00     0.198 A 
ATOM     55  C   UNL     1       6.020   5.642 -10.186  1.00  0.00     0.198 A 
ATOM     56  F   UNL     1       7.634   6.426  -8.655  1.00  0.00    -0.203 F 
ATOM     57  F   UNL     1       2.403   5.558  -9.962  1.00  0.00    -0.200 F 
ATOM     58  C   UNL     1       4.693   5.409 -10.523  1.00  0.00     0.200 A 
ATOM     59  F   UNL     1       6.994   5.268 -11.026  1.00  0.00    -0.200 F 
ATOM     60  F   UNL     1       4.387   4.797 -11.675  1.00  0.00    -0.200 F 
ENDBRANCH  26  50
BRANCH  38  61
ATOM     61  C   UNL     1       8.422  12.269  -5.232  1.00  0.00     0.064 A 
ATOM     62  C   UNL     1       9.812  12.455  -5.231  1.00  0.00     0.173 A 
ATOM     63  C   UNL     1       7.609  13.329  -5.655  1.00  0.00     0.173 A 
ATOM     64  F   UNL     1      10.625  11.469  -4.824  1.00  0.00    -0.203 F 
ATOM     65  C   UNL     1      10.367  13.673  -5.603  1.00  0.00     0.198 A 
ATOM     66  C   UNL     1       8.170  14.536  -6.055  1.00  0.00     0.198 A 
ATOM     67  F   UNL     1       6.275  13.189  -5.679  1.00  0.00    -0.203 F 
ATOM     68  F   UNL     1      11.694  13.847  -5.544  1.00  0.00    -0.200 F 
ATOM     69  C   UNL     1       9.546  14.712  -6.015  1.00  0.00     0.200 A 
ATOM     70  F   UNL     1       7.379  15.535  -6.470  1.00  0.00    -0.200 F 
ATOM     71  F   UNL     1      10.082  15.888  -6.370  1.00  0.00    -0.200 F 
ENDBRANCH  38  61
ENDBRANCH  12  13
ENDBRANCH   5   7
ENDBRANCH   4   5
ENDBRANCH   3   4
ENDBRANCH   2   3
ENDBRANCH   1   2
BRANCH   1  72
ATOM     72  C   UNL     1       2.186  -0.475  -1.922  1.00  0.00     0.309 C 
ATOM     73  O   UNL     1       1.245  -0.879  -1.253  1.00  0.00    -0.252 OA
BRANCH  72  74
ATOM     74  C   UNL     1       2.337   1.002  -2.376  1.00  0.00     0.109 C 
BRANCH  74  75
ATOM     75  C   UNL     1       3.160   2.220  -1.234  1.00  0.00     0.051 C 
BRANCH  75  76
ATOM     76  C   UNL     1       5.011   2.458  -0.164  1.00  0.00    -0.044 A 
ATOM     77  C   UNL     1       5.720   3.681   0.327  1.00  0.00     0.004 A 
ATOM     78  C   UNL     1       6.100   1.429   0.128  1.00  0.00     0.043 A 
ATOM     79  C   UNL     1       7.124   3.926   0.282  1.00  0.00     0.003 A 
ATOM     80  C   UNL     1       7.492   1.647   0.084  1.00  0.00     0.123 A 
ATOM     81  C   UNL     1       8.008   2.910   0.019  1.00  0.00     0.039 A 
ATOM     82  F   UNL     1       8.311   0.588   0.034  1.00  0.00    -0.207 F 
ENDBRANCH  75  76
ENDBRANCH  74  75
BRANCH  74  83
ATOM     83  C   UNL     1       2.501   1.194  -3.939  1.00  0.00     0.032 C 
BRANCH  83  84
ATOM     84  C   UNL     1       1.947   0.031  -4.813  1.00  0.00     0.007 C 
BRANCH  84  85
ATOM     85  C   UNL     1       0.454  -0.263  -4.659  1.00  0.00     0.000 CG0
ATOM     86  G   UNL     1      -0.464   0.497  -5.611  1.00  0.00     0.000 G0
ENDBRANCH  84  85
ENDBRANCH  83  84
BRANCH  83  87
ATOM     87  C   UNL     1       1.931   2.543  -4.462  1.00  0.00     0.118 C 
BRANCH  87  88
ATOM     88  C   UNL     1       0.409   2.691  -4.582  1.00  0.00     0.032 C 
BRANCH  88  89
ATOM     89  C   UNL     1      -0.203   1.986  -5.790  1.00  0.00     0.003 C 
BRANCH  89  90
ATOM     90  C   UNL     1      -0.464   0.497  -5.611  1.00  0.00     0.000 CG0
ATOM     91  G   UNL     1       0.454  -0.263  -4.659  1.00  0.00     0.000 G0
ENDBRANCH  89  90
ENDBRANCH  88  89
ENDBRANCH  87  88
BRANCH  87  92
ATOM     92  O   UNL     1       2.515   2.791  -5.749  1.00  0.00    -0.393 OA
ATOM     93  H   UNL     1       2.228   2.104  -6.372  1.00  0.00     0.210 HD
ENDBRANCH  87  92
ENDBRANCH  83  87
ENDBRANCH  74  83
ENDBRANCH  72  74
ENDBRANCH   1  72
TORSDOF 15
