REMARK SMILES O=C(OCCOC(=O)C1(Cc2cc(F)cc(Br)c2)CCCCCC1)c1ccc(-c2c3nc(c(-c4c(F)c(F)c(F)c(F)c4F)c4ccc([nH]4)c(-c4c(F)c(F)c(F)c(F)c4F)c4nc(c(-c5c(F)c(F)c(F)c(F)c5F)c5ccc2[nH]5)C=C4)C=C3)cc1
REMARK SMILES IDX 5 1 4 2 3 3 2 4 1 5 25 6 26 7 87 8 27 9 86 10 28 11 29 12
REMARK SMILES IDX 30 13 80 14 31 15 85 16 79 17 81 18 32 19 84 20 78 21 77 22
REMARK SMILES IDX 33 24 65 25 45 26 64 27 46 28 49 29 63 30 82 31 47 32 48 33
REMARK SMILES IDX 62 35 83 36 50 37 34 38 35 39 43 40 36 41 37 42 41 43 44 44
REMARK SMILES IDX 38 45 39 46 42 47 40 48 66 49 67 50 75 51 68 52 69 53 73 54
REMARK SMILES IDX 76 55 70 56 71 57 74 58 72 59 51 60 52 61 60 62 53 63 54 64
REMARK SMILES IDX 58 65 61 66 55 67 56 68 59 69 57 70 6 71 7 72 8 73 9 74
REMARK SMILES IDX 10 75 11 76 12 77 18 78 13 79 16 80 14 81 15 82 17 83 19 84
REMARK SMILES IDX 20 85 21 86 24 88 23 89 22 90
REMARK H PARENT 81 23 49 34
REMARK Flexibility Score: 100.00
ROOT
ATOM      1  C   UNL     1       3.857  -1.400   0.735  1.00  0.00     0.274 C 
ENDROOT
BRANCH   1   2
ATOM      2  C   UNL     1       4.036  -0.042   1.401  1.00  0.00     0.275 C 
BRANCH   2   3
ATOM      3  O   UNL     1       2.845   0.772   1.250  1.00  0.00    -0.458 OA
BRANCH   3   4
ATOM      4  C   UNL     1       2.551   1.881   0.526  1.00  0.00     0.338 C 
ATOM      5  O   UNL     1       1.585   2.554   0.887  1.00  0.00    -0.246 OA
BRANCH   4   6
ATOM      6  C   UNL     1       3.177   2.262  -0.791  1.00  0.00     0.060 A 
ATOM      7  C   UNL     1       4.456   1.947  -1.216  1.00  0.00     0.016 A 
ATOM      8  C   UNL     1       2.382   2.978  -1.721  1.00  0.00     0.016 A 
ATOM      9  C   UNL     1       4.826   2.144  -2.570  1.00  0.00     0.010 A 
ATOM     10  C   UNL     1       2.764   3.150  -3.087  1.00  0.00     0.010 A 
ATOM     11  C   UNL     1       3.954   2.596  -3.578  1.00  0.00    -0.014 A 
BRANCH  11  12
ATOM     12  C   UNL     1       4.488   2.730  -5.000  1.00  0.00     0.031 A 
ATOM     13  C   UNL     1       5.318   3.942  -5.218  1.00  0.00     0.074 A 
ATOM     14  C   UNL     1       4.471   1.835  -6.030  1.00  0.00     0.049 A 
ATOM     15  N   UNL     1       6.080   4.253  -6.228  1.00  0.00    -0.248 NA
ATOM     16  C   UNL     1       5.295   4.920  -4.123  1.00  0.00     0.031 C 
ATOM     17  C   UNL     1       3.754   0.586  -6.038  1.00  0.00     0.029 A 
ATOM     18  N   UNL     1       5.136   1.772  -7.255  1.00  0.00    -0.354 N 
ATOM     19  C   UNL     1       6.659   5.450  -5.872  1.00  0.00     0.074 A 
ATOM     20  C   UNL     1       6.135   5.825  -4.577  1.00  0.00     0.031 C 
ATOM     21  C   UNL     1       4.078  -0.178  -7.093  1.00  0.00     0.029 A 
ATOM     22  C   UNL     1       4.988   0.568  -7.943  1.00  0.00     0.049 A 
ATOM     23  H   UNL     1       5.670   2.521  -7.607  1.00  0.00     0.167 HD
ATOM     24  C   UNL     1       7.552   6.189  -6.557  1.00  0.00     0.037 A 
ATOM     25  C   UNL     1       5.498   0.095  -9.110  1.00  0.00     0.037 A 
ATOM     26  C   UNL     1       8.018   5.902  -7.877  1.00  0.00     0.049 A 
ATOM     27  C   UNL     1       6.354   1.022  -9.934  1.00  0.00     0.074 A 
ATOM     28  C   UNL     1       8.808   6.694  -8.684  1.00  0.00     0.029 A 
ATOM     29  N   UNL     1       7.715   4.758  -8.597  1.00  0.00    -0.354 N 
ATOM     30  N   UNL     1       6.856   2.181  -9.596  1.00  0.00    -0.248 NA
ATOM     31  C   UNL     1       6.665   0.615 -11.316  1.00  0.00     0.031 C 
ATOM     32  C   UNL     1       8.934   6.059  -9.922  1.00  0.00     0.029 A 
ATOM     33  C   UNL     1       8.277   4.841  -9.861  1.00  0.00     0.049 A 
ATOM     34  H   UNL     1       7.183   4.000  -8.261  1.00  0.00     0.167 HD
ATOM     35  C   UNL     1       7.528   2.647 -10.717  1.00  0.00     0.074 A 
ATOM     36  C   UNL     1       7.411   1.628 -11.736  1.00  0.00     0.031 C 
ATOM     37  C   UNL     1       8.162   3.831 -10.880  1.00  0.00     0.037 A 
BRANCH  24  38
ATOM     38  C   UNL     1       7.953   7.449  -5.875  1.00  0.00     0.064 A 
ATOM     39  C   UNL     1       8.784   7.428  -4.744  1.00  0.00     0.173 A 
ATOM     40  C   UNL     1       7.343   8.653  -6.244  1.00  0.00     0.173 A 
ATOM     41  F   UNL     1       9.315   6.272  -4.316  1.00  0.00    -0.203 F 
ATOM     42  C   UNL     1       8.952   8.573  -3.977  1.00  0.00     0.198 A 
ATOM     43  C   UNL     1       7.542   9.802  -5.492  1.00  0.00     0.198 A 
ATOM     44  F   UNL     1       6.504   8.694  -7.290  1.00  0.00    -0.203 F 
ATOM     45  F   UNL     1       9.656   8.515  -2.838  1.00  0.00    -0.200 F 
ATOM     46  C   UNL     1       8.333   9.757  -4.352  1.00  0.00     0.200 A 
ATOM     47  F   UNL     1       6.928  10.940  -5.841  1.00  0.00    -0.200 F 
ATOM     48  F   UNL     1       8.468  10.852  -3.591  1.00  0.00    -0.200 F 
ENDBRANCH  24  38
BRANCH  25  49
ATOM     49  C   UNL     1       5.170  -1.276  -9.652  1.00  0.00     0.064 A 
ATOM     50  C   UNL     1       6.174  -2.208  -9.983  1.00  0.00     0.173 A 
ATOM     51  C   UNL     1       3.849  -1.654  -9.944  1.00  0.00     0.173 A 
ATOM     52  F   UNL     1       7.465  -1.903  -9.784  1.00  0.00    -0.203 F 
ATOM     53  C   UNL     1       5.870  -3.438 -10.583  1.00  0.00     0.198 A 
ATOM     54  C   UNL     1       3.543  -2.899 -10.501  1.00  0.00     0.198 A 
ATOM     55  F   UNL     1       2.840  -0.807  -9.699  1.00  0.00    -0.203 F 
ATOM     56  F   UNL     1       6.856  -4.270 -10.947  1.00  0.00    -0.200 F 
ATOM     57  C   UNL     1       4.553  -3.786 -10.831  1.00  0.00     0.200 A 
ATOM     58  F   UNL     1       2.264  -3.229 -10.731  1.00  0.00    -0.200 F 
ATOM     59  F   UNL     1       4.259  -4.964 -11.400  1.00  0.00    -0.200 F 
ENDBRANCH  25  49
BRANCH  37  60
ATOM     60  C   UNL     1       8.794   4.114 -12.210  1.00  0.00     0.064 A 
ATOM     61  C   UNL     1       8.021   4.401 -13.344  1.00  0.00     0.173 A 
ATOM     62  C   UNL     1      10.189   4.207 -12.322  1.00  0.00     0.173 A 
ATOM     63  F   UNL     1       6.683   4.311 -13.292  1.00  0.00    -0.203 F 
ATOM     64  C   UNL     1       8.624   4.770 -14.543  1.00  0.00     0.198 A 
ATOM     65  C   UNL     1      10.786   4.607 -13.512  1.00  0.00     0.198 A 
ATOM     66  F   UNL     1      10.971   3.946 -11.263  1.00  0.00    -0.203 F 
ATOM     67  F   UNL     1       7.869   5.018 -15.622  1.00  0.00    -0.200 F 
ATOM     68  C   UNL     1      10.004   4.888 -14.622  1.00  0.00     0.200 A 
ATOM     69  F   UNL     1      12.118   4.739 -13.580  1.00  0.00    -0.200 F 
ATOM     70  F   UNL     1      10.580   5.274 -15.768  1.00  0.00    -0.200 F 
ENDBRANCH  37  60
ENDBRANCH  11  12
ENDBRANCH   4   6
ENDBRANCH   3   4
ENDBRANCH   2   3
ENDBRANCH   1   2
BRANCH   1  71
ATOM     71  O   UNL     1       3.648  -1.150  -0.660  1.00  0.00    -0.462 OA
BRANCH  71  72
ATOM     72  C   UNL     1       2.789  -1.960  -1.337  1.00  0.00     0.312 C 
ATOM     73  O   UNL     1       2.170  -2.875  -0.844  1.00  0.00    -0.252 OA
BRANCH  72  74
ATOM     74  C   UNL     1       2.695  -1.487  -2.796  1.00  0.00     0.072 C 
BRANCH  74  75
ATOM     75  C   UNL     1       4.195  -1.613  -3.463  1.00  0.00     0.054 C 
BRANCH  75  76
ATOM     76  C   UNL     1       5.569  -0.975  -3.078  1.00  0.00    -0.043 A 
ATOM     77  C   UNL     1       6.200  -1.081  -1.833  1.00  0.00     0.043 A 
ATOM     78  C   UNL     1       6.362  -0.329  -4.062  1.00  0.00     0.019 A 
ATOM     79  C   UNL     1       7.375  -0.363  -1.518  1.00  0.00     0.124 A 
ATOM     80  C   UNL     1       7.559   0.364  -3.758  1.00  0.00     0.021 A 
ATOM     81  F   UNL     1       7.830  -0.376  -0.257  1.00  0.00    -0.207 F 
ATOM     82  C   UNL     1       8.043   0.397  -2.461  1.00  0.00     0.055 A 
ATOM     83  Br  UNL     1       8.432   1.387  -5.092  1.00  0.00    -0.051 Br
ENDBRANCH  75  76
ENDBRANCH  74  75
BRANCH  74  84
ATOM     84  C   UNL     1       1.690  -2.401  -3.575  1.00  0.00     0.019 C 
BRANCH  84  85
ATOM     85  C   UNL     1       0.181  -2.261  -3.193  1.00  0.00     0.001 C 
BRANCH  85  86
ATOM     86  C   UNL     1      -0.665  -1.243  -3.980  1.00  0.00     0.000 CG0
ATOM     87  G   UNL     1      -0.327   0.210  -3.703  1.00  0.00     0.000 G0
ENDBRANCH  85  86
ENDBRANCH  84  85
ENDBRANCH  74  84
BRANCH  74  88
ATOM     88  C   UNL     1       2.052  -0.081  -2.767  1.00  0.00     0.019 C 
BRANCH  88  89
ATOM     89  C   UNL     1       1.151   0.419  -3.917  1.00  0.00     0.001 C 
BRANCH  89  90
ATOM     90  C   UNL     1      -0.327   0.210  -3.703  1.00  0.00     0.000 CG0
ATOM     91  G   UNL     1      -0.665  -1.243  -3.980  1.00  0.00     0.000 G0
ENDBRANCH  89  90
ENDBRANCH  88  89
ENDBRANCH  74  88
ENDBRANCH  72  74
ENDBRANCH  71  72
ENDBRANCH   1  71
TORSDOF 13
