REMARK SMILES O=CN1CCN(S(=O)(=O)c2ccc(C(=O)OCCOC(=O)c3ccc(-c4c5nc(c(-c6c(F)c(F)c(F)c(F)c6F)c6ccc([nH]6)c(-c6c(F)c(F)c(F)c(F)c6F)c6nc(c(-c7c(F)c(F)c(F)c(F)c7F)c7ccc4[nH]7)C=C6)C=C5)cc3)cc2)CC1
REMARK SMILES IDX 17 1 16 2 14 3 15 4 13 5 10 6 11 7 86 8 12 9 85 10 7 11 8 12
REMARK SMILES IDX 9 13 6 14 1 15 2 16 3 17 4 18 88 19 5 20 87 21 18 22 19 23
REMARK SMILES IDX 20 24 21 25 22 26 23 27 84 28 24 29 83 30 25 31 26 32 27 33
REMARK SMILES IDX 77 34 28 35 82 36 76 37 78 38 29 39 81 40 75 41 74 42 30 44
REMARK SMILES IDX 62 45 42 46 61 47 43 48 46 49 60 50 79 51 44 52 45 53 59 55
REMARK SMILES IDX 80 56 47 57 31 58 32 59 40 60 33 61 34 62 38 63 41 64 35 65
REMARK SMILES IDX 36 66 39 67 37 68 63 69 64 70 72 71 65 72 66 73 70 74 73 75
REMARK SMILES IDX 67 76 68 77 71 78 69 79 48 80 49 81 57 82 50 83 51 84 55 85
REMARK SMILES IDX 58 86 52 87 53 88 56 89 54 90
REMARK H PARENT 78 43 46 54
REMARK Flexibility Score: inf
ROOT
ATOM      1  C   UNL     1       2.735   4.747  10.191  1.00  0.00     0.275 C 
ENDROOT
BRANCH   1   2
ATOM      2  O   UNL     1       2.967   4.329   8.832  1.00  0.00    -0.458 OA
BRANCH   2   3
ATOM      3  C   UNL     1       3.379   5.294   7.974  1.00  0.00     0.338 C 
ATOM      4  O   UNL     1       3.540   6.475   8.234  1.00  0.00    -0.246 OA
BRANCH   3   5
ATOM      5  C   UNL     1       3.722   4.711   6.649  1.00  0.00     0.060 A 
ATOM      6  C   UNL     1       4.506   3.678   4.174  1.00  0.00     0.082 A 
ATOM      7  C   UNL     1       4.927   4.954   4.547  1.00  0.00     0.022 A 
ATOM      8  C   UNL     1       3.715   2.907   5.035  1.00  0.00     0.022 A 
ATOM      9  C   UNL     1       4.519   5.474   5.777  1.00  0.00     0.017 A 
ATOM     10  C   UNL     1       3.312   3.429   6.267  1.00  0.00     0.017 A 
BRANCH   6  11
ATOM     11  S   UNL     1       5.068   2.980   2.639  1.00  0.00     0.243 S 
ATOM     12  O   UNL     1       5.121   1.542   2.809  1.00  0.00    -0.207 OA
ATOM     13  O   UNL     1       6.243   3.711   2.224  1.00  0.00    -0.207 OA
BRANCH  11  14
ATOM     14  N   UNL     1       3.819   3.354   1.536  1.00  0.00    -0.194 NA
ATOM     15  O   UNL     1       1.241  -0.739  -0.006  1.00  0.00    -0.279 OA
ATOM     16  C   UNL     1       2.221  -0.115  -0.392  1.00  0.00     0.340 C 
ATOM     17  N   UNL     1       2.787   0.961   0.255  1.00  0.00    -0.343 N 
ATOM     18  C   UNL     1       4.058   1.534  -0.190  1.00  0.00     0.136 C 
ATOM     19  C   UNL     1       2.294   1.349   1.575  1.00  0.00     0.136 C 
ATOM     20  C   UNL     1       4.165   3.039   0.107  1.00  0.00     0.124 C 
ATOM     21  C   UNL     1       2.439   2.852   1.832  1.00  0.00     0.124 C 
ENDBRANCH  11  14
ENDBRANCH   6  11
ENDBRANCH   3   5
ENDBRANCH   2   3
ENDBRANCH   1   2
BRANCH   1  22
ATOM     22  C   UNL     1       3.903   4.340  11.089  1.00  0.00     0.275 C 
BRANCH  22  23
ATOM     23  O   UNL     1       5.099   5.038  10.696  1.00  0.00    -0.458 OA
BRANCH  23  24
ATOM     24  C   UNL     1       6.091   4.266  10.198  1.00  0.00     0.338 C 
ATOM     25  O   UNL     1       6.113   3.052  10.088  1.00  0.00    -0.246 OA
BRANCH  24  26
ATOM     26  C   UNL     1       7.195   5.120   9.739  1.00  0.00     0.060 A 
ATOM     27  C   UNL     1       7.077   5.766   8.510  1.00  0.00     0.016 A 
ATOM     28  C   UNL     1       8.396   5.165  10.445  1.00  0.00     0.016 A 
ATOM     29  C   UNL     1       8.177   6.408   7.948  1.00  0.00     0.010 A 
ATOM     30  C   UNL     1       9.481   5.871   9.911  1.00  0.00     0.010 A 
ATOM     31  C   UNL     1       9.395   6.473   8.641  1.00  0.00    -0.014 A 
BRANCH  31  32
ATOM     32  C   UNL     1      10.589   7.109   8.014  1.00  0.00     0.031 A 
ATOM     33  C   UNL     1      11.830   6.295   7.757  1.00  0.00     0.074 A 
ATOM     34  C   UNL     1      10.568   8.407   7.652  1.00  0.00     0.049 A 
ATOM     35  N   UNL     1      13.025   6.691   7.395  1.00  0.00    -0.248 NA
ATOM     36  C   UNL     1      11.713   4.840   7.945  1.00  0.00     0.031 C 
ATOM     37  C   UNL     1       9.422   9.307   7.788  1.00  0.00     0.029 A 
ATOM     38  N   UNL     1      11.543   9.196   7.088  1.00  0.00    -0.354 N 
ATOM     39  C   UNL     1      13.814   5.547   7.372  1.00  0.00     0.074 A 
ATOM     40  C   UNL     1      12.963   4.440   7.754  1.00  0.00     0.031 C 
ATOM     41  C   UNL     1       9.747  10.511   7.292  1.00  0.00     0.029 A 
ATOM     42  C   UNL     1      11.147  10.495   6.881  1.00  0.00     0.049 A 
ATOM     43  H   UNL     1      12.439   8.861   6.855  1.00  0.00     0.167 HD
ATOM     44  C   UNL     1      15.129   5.433   7.064  1.00  0.00     0.037 A 
ATOM     45  C   UNL     1      11.842  11.566   6.451  1.00  0.00     0.037 A 
ATOM     46  C   UNL     1      15.959   6.523   6.619  1.00  0.00     0.049 A 
ATOM     47  C   UNL     1      13.304  11.418   6.130  1.00  0.00     0.074 A 
ATOM     48  C   UNL     1      17.297   6.501   6.267  1.00  0.00     0.029 A 
ATOM     49  N   UNL     1      15.521   7.827   6.444  1.00  0.00    -0.354 N 
ATOM     50  N   UNL     1      14.056  10.347   6.176  1.00  0.00    -0.248 NA
ATOM     51  C   UNL     1      14.018  12.636   5.718  1.00  0.00     0.031 C 
ATOM     52  C   UNL     1      17.678   7.799   5.908  1.00  0.00     0.029 A 
ATOM     53  C   UNL     1      16.567   8.620   5.998  1.00  0.00     0.049 A 
ATOM     54  H   UNL     1      14.604   8.143   6.612  1.00  0.00     0.167 HD
ATOM     55  C   UNL     1      15.326  10.756   5.791  1.00  0.00     0.074 A 
ATOM     56  C   UNL     1      15.239  12.170   5.494  1.00  0.00     0.031 C 
ATOM     57  C   UNL     1      16.463  10.025   5.700  1.00  0.00     0.037 A 
BRANCH  44  58
ATOM     58  C   UNL     1      15.769   4.086   7.231  1.00  0.00     0.064 A 
ATOM     59  C   UNL     1      15.522   3.029   6.344  1.00  0.00     0.173 A 
ATOM     60  C   UNL     1      16.681   3.867   8.276  1.00  0.00     0.173 A 
ATOM     61  F   UNL     1      14.651   3.183   5.336  1.00  0.00    -0.203 F 
ATOM     62  C   UNL     1      16.147   1.794   6.511  1.00  0.00     0.198 A 
ATOM     63  C   UNL     1      17.324   2.641   8.424  1.00  0.00     0.198 A 
ATOM     64  F   UNL     1      16.958   4.848   9.148  1.00  0.00    -0.203 F 
ATOM     65  F   UNL     1      15.865   0.785   5.676  1.00  0.00    -0.200 F 
ATOM     66  C   UNL     1      17.051   1.604   7.545  1.00  0.00     0.200 A 
ATOM     67  F   UNL     1      18.208   2.465   9.416  1.00  0.00    -0.200 F 
ATOM     68  F   UNL     1      17.658   0.419   7.699  1.00  0.00    -0.200 F 
ENDBRANCH  44  58
BRANCH  45  69
ATOM     69  C   UNL     1      11.168  12.886   6.338  1.00  0.00     0.064 A 
ATOM     70  C   UNL     1      10.934  13.473   5.087  1.00  0.00     0.173 A 
ATOM     71  C   UNL     1      10.741  13.584   7.478  1.00  0.00     0.173 A 
ATOM     72  F   UNL     1      11.351  12.858   3.971  1.00  0.00    -0.203 F 
ATOM     73  C   UNL     1      10.302  14.710   4.981  1.00  0.00     0.198 A 
ATOM     74  C   UNL     1      10.082  14.806   7.369  1.00  0.00     0.198 A 
ATOM     75  F   UNL     1      10.946  13.068   8.698  1.00  0.00    -0.203 F 
ATOM     76  F   UNL     1      10.124  15.268   3.776  1.00  0.00    -0.200 F 
ATOM     77  C   UNL     1       9.869  15.371   6.121  1.00  0.00     0.200 A 
ATOM     78  F   UNL     1       9.653  15.435   8.472  1.00  0.00    -0.200 F 
ATOM     79  F   UNL     1       9.251  16.556   6.017  1.00  0.00    -0.200 F 
ENDBRANCH  45  69
BRANCH  57  80
ATOM     80  C   UNL     1      17.698  10.735   5.232  1.00  0.00     0.064 A 
ATOM     81  C   UNL     1      18.395  11.621   6.067  1.00  0.00     0.173 A 
ATOM     82  C   UNL     1      18.209  10.501   3.947  1.00  0.00     0.173 A 
ATOM     83  F   UNL     1      17.937  11.889   7.299  1.00  0.00    -0.203 F 
ATOM     84  C   UNL     1      19.548  12.263   5.624  1.00  0.00     0.198 A 
ATOM     85  C   UNL     1      19.375  11.127   3.515  1.00  0.00     0.198 A 
ATOM     86  F   UNL     1      17.580   9.660   3.113  1.00  0.00    -0.203 F 
ATOM     87  F   UNL     1      20.176  13.137   6.423  1.00  0.00    -0.200 F 
ATOM     88  C   UNL     1      20.040  12.011   4.351  1.00  0.00     0.200 A 
ATOM     89  F   UNL     1      19.854  10.876   2.289  1.00  0.00    -0.200 F 
ATOM     90  F   UNL     1      21.152  12.628   3.927  1.00  0.00    -0.200 F 
ENDBRANCH  57  80
ENDBRANCH  31  32
ENDBRANCH  24  26
ENDBRANCH  23  24
ENDBRANCH  22  23
ENDBRANCH   1  22
TORSDOF 13
