REMARK SMILES O=C(OCCOC(=O)[C@H]1CC2(CC[NH+](S(=O)(=O)N3CCOCC3)CC2)C[NH2+]1)c1ccc(-c2c3nc(c(-c4c(F)c(F)c(F)c(F)c4F)c4ccc([nH]4)c(-c4c(F)c(F)c(F)c(F)c4F)c4nc(c(-c5c(F)c(F)c(F)c(F)c5F)c5ccc2[nH]5)C=C4)C=C3)cc1
REMARK SMILES IDX 4 1 3 2 2 3 1 4 28 5 29 6 90 7 30 8 89 9 31 10 32 11 33 12
REMARK SMILES IDX 83 13 34 14 88 15 82 16 84 17 35 18 87 19 81 20 80 21 36 23
REMARK SMILES IDX 68 24 48 25 67 26 49 27 52 28 66 29 85 30 50 31 51 32 65 34
REMARK SMILES IDX 86 35 53 36 37 37 38 38 46 39 39 40 40 41 44 42 47 43 41 44
REMARK SMILES IDX 42 45 45 46 43 47 69 48 70 49 78 50 71 51 72 52 76 53 79 54
REMARK SMILES IDX 73 55 74 56 77 57 75 58 54 59 55 60 63 61 56 62 57 63 61 64
REMARK SMILES IDX 64 65 58 66 59 67 62 68 60 69 5 70 6 71 7 72 8 73 9 74 10 75
REMARK SMILES IDX 27 76 11 77 26 78 12 81 25 82 13 83 24 84 14 85 15 87 16 88
REMARK SMILES IDX 17 89 18 90 19 91 23 92 20 93 22 94 21 95
REMARK H PARENT 84 22 52 33 27 79 27 80 14 86
REMARK Flexibility Score: inf
ROOT
ATOM      1  C   UNL     1       5.412  -3.435  -5.163  1.00  0.00     0.275 C 
ENDROOT
BRANCH   1   2
ATOM      2  O   UNL     1       5.246  -2.072  -5.570  1.00  0.00    -0.458 OA
BRANCH   2   3
ATOM      3  C   UNL     1       4.110  -1.420  -5.901  1.00  0.00     0.338 C 
ATOM      4  O   UNL     1       4.213  -0.291  -6.384  1.00  0.00    -0.246 OA
BRANCH   3   5
ATOM      5  C   UNL     1       2.726  -1.921  -5.598  1.00  0.00     0.060 A 
ATOM      6  C   UNL     1       2.333  -3.220  -5.262  1.00  0.00     0.016 A 
ATOM      7  C   UNL     1       1.728  -0.937  -5.604  1.00  0.00     0.016 A 
ATOM      8  C   UNL     1       1.031  -3.507  -4.834  1.00  0.00     0.010 A 
ATOM      9  C   UNL     1       0.445  -1.201  -5.125  1.00  0.00     0.010 A 
ATOM     10  C   UNL     1       0.087  -2.493  -4.725  1.00  0.00    -0.014 A 
BRANCH  10  11
ATOM     11  C   UNL     1      -1.313  -2.790  -4.344  1.00  0.00     0.031 A 
ATOM     12  C   UNL     1      -2.364  -2.607  -5.396  1.00  0.00     0.074 A 
ATOM     13  C   UNL     1      -1.639  -3.200  -3.102  1.00  0.00     0.049 A 
ATOM     14  N   UNL     1      -3.656  -2.767  -5.314  1.00  0.00    -0.248 NA
ATOM     15  C   UNL     1      -1.893  -2.180  -6.726  1.00  0.00     0.031 C 
ATOM     16  C   UNL     1      -0.693  -3.461  -2.019  1.00  0.00     0.029 A 
ATOM     17  N   UNL     1      -2.860  -3.455  -2.528  1.00  0.00    -0.354 N 
ATOM     18  C   UNL     1      -4.139  -2.480  -6.581  1.00  0.00     0.074 A 
ATOM     19  C   UNL     1      -3.029  -2.016  -7.377  1.00  0.00     0.031 C 
ATOM     20  C   UNL     1      -1.363  -3.773  -0.897  1.00  0.00     0.029 A 
ATOM     21  C   UNL     1      -2.790  -3.769  -1.190  1.00  0.00     0.049 A 
ATOM     22  H   UNL     1      -3.707  -3.416  -3.028  1.00  0.00     0.167 HD
ATOM     23  C   UNL     1      -5.389  -2.660  -7.061  1.00  0.00     0.037 A 
ATOM     24  C   UNL     1      -3.773  -4.041  -0.311  1.00  0.00     0.037 A 
ATOM     25  C   UNL     1      -6.476  -3.137  -6.258  1.00  0.00     0.049 A 
ATOM     26  C   UNL     1      -5.181  -4.134  -0.840  1.00  0.00     0.074 A 
ATOM     27  C   UNL     1      -7.784  -3.379  -6.628  1.00  0.00     0.029 A 
ATOM     28  N   UNL     1      -6.373  -3.435  -4.904  1.00  0.00    -0.354 N 
ATOM     29  N   UNL     1      -5.616  -3.945  -2.063  1.00  0.00    -0.248 NA
ATOM     30  C   UNL     1      -6.225  -4.527   0.115  1.00  0.00     0.031 C 
ATOM     31  C   UNL     1      -8.487  -3.768  -5.483  1.00  0.00     0.029 A 
ATOM     32  C   UNL     1      -7.604  -3.832  -4.415  1.00  0.00     0.049 A 
ATOM     33  H   UNL     1      -5.546  -3.373  -4.373  1.00  0.00     0.167 HD
ATOM     34  C   UNL     1      -6.969  -4.250  -2.040  1.00  0.00     0.074 A 
ATOM     35  C   UNL     1      -7.281  -4.638  -0.679  1.00  0.00     0.031 C 
ATOM     36  C   UNL     1      -7.871  -4.225  -3.053  1.00  0.00     0.037 A 
BRANCH  23  37
ATOM     37  C   UNL     1      -5.606  -2.335  -8.508  1.00  0.00     0.064 A 
ATOM     38  C   UNL     1      -4.998  -3.086  -9.530  1.00  0.00     0.173 A 
ATOM     39  C   UNL     1      -6.370  -1.221  -8.879  1.00  0.00     0.173 A 
ATOM     40  F   UNL     1      -4.230  -4.144  -9.226  1.00  0.00    -0.203 F 
ATOM     41  C   UNL     1      -5.104  -2.700 -10.863  1.00  0.00     0.198 A 
ATOM     42  C   UNL     1      -6.504  -0.861 -10.217  1.00  0.00     0.198 A 
ATOM     43  F   UNL     1      -6.964  -0.466  -7.944  1.00  0.00    -0.203 F 
ATOM     44  F   UNL     1      -4.440  -3.378 -11.810  1.00  0.00    -0.200 F 
ATOM     45  C   UNL     1      -5.859  -1.590 -11.206  1.00  0.00     0.200 A 
ATOM     46  F   UNL     1      -7.237   0.211 -10.549  1.00  0.00    -0.200 F 
ATOM     47  F   UNL     1      -5.949  -1.210 -12.487  1.00  0.00    -0.200 F 
ENDBRANCH  23  37
BRANCH  24  48
ATOM     48  C   UNL     1      -3.467  -4.309   1.122  1.00  0.00     0.064 A 
ATOM     49  C   UNL     1      -3.628  -5.589   1.674  1.00  0.00     0.173 A 
ATOM     50  C   UNL     1      -3.032  -3.287   1.979  1.00  0.00     0.173 A 
ATOM     51  F   UNL     1      -4.050  -6.601   0.902  1.00  0.00    -0.203 F 
ATOM     52  C   UNL     1      -3.404  -5.827   3.030  1.00  0.00     0.198 A 
ATOM     53  C   UNL     1      -2.785  -3.531   3.331  1.00  0.00     0.198 A 
ATOM     54  F   UNL     1      -2.848  -2.046   1.506  1.00  0.00    -0.203 F 
ATOM     55  F   UNL     1      -3.617  -7.049   3.538  1.00  0.00    -0.200 F 
ATOM     56  C   UNL     1      -2.982  -4.798   3.858  1.00  0.00     0.200 A 
ATOM     57  F   UNL     1      -2.363  -2.537   4.125  1.00  0.00    -0.200 F 
ATOM     58  F   UNL     1      -2.772  -5.027   5.162  1.00  0.00    -0.200 F 
ENDBRANCH  24  48
BRANCH  36  59
ATOM     59  C   UNL     1      -9.266  -4.673  -2.737  1.00  0.00     0.064 A 
ATOM     60  C   UNL     1     -10.127  -3.902  -1.944  1.00  0.00     0.173 A 
ATOM     61  C   UNL     1      -9.767  -5.859  -3.297  1.00  0.00     0.173 A 
ATOM     62  F   UNL     1      -9.688  -2.768  -1.377  1.00  0.00    -0.203 F 
ATOM     63  C   UNL     1     -11.433  -4.314  -1.704  1.00  0.00     0.198 A 
ATOM     64  C   UNL     1     -11.085  -6.247  -3.086  1.00  0.00     0.198 A 
ATOM     65  F   UNL     1      -8.984  -6.627  -4.070  1.00  0.00    -0.203 F 
ATOM     66  F   UNL     1     -12.225  -3.587  -0.903  1.00  0.00    -0.200 F 
ATOM     67  C   UNL     1     -11.915  -5.479  -2.284  1.00  0.00     0.200 A 
ATOM     68  F   UNL     1     -11.554  -7.361  -3.665  1.00  0.00    -0.200 F 
ATOM     69  F   UNL     1     -13.180  -5.863  -2.067  1.00  0.00    -0.200 F 
ENDBRANCH  36  59
ENDBRANCH  10  11
ENDBRANCH   3   5
ENDBRANCH   2   3
ENDBRANCH   1   2
BRANCH   1  70
ATOM     70  C   UNL     1       5.264  -3.661  -3.654  1.00  0.00     0.274 C 
BRANCH  70  71
ATOM     71  O   UNL     1       4.226  -2.884  -3.028  1.00  0.00    -0.458 OA
BRANCH  71  72
ATOM     72  C   UNL     1       4.616  -1.703  -2.460  1.00  0.00     0.364 C 
ATOM     73  O   UNL     1       5.774  -1.299  -2.450  1.00  0.00    -0.245 OA
BRANCH  72  74
ATOM     74  C   UNL     1       3.472  -0.930  -1.782  1.00  0.00     0.294 C 
ATOM     75  C   UNL     1       3.330   0.480  -2.331  1.00  0.00     0.090 C 
ATOM     76  N   UNL     1       2.137  -1.494  -2.034  1.00  0.00    -0.334 N 
ATOM     77  C   UNL     1       1.873   0.897  -2.020  1.00  0.00     0.036 C 
ATOM     78  C   UNL     1       1.164  -0.440  -1.742  1.00  0.00     0.268 C 
ATOM     79  H   UNL     1       1.976  -2.297  -1.427  1.00  0.00     0.347 HD
ATOM     80  H   UNL     1       2.053  -1.808  -3.001  1.00  0.00     0.347 HD
ATOM     81  C   UNL     1       1.267   1.632  -3.225  1.00  0.00     0.076 C 
ATOM     82  C   UNL     1       1.754   1.802  -0.770  1.00  0.00     0.076 C 
ATOM     83  C   UNL     1       1.838   3.026  -3.372  1.00  0.00     0.280 C 
ATOM     84  C   UNL     1       2.209   3.247  -0.993  1.00  0.00     0.280 C 
ATOM     85  N   UNL     1       1.557   3.849  -2.188  1.00  0.00    -0.215 N 
ATOM     86  H   UNL     1       1.993   4.747  -2.398  1.00  0.00     0.367 HD
BRANCH  85  87
ATOM     87  S   UNL     1      -0.004   4.462  -1.946  1.00  0.00     0.371 S 
ATOM     88  O   UNL     1      -0.940   3.360  -1.933  1.00  0.00    -0.157 OA
ATOM     89  O   UNL     1       0.077   5.372  -0.829  1.00  0.00    -0.157 OA
BRANCH  87  90
ATOM     90  N   UNL     1      -0.255   5.362  -3.314  1.00  0.00    -0.151 NA
ATOM     91  C   UNL     1       0.503   6.597  -3.557  1.00  0.00     0.136 C 
ATOM     92  C   UNL     1      -1.023   4.894  -4.483  1.00  0.00     0.136 C 
ATOM     93  C   UNL     1       1.412   6.378  -4.764  1.00  0.00     0.177 C 
ATOM     94  C   UNL     1      -0.175   4.898  -5.768  1.00  0.00     0.177 C 
ATOM     95  O   UNL     1       0.635   6.070  -5.933  1.00  0.00    -0.379 OA
ENDBRANCH  87  90
ENDBRANCH  85  87
ENDBRANCH  72  74
ENDBRANCH  71  72
ENDBRANCH  70  71
ENDBRANCH   1  70
TORSDOF 13
