REMARK SMILES CS(=O)(=O)c1ccc(C2=NN(c3ccc(C(=O)OCCOC(=O)c4ccc(-c5c6nc(c(-c7c(F)c(F)c(F)c(F)c7F)c7ccc([nH]7)c(-c7c(F)c(F)c(F)c(F)c7F)c7nc(c(-c8c(F)c(F)c(F)c(F)c8F)c8ccc5[nH]8)C=C7)C=C6)cc4)cc3)[C@H](c3ccccc3)C2)cc1
REMARK SMILES IDX 19 1 18 2 16 3 17 4 15 5 12 6 13 7 88 8 14 9 87 10 11 11
REMARK SMILES IDX 9 12 10 13 96 14 89 15 8 16 5 17 6 18 98 19 7 20 97 21 2 22
REMARK SMILES IDX 1 23 3 24 4 25 90 26 91 27 95 28 92 29 94 30 93 31 20 32
REMARK SMILES IDX 21 33 22 34 23 35 24 36 25 37 86 38 26 39 85 40 27 41 28 42
REMARK SMILES IDX 29 43 79 44 30 45 84 46 78 47 80 48 31 49 83 50 77 51 76 52
REMARK SMILES IDX 32 54 64 55 44 56 63 57 45 58 48 59 62 60 81 61 46 62 47 63
REMARK SMILES IDX 61 65 82 66 49 67 33 68 34 69 42 70 35 71 36 72 40 73 43 74
REMARK SMILES IDX 37 75 38 76 41 77 39 78 65 79 66 80 74 81 67 82 68 83 72 84
REMARK SMILES IDX 75 85 69 86 70 87 73 88 71 89 50 90 51 91 59 92 52 93 53 94
REMARK SMILES IDX 57 95 60 96 54 97 55 98 58 99 56 100
REMARK H PARENT 80 53 48 64
REMARK Flexibility Score: inf
ROOT
ATOM      1  C   UNL     1       1.636 -15.233  -3.716  1.00  0.00     0.275 C 
ENDROOT
BRANCH   1   2
ATOM      2  O   UNL     1       1.572 -14.104  -2.825  1.00  0.00    -0.458 OA
BRANCH   2   3
ATOM      3  C   UNL     1       2.599 -13.226  -2.908  1.00  0.00     0.338 C 
ATOM      4  O   UNL     1       3.579 -13.327  -3.632  1.00  0.00    -0.246 OA
BRANCH   3   5
ATOM      5  C   UNL     1       2.372 -12.046  -2.035  1.00  0.00     0.060 A 
ATOM      6  C   UNL     1       2.134  -9.796  -0.364  1.00  0.00     0.060 A 
ATOM      7  C   UNL     1       2.989  -9.766  -1.469  1.00  0.00     0.029 A 
ATOM      8  C   UNL     1       1.354 -10.940  -0.142  1.00  0.00     0.029 A 
ATOM      9  C   UNL     1       3.131 -10.891  -2.279  1.00  0.00     0.018 A 
ATOM     10  C   UNL     1       1.465 -12.060  -0.973  1.00  0.00     0.018 A 
BRANCH   6  11
ATOM     11  N   UNL     1       2.164  -8.780   0.596  1.00  0.00    -0.257 N 
ATOM     12  C   UNL     1       2.244  -6.688   1.011  1.00  0.00     0.071 C 
ATOM     13  N   UNL     1       1.618  -7.571   0.296  1.00  0.00    -0.176 NA
ATOM     14  C   UNL     1       3.398  -7.204   1.828  1.00  0.00     0.091 C 
ATOM     15  C   UNL     1       3.349  -8.692   1.464  1.00  0.00     0.144 C 
BRANCH  12  16
ATOM     16  C   UNL     1       1.843  -5.267   1.058  1.00  0.00    -0.002 A 
ATOM     17  C   UNL     1       0.982  -2.625   1.259  1.00  0.00     0.067 A 
ATOM     18  C   UNL     1       0.044  -3.640   1.058  1.00  0.00     0.021 A 
ATOM     19  C   UNL     1       2.347  -2.919   1.357  1.00  0.00     0.021 A 
ATOM     20  C   UNL     1       0.480  -4.962   0.945  1.00  0.00     0.011 A 
ATOM     21  C   UNL     1       2.778  -4.246   1.256  1.00  0.00     0.011 A 
BRANCH  17  22
ATOM     22  S   UNL     1       0.436  -0.946   1.479  1.00  0.00     0.175 S 
ATOM     23  C   UNL     1       0.964  -0.125  -0.000  1.00  0.00     0.163 C 
ATOM     24  O   UNL     1       1.188  -0.404   2.595  1.00  0.00    -0.224 OA
ATOM     25  O   UNL     1      -1.014  -0.950   1.490  1.00  0.00    -0.224 OA
ENDBRANCH  17  22
ENDBRANCH  12  16
BRANCH  15  26
ATOM     26  C   UNL     1       3.253  -9.715   2.584  1.00  0.00    -0.023 A 
ATOM     27  C   UNL     1       2.657  -9.453   3.825  1.00  0.00     0.006 A 
ATOM     28  C   UNL     1       3.692 -11.031   2.328  1.00  0.00     0.006 A 
ATOM     29  C   UNL     1       2.514 -10.468   4.777  1.00  0.00     0.000 A 
ATOM     30  C   UNL     1       3.523 -12.049   3.266  1.00  0.00     0.000 A 
ATOM     31  C   UNL     1       2.937 -11.766   4.494  1.00  0.00     0.000 A 
ENDBRANCH  15  26
ENDBRANCH   6  11
ENDBRANCH   3   5
ENDBRANCH   2   3
ENDBRANCH   1   2
BRANCH   1  32
ATOM     32  C   UNL     1       0.753 -15.014  -4.944  1.00  0.00     0.275 C 
BRANCH  32  33
ATOM     33  O   UNL     1       1.294 -13.982  -5.789  1.00  0.00    -0.458 OA
BRANCH  33  34
ATOM     34  C   UNL     1       0.689 -12.777  -5.690  1.00  0.00     0.338 C 
ATOM     35  O   UNL     1      -0.273 -12.475  -5.007  1.00  0.00    -0.246 OA
BRANCH  34  36
ATOM     36  C   UNL     1       1.399 -11.807  -6.534  1.00  0.00     0.060 A 
ATOM     37  C   UNL     1       2.458 -11.086  -5.984  1.00  0.00     0.016 A 
ATOM     38  C   UNL     1       0.940 -11.521  -7.817  1.00  0.00     0.016 A 
ATOM     39  C   UNL     1       3.038 -10.037  -6.692  1.00  0.00     0.010 A 
ATOM     40  C   UNL     1       1.556 -10.502  -8.549  1.00  0.00     0.010 A 
ATOM     41  C   UNL     1       2.593  -9.734  -7.984  1.00  0.00    -0.014 A 
BRANCH  41  42
ATOM     42  C   UNL     1       3.151  -8.580  -8.734  1.00  0.00     0.031 A 
ATOM     43  C   UNL     1       2.249  -7.435  -9.098  1.00  0.00     0.074 A 
ATOM     44  C   UNL     1       4.444  -8.559  -9.109  1.00  0.00     0.049 A 
ATOM     45  N   UNL     1       2.435  -6.472  -9.964  1.00  0.00    -0.248 NA
ATOM     46  C   UNL     1       0.956  -7.375  -8.398  1.00  0.00     0.031 C 
ATOM     47  C   UNL     1       5.447  -9.562  -8.754  1.00  0.00     0.029 A 
ATOM     48  N   UNL     1       5.131  -7.662  -9.891  1.00  0.00    -0.354 N 
ATOM     49  C   UNL     1       1.260  -5.732  -9.961  1.00  0.00     0.074 A 
ATOM     50  C   UNL     1       0.372  -6.347  -8.998  1.00  0.00     0.031 C 
ATOM     51  C   UNL     1       6.619  -9.228  -9.318  1.00  0.00     0.029 A 
ATOM     52  C   UNL     1       6.428  -8.037 -10.139  1.00  0.00     0.049 A 
ATOM     53  H   UNL     1       4.732  -6.832 -10.239  1.00  0.00     0.167 HD
ATOM     54  C   UNL     1       0.953  -4.644 -10.707  1.00  0.00     0.037 A 
ATOM     55  C   UNL     1       7.342  -7.515 -10.980  1.00  0.00     0.037 A 
ATOM     56  C   UNL     1       1.865  -4.012 -11.624  1.00  0.00     0.049 A 
ATOM     57  C   UNL     1       6.967  -6.333 -11.832  1.00  0.00     0.074 A 
ATOM     58  C   UNL     1       1.656  -2.902 -12.424  1.00  0.00     0.029 A 
ATOM     59  N   UNL     1       3.169  -4.428 -11.848  1.00  0.00    -0.354 N 
ATOM     60  N   UNL     1       5.833  -5.677 -11.880  1.00  0.00    -0.248 NA
ATOM     61  C   UNL     1       7.989  -5.833 -12.762  1.00  0.00     0.031 C 
ATOM     62  C   UNL     1       2.824  -2.665 -13.155  1.00  0.00     0.029 A 
ATOM     63  C   UNL     1       3.774  -3.601 -12.779  1.00  0.00     0.049 A 
ATOM     64  H   UNL     1       3.600  -5.197 -11.410  1.00  0.00     0.167 HD
ATOM     65  C   UNL     1       6.012  -4.675 -12.823  1.00  0.00     0.074 A 
ATOM     66  C   UNL     1       7.365  -4.805 -13.322  1.00  0.00     0.031 C 
ATOM     67  C   UNL     1       5.132  -3.733 -13.240  1.00  0.00     0.037 A 
BRANCH  54  68
ATOM     68  C   UNL     1      -0.438  -4.094 -10.599  1.00  0.00     0.064 A 
ATOM     69  C   UNL     1      -0.870  -3.380  -9.473  1.00  0.00     0.173 A 
ATOM     70  C   UNL     1      -1.341  -4.253 -11.662  1.00  0.00     0.173 A 
ATOM     71  F   UNL     1      -0.049  -3.211  -8.425  1.00  0.00    -0.203 F 
ATOM     72  C   UNL     1      -2.162  -2.865  -9.405  1.00  0.00     0.198 A 
ATOM     73  C   UNL     1      -2.622  -3.714 -11.603  1.00  0.00     0.198 A 
ATOM     74  F   UNL     1      -0.975  -4.923 -12.765  1.00  0.00    -0.203 F 
ATOM     75  F   UNL     1      -2.567  -2.219  -8.303  1.00  0.00    -0.200 F 
ATOM     76  C   UNL     1      -3.034  -3.025 -10.472  1.00  0.00     0.200 A 
ATOM     77  F   UNL     1      -3.458  -3.859 -12.640  1.00  0.00    -0.200 F 
ATOM     78  F   UNL     1      -4.274  -2.520 -10.409  1.00  0.00    -0.200 F 
ENDBRANCH  54  68
BRANCH  55  79
ATOM     79  C   UNL     1       8.685  -8.143 -11.091  1.00  0.00     0.064 A 
ATOM     80  C   UNL     1       9.829  -7.486 -10.620  1.00  0.00     0.173 A 
ATOM     81  C   UNL     1       8.850  -9.416 -11.659  1.00  0.00     0.173 A 
ATOM     82  F   UNL     1       9.725  -6.256 -10.095  1.00  0.00    -0.203 F 
ATOM     83  C   UNL     1      11.088  -8.075 -10.717  1.00  0.00     0.198 A 
ATOM     84  C   UNL     1      10.104 -10.016 -11.729  1.00  0.00     0.198 A 
ATOM     85  F   UNL     1       7.787 -10.085 -12.128  1.00  0.00    -0.203 F 
ATOM     86  F   UNL     1      12.171  -7.411 -10.292  1.00  0.00    -0.200 F 
ATOM     87  C   UNL     1      11.223  -9.343 -11.263  1.00  0.00     0.200 A 
ATOM     88  F   UNL     1      10.229 -11.246 -12.245  1.00  0.00    -0.200 F 
ATOM     89  F   UNL     1      12.433  -9.914 -11.345  1.00  0.00    -0.200 F 
ENDBRANCH  55  79
BRANCH  67  90
ATOM     90  C   UNL     1       5.617  -2.730 -14.243  1.00  0.00     0.064 A 
ATOM     91  C   UNL     1       5.756  -3.055 -15.599  1.00  0.00     0.173 A 
ATOM     92  C   UNL     1       5.874  -1.408 -13.848  1.00  0.00     0.173 A 
ATOM     93  F   UNL     1       5.535  -4.309 -16.019  1.00  0.00    -0.203 F 
ATOM     94  C   UNL     1       6.145  -2.091 -16.525  1.00  0.00     0.198 A 
ATOM     95  C   UNL     1       6.242  -0.443 -14.781  1.00  0.00     0.198 A 
ATOM     96  F   UNL     1       5.749  -1.050 -12.562  1.00  0.00    -0.203 F 
ATOM     97  F   UNL     1       6.299  -2.426 -17.814  1.00  0.00    -0.200 F 
ATOM     98  C   UNL     1       6.379  -0.785 -16.117  1.00  0.00     0.200 A 
ATOM     99  F   UNL     1       6.456   0.820 -14.387  1.00  0.00    -0.200 F 
ATOM    100  F   UNL     1       6.739   0.143 -17.014  1.00  0.00    -0.200 F 
ENDBRANCH  67  90
ENDBRANCH  41  42
ENDBRANCH  34  36
ENDBRANCH  33  34
ENDBRANCH  32  33
ENDBRANCH   1  32
TORSDOF 15
