REMARK SMILES CCN1C(=O)C[C@H](C(=O)Nc2cccc(C(=O)OCCOC(=O)c3ccc(-c4c5nc(c(-c6c(F)c(F)c(F)c(F)c6F)c6ccc([nH]6)c(-c6c(F)c(F)c(F)c(F)c6F)c6nc(c(-c7c(F)c(F)c(F)c(F)c7F)c7ccc4[nH]7)C=C6)C=C5)cc3)c2)S/C1=[NH+]/c1cccc(C(F)(F)F)c1
REMARK SMILES IDX 19 1 18 2 16 3 17 4 15 5 11 6 12 7 87 8 13 9 14 10 10 11
REMARK SMILES IDX 8 12 9 13 7 15 3 16 4 17 89 18 5 19 6 20 88 21 90 22 2 24
REMARK SMILES IDX 1 25 91 26 92 27 100 28 93 29 95 30 94 31 96 32 97 33 98 34
REMARK SMILES IDX 99 35 20 36 21 37 22 38 23 39 24 40 25 41 86 42 26 43 85 44
REMARK SMILES IDX 27 45 28 46 29 47 79 48 30 49 84 50 78 51 80 52 31 53 83 54
REMARK SMILES IDX 77 55 76 56 32 58 64 59 44 60 63 61 45 62 48 63 62 64 81 65
REMARK SMILES IDX 46 66 47 67 61 69 82 70 49 71 33 72 34 73 42 74 35 75 36 76
REMARK SMILES IDX 40 77 43 78 37 79 38 80 41 81 39 82 65 83 66 84 74 85 67 86
REMARK SMILES IDX 68 87 72 88 75 89 69 90 70 91 73 92 71 93 50 94 51 95 59 96
REMARK SMILES IDX 52 97 53 98 57 99 60 100 54 101 55 102 58 103 56 104
REMARK H PARENT 10 14 90 23 80 57 48 68
REMARK Flexibility Score: inf
ROOT
ATOM      1  C   UNL     1       4.840  -0.995  -1.929  1.00  0.00     0.275 C 
ENDROOT
BRANCH   1   2
ATOM      2  O   UNL     1       5.126  -1.795  -0.765  1.00  0.00    -0.458 OA
BRANCH   2   3
ATOM      3  C   UNL     1       5.838  -2.938  -0.947  1.00  0.00     0.338 C 
ATOM      4  O   UNL     1       6.397  -3.294  -1.964  1.00  0.00    -0.246 OA
BRANCH   3   5
ATOM      5  C   UNL     1       5.885  -3.731   0.316  1.00  0.00     0.062 A 
ATOM      6  C   UNL     1       4.577  -4.659   2.127  1.00  0.00     0.042 A 
ATOM      7  C   UNL     1       5.652  -5.454   2.505  1.00  0.00     0.026 A 
ATOM      8  C   UNL     1       4.794  -3.694   1.166  1.00  0.00     0.041 A 
ATOM      9  C   UNL     1       6.840  -5.410   1.758  1.00  0.00     0.003 A 
ATOM     10  C   UNL     1       6.926  -4.606   0.613  1.00  0.00     0.016 A 
BRANCH   6  11
ATOM     11  N   UNL     1       3.321  -4.761   2.744  1.00  0.00    -0.325 N 
ATOM     12  C   UNL     1       2.068  -4.461   2.242  1.00  0.00     0.238 C 
ATOM     13  O   UNL     1       1.196  -4.140   3.058  1.00  0.00    -0.273 OA
ATOM     14  H   UNL     1       3.333  -5.096   3.670  1.00  0.00     0.169 HD
BRANCH  12  15
ATOM     15  C   UNL     1       1.671  -4.776   0.772  1.00  0.00     0.160 C 
ATOM     16  N   UNL     1       0.200  -2.239   0.151  1.00  0.00    -0.191 N 
ATOM     17  C   UNL     1      -0.553  -3.402   0.356  1.00  0.00     0.311 C 
ATOM     18  C   UNL     1       1.565  -2.267   0.223  1.00  0.00     0.319 C 
ATOM     19  O   UNL     1      -1.785  -3.402   0.259  1.00  0.00    -0.247 OA
ATOM     20  C   UNL     1       0.149  -4.752   0.602  1.00  0.00     0.153 C 
ATOM     21  S   UNL     1       2.240  -3.685  -0.537  1.00  0.00    -0.024 SA
ATOM     22  N   UNL     1       2.397  -1.468   0.794  1.00  0.00    -0.235 N 
ATOM     23  H   UNL     1       3.351  -1.631   0.616  1.00  0.00     0.313 HD
BRANCH  16  24
ATOM     24  C   UNL     1      -0.449  -1.204  -0.663  1.00  0.00     0.243 C 
ATOM     25  C   UNL     1       0.098   0.215  -0.653  1.00  0.00     0.054 C 
ENDBRANCH  16  24
BRANCH  22  26
ATOM     26  C   UNL     1       2.100  -0.396   1.636  1.00  0.00     0.126 A 
ATOM     27  C   UNL     1       2.946   0.717   1.570  1.00  0.00     0.052 A 
ATOM     28  C   UNL     1       1.079  -0.403   2.588  1.00  0.00     0.064 A 
ATOM     29  C   UNL     1       2.725   1.844   2.359  1.00  0.00     0.005 A 
ATOM     30  C   UNL     1       0.832   0.729   3.385  1.00  0.00     0.060 A 
ATOM     31  C   UNL     1       1.656   1.858   3.249  1.00  0.00     0.013 A 
BRANCH  30  32
ATOM     32  C   UNL     1      -0.329   0.762   4.345  1.00  0.00     0.416 C 
ATOM     33  F   UNL     1       0.005   1.277   5.560  1.00  0.00    -0.166 F 
ATOM     34  F   UNL     1      -1.351   1.535   3.880  1.00  0.00    -0.166 F 
ATOM     35  F   UNL     1      -0.870  -0.462   4.592  1.00  0.00    -0.166 F 
ENDBRANCH  30  32
ENDBRANCH  22  26
ENDBRANCH  12  15
ENDBRANCH   6  11
ENDBRANCH   3   5
ENDBRANCH   2   3
ENDBRANCH   1   2
BRANCH   1  36
ATOM     36  C   UNL     1       5.486   0.385  -1.819  1.00  0.00     0.275 C 
BRANCH  36  37
ATOM     37  O   UNL     1       6.907   0.231  -1.693  1.00  0.00    -0.458 OA
BRANCH  37  38
ATOM     38  C   UNL     1       7.405   0.439  -0.454  1.00  0.00     0.338 C 
ATOM     39  O   UNL     1       6.845   0.919   0.519  1.00  0.00    -0.246 OA
BRANCH  38  40
ATOM     40  C   UNL     1       8.748  -0.146  -0.405  1.00  0.00     0.060 A 
ATOM     41  C   UNL     1       8.843  -1.531  -0.305  1.00  0.00     0.016 A 
ATOM     42  C   UNL     1       9.893   0.638  -0.363  1.00  0.00     0.016 A 
ATOM     43  C   UNL     1      10.064  -2.156  -0.132  1.00  0.00     0.010 A 
ATOM     44  C   UNL     1      11.138   0.008  -0.251  1.00  0.00     0.010 A 
ATOM     45  C   UNL     1      11.231  -1.393  -0.119  1.00  0.00    -0.014 A 
BRANCH  45  46
ATOM     46  C   UNL     1      12.528  -2.067   0.125  1.00  0.00     0.031 A 
ATOM     47  C   UNL     1      13.305  -1.725   1.361  1.00  0.00     0.074 A 
ATOM     48  C   UNL     1      12.975  -3.016  -0.720  1.00  0.00     0.049 A 
ATOM     49  N   UNL     1      14.535  -2.031   1.679  1.00  0.00    -0.248 NA
ATOM     50  C   UNL     1      12.604  -0.920   2.375  1.00  0.00     0.031 C 
ATOM     51  C   UNL     1      12.261  -3.511  -1.899  1.00  0.00     0.029 A 
ATOM     52  N   UNL     1      14.139  -3.744  -0.710  1.00  0.00    -0.354 N 
ATOM     53  C   UNL     1      14.775  -1.407   2.896  1.00  0.00     0.074 A 
ATOM     54  C   UNL     1      13.565  -0.704   3.261  1.00  0.00     0.031 C 
ATOM     55  C   UNL     1      12.989  -4.474  -2.484  1.00  0.00     0.029 A 
ATOM     56  C   UNL     1      14.261  -4.595  -1.782  1.00  0.00     0.049 A 
ATOM     57  H   UNL     1      14.820  -3.663  -0.004  1.00  0.00     0.167 HD
ATOM     58  C   UNL     1      15.909  -1.423   3.633  1.00  0.00     0.037 A 
ATOM     59  C   UNL     1      15.305  -5.345  -2.182  1.00  0.00     0.037 A 
ATOM     60  C   UNL     1      17.087  -2.168   3.272  1.00  0.00     0.049 A 
ATOM     61  C   UNL     1      16.579  -5.287  -1.383  1.00  0.00     0.074 A 
ATOM     62  C   UNL     1      18.299  -2.243   3.934  1.00  0.00     0.029 A 
ATOM     63  N   UNL     1      17.189  -2.984   2.154  1.00  0.00    -0.354 N 
ATOM     64  N   UNL     1      16.833  -4.631  -0.277  1.00  0.00    -0.248 NA
ATOM     65  C   UNL     1      17.718  -6.056  -1.901  1.00  0.00     0.031 C 
ATOM     66  C   UNL     1      19.147  -3.075   3.196  1.00  0.00     0.029 A 
ATOM     67  C   UNL     1      18.447  -3.559   2.102  1.00  0.00     0.049 A 
ATOM     68  H   UNL     1      16.472  -3.132   1.495  1.00  0.00     0.167 HD
ATOM     69  C   UNL     1      18.151  -4.924   0.046  1.00  0.00     0.074 A 
ATOM     70  C   UNL     1      18.636  -5.834  -0.972  1.00  0.00     0.031 C 
ATOM     71  C   UNL     1      18.896  -4.476   1.086  1.00  0.00     0.037 A 
BRANCH  58  72
ATOM     72  C   UNL     1      15.946  -0.578   4.872  1.00  0.00     0.064 A 
ATOM     73  C   UNL     1      15.215  -0.910   6.022  1.00  0.00     0.173 A 
ATOM     74  C   UNL     1      16.749   0.573   4.915  1.00  0.00     0.173 A 
ATOM     75  F   UNL     1      14.416  -1.988   6.026  1.00  0.00    -0.203 F 
ATOM     76  C   UNL     1      15.269  -0.110   7.161  1.00  0.00     0.198 A 
ATOM     77  C   UNL     1      16.824   1.353   6.066  1.00  0.00     0.198 A 
ATOM     78  F   UNL     1      17.468   0.936   3.843  1.00  0.00    -0.203 F 
ATOM     79  F   UNL     1      14.526  -0.421   8.232  1.00  0.00    -0.200 F 
ATOM     80  C   UNL     1      16.080   1.015   7.185  1.00  0.00     0.200 A 
ATOM     81  F   UNL     1      17.617   2.433   6.090  1.00  0.00    -0.200 F 
ATOM     82  F   UNL     1      16.137   1.778   8.285  1.00  0.00    -0.200 F 
ENDBRANCH  58  72
BRANCH  59  83
ATOM     83  C   UNL     1      15.213  -6.162  -3.422  1.00  0.00     0.064 A 
ATOM     84  C   UNL     1      15.280  -7.561  -3.372  1.00  0.00     0.173 A 
ATOM     85  C   UNL     1      15.079  -5.563  -4.684  1.00  0.00     0.173 A 
ATOM     86  F   UNL     1      15.435  -8.183  -2.194  1.00  0.00    -0.203 F 
ATOM     87  C   UNL     1      15.235  -8.327  -4.536  1.00  0.00     0.198 A 
ATOM     88  C   UNL     1      14.997  -6.331  -5.844  1.00  0.00     0.198 A 
ATOM     89  F   UNL     1      15.015  -4.228  -4.792  1.00  0.00    -0.203 F 
ATOM     90  F   UNL     1      15.355  -9.660  -4.463  1.00  0.00    -0.200 F 
ATOM     91  C   UNL     1      15.086  -7.712  -5.770  1.00  0.00     0.200 A 
ATOM     92  F   UNL     1      14.839  -5.731  -7.032  1.00  0.00    -0.200 F 
ATOM     93  F   UNL     1      15.040  -8.449  -6.888  1.00  0.00    -0.200 F 
ENDBRANCH  59  83
BRANCH  71  94
ATOM     94  C   UNL     1      20.294  -5.007   1.199  1.00  0.00     0.064 A 
ATOM     95  C   UNL     1      21.310  -4.604   0.320  1.00  0.00     0.173 A 
ATOM     96  C   UNL     1      20.627  -5.907   2.223  1.00  0.00     0.173 A 
ATOM     97  F   UNL     1      21.036  -3.759  -0.685  1.00  0.00    -0.203 F 
ATOM     98  C   UNL     1      22.602  -5.105   0.446  1.00  0.00     0.198 A 
ATOM     99  C   UNL     1      21.927  -6.381   2.365  1.00  0.00     0.198 A 
ATOM    100  F   UNL     1      19.692  -6.318   3.093  1.00  0.00    -0.203 F 
ATOM    101  F   UNL     1      23.546  -4.747  -0.436  1.00  0.00    -0.200 F 
ATOM    102  C   UNL     1      22.911  -5.986   1.471  1.00  0.00     0.200 A 
ATOM    103  F   UNL     1      22.227  -7.221   3.365  1.00  0.00    -0.200 F 
ATOM    104  F   UNL     1      24.158  -6.462   1.594  1.00  0.00    -0.200 F 
ENDBRANCH  71  94
ENDBRANCH  45  46
ENDBRANCH  38  40
ENDBRANCH  37  38
ENDBRANCH  36  37
ENDBRANCH   1  36
TORSDOF 16
