REMARK SMILES CO[C@H]1C[C@H](C(=O)OCCOC(=O)c2ccc(-c3c4nc(c(-c5c(F)c(F)c(F)c(F)c5F)c5ccc([nH]5)c(-c5c(F)c(F)c(F)c(F)c5F)c5nc(c(-c6c(F)c(F)c(F)c(F)c6F)c6ccc3[nH]6)C=C5)C=C4)cc2)N(C(=O)[C@H]2C=C[C@@H]([NH3+])C2)C1
REMARK SMILES IDX 9 1 8 2 6 3 7 4 5 5 3 6 4 7 86 8 77 9 2 10 1 11 78 12 79 13
REMARK SMILES IDX 80 14 81 15 85 16 82 17 83 18 84 19 10 23 11 24 12 25 13 26
REMARK SMILES IDX 14 27 15 28 76 29 16 30 75 31 17 32 18 33 19 34 69 35 20 36
REMARK SMILES IDX 74 37 68 38 70 39 21 40 73 41 67 42 66 43 22 45 54 46 34 47
REMARK SMILES IDX 53 48 35 49 38 50 52 51 71 52 36 53 37 54 51 56 72 57 39 58
REMARK SMILES IDX 23 59 24 60 32 61 25 62 26 63 30 64 33 65 27 66 28 67 31 68
REMARK SMILES IDX 29 69 55 70 56 71 64 72 57 73 58 74 62 75 65 76 59 77 60 78
REMARK SMILES IDX 63 79 61 80 40 81 41 82 49 83 42 84 43 85 47 86 50 87 44 88
REMARK SMILES IDX 45 89 48 90 46 91
REMARK H PARENT 84 20 84 21 84 22 70 44 38 55
REMARK Flexibility Score: inf
ROOT
ATOM      1  C   UNL     1       0.312   3.320  -2.728  1.00  0.00     0.274 C 
ENDROOT
BRANCH   1   2
ATOM      2  O   UNL     1       0.631   3.201  -1.327  1.00  0.00    -0.461 OA
BRANCH   2   3
ATOM      3  C   UNL     1       1.238   4.284  -0.771  1.00  0.00     0.329 C 
ATOM      4  O   UNL     1       1.562   5.276  -1.412  1.00  0.00    -0.250 OA
BRANCH   3   5
ATOM      5  C   UNL     1       1.476   4.141   0.747  1.00  0.00     0.197 C 
ATOM      6  C   UNL     1       1.136   1.849   1.389  1.00  0.00     0.140 C 
ATOM      7  C   UNL     1       0.463   3.222   1.437  1.00  0.00     0.071 C 
ATOM      8  C   UNL     1       2.619   2.182   1.555  1.00  0.00     0.152 C 
ATOM      9  N   UNL     1       2.773   3.584   1.162  1.00  0.00    -0.326 N 
BRANCH   6  10
ATOM     10  O   UNL     1       0.647   0.870   2.298  1.00  0.00    -0.380 OA
ATOM     11  C   UNL     1       0.329   1.305   3.610  1.00  0.00     0.195 C 
ENDBRANCH   6  10
BRANCH   9  12
ATOM     12  C   UNL     1       4.002   4.173   1.359  1.00  0.00     0.230 C 
ATOM     13  O   UNL     1       4.946   3.477   1.760  1.00  0.00    -0.274 OA
BRANCH  12  14
ATOM     14  C   UNL     1       4.273   5.668   1.153  1.00  0.00     0.107 C 
ATOM     15  C   UNL     1       3.968   6.224  -0.196  1.00  0.00    -0.012 C 
ATOM     16  C   UNL     1       3.542   6.622   2.102  1.00  0.00     0.087 C 
ATOM     17  C   UNL     1       3.482   7.468  -0.109  1.00  0.00     0.033 C 
ATOM     18  C   UNL     1       3.400   7.929   1.306  1.00  0.00     0.205 C 
BRANCH  18  19
ATOM     19  N   UNL     1       2.156   8.617   1.569  1.00  0.00    -0.352 N 
ATOM     20  H   UNL     1       1.374   8.001   1.346  1.00  0.00     0.345 HD
ATOM     21  H   UNL     1       2.103   9.457   0.993  1.00  0.00     0.345 HD
ATOM     22  H   UNL     1       2.113   8.877   2.555  1.00  0.00     0.345 HD
ENDBRANCH  18  19
ENDBRANCH  12  14
ENDBRANCH   9  12
ENDBRANCH   3   5
ENDBRANCH   2   3
ENDBRANCH   1   2
BRANCH   1  23
ATOM     23  C   UNL     1      -1.124   3.809  -2.947  1.00  0.00     0.275 C 
BRANCH  23  24
ATOM     24  O   UNL     1      -1.328   5.146  -2.443  1.00  0.00    -0.458 OA
BRANCH  24  25
ATOM     25  C   UNL     1      -1.823   5.217  -1.187  1.00  0.00     0.338 C 
ATOM     26  O   UNL     1      -2.148   4.274  -0.475  1.00  0.00    -0.246 OA
BRANCH  25  27
ATOM     27  C   UNL     1      -1.787   6.599  -0.674  1.00  0.00     0.060 A 
ATOM     28  C   UNL     1      -1.339   6.790   0.639  1.00  0.00     0.016 A 
ATOM     29  C   UNL     1      -2.240   7.687  -1.426  1.00  0.00     0.016 A 
ATOM     30  C   UNL     1      -1.332   8.065   1.199  1.00  0.00     0.010 A 
ATOM     31  C   UNL     1      -2.252   8.967  -0.854  1.00  0.00     0.010 A 
ATOM     32  C   UNL     1      -1.799   9.160   0.461  1.00  0.00    -0.014 A 
BRANCH  32  33
ATOM     33  C   UNL     1      -1.860  10.485   1.123  1.00  0.00     0.031 A 
ATOM     34  C   UNL     1      -3.041  10.829   1.980  1.00  0.00     0.074 A 
ATOM     35  C   UNL     1      -0.823  11.335   1.030  1.00  0.00     0.049 A 
ATOM     36  N   UNL     1      -3.244  11.881   2.731  1.00  0.00    -0.248 NA
ATOM     37  C   UNL     1      -4.140   9.851   1.999  1.00  0.00     0.031 C 
ATOM     38  C   UNL     1       0.394  11.090   0.262  1.00  0.00     0.029 A 
ATOM     39  N   UNL     1      -0.610  12.557   1.619  1.00  0.00    -0.354 N 
ATOM     40  C   UNL     1      -4.491  11.697   3.309  1.00  0.00     0.074 A 
ATOM     41  C   UNL     1      -5.002  10.433   2.821  1.00  0.00     0.031 C 
ATOM     42  C   UNL     1       1.249  12.106   0.463  1.00  0.00     0.029 A 
ATOM     43  C   UNL     1       0.625  13.091   1.342  1.00  0.00     0.049 A 
ATOM     44  H   UNL     1      -1.279  13.007   2.184  1.00  0.00     0.167 HD
ATOM     45  C   UNL     1      -5.155  12.518   4.158  1.00  0.00     0.037 A 
ATOM     46  C   UNL     1       1.188  14.242   1.758  1.00  0.00     0.037 A 
ATOM     47  C   UNL     1      -4.661  13.791   4.613  1.00  0.00     0.049 A 
ATOM     48  C   UNL     1       0.410  15.151   2.674  1.00  0.00     0.074 A 
ATOM     49  C   UNL     1      -5.281  14.713   5.439  1.00  0.00     0.029 A 
ATOM     50  N   UNL     1      -3.429  14.327   4.271  1.00  0.00    -0.354 N 
ATOM     51  N   UNL     1      -0.767  14.968   3.221  1.00  0.00    -0.248 NA
ATOM     52  C   UNL     1       1.040  16.433   3.024  1.00  0.00     0.031 C 
ATOM     53  C   UNL     1      -4.442  15.827   5.559  1.00  0.00     0.029 A 
ATOM     54  C   UNL     1      -3.278  15.576   4.852  1.00  0.00     0.049 A 
ATOM     55  H   UNL     1      -2.760  13.886   3.699  1.00  0.00     0.167 HD
ATOM     56  C   UNL     1      -1.014  16.101   3.985  1.00  0.00     0.074 A 
ATOM     57  C   UNL     1       0.148  16.954   3.856  1.00  0.00     0.031 C 
ATOM     58  C   UNL     1      -2.112  16.412   4.718  1.00  0.00     0.037 A 
BRANCH  45  59
ATOM     59  C   UNL     1      -6.520  12.083   4.599  1.00  0.00     0.064 A 
ATOM     60  C   UNL     1      -6.700  11.049   5.528  1.00  0.00     0.173 A 
ATOM     61  C   UNL     1      -7.663  12.719   4.091  1.00  0.00     0.173 A 
ATOM     62  F   UNL     1      -5.639  10.397   6.028  1.00  0.00    -0.203 F 
ATOM     63  C   UNL     1      -7.978  10.651   5.916  1.00  0.00     0.198 A 
ATOM     64  C   UNL     1      -8.937  12.336   4.499  1.00  0.00     0.198 A 
ATOM     65  F   UNL     1      -7.542  13.714   3.199  1.00  0.00    -0.203 F 
ATOM     66  F   UNL     1      -8.130   9.630   6.771  1.00  0.00    -0.200 F 
ATOM     67  C   UNL     1      -9.094  11.298   5.405  1.00  0.00     0.200 A 
ATOM     68  F   UNL     1     -10.013  12.966   4.009  1.00  0.00    -0.200 F 
ATOM     69  F   UNL     1     -10.322  10.914   5.778  1.00  0.00    -0.200 F 
ENDBRANCH  45  59
BRANCH  46  70
ATOM     70  C   UNL     1       2.559  14.607   1.315  1.00  0.00     0.064 A 
ATOM     71  C   UNL     1       3.620  14.677   2.229  1.00  0.00     0.173 A 
ATOM     72  C   UNL     1       2.833  14.923  -0.025  1.00  0.00     0.173 A 
ATOM     73  F   UNL     1       3.404  14.415   3.527  1.00  0.00    -0.203 F 
ATOM     74  C   UNL     1       4.896  15.067   1.825  1.00  0.00     0.198 A 
ATOM     75  C   UNL     1       4.115  15.282  -0.433  1.00  0.00     0.198 A 
ATOM     76  F   UNL     1       1.852  14.881  -0.939  1.00  0.00    -0.203 F 
ATOM     77  F   UNL     1       5.878  15.178   2.729  1.00  0.00    -0.200 F 
ATOM     78  C   UNL     1       5.144  15.363   0.493  1.00  0.00     0.200 A 
ATOM     79  F   UNL     1       4.352  15.561  -1.722  1.00  0.00    -0.200 F 
ATOM     80  F   UNL     1       6.369  15.741   0.105  1.00  0.00    -0.200 F 
ENDBRANCH  46  70
BRANCH  58  81
ATOM     81  C   UNL     1      -2.101  17.721   5.452  1.00  0.00     0.064 A 
ATOM     82  C   UNL     1      -2.223  18.945   4.776  1.00  0.00     0.173 A 
ATOM     83  C   UNL     1      -2.009  17.751   6.852  1.00  0.00     0.173 A 
ATOM     84  F   UNL     1      -2.300  18.971   3.437  1.00  0.00    -0.203 F 
ATOM     85  C   UNL     1      -2.228  20.150   5.472  1.00  0.00     0.198 A 
ATOM     86  C   UNL     1      -2.043  18.957   7.547  1.00  0.00     0.198 A 
ATOM     87  F   UNL     1      -1.898  16.609   7.546  1.00  0.00    -0.203 F 
ATOM     88  F   UNL     1      -2.300  21.309   4.802  1.00  0.00    -0.200 F 
ATOM     89  C   UNL     1      -2.145  20.155   6.857  1.00  0.00     0.200 A 
ATOM     90  F   UNL     1      -1.975  18.959   8.885  1.00  0.00    -0.200 F 
ATOM     91  F   UNL     1      -2.157  21.316   7.526  1.00  0.00    -0.200 F 
ENDBRANCH  58  81
ENDBRANCH  32  33
ENDBRANCH  25  27
ENDBRANCH  24  25
ENDBRANCH  23  24
ENDBRANCH   1  23
TORSDOF 15
