REMARK SMILES COc1cccc2c(C)cc(S[C@H](C)C(=O)Nc3ccc(C(=O)OCCOC(=O)c4ccc(-c5c6nc(c(-c7c(F)c(F)c(F)c(F)c7F)c7ccc([nH]7)c(-c7c(F)c(F)c(F)c(F)c7F)c7nc(c(-c8c(F)c(F)c(F)c(F)c8F)c8ccc5[nH]8)C=C7)C=C6)cc4)cc3)nc12
REMARK SMILES IDX 24 1 22 2 23 3 21 4 18 5 19 6 94 7 20 8 93 9 17 10 15 11
REMARK SMILES IDX 16 12 13 14 14 15 12 16 11 17 3 18 4 19 96 20 5 21 7 22
REMARK SMILES IDX 95 23 6 24 8 25 9 26 10 27 2 28 1 29 25 30 26 31 27 32 28 33
REMARK SMILES IDX 29 34 30 35 31 36 92 37 32 38 91 39 33 40 34 41 35 42 85 43
REMARK SMILES IDX 36 44 90 45 84 46 86 47 37 48 89 49 83 50 82 51 38 53 70 54
REMARK SMILES IDX 50 55 69 56 51 57 54 58 68 59 87 60 52 61 53 62 67 64 88 65
REMARK SMILES IDX 55 66 39 67 40 68 48 69 41 70 42 71 46 72 49 73 43 74 44 75
REMARK SMILES IDX 47 76 45 77 71 78 72 79 80 80 73 81 74 82 78 83 81 84 75 85
REMARK SMILES IDX 76 86 79 87 77 88 56 89 57 90 65 91 58 92 59 93 63 94 66 95
REMARK SMILES IDX 60 96 61 97 64 98 62 99
REMARK H PARENT 17 13 86 52 54 63
REMARK Flexibility Score: inf
ROOT
ATOM      1  O   UNL     1       1.917   2.654   4.122  1.00  0.00    -0.458 OA
ENDROOT
BRANCH   1   2
ATOM      2  C   UNL     1       3.054   2.396   4.814  1.00  0.00     0.338 C 
ATOM      3  O   UNL     1       3.467   3.036   5.771  1.00  0.00    -0.246 OA
BRANCH   2   4
ATOM      4  C   UNL     1       3.742   1.170   4.329  1.00  0.00     0.060 A 
ATOM      5  C   UNL     1       5.247  -1.007   3.454  1.00  0.00     0.041 A 
ATOM      6  C   UNL     1       5.552  -0.413   4.674  1.00  0.00     0.027 A 
ATOM      7  C   UNL     1       4.124  -0.606   2.731  1.00  0.00     0.027 A 
ATOM      8  C   UNL     1       4.827   0.700   5.086  1.00  0.00     0.018 A 
ATOM      9  C   UNL     1       3.362   0.482   3.172  1.00  0.00     0.018 A 
BRANCH   5  10
ATOM     10  N   UNL     1       6.085  -2.021   3.001  1.00  0.00    -0.325 N 
ATOM     11  C   UNL     1       7.110  -1.884   2.105  1.00  0.00     0.237 C 
ATOM     12  O   UNL     1       7.937  -2.807   2.073  1.00  0.00    -0.273 OA
ATOM     13  H   UNL     1       5.925  -2.924   3.360  1.00  0.00     0.169 HD
BRANCH  11  14
ATOM     14  C   UNL     1       7.249  -0.704   1.133  1.00  0.00     0.139 C 
ATOM     15  C   UNL     1       6.250  -0.754  -0.006  1.00  0.00     0.030 C 
BRANCH  14  16
ATOM     16  S   UNL     1       7.782   0.866   1.956  1.00  0.00    -0.093 SA
BRANCH  16  17
ATOM     17  C   UNL     1       6.477   2.074   1.974  1.00  0.00     0.098 A 
ATOM     18  C   UNL     1       5.829   4.978   4.128  1.00  0.00     0.145 A 
ATOM     19  C   UNL     1       4.891   6.006   4.291  1.00  0.00     0.049 A 
ATOM     20  C   UNL     1       5.716   4.011   3.105  1.00  0.00     0.114 A 
ATOM     21  C   UNL     1       3.835   6.132   3.407  1.00  0.00     0.005 A 
ATOM     22  C   UNL     1       4.628   4.147   2.212  1.00  0.00     0.007 A 
ATOM     23  N   UNL     1       6.588   2.975   2.981  1.00  0.00    -0.238 NA
ATOM     24  C   UNL     1       3.707   5.212   2.374  1.00  0.00     0.011 A 
ATOM     25  C   UNL     1       4.500   3.195   1.180  1.00  0.00    -0.039 A 
ATOM     26  C   UNL     1       3.334   3.193   0.226  1.00  0.00     0.045 C 
ATOM     27  C   UNL     1       5.477   2.201   1.036  1.00  0.00     0.039 A 
BRANCH  18  28
ATOM     28  O   UNL     1       6.813   4.989   5.095  1.00  0.00    -0.494 OA
ATOM     29  C   UNL     1       8.130   4.816   4.581  1.00  0.00     0.278 C 
ENDBRANCH  18  28
ENDBRANCH  16  17
ENDBRANCH  14  16
ENDBRANCH  11  14
ENDBRANCH   5  10
ENDBRANCH   2   4
ENDBRANCH   1   2
BRANCH   1  30
ATOM     30  C   UNL     1       1.193   3.814   4.575  1.00  0.00     0.275 C 
BRANCH  30  31
ATOM     31  C   UNL     1       0.039   3.434   5.503  1.00  0.00     0.275 C 
BRANCH  31  32
ATOM     32  O   UNL     1       0.528   2.796   6.698  1.00  0.00    -0.458 OA
BRANCH  32  33
ATOM     33  C   UNL     1       0.277   1.471   6.790  1.00  0.00     0.338 C 
ATOM     34  O   UNL     1      -0.375   0.781   6.024  1.00  0.00    -0.246 OA
BRANCH  33  35
ATOM     35  C   UNL     1       1.006   0.893   7.929  1.00  0.00     0.060 A 
ATOM     36  C   UNL     1       2.331   0.527   7.726  1.00  0.00     0.016 A 
ATOM     37  C   UNL     1       0.356   0.526   9.104  1.00  0.00     0.016 A 
ATOM     38  C   UNL     1       3.000  -0.266   8.648  1.00  0.00     0.010 A 
ATOM     39  C   UNL     1       1.051  -0.218  10.070  1.00  0.00     0.010 A 
ATOM     40  C   UNL     1       2.368  -0.658   9.832  1.00  0.00    -0.014 A 
BRANCH  40  41
ATOM     41  C   UNL     1       3.067  -1.612  10.738  1.00  0.00     0.031 A 
ATOM     42  C   UNL     1       2.485  -2.979  10.990  1.00  0.00     0.074 A 
ATOM     43  C   UNL     1       4.270  -1.299  11.260  1.00  0.00     0.049 A 
ATOM     44  N   UNL     1       2.896  -3.921  11.803  1.00  0.00    -0.248 NA
ATOM     45  C   UNL     1       1.274  -3.331  10.234  1.00  0.00     0.031 C 
ATOM     46  C   UNL     1       4.980  -0.036  11.052  1.00  0.00     0.029 A 
ATOM     47  N   UNL     1       5.124  -2.031  12.049  1.00  0.00    -0.354 N 
ATOM     48  C   UNL     1       1.962  -4.945  11.701  1.00  0.00     0.074 A 
ATOM     49  C   UNL     1       0.961  -4.510  10.751  1.00  0.00     0.031 C 
ATOM     50  C   UNL     1       6.181  -0.102  11.646  1.00  0.00     0.029 A 
ATOM     51  C   UNL     1       6.295  -1.377  12.348  1.00  0.00     0.049 A 
ATOM     52  H   UNL     1       4.917  -2.939  12.370  1.00  0.00     0.167 HD
ATOM     53  C   UNL     1       1.943  -6.139  12.342  1.00  0.00     0.037 A 
ATOM     54  C   UNL     1       7.332  -1.747  13.123  1.00  0.00     0.037 A 
ATOM     55  C   UNL     1       2.975  -6.599  13.236  1.00  0.00     0.049 A 
ATOM     56  C   UNL     1       7.285  -3.076  13.824  1.00  0.00     0.074 A 
ATOM     57  C   UNL     1       3.051  -7.796  13.927  1.00  0.00     0.029 A 
ATOM     58  N   UNL     1       4.126  -5.888  13.544  1.00  0.00    -0.354 N 
ATOM     59  N   UNL     1       6.364  -4.007  13.774  1.00  0.00    -0.248 NA
ATOM     60  C   UNL     1       8.417  -3.398  14.703  1.00  0.00     0.031 C 
ATOM     61  C   UNL     1       4.230  -7.795  14.680  1.00  0.00     0.029 A 
ATOM     62  C   UNL     1       4.913  -6.618  14.422  1.00  0.00     0.049 A 
ATOM     63  H   UNL     1       4.351  -4.997  13.192  1.00  0.00     0.167 HD
ATOM     64  C   UNL     1       6.804  -5.024  14.609  1.00  0.00     0.074 A 
ATOM     65  C   UNL     1       8.093  -4.612  15.125  1.00  0.00     0.031 C 
ATOM     66  C   UNL     1       6.190  -6.190  14.932  1.00  0.00     0.037 A 
BRANCH  53  67
ATOM     67  C   UNL     1       0.746  -7.021  12.129  1.00  0.00     0.064 A 
ATOM     68  C   UNL     1       0.519  -7.694  10.919  1.00  0.00     0.173 A 
ATOM     69  C   UNL     1      -0.176  -7.215  13.170  1.00  0.00     0.173 A 
ATOM     70  F   UNL     1       1.360  -7.530   9.887  1.00  0.00    -0.203 F 
ATOM     71  C   UNL     1      -0.602  -8.504  10.750  1.00  0.00     0.198 A 
ATOM     72  C   UNL     1      -1.279  -8.050  13.008  1.00  0.00     0.198 A 
ATOM     73  F   UNL     1      -0.004  -6.599  14.349  1.00  0.00    -0.203 F 
ATOM     74  F   UNL     1      -0.827  -9.097   9.569  1.00  0.00    -0.200 F 
ATOM     75  C   UNL     1      -1.495  -8.687  11.796  1.00  0.00     0.200 A 
ATOM     76  F   UNL     1      -2.133  -8.234  14.024  1.00  0.00    -0.200 F 
ATOM     77  F   UNL     1      -2.570  -9.472  11.633  1.00  0.00    -0.200 F 
ENDBRANCH  53  67
BRANCH  54  78
ATOM     78  C   UNL     1       8.490  -0.831  13.304  1.00  0.00     0.064 A 
ATOM     79  C   UNL     1       9.758  -1.157  12.805  1.00  0.00     0.173 A 
ATOM     80  C   UNL     1       8.352   0.387  13.987  1.00  0.00     0.173 A 
ATOM     81  F   UNL     1       9.948  -2.324  12.172  1.00  0.00    -0.203 F 
ATOM     82  C   UNL     1      10.846  -0.307  12.993  1.00  0.00     0.198 A 
ATOM     83  C   UNL     1       9.433   1.252  14.144  1.00  0.00     0.198 A 
ATOM     84  F   UNL     1       7.162   0.745  14.491  1.00  0.00    -0.203 F 
ATOM     85  F   UNL     1      12.059  -0.666  12.548  1.00  0.00    -0.200 F 
ATOM     86  C   UNL     1      10.681   0.901  13.654  1.00  0.00     0.200 A 
ATOM     87  F   UNL     1       9.264   2.423  14.773  1.00  0.00    -0.200 F 
ATOM     88  F   UNL     1      11.726   1.721  13.828  1.00  0.00    -0.200 F 
ENDBRANCH  54  78
BRANCH  66  89
ATOM     89  C   UNL     1       6.923  -7.102  15.872  1.00  0.00     0.064 A 
ATOM     90  C   UNL     1       7.071  -6.788  17.232  1.00  0.00     0.173 A 
ATOM     91  C   UNL     1       7.487  -8.299  15.409  1.00  0.00     0.173 A 
ATOM     92  F   UNL     1       6.562  -5.646  17.721  1.00  0.00    -0.203 F 
ATOM     93  C   UNL     1       7.792  -7.620  18.084  1.00  0.00     0.198 A 
ATOM     94  C   UNL     1       8.182  -9.144  16.270  1.00  0.00     0.198 A 
ATOM     95  F   UNL     1       7.367  -8.649  14.119  1.00  0.00    -0.203 F 
ATOM     96  F   UNL     1       7.975  -7.269  19.364  1.00  0.00    -0.200 F 
ATOM     97  C   UNL     1       8.344  -8.798  17.603  1.00  0.00     0.200 A 
ATOM     98  F   UNL     1       8.705 -10.287  15.807  1.00  0.00    -0.200 F 
ATOM     99  F   UNL     1       9.044  -9.595  18.423  1.00  0.00    -0.200 F 
ENDBRANCH  66  89
ENDBRANCH  40  41
ENDBRANCH  33  35
ENDBRANCH  32  33
ENDBRANCH  31  32
ENDBRANCH  30  31
ENDBRANCH   1  30
TORSDOF 16
