REMARK SMILES C=Cc1cncc(-c2ccc([C@@H](C)C(=O)OCCOC(=O)c3ccc(-c4c5nc(c(-c6c(F)c(F)c(F)c(F)c6F)c6ccc([nH]6)c(-c6c(F)c(F)c(F)c(F)c6F)c6nc(c(-c7c(F)c(F)c(F)c(F)c7F)c7ccc4[nH]7)C=C6)C=C5)cc3)cc2)c1
REMARK SMILES IDX 17 1 16 2 14 3 15 4 12 5 13 6 11 7 8 8 9 9 86 10 10 11 85 12
REMARK SMILES IDX 7 13 3 14 4 15 87 16 5 17 6 18 2 19 1 20 18 21 19 22 20 23
REMARK SMILES IDX 21 24 22 25 23 26 84 27 24 28 83 29 25 30 26 31 27 32 77 33
REMARK SMILES IDX 28 34 82 35 76 36 78 37 29 38 81 39 75 40 74 41 30 43 62 44
REMARK SMILES IDX 42 45 61 46 43 47 46 48 60 49 79 50 44 51 45 52 59 54 80 55
REMARK SMILES IDX 47 56 31 57 32 58 40 59 33 60 34 61 38 62 41 63 35 64 36 65
REMARK SMILES IDX 39 66 37 67 63 68 64 69 72 70 65 71 66 72 70 73 73 74 67 75
REMARK SMILES IDX 68 76 71 77 69 78 48 79 49 80 57 81 50 82 51 83 55 84 58 85
REMARK SMILES IDX 52 86 53 87 56 88 54 89
REMARK H PARENT 78 42 46 53
REMARK Flexibility Score: inf
ROOT
ATOM      1  C   UNL     1      -6.911   0.182   6.454  1.00  0.00     0.274 C 
ENDROOT
BRANCH   1   2
ATOM      2  O   UNL     1      -6.992   0.790   5.151  1.00  0.00    -0.462 OA
BRANCH   2   3
ATOM      3  C   UNL     1      -7.385   2.089   5.105  1.00  0.00     0.313 C 
ATOM      4  O   UNL     1      -7.732   2.742   6.085  1.00  0.00    -0.252 OA
BRANCH   3   5
ATOM      5  C   UNL     1      -7.416   2.671   3.697  1.00  0.00     0.126 C 
ATOM      6  C   UNL     1      -8.831   2.578   3.130  1.00  0.00     0.025 C 
BRANCH   5   7
ATOM      7  C   UNL     1      -6.364   2.143   2.734  1.00  0.00    -0.034 A 
ATOM      8  C   UNL     1      -4.432   1.233   0.854  1.00  0.00    -0.017 A 
ATOM      9  C   UNL     1      -5.480   0.403   1.281  1.00  0.00     0.009 A 
ATOM     10  C   UNL     1      -4.348   2.517   1.410  1.00  0.00     0.009 A 
ATOM     11  C   UNL     1      -6.431   0.849   2.203  1.00  0.00     0.005 A 
ATOM     12  C   UNL     1      -5.300   2.966   2.332  1.00  0.00     0.005 A 
BRANCH   8  13
ATOM     13  C   UNL     1      -3.491   0.783  -0.181  1.00  0.00     0.001 A 
ATOM     14  C   UNL     1      -1.243   0.377  -1.023  1.00  0.00    -0.007 A 
ATOM     15  C   UNL     1      -1.832  -0.057  -2.209  1.00  0.00     0.119 A 
ATOM     16  C   UNL     1      -2.100   0.813  -0.004  1.00  0.00     0.020 A 
ATOM     17  N   UNL     1      -3.164  -0.103  -2.430  1.00  0.00    -0.263 NA
ATOM     18  C   UNL     1      -3.953   0.316  -1.413  1.00  0.00     0.119 A 
BRANCH  14  19
ATOM     19  C   UNL     1       0.219   0.410  -0.912  1.00  0.00     0.002 C 
ATOM     20  C   UNL     1       0.897   0.078   0.193  1.00  0.00     0.009 C 
ENDBRANCH  14  19
ENDBRANCH   8  13
ENDBRANCH   5   7
ENDBRANCH   3   5
ENDBRANCH   2   3
ENDBRANCH   1   2
BRANCH   1  21
ATOM     21  C   UNL     1      -5.474   0.181   6.983  1.00  0.00     0.275 C 
BRANCH  21  22
ATOM     22  O   UNL     1      -5.045   1.511   7.326  1.00  0.00    -0.458 OA
BRANCH  22  23
ATOM     23  C   UNL     1      -4.324   2.144   6.373  1.00  0.00     0.338 C 
ATOM     24  O   UNL     1      -3.951   1.700   5.302  1.00  0.00    -0.246 OA
BRANCH  23  25
ATOM     25  C   UNL     1      -4.121   3.546   6.760  1.00  0.00     0.060 A 
ATOM     26  C   UNL     1      -4.731   4.536   5.986  1.00  0.00     0.016 A 
ATOM     27  C   UNL     1      -3.254   3.888   7.798  1.00  0.00     0.016 A 
ATOM     28  C   UNL     1      -4.461   5.879   6.229  1.00  0.00     0.010 A 
ATOM     29  C   UNL     1      -2.986   5.237   8.046  1.00  0.00     0.010 A 
ATOM     30  C   UNL     1      -3.571   6.237   7.248  1.00  0.00    -0.014 A 
BRANCH  30  31
ATOM     31  C   UNL     1      -3.188   7.658   7.417  1.00  0.00     0.031 A 
ATOM     32  C   UNL     1      -1.853   8.129   6.917  1.00  0.00     0.074 A 
ATOM     33  C   UNL     1      -4.046   8.526   7.982  1.00  0.00     0.049 A 
ATOM     34  N   UNL     1      -1.297   9.309   7.021  1.00  0.00    -0.248 NA
ATOM     35  C   UNL     1      -1.035   7.137   6.201  1.00  0.00     0.031 C 
ATOM     36  C   UNL     1      -5.388   8.195   8.459  1.00  0.00     0.029 A 
ATOM     37  N   UNL     1      -3.912   9.864   8.251  1.00  0.00    -0.354 N 
ATOM     38  C   UNL     1      -0.059   9.197   6.405  1.00  0.00     0.074 A 
ATOM     39  C   UNL     1       0.063   7.832   5.939  1.00  0.00     0.031 C 
ATOM     40  C   UNL     1      -5.955   9.303   8.964  1.00  0.00     0.029 A 
ATOM     41  C   UNL     1      -5.003  10.408   8.880  1.00  0.00     0.049 A 
ATOM     42  H   UNL     1      -3.110  10.385   8.014  1.00  0.00     0.167 HD
ATOM     43  C   UNL     1       0.889  10.150   6.241  1.00  0.00     0.037 A 
ATOM     44  C   UNL     1      -5.199  11.652   9.356  1.00  0.00     0.037 A 
ATOM     45  C   UNL     1       0.759  11.511   6.691  1.00  0.00     0.049 A 
ATOM     46  C   UNL     1      -4.111  12.680   9.203  1.00  0.00     0.074 A 
ATOM     47  C   UNL     1       1.663  12.552   6.571  1.00  0.00     0.029 A 
ATOM     48  N   UNL     1      -0.352  12.019   7.348  1.00  0.00    -0.354 N 
ATOM     49  N   UNL     1      -2.937  12.564   8.631  1.00  0.00    -0.248 NA
ATOM     50  C   UNL     1      -4.374  14.012   9.767  1.00  0.00     0.031 C 
ATOM     51  C   UNL     1       1.111  13.683   7.183  1.00  0.00     0.029 A 
ATOM     52  C   UNL     1      -0.151  13.356   7.651  1.00  0.00     0.049 A 
ATOM     53  H   UNL     1      -1.163  11.506   7.566  1.00  0.00     0.167 HD
ATOM     54  C   UNL     1      -2.330  13.806   8.748  1.00  0.00     0.074 A 
ATOM     55  C   UNL     1      -3.271  14.668   9.434  1.00  0.00     0.031 C 
ATOM     56  C   UNL     1      -1.103  14.198   8.327  1.00  0.00     0.037 A 
BRANCH  43  57
ATOM     57  C   UNL     1       2.165   9.745   5.568  1.00  0.00     0.064 A 
ATOM     58  C   UNL     1       2.230   9.526   4.185  1.00  0.00     0.173 A 
ATOM     59  C   UNL     1       3.344   9.601   6.315  1.00  0.00     0.173 A 
ATOM     60  F   UNL     1       1.126   9.635   3.432  1.00  0.00    -0.203 F 
ATOM     61  C   UNL     1       3.427   9.158   3.575  1.00  0.00     0.198 A 
ATOM     62  C   UNL     1       4.543   9.254   5.699  1.00  0.00     0.198 A 
ATOM     63  F   UNL     1       3.333   9.800   7.641  1.00  0.00    -0.203 F 
ATOM     64  F   UNL     1       3.459   8.915   2.257  1.00  0.00    -0.200 F 
ATOM     65  C   UNL     1       4.583   9.028   4.331  1.00  0.00     0.200 A 
ATOM     66  F   UNL     1       5.661   9.136   6.429  1.00  0.00    -0.200 F 
ATOM     67  F   UNL     1       5.734   8.677   3.742  1.00  0.00    -0.200 F 
ENDBRANCH  43  57
BRANCH  44  68
ATOM     68  C   UNL     1      -6.474  11.990  10.036  1.00  0.00     0.064 A 
ATOM     69  C   UNL     1      -7.407  12.848   9.438  1.00  0.00     0.173 A 
ATOM     70  C   UNL     1      -6.783  11.468  11.301  1.00  0.00     0.173 A 
ATOM     71  F   UNL     1      -7.143  13.392   8.241  1.00  0.00    -0.203 F 
ATOM     72  C   UNL     1      -8.596  13.179  10.084  1.00  0.00     0.198 A 
ATOM     73  C   UNL     1      -7.982  11.780  11.935  1.00  0.00     0.198 A 
ATOM     74  F   UNL     1      -5.920  10.646  11.916  1.00  0.00    -0.203 F 
ATOM     75  F   UNL     1      -9.453  14.033   9.507  1.00  0.00    -0.200 F 
ATOM     76  C   UNL     1      -8.885  12.641  11.329  1.00  0.00     0.200 A 
ATOM     77  F   UNL     1      -8.262  11.252  13.134  1.00  0.00    -0.200 F 
ATOM     78  F   UNL     1     -10.030  12.958  11.948  1.00  0.00    -0.200 F 
ENDBRANCH  44  68
BRANCH  56  79
ATOM     79  C   UNL     1      -0.720  15.627   8.570  1.00  0.00     0.064 A 
ATOM     80  C   UNL     1      -0.355  16.079   9.846  1.00  0.00     0.173 A 
ATOM     81  C   UNL     1      -0.680  16.542   7.508  1.00  0.00     0.173 A 
ATOM     82  F   UNL     1      -0.394  15.244  10.895  1.00  0.00    -0.203 F 
ATOM     83  C   UNL     1       0.018  17.404  10.053  1.00  0.00     0.198 A 
ATOM     84  C   UNL     1      -0.284  17.860   7.714  1.00  0.00     0.198 A 
ATOM     85  F   UNL     1      -1.015  16.154   6.268  1.00  0.00    -0.203 F 
ATOM     86  F   UNL     1       0.327  17.827  11.287  1.00  0.00    -0.200 F 
ATOM     87  C   UNL     1       0.060  18.291   8.987  1.00  0.00     0.200 A 
ATOM     88  F   UNL     1      -0.236  18.713   6.682  1.00  0.00    -0.200 F 
ATOM     89  F   UNL     1       0.424  19.565   9.188  1.00  0.00    -0.200 F 
ENDBRANCH  56  79
ENDBRANCH  30  31
ENDBRANCH  23  25
ENDBRANCH  22  23
ENDBRANCH  21  22
ENDBRANCH   1  21
TORSDOF 14
