REMARK SMILES CC(C)CCNC(=O)[C@@H](C)Oc1ccc(N)cc1C(=O)OCCOC(=O)c1ccc(-c2c3nc(c(-c4c(F)c(F)c(F)c(F)c4F)c4ccc([nH]4)c(-c4c(F)c(F)c(F)c(F)c4F)c4nc(c(-c5c(F)c(F)c(F)c(F)c5F)c5ccc2[nH]5)C=C4)C=C3)cc1
REMARK SMILES IDX 19 1 20 2 18 3 12 4 13 5 14 6 17 7 15 8 11 9 9 10 10 11 7 12
REMARK SMILES IDX 6 13 8 15 5 16 4 17 2 18 1 19 3 20 16 21 21 24 22 25 23 26
REMARK SMILES IDX 24 27 25 28 26 29 27 30 28 31 89 32 29 33 88 34 30 35 31 36
REMARK SMILES IDX 32 37 82 38 33 39 87 40 81 41 83 42 34 43 86 44 80 45 79 46
REMARK SMILES IDX 35 48 67 49 47 50 66 51 48 52 51 53 65 54 84 55 49 56 50 57
REMARK SMILES IDX 64 59 85 60 52 61 36 62 37 63 45 64 38 65 39 66 43 67 46 68
REMARK SMILES IDX 40 69 41 70 44 71 42 72 68 73 69 74 77 75 70 76 71 77 75 78
REMARK SMILES IDX 78 79 72 80 73 81 76 82 74 83 53 84 54 85 62 86 55 87 56 88
REMARK SMILES IDX 60 89 63 90 57 91 58 92 61 93 59 94
REMARK H PARENT 6 14 16 22 16 23 83 47 51 58
REMARK Flexibility Score: inf
ROOT
ATOM      1  C   UNL     1      -5.297  -1.775  -2.012  1.00  0.00     0.342 C 
ATOM      2  O   UNL     1      -5.789  -1.367  -3.055  1.00  0.00    -0.246 OA
ENDROOT
BRANCH   1   3
ATOM      3  C   UNL     1      -3.831  -1.709  -1.799  1.00  0.00     0.104 A 
ATOM      4  C   UNL     1      -3.069  -2.778  -1.335  1.00  0.00     0.135 A 
ATOM      5  C   UNL     1      -1.711  -2.828  -1.662  1.00  0.00     0.049 A 
ATOM      6  C   UNL     1      -1.078  -1.716  -2.231  1.00  0.00     0.029 A 
ATOM      7  C   UNL     1      -3.168  -0.577  -2.301  1.00  0.00     0.045 A 
ATOM      8  C   UNL     1      -1.784  -0.535  -2.433  1.00  0.00     0.032 A 
BRANCH   4   9
ATOM      9  O   UNL     1      -3.620  -3.815  -0.647  1.00  0.00    -0.480 OA
BRANCH   9  10
ATOM     10  C   UNL     1      -3.352  -3.786   0.764  1.00  0.00     0.258 C 
ATOM     11  C   UNL     1      -4.313  -2.871   1.527  1.00  0.00     0.064 C 
BRANCH  10  12
ATOM     12  C   UNL     1      -1.897  -3.792   1.343  1.00  0.00     0.260 C 
ATOM     13  N   UNL     1      -1.187  -2.665   1.647  1.00  0.00    -0.353 N 
ATOM     14  H   UNL     1      -0.395  -2.817   2.212  1.00  0.00     0.163 HD
ATOM     15  O   UNL     1      -1.326  -4.869   1.556  1.00  0.00    -0.271 OA
BRANCH  13  16
ATOM     16  C   UNL     1      -1.410  -1.283   1.275  1.00  0.00     0.116 C 
BRANCH  16  17
ATOM     17  C   UNL     1      -0.693  -0.267   2.159  1.00  0.00     0.024 C 
BRANCH  17  18
ATOM     18  C   UNL     1       0.841  -0.192   1.992  1.00  0.00    -0.016 C 
ATOM     19  C   UNL     1       1.288   0.062   0.549  1.00  0.00     0.007 C 
ATOM     20  C   UNL     1       1.386   0.925   2.888  1.00  0.00     0.007 C 
ENDBRANCH  17  18
ENDBRANCH  16  17
ENDBRANCH  13  16
ENDBRANCH  10  12
ENDBRANCH   9  10
ENDBRANCH   4   9
BRANCH   8  21
ATOM     21  N   UNL     1      -1.160   0.608  -2.901  1.00  0.00    -0.399 N 
ATOM     22  H   UNL     1      -0.180   0.632  -2.993  1.00  0.00     0.156 HD
ATOM     23  H   UNL     1      -1.697   1.398  -3.142  1.00  0.00     0.156 HD
ENDBRANCH   8  21
ENDBRANCH   1   3
BRANCH   1  24
ATOM     24  O   UNL     1      -5.989  -2.287  -0.969  1.00  0.00    -0.458 OA
BRANCH  24  25
ATOM     25  C   UNL     1      -7.401  -2.473  -1.204  1.00  0.00     0.275 C 
BRANCH  25  26
ATOM     26  C   UNL     1      -8.249  -1.329  -0.645  1.00  0.00     0.275 C 
BRANCH  26  27
ATOM     27  O   UNL     1      -8.016  -0.098  -1.354  1.00  0.00    -0.458 OA
BRANCH  27  28
ATOM     28  C   UNL     1      -7.218   0.783  -0.720  1.00  0.00     0.338 C 
ATOM     29  O   UNL     1      -6.687   0.660   0.379  1.00  0.00    -0.246 OA
BRANCH  28  30
ATOM     30  C   UNL     1      -6.997   1.971  -1.552  1.00  0.00     0.060 A 
ATOM     31  C   UNL     1      -6.023   1.915  -2.543  1.00  0.00     0.016 A 
ATOM     32  C   UNL     1      -7.594   3.186  -1.227  1.00  0.00     0.016 A 
ATOM     33  C   UNL     1      -5.540   3.083  -3.123  1.00  0.00     0.010 A 
ATOM     34  C   UNL     1      -7.189   4.347  -1.895  1.00  0.00     0.010 A 
ATOM     35  C   UNL     1      -6.123   4.317  -2.816  1.00  0.00    -0.014 A 
BRANCH  35  36
ATOM     36  C   UNL     1      -5.603   5.580  -3.411  1.00  0.00     0.031 A 
ATOM     37  C   UNL     1      -5.153   6.699  -2.512  1.00  0.00     0.074 A 
ATOM     38  C   UNL     1      -5.533   5.739  -4.747  1.00  0.00     0.049 A 
ATOM     39  N   UNL     1      -4.940   7.959  -2.795  1.00  0.00    -0.248 NA
ATOM     40  C   UNL     1      -4.927   6.356  -1.099  1.00  0.00     0.031 C 
ATOM     41  C   UNL     1      -5.862   4.721  -5.744  1.00  0.00     0.029 A 
ATOM     42  N   UNL     1      -5.168   6.831  -5.497  1.00  0.00    -0.354 N 
ATOM     43  C   UNL     1      -4.637   8.573  -1.587  1.00  0.00     0.074 A 
ATOM     44  C   UNL     1      -4.671   7.544  -0.569  1.00  0.00     0.031 C 
ATOM     45  C   UNL     1      -5.663   5.224  -6.971  1.00  0.00     0.029 A 
ATOM     46  C   UNL     1      -5.296   6.630  -6.849  1.00  0.00     0.049 A 
ATOM     47  H   UNL     1      -4.846   7.674  -5.104  1.00  0.00     0.167 HD
ATOM     48  C   UNL     1      -4.370   9.880  -1.351  1.00  0.00     0.037 A 
ATOM     49  C   UNL     1      -5.197   7.493  -7.878  1.00  0.00     0.037 A 
ATOM     50  C   UNL     1      -4.274  10.884  -2.380  1.00  0.00     0.049 A 
ATOM     51  C   UNL     1      -4.917   8.941  -7.599  1.00  0.00     0.074 A 
ATOM     52  C   UNL     1      -4.007  12.236  -2.250  1.00  0.00     0.029 A 
ATOM     53  N   UNL     1      -4.418  10.634  -3.737  1.00  0.00    -0.354 N 
ATOM     54  N   UNL     1      -4.732   9.537  -6.447  1.00  0.00    -0.248 NA
ATOM     55  C   UNL     1      -4.857   9.839  -8.759  1.00  0.00     0.031 C 
ATOM     56  C   UNL     1      -4.014  12.808  -3.527  1.00  0.00     0.029 A 
ATOM     57  C   UNL     1      -4.248  11.806  -4.455  1.00  0.00     0.049 A 
ATOM     58  H   UNL     1      -4.614   9.753  -4.132  1.00  0.00     0.167 HD
ATOM     59  C   UNL     1      -4.529  10.877  -6.740  1.00  0.00     0.074 A 
ATOM     60  C   UNL     1      -4.597  11.005  -8.181  1.00  0.00     0.031 C 
ATOM     61  C   UNL     1      -4.313  11.910  -5.890  1.00  0.00     0.037 A 
BRANCH  48  62
ATOM     62  C   UNL     1      -4.214  10.310   0.078  1.00  0.00     0.064 A 
ATOM     63  C   UNL     1      -3.076   9.995   0.833  1.00  0.00     0.173 A 
ATOM     64  C   UNL     1      -5.221  11.070   0.695  1.00  0.00     0.173 A 
ATOM     65  F   UNL     1      -2.093   9.257   0.295  1.00  0.00    -0.203 F 
ATOM     66  C   UNL     1      -2.963  10.400   2.161  1.00  0.00     0.198 A 
ATOM     67  C   UNL     1      -5.093  11.496   2.014  1.00  0.00     0.198 A 
ATOM     68  F   UNL     1      -6.329  11.402   0.015  1.00  0.00    -0.203 F 
ATOM     69  F   UNL     1      -1.888  10.047   2.879  1.00  0.00    -0.200 F 
ATOM     70  C   UNL     1      -3.969  11.155   2.748  1.00  0.00     0.200 A 
ATOM     71  F   UNL     1      -6.062  12.232   2.576  1.00  0.00    -0.200 F 
ATOM     72  F   UNL     1      -3.858  11.544   4.026  1.00  0.00    -0.200 F 
ENDBRANCH  48  62
BRANCH  49  73
ATOM     73  C   UNL     1      -5.428   7.004  -9.261  1.00  0.00     0.064 A 
ATOM     74  C   UNL     1      -4.368   6.882 -10.169  1.00  0.00     0.173 A 
ATOM     75  C   UNL     1      -6.704   6.603  -9.687  1.00  0.00     0.173 A 
ATOM     76  F   UNL     1      -3.136   7.276  -9.815  1.00  0.00    -0.203 F 
ATOM     77  C   UNL     1      -4.575   6.372 -11.449  1.00  0.00     0.198 A 
ATOM     78  C   UNL     1      -6.905   6.069 -10.956  1.00  0.00     0.198 A 
ATOM     79  F   UNL     1      -7.750   6.701  -8.853  1.00  0.00    -0.203 F 
ATOM     80  F   UNL     1      -3.550   6.286 -12.307  1.00  0.00    -0.200 F 
ATOM     81  C   UNL     1      -5.840   5.955 -11.838  1.00  0.00     0.200 A 
ATOM     82  F   UNL     1      -8.125   5.652 -11.321  1.00  0.00    -0.200 F 
ATOM     83  F   UNL     1      -6.034   5.446 -13.062  1.00  0.00    -0.200 F 
ENDBRANCH  49  73
BRANCH  61  84
ATOM     84  C   UNL     1      -4.100  13.261  -6.500  1.00  0.00     0.064 A 
ATOM     85  C   UNL     1      -5.171  14.015  -7.000  1.00  0.00     0.173 A 
ATOM     86  C   UNL     1      -2.816  13.823  -6.546  1.00  0.00     0.173 A 
ATOM     87  F   UNL     1      -6.414  13.511  -6.991  1.00  0.00    -0.203 F 
ATOM     88  C   UNL     1      -4.960  15.281  -7.540  1.00  0.00     0.198 A 
ATOM     89  C   UNL     1      -2.612  15.096  -7.068  1.00  0.00     0.198 A 
ATOM     90  F   UNL     1      -1.762  13.138  -6.077  1.00  0.00    -0.203 F 
ATOM     91  F   UNL     1      -5.991  15.973  -8.043  1.00  0.00    -0.200 F 
ATOM     92  C   UNL     1      -3.682  15.822  -7.568  1.00  0.00     0.200 A 
ATOM     93  F   UNL     1      -1.379  15.621  -7.089  1.00  0.00    -0.200 F 
ATOM     94  F   UNL     1      -3.482  17.043  -8.084  1.00  0.00    -0.200 F 
ENDBRANCH  61  84
ENDBRANCH  35  36
ENDBRANCH  28  30
ENDBRANCH  27  28
ENDBRANCH  26  27
ENDBRANCH  25  26
ENDBRANCH  24  25
ENDBRANCH   1  24
TORSDOF 18
