REMARK SMILES COC(=O)C1=C(C)NC(C)=C(C(=O)OC)C1c1ccc(C(=O)OCCOC(=O)c2ccc(-c3c4nc(c(-c5c(F)c(F)c(F)c(F)c5F)c5ccc([nH]5)c(-c5c(F)c(F)c(F)c(F)c5F)c5nc(c(-c6c(F)c(F)c(F)c(F)c6F)c6ccc3[nH]6)C=C5)C=C4)cc2)cc1
REMARK SMILES IDX 24 1 23 2 21 3 22 4 20 5 17 6 18 7 93 8 19 9 92 10 16 11
REMARK SMILES IDX 5 12 6 13 7 14 8 15 11 16 9 17 10 19 3 20 4 21 2 22 1 23
REMARK SMILES IDX 12 24 13 25 14 26 15 27 25 28 26 29 27 30 28 31 29 32 30 33
REMARK SMILES IDX 91 34 31 35 90 36 32 37 33 38 34 39 84 40 35 41 89 42 83 43
REMARK SMILES IDX 85 44 36 45 88 46 82 47 81 48 37 50 69 51 49 52 68 53 50 54
REMARK SMILES IDX 53 55 67 56 86 57 51 58 52 59 66 61 87 62 54 63 38 64 39 65
REMARK SMILES IDX 47 66 40 67 41 68 45 69 48 70 42 71 43 72 46 73 44 74 70 75
REMARK SMILES IDX 71 76 79 77 72 78 73 79 77 80 80 81 74 82 75 83 78 84 76 85
REMARK SMILES IDX 55 86 56 87 64 88 57 89 58 90 62 91 65 92 59 93 60 94 63 95
REMARK SMILES IDX 61 96
REMARK H PARENT 8 18 85 49 53 60
REMARK Flexibility Score: inf
ROOT
ATOM      1  C   UNL     1       6.615   6.535  -0.888  1.00  0.00     0.275 C 
ENDROOT
BRANCH   1   2
ATOM      2  O   UNL     1       5.709   5.540  -1.399  1.00  0.00    -0.458 OA
BRANCH   2   3
ATOM      3  C   UNL     1       4.478   6.002  -1.740  1.00  0.00     0.338 C 
ATOM      4  O   UNL     1       4.078   7.144  -1.605  1.00  0.00    -0.246 OA
BRANCH   3   5
ATOM      5  C   UNL     1       3.672   4.947  -2.412  1.00  0.00     0.060 A 
ATOM      6  C   UNL     1       2.066   3.079  -3.775  1.00  0.00    -0.035 A 
ATOM      7  C   UNL     1       1.672   4.419  -3.691  1.00  0.00     0.005 A 
ATOM      8  C   UNL     1       3.277   2.686  -3.168  1.00  0.00     0.005 A 
ATOM      9  C   UNL     1       2.469   5.343  -3.017  1.00  0.00     0.016 A 
ATOM     10  C   UNL     1       4.074   3.613  -2.490  1.00  0.00     0.016 A 
BRANCH   6  11
ATOM     11  C   UNL     1       1.159   2.016  -4.404  1.00  0.00     0.098 C 
ATOM     12  C   UNL     1       0.133   1.512  -3.390  1.00  0.00     0.068 C 
ATOM     13  C   UNL     1      -1.140   1.232  -3.741  1.00  0.00     0.023 C 
ATOM     14  C   UNL     1      -2.209   0.750  -2.792  1.00  0.00     0.065 C 
ATOM     15  N   UNL     1      -1.540   1.433  -5.049  1.00  0.00    -0.362 N 
ATOM     16  C   UNL     1       0.506   2.423  -5.736  1.00  0.00     0.068 C 
ATOM     17  C   UNL     1      -0.781   2.090  -6.006  1.00  0.00     0.023 C 
ATOM     18  H   UNL     1      -2.421   1.087  -5.319  1.00  0.00     0.166 HD
ATOM     19  C   UNL     1      -1.514   2.388  -7.293  1.00  0.00     0.065 C 
BRANCH  12  20
ATOM     20  C   UNL     1       0.513   1.420  -1.970  1.00  0.00     0.336 C 
ATOM     21  O   UNL     1       0.410   2.345  -1.180  1.00  0.00    -0.246 OA
BRANCH  20  22
ATOM     22  O   UNL     1       0.907   0.155  -1.689  1.00  0.00    -0.466 OA
ATOM     23  C   UNL     1       1.151  -0.087  -0.301  1.00  0.00     0.282 C 
ENDBRANCH  20  22
ENDBRANCH  12  20
BRANCH  16  24
ATOM     24  C   UNL     1       1.266   3.274  -6.682  1.00  0.00     0.336 C 
ATOM     25  O   UNL     1       0.779   4.216  -7.290  1.00  0.00    -0.246 OA
BRANCH  24  26
ATOM     26  O   UNL     1       2.570   2.906  -6.721  1.00  0.00    -0.466 OA
ATOM     27  C   UNL     1       3.404   3.811  -7.451  1.00  0.00     0.282 C 
ENDBRANCH  24  26
ENDBRANCH  16  24
ENDBRANCH   6  11
ENDBRANCH   3   5
ENDBRANCH   2   3
ENDBRANCH   1   2
BRANCH   1  28
ATOM     28  C   UNL     1       7.595   6.981  -1.973  1.00  0.00     0.275 C 
BRANCH  28  29
ATOM     29  O   UNL     1       6.891   7.563  -3.088  1.00  0.00    -0.458 OA
BRANCH  29  30
ATOM     30  C   UNL     1       6.925   6.856  -4.239  1.00  0.00     0.338 C 
ATOM     31  O   UNL     1       7.515   5.810  -4.462  1.00  0.00    -0.246 OA
BRANCH  30  32
ATOM     32  C   UNL     1       6.105   7.533  -5.254  1.00  0.00     0.060 A 
ATOM     33  C   UNL     1       4.722   7.367  -5.231  1.00  0.00     0.016 A 
ATOM     34  C   UNL     1       6.712   8.239  -6.292  1.00  0.00     0.016 A 
ATOM     35  C   UNL     1       3.935   7.883  -6.259  1.00  0.00     0.010 A 
ATOM     36  C   UNL     1       5.915   8.808  -7.293  1.00  0.00     0.010 A 
ATOM     37  C   UNL     1       4.519   8.627  -7.295  1.00  0.00    -0.014 A 
BRANCH  37  38
ATOM     38  C   UNL     1       3.681   9.202  -8.384  1.00  0.00     0.031 A 
ATOM     39  C   UNL     1       3.887   8.767  -9.810  1.00  0.00     0.074 A 
ATOM     40  C   UNL     1       2.732  10.117  -8.101  1.00  0.00     0.049 A 
ATOM     41  N   UNL     1       3.406   9.283 -10.914  1.00  0.00    -0.248 NA
ATOM     42  C   UNL     1       4.756   7.599 -10.024  1.00  0.00     0.031 C 
ATOM     43  C   UNL     1       2.382  10.589  -6.761  1.00  0.00     0.029 A 
ATOM     44  N   UNL     1       1.887  10.817  -8.929  1.00  0.00    -0.354 N 
ATOM     45  C   UNL     1       3.940   8.528 -11.950  1.00  0.00     0.074 A 
ATOM     46  C   UNL     1       4.789   7.523 -11.347  1.00  0.00     0.031 C 
ATOM     47  C   UNL     1       1.383  11.479  -6.854  1.00  0.00     0.029 A 
ATOM     48  C   UNL     1       1.079  11.707  -8.263  1.00  0.00     0.049 A 
ATOM     49  H   UNL     1       1.863  10.693  -9.905  1.00  0.00     0.167 HD
ATOM     50  C   UNL     1       3.736   8.663 -13.283  1.00  0.00     0.037 A 
ATOM     51  C   UNL     1       0.227  12.639  -8.732  1.00  0.00     0.037 A 
ATOM     52  C   UNL     1       2.858   9.638 -13.879  1.00  0.00     0.049 A 
ATOM     53  C   UNL     1       0.080  12.820 -10.219  1.00  0.00     0.074 A 
ATOM     54  C   UNL     1       2.587   9.851 -15.220  1.00  0.00     0.029 A 
ATOM     55  N   UNL     1       2.098  10.554 -13.169  1.00  0.00    -0.354 N 
ATOM     56  N   UNL     1       0.634  12.143 -11.194  1.00  0.00    -0.248 NA
ATOM     57  C   UNL     1      -0.790  13.917 -10.669  1.00  0.00     0.031 C 
ATOM     58  C   UNL     1       1.689  10.918 -15.323  1.00  0.00     0.029 A 
ATOM     59  C   UNL     1       1.371  11.345 -14.045  1.00  0.00     0.049 A 
ATOM     60  H   UNL     1       2.076  10.631 -12.188  1.00  0.00     0.167 HD
ATOM     61  C   UNL     1       0.175  12.722 -12.368  1.00  0.00     0.074 A 
ATOM     62  C   UNL     1      -0.722  13.792 -11.987  1.00  0.00     0.031 C 
ATOM     63  C   UNL     1       0.479  12.402 -13.649  1.00  0.00     0.037 A 
BRANCH  50  64
ATOM     64  C   UNL     1       4.487   7.748 -14.204  1.00  0.00     0.064 A 
ATOM     65  C   UNL     1       4.134   6.401 -14.355  1.00  0.00     0.173 A 
ATOM     66  C   UNL     1       5.530   8.248 -15.001  1.00  0.00     0.173 A 
ATOM     67  F   UNL     1       3.152   5.872 -13.609  1.00  0.00    -0.203 F 
ATOM     68  C   UNL     1       4.804   5.582 -15.262  1.00  0.00     0.198 A 
ATOM     69  C   UNL     1       6.181   7.434 -15.924  1.00  0.00     0.198 A 
ATOM     70  F   UNL     1       5.902   9.533 -14.900  1.00  0.00    -0.203 F 
ATOM     71  F   UNL     1       4.469   4.289 -15.370  1.00  0.00    -0.200 F 
ATOM     72  C   UNL     1       5.820   6.102 -16.051  1.00  0.00     0.200 A 
ATOM     73  F   UNL     1       7.153   7.941 -16.695  1.00  0.00    -0.200 F 
ATOM     74  F   UNL     1       6.453   5.316 -16.934  1.00  0.00    -0.200 F 
ENDBRANCH  50  64
BRANCH  51  75
ATOM     75  C   UNL     1      -0.510  13.520  -7.788  1.00  0.00     0.064 A 
ATOM     76  C   UNL     1      -1.905  13.449  -7.672  1.00  0.00     0.173 A 
ATOM     77  C   UNL     1       0.161  14.469  -7.001  1.00  0.00     0.173 A 
ATOM     78  F   UNL     1      -2.596  12.583  -8.428  1.00  0.00    -0.203 F 
ATOM     79  C   UNL     1      -2.601  14.302  -6.817  1.00  0.00     0.198 A 
ATOM     80  C   UNL     1      -0.532  15.298  -6.123  1.00  0.00     0.198 A 
ATOM     81  F   UNL     1       1.495  14.586  -7.081  1.00  0.00    -0.203 F 
ATOM     82  F   UNL     1      -3.938  14.248  -6.764  1.00  0.00    -0.200 F 
ATOM     83  C   UNL     1      -1.913  15.220  -6.037  1.00  0.00     0.200 A 
ATOM     84  F   UNL     1       0.139  16.177  -5.365  1.00  0.00    -0.200 F 
ATOM     85  F   UNL     1      -2.582  16.038  -5.214  1.00  0.00    -0.200 F 
ENDBRANCH  51  75
BRANCH  63  86
ATOM     86  C   UNL     1      -0.179  13.206 -14.731  1.00  0.00     0.064 A 
ATOM     87  C   UNL     1       0.231  14.516 -15.017  1.00  0.00     0.173 A 
ATOM     88  C   UNL     1      -1.200  12.648 -15.513  1.00  0.00     0.173 A 
ATOM     89  F   UNL     1       1.192  15.098 -14.284  1.00  0.00    -0.203 F 
ATOM     90  C   UNL     1      -0.372  15.245 -16.038  1.00  0.00     0.198 A 
ATOM     91  C   UNL     1      -1.784  13.371 -16.549  1.00  0.00     0.198 A 
ATOM     92  F   UNL     1      -1.624  11.396 -15.280  1.00  0.00    -0.203 F 
ATOM     93  F   UNL     1       0.008  16.510 -16.270  1.00  0.00    -0.200 F 
ATOM     94  C   UNL     1      -1.373  14.671 -16.807  1.00  0.00     0.200 A 
ATOM     95  F   UNL     1      -2.744  12.812 -17.297  1.00  0.00    -0.200 F 
ATOM     96  F   UNL     1      -1.948  15.373 -17.794  1.00  0.00    -0.200 F 
ENDBRANCH  63  86
ENDBRANCH  37  38
ENDBRANCH  30  32
ENDBRANCH  29  30
ENDBRANCH  28  29
ENDBRANCH   1  28
TORSDOF 16
