REMARK SMILES C[C@@H]1c2ccccc2-c2ccc(C(=O)OCCOC(=O)c3ccc(-c4c5nc(c(-c6c(F)c(F)c(F)c(F)c6F)c6ccc([nH]6)c(-c6c(F)c(F)c(F)c(F)c6F)c6nc(c(-c7c(F)c(F)c(F)c(F)c7F)c7ccc4[nH]7)C=C6)C=C5)cc3)cc21
REMARK SMILES IDX 17 1 16 2 15 3 13 4 14 5 12 6 1 7 2 8 3 9 85 10 4 11 8 12
REMARK SMILES IDX 9 13 84 14 5 15 7 16 10 17 6 18 11 19 18 20 19 21 20 22
REMARK SMILES IDX 21 23 22 24 83 25 23 26 82 27 24 28 25 29 26 30 76 31 27 32
REMARK SMILES IDX 81 33 75 34 77 35 28 36 80 37 74 38 73 39 29 41 61 42 41 43
REMARK SMILES IDX 60 44 42 45 45 46 59 47 78 48 43 49 44 50 58 52 79 53 46 54
REMARK SMILES IDX 30 55 31 56 39 57 32 58 33 59 37 60 40 61 34 62 35 63 38 64
REMARK SMILES IDX 36 65 62 66 63 67 71 68 64 69 65 70 69 71 72 72 66 73 67 74
REMARK SMILES IDX 70 75 68 76 47 77 48 78 56 79 49 80 50 81 54 82 57 83 51 84
REMARK SMILES IDX 52 85 55 86 53 87
REMARK H PARENT 77 40 45 51
REMARK Flexibility Score: inf
ROOT
ATOM      1  C   UNL     1      -7.114  -0.949   1.226  1.00  0.00     0.275 C 
ENDROOT
BRANCH   1   2
ATOM      2  C   UNL     1      -6.421  -1.776   0.144  1.00  0.00     0.275 C 
BRANCH   2   3
ATOM      3  O   UNL     1      -4.995  -1.555   0.174  1.00  0.00    -0.458 OA
BRANCH   3   4
ATOM      4  C   UNL     1      -4.532  -0.629  -0.702  1.00  0.00     0.338 C 
ATOM      5  O   UNL     1      -5.190  -0.013  -1.526  1.00  0.00    -0.246 OA
BRANCH   4   6
ATOM      6  C   UNL     1      -3.093  -0.358  -0.469  1.00  0.00     0.060 A 
ATOM      7  C   UNL     1       0.207  -2.612   1.748  1.00  0.00     0.018 C 
ATOM      8  C   UNL     1       0.316  -1.934   0.390  1.00  0.00     0.047 C 
ATOM      9  C   UNL     1       1.488  -0.965   0.306  1.00  0.00    -0.033 A 
ATOM     10  C   UNL     1      -0.867  -1.023   0.080  1.00  0.00    -0.032 A 
ATOM     11  C   UNL     1       2.841  -1.227   0.451  1.00  0.00     0.005 A 
ATOM     12  C   UNL     1       1.028   0.333  -0.003  1.00  0.00    -0.014 A 
ATOM     13  C   UNL     1      -0.407   0.292  -0.168  1.00  0.00    -0.014 A 
ATOM     14  C   UNL     1      -2.210  -1.357  -0.045  1.00  0.00     0.020 A 
ATOM     15  C   UNL     1       3.738  -0.165   0.306  1.00  0.00     0.000 A 
ATOM     16  C   UNL     1       1.915   1.389  -0.132  1.00  0.00     0.009 A 
ATOM     17  C   UNL     1      -1.281   1.284  -0.569  1.00  0.00     0.010 A 
ATOM     18  C   UNL     1       3.279   1.133   0.026  1.00  0.00     0.001 A 
ATOM     19  C   UNL     1      -2.622   0.945  -0.748  1.00  0.00     0.016 A 
ENDBRANCH   4   6
ENDBRANCH   3   4
ENDBRANCH   2   3
ENDBRANCH   1   2
BRANCH   1  20
ATOM     20  O   UNL     1      -6.923   0.449   0.953  1.00  0.00    -0.458 OA
BRANCH  20  21
ATOM     21  C   UNL     1      -6.746   1.244   2.033  1.00  0.00     0.338 C 
ATOM     22  O   UNL     1      -6.806   0.918   3.205  1.00  0.00    -0.246 OA
BRANCH  21  23
ATOM     23  C   UNL     1      -6.471   2.628   1.592  1.00  0.00     0.060 A 
ATOM     24  C   UNL     1      -5.583   2.881   0.546  1.00  0.00     0.016 A 
ATOM     25  C   UNL     1      -7.036   3.695   2.290  1.00  0.00     0.016 A 
ATOM     26  C   UNL     1      -5.197   4.189   0.245  1.00  0.00     0.010 A 
ATOM     27  C   UNL     1      -6.716   5.009   1.931  1.00  0.00     0.010 A 
ATOM     28  C   UNL     1      -5.763   5.273   0.929  1.00  0.00    -0.014 A 
BRANCH  28  29
ATOM     29  C   UNL     1      -5.324   6.674   0.661  1.00  0.00     0.031 A 
ATOM     30  C   UNL     1      -4.759   7.508   1.783  1.00  0.00     0.074 A 
ATOM     31  C   UNL     1      -5.421   7.218  -0.569  1.00  0.00     0.049 A 
ATOM     32  N   UNL     1      -4.543   8.799   1.834  1.00  0.00    -0.248 NA
ATOM     33  C   UNL     1      -4.406   6.793   3.019  1.00  0.00     0.031 C 
ATOM     34  C   UNL     1      -5.894   6.530  -1.769  1.00  0.00     0.029 A 
ATOM     35  N   UNL     1      -5.122   8.486  -1.010  1.00  0.00    -0.354 N 
ATOM     36  C   UNL     1      -4.107   9.059   3.127  1.00  0.00     0.074 A 
ATOM     37  C   UNL     1      -4.072   7.791   3.825  1.00  0.00     0.031 C 
ATOM     38  C   UNL     1      -5.818   7.368  -2.815  1.00  0.00     0.029 A 
ATOM     39  C   UNL     1      -5.374   8.677  -2.346  1.00  0.00     0.049 A 
ATOM     40  H   UNL     1      -4.760   9.189  -0.424  1.00  0.00     0.167 HD
ATOM     41  C   UNL     1      -3.773  10.248   3.684  1.00  0.00     0.037 A 
ATOM     42  C   UNL     1      -5.300   9.789  -3.103  1.00  0.00     0.037 A 
ATOM     43  C   UNL     1      -3.727  11.498   2.972  1.00  0.00     0.049 A 
ATOM     44  C   UNL     1      -4.918  11.097  -2.469  1.00  0.00     0.074 A 
ATOM     45  C   UNL     1      -3.384  12.752   3.448  1.00  0.00     0.029 A 
ATOM     46  N   UNL     1      -4.004  11.645   1.622  1.00  0.00    -0.354 N 
ATOM     47  N   UNL     1      -4.598  11.350  -1.224  1.00  0.00    -0.248 NA
ATOM     48  C   UNL     1      -4.917  12.281  -3.341  1.00  0.00     0.031 C 
ATOM     49  C   UNL     1      -3.472  13.663   2.389  1.00  0.00     0.029 A 
ATOM     50  C   UNL     1      -3.840  12.969   1.248  1.00  0.00     0.049 A 
ATOM     51  H   UNL     1      -4.276  10.917   1.018  1.00  0.00     0.167 HD
ATOM     52  C   UNL     1      -4.360  12.715  -1.161  1.00  0.00     0.074 A 
ATOM     53  C   UNL     1      -4.546  13.236  -2.499  1.00  0.00     0.031 C 
ATOM     54  C   UNL     1      -4.029  13.472  -0.087  1.00  0.00     0.037 A 
BRANCH  41  55
ATOM     55  C   UNL     1      -3.464  10.264   5.151  1.00  0.00     0.064 A 
ATOM     56  C   UNL     1      -2.255   9.775   5.662  1.00  0.00     0.173 A 
ATOM     57  C   UNL     1      -4.386  10.815   6.055  1.00  0.00     0.173 A 
ATOM     58  F   UNL     1      -1.348   9.226   4.840  1.00  0.00    -0.203 F 
ATOM     59  C   UNL     1      -1.987   9.818   7.028  1.00  0.00     0.198 A 
ATOM     60  C   UNL     1      -4.106  10.878   7.417  1.00  0.00     0.198 A 
ATOM     61  F   UNL     1      -5.557  11.300   5.615  1.00  0.00    -0.203 F 
ATOM     62  F   UNL     1      -0.840   9.310   7.501  1.00  0.00    -0.200 F 
ATOM     63  C   UNL     1      -2.909  10.375   7.903  1.00  0.00     0.200 A 
ATOM     64  F   UNL     1      -4.993  11.426   8.258  1.00  0.00    -0.200 F 
ATOM     65  F   UNL     1      -2.646  10.421   9.216  1.00  0.00    -0.200 F 
ENDBRANCH  41  55
BRANCH  42  66
ATOM     66  C   UNL     1      -5.638   9.719  -4.548  1.00  0.00     0.064 A 
ATOM     67  C   UNL     1      -4.641   9.848  -5.526  1.00  0.00     0.173 A 
ATOM     68  C   UNL     1      -6.956   9.515  -4.981  1.00  0.00     0.173 A 
ATOM     69  F   UNL     1      -3.371  10.075  -5.160  1.00  0.00    -0.203 F 
ATOM     70  C   UNL     1      -4.952   9.775  -6.882  1.00  0.00     0.198 A 
ATOM     71  C   UNL     1      -7.262   9.416  -6.336  1.00  0.00     0.198 A 
ATOM     72  F   UNL     1      -7.945   9.393  -4.083  1.00  0.00    -0.203 F 
ATOM     73  F   UNL     1      -3.987   9.934  -7.797  1.00  0.00    -0.200 F 
ATOM     74  C   UNL     1      -6.260   9.551  -7.285  1.00  0.00     0.200 A 
ATOM     75  F   UNL     1      -8.525   9.189  -6.721  1.00  0.00    -0.200 F 
ATOM     76  F   UNL     1      -6.557   9.470  -8.590  1.00  0.00    -0.200 F 
ENDBRANCH  42  66
BRANCH  54  77
ATOM     77  C   UNL     1      -3.835  14.939  -0.318  1.00  0.00     0.064 A 
ATOM     78  C   UNL     1      -4.928  15.801  -0.484  1.00  0.00     0.173 A 
ATOM     79  C   UNL     1      -2.547  15.493  -0.341  1.00  0.00     0.173 A 
ATOM     80  F   UNL     1      -6.178  15.314  -0.485  1.00  0.00    -0.203 F 
ATOM     81  C   UNL     1      -4.737  17.166  -0.684  1.00  0.00     0.198 A 
ATOM     82  C   UNL     1      -2.361  16.860  -0.522  1.00  0.00     0.198 A 
ATOM     83  F   UNL     1      -1.471  14.708  -0.184  1.00  0.00    -0.203 F 
ATOM     84  F   UNL     1      -5.794  17.968  -0.877  1.00  0.00    -0.200 F 
ATOM     85  C   UNL     1      -3.455  17.695  -0.698  1.00  0.00     0.200 A 
ATOM     86  F   UNL     1      -1.122  17.372  -0.530  1.00  0.00    -0.200 F 
ATOM     87  F   UNL     1      -3.273  19.008  -0.890  1.00  0.00    -0.200 F 
ENDBRANCH  54  77
ENDBRANCH  28  29
ENDBRANCH  21  23
ENDBRANCH  20  21
ENDBRANCH   1  20
TORSDOF 11
