REMARK SMILES Cn1ccc(NC(=O)[C@@H]2CCCC[C@@H]2C(=O)OCCOC(=O)c2ccc(-c3c4nc(c(-c5c(F)c(F)c(F)c(F)c5F)c5ccc([nH]5)c(-c5c(F)c(F)c(F)c(F)c5F)c5nc(c(-c6c(F)c(F)c(F)c(F)c6F)c6ccc3[nH]6)C=C5)C=C4)cc2)n1
REMARK SMILES IDX 18 1 17 2 15 3 16 4 14 5 9 6 10 7 11 8 13 9 12 10 7 11 6 12
REMARK SMILES IDX 8 14 5 15 1 16 2 17 3 18 86 19 4 20 19 21 20 22 21 23 22 24
REMARK SMILES IDX 23 25 24 26 85 27 25 28 84 29 26 30 27 31 28 32 78 33 29 34
REMARK SMILES IDX 83 35 77 36 79 37 30 38 82 39 76 40 75 41 31 43 63 44 43 45
REMARK SMILES IDX 62 46 44 47 47 48 61 49 80 50 45 51 46 52 60 54 81 55 48 56
REMARK SMILES IDX 32 57 33 58 41 59 34 60 35 61 39 62 42 63 36 64 37 65 40 66
REMARK SMILES IDX 38 67 64 68 65 69 73 70 66 71 67 72 71 73 74 74 68 75 69 76
REMARK SMILES IDX 72 77 70 78 49 79 50 80 58 81 51 82 52 83 56 84 59 85 53 86
REMARK SMILES IDX 54 87 57 88 55 89
REMARK H PARENT 6 13 79 42 47 53
REMARK Flexibility Score: inf
ROOT
ATOM      1  C   UNL     1       2.394   2.319   3.452  1.00  0.00     0.274 C 
ENDROOT
BRANCH   1   2
ATOM      2  O   UNL     1       1.781   2.812   2.241  1.00  0.00    -0.462 OA
BRANCH   2   3
ATOM      3  C   UNL     1       0.502   2.430   2.019  1.00  0.00     0.309 C 
ATOM      4  O   UNL     1      -0.185   1.807   2.824  1.00  0.00    -0.252 OA
BRANCH   3   5
ATOM      5  C   UNL     1      -0.031   2.813   0.647  1.00  0.00     0.111 C 
ATOM      6  C   UNL     1       0.982   3.228  -0.448  1.00  0.00     0.093 C 
ATOM      7  C   UNL     1       1.233   4.754  -0.403  1.00  0.00     0.014 C 
ATOM      8  C   UNL     1      -0.057   5.562  -0.467  1.00  0.00     0.001 C 
ATOM      9  C   UNL     1      -1.271   3.716   0.709  1.00  0.00     0.016 C 
ATOM     10  C   UNL     1      -0.962   5.203   0.696  1.00  0.00     0.001 C 
BRANCH   6  11
ATOM     11  C   UNL     1       2.340   2.495  -0.437  1.00  0.00     0.229 C 
ATOM     12  N   UNL     1       2.456   1.141  -0.497  1.00  0.00    -0.309 N 
ATOM     13  H   UNL     1       3.375   0.801  -0.404  1.00  0.00     0.171 HD
ATOM     14  O   UNL     1       3.402   3.126  -0.353  1.00  0.00    -0.274 OA
BRANCH  12  15
ATOM     15  C   UNL     1       1.500   0.175  -0.666  1.00  0.00     0.154 A 
ATOM     16  C   UNL     1      -1.827  -0.777  -0.872  1.00  0.00     0.173 C 
ATOM     17  N   UNL     1      -0.384  -0.763  -0.854  1.00  0.00    -0.274 N 
ATOM     18  C   UNL     1       0.451  -1.770  -0.478  1.00  0.00     0.110 A 
ATOM     19  N   UNL     1       0.260   0.389  -1.096  1.00  0.00    -0.155 NA
ATOM     20  C   UNL     1       1.698  -1.196  -0.375  1.00  0.00     0.068 A 
ENDBRANCH  12  15
ENDBRANCH   6  11
ENDBRANCH   3   5
ENDBRANCH   2   3
ENDBRANCH   1   2
BRANCH   1  21
ATOM     21  C   UNL     1       2.535   3.442   4.473  1.00  0.00     0.275 C 
BRANCH  21  22
ATOM     22  O   UNL     1       1.230   3.973   4.753  1.00  0.00    -0.458 OA
BRANCH  22  23
ATOM     23  C   UNL     1       1.101   5.313   4.646  1.00  0.00     0.338 C 
ATOM     24  O   UNL     1       2.002   6.131   4.512  1.00  0.00    -0.246 OA
BRANCH  23  25
ATOM     25  C   UNL     1      -0.329   5.690   4.662  1.00  0.00     0.060 A 
ATOM     26  C   UNL     1      -1.303   4.839   4.141  1.00  0.00     0.016 A 
ATOM     27  C   UNL     1      -0.691   6.971   5.082  1.00  0.00     0.016 A 
ATOM     28  C   UNL     1      -2.600   5.305   3.925  1.00  0.00     0.010 A 
ATOM     29  C   UNL     1      -2.021   7.392   4.974  1.00  0.00     0.010 A 
ATOM     30  C   UNL     1      -2.988   6.580   4.356  1.00  0.00    -0.014 A 
BRANCH  30  31
ATOM     31  C   UNL     1      -4.375   7.086   4.138  1.00  0.00     0.031 A 
ATOM     32  C   UNL     1      -4.598   8.418   3.470  1.00  0.00     0.074 A 
ATOM     33  C   UNL     1      -5.448   6.376   4.542  1.00  0.00     0.049 A 
ATOM     34  N   UNL     1      -5.667   9.176   3.465  1.00  0.00    -0.248 NA
ATOM     35  C   UNL     1      -3.462   8.984   2.726  1.00  0.00     0.031 C 
ATOM     36  C   UNL     1      -5.413   5.045   5.150  1.00  0.00     0.029 A 
ATOM     37  N   UNL     1      -6.788   6.682   4.502  1.00  0.00    -0.354 N 
ATOM     38  C   UNL     1      -5.302  10.343   2.806  1.00  0.00     0.074 A 
ATOM     39  C   UNL     1      -3.923  10.182   2.394  1.00  0.00     0.031 C 
ATOM     40  C   UNL     1      -6.667   4.630   5.379  1.00  0.00     0.029 A 
ATOM     41  C   UNL     1      -7.590   5.710   5.048  1.00  0.00     0.049 A 
ATOM     42  H   UNL     1      -7.140   7.518   4.118  1.00  0.00     0.167 HD
ATOM     43  C   UNL     1      -6.049  11.451   2.583  1.00  0.00     0.037 A 
ATOM     44  C   UNL     1      -8.909   5.702   5.318  1.00  0.00     0.037 A 
ATOM     45  C   UNL     1      -7.447  11.569   2.910  1.00  0.00     0.049 A 
ATOM     46  C   UNL     1      -9.723   6.934   5.049  1.00  0.00     0.074 A 
ATOM     47  C   UNL     1      -8.295  12.645   2.710  1.00  0.00     0.029 A 
ATOM     48  N   UNL     1      -8.210  10.560   3.476  1.00  0.00    -0.354 N 
ATOM     49  N   UNL     1      -9.342   8.081   4.544  1.00  0.00    -0.248 NA
ATOM     50  C   UNL     1     -11.143   6.882   5.424  1.00  0.00     0.031 C 
ATOM     51  C   UNL     1      -9.568  12.293   3.171  1.00  0.00     0.029 A 
ATOM     52  C   UNL     1      -9.520  10.987   3.629  1.00  0.00     0.049 A 
ATOM     53  H   UNL     1      -7.873   9.671   3.732  1.00  0.00     0.167 HD
ATOM     54  C   UNL     1     -10.468   8.890   4.550  1.00  0.00     0.074 A 
ATOM     55  C   UNL     1     -11.556   8.094   5.080  1.00  0.00     0.031 C 
ATOM     56  C   UNL     1     -10.586  10.184   4.165  1.00  0.00     0.037 A 
BRANCH  43  57
ATOM     57  C   UNL     1      -5.368  12.650   1.992  1.00  0.00     0.064 A 
ATOM     58  C   UNL     1      -5.031  12.724   0.634  1.00  0.00     0.173 A 
ATOM     59  C   UNL     1      -5.107  13.771   2.797  1.00  0.00     0.173 A 
ATOM     60  F   UNL     1      -5.248  11.676  -0.173  1.00  0.00    -0.203 F 
ATOM     61  C   UNL     1      -4.447  13.874   0.105  1.00  0.00     0.198 A 
ATOM     62  C   UNL     1      -4.546  14.926   2.261  1.00  0.00     0.198 A 
ATOM     63  F   UNL     1      -5.417  13.752   4.103  1.00  0.00    -0.203 F 
ATOM     64  F   UNL     1      -4.107  13.915  -1.190  1.00  0.00    -0.200 F 
ATOM     65  C   UNL     1      -4.214  14.976   0.916  1.00  0.00     0.200 A 
ATOM     66  F   UNL     1      -4.333  15.993   3.044  1.00  0.00    -0.200 F 
ATOM     67  F   UNL     1      -3.666  16.085   0.401  1.00  0.00    -0.200 F 
ENDBRANCH  43  57
BRANCH  44  68
ATOM     68  C   UNL     1      -9.521   4.501   5.941  1.00  0.00     0.064 A 
ATOM     69  C   UNL     1     -10.389   3.678   5.213  1.00  0.00     0.173 A 
ATOM     70  C   UNL     1      -9.223   4.134   7.262  1.00  0.00     0.173 A 
ATOM     71  F   UNL     1     -10.725   4.004   3.956  1.00  0.00    -0.203 F 
ATOM     72  C   UNL     1     -10.933   2.529   5.782  1.00  0.00     0.198 A 
ATOM     73  C   UNL     1      -9.744   2.970   7.819  1.00  0.00     0.198 A 
ATOM     74  F   UNL     1      -8.398   4.891   8.000  1.00  0.00    -0.203 F 
ATOM     75  F   UNL     1     -11.782   1.771   5.074  1.00  0.00    -0.200 F 
ATOM     76  C   UNL     1     -10.601   2.169   7.080  1.00  0.00     0.200 A 
ATOM     77  F   UNL     1      -9.406   2.618   9.067  1.00  0.00    -0.200 F 
ATOM     78  F   UNL     1     -11.109   1.053   7.619  1.00  0.00    -0.200 F 
ENDBRANCH  44  68
BRANCH  56  79
ATOM     79  C   UNL     1     -11.941  10.809   4.296  1.00  0.00     0.064 A 
ATOM     80  C   UNL     1     -12.437  11.215   5.543  1.00  0.00     0.173 A 
ATOM     81  C   UNL     1     -12.741  11.019   3.165  1.00  0.00     0.173 A 
ATOM     82  F   UNL     1     -11.712  11.017   6.655  1.00  0.00    -0.203 F 
ATOM     83  C   UNL     1     -13.698  11.791   5.655  1.00  0.00     0.198 A 
ATOM     84  C   UNL     1     -13.994  11.613   3.278  1.00  0.00     0.198 A 
ATOM     85  F   UNL     1     -12.307  10.648   1.951  1.00  0.00    -0.203 F 
ATOM     86  F   UNL     1     -14.172  12.135   6.861  1.00  0.00    -0.200 F 
ATOM     87  C   UNL     1     -14.474  11.993   4.523  1.00  0.00     0.200 A 
ATOM     88  F   UNL     1     -14.742  11.812   2.184  1.00  0.00    -0.200 F 
ATOM     89  F   UNL     1     -15.691  12.545   4.633  1.00  0.00    -0.200 F 
ENDBRANCH  56  79
ENDBRANCH  30  31
ENDBRANCH  23  25
ENDBRANCH  22  23
ENDBRANCH  21  22
ENDBRANCH   1  21
TORSDOF 13
