REMARK SMILES CCc1ccc(/C=C2\C(=O)N(c3ccc(Cl)c(C(=O)OCCOC(=O)c4ccc(-c5c6nc(c(-c7c(F)c(F)c(F)c(F)c7F)c7ccc([nH]7)c(-c7c(F)c(F)c(F)c(F)c7F)c7nc(c(-c8c(F)c(F)c(F)c(F)c8F)c8ccc5[nH]8)C=C7)C=C6)cc4)c3)N=C2C)cc1
REMARK SMILES IDX 21 1 20 2 18 3 19 4 17 5 12 6 13 7 89 8 14 9 15 10 16 11
REMARK SMILES IDX 11 12 7 13 8 14 9 15 91 16 10 17 90 18 92 19 6 20 3 21 4 22
REMARK SMILES IDX 94 23 5 24 93 25 2 26 1 27 22 28 23 29 24 30 25 31 26 32
REMARK SMILES IDX 27 33 88 34 28 35 87 36 29 37 30 38 31 39 81 40 32 41 86 42
REMARK SMILES IDX 80 43 82 44 33 45 85 46 79 47 78 48 34 50 66 51 46 52 65 53
REMARK SMILES IDX 47 54 50 55 64 56 83 57 48 58 49 59 63 61 84 62 51 63 35 64
REMARK SMILES IDX 36 65 44 66 37 67 38 68 42 69 45 70 39 71 40 72 43 73 41 74
REMARK SMILES IDX 67 75 68 76 76 77 69 78 70 79 74 80 77 81 71 82 72 83 75 84
REMARK SMILES IDX 73 85 52 86 53 87 61 88 54 89 55 90 59 91 62 92 56 93 57 94
REMARK SMILES IDX 60 95 58 96
REMARK H PARENT 82 49 50 60
REMARK Flexibility Score: inf
ROOT
ATOM      1  C   UNL     1      -6.840  -4.848   4.581  1.00  0.00     0.275 C 
ENDROOT
BRANCH   1   2
ATOM      2  O   UNL     1      -5.516  -4.723   5.134  1.00  0.00    -0.458 OA
BRANCH   2   3
ATOM      3  C   UNL     1      -5.179  -3.539   5.715  1.00  0.00     0.339 C 
ATOM      4  O   UNL     1      -5.893  -2.556   5.790  1.00  0.00    -0.246 OA
BRANCH   3   5
ATOM      5  C   UNL     1      -3.829  -3.684   6.330  1.00  0.00     0.080 A 
ATOM      6  C   UNL     1      -1.683  -4.855   6.340  1.00  0.00     0.070 A 
ATOM      7  C   UNL     1      -1.407  -4.343   7.606  1.00  0.00     0.030 A 
ATOM      8  C   UNL     1      -2.909  -4.556   5.732  1.00  0.00     0.045 A 
ATOM      9  C   UNL     1      -2.268  -3.393   8.163  1.00  0.00     0.023 A 
ATOM     10  C   UNL     1      -3.452  -3.022   7.504  1.00  0.00     0.055 A 
ATOM     11  Cl  UNL     1      -4.376  -1.755   8.231  1.00  0.00    -0.083 Cl
BRANCH   6  12
ATOM     12  N   UNL     1      -0.692  -5.533   5.611  1.00  0.00    -0.196 N 
ATOM     13  C   UNL     1       1.725  -5.794   3.049  1.00  0.00     0.024 C 
ATOM     14  C   UNL     1       0.852  -5.977   4.049  1.00  0.00     0.065 C 
ATOM     15  C   UNL     1      -0.443  -5.295   4.253  1.00  0.00     0.280 C 
ATOM     16  C   UNL     1       1.089  -6.698   5.312  1.00  0.00     0.071 C 
ATOM     17  O   UNL     1      -1.075  -4.643   3.441  1.00  0.00    -0.267 OA
ATOM     18  N   UNL     1       0.228  -6.360   6.241  1.00  0.00    -0.169 NA
ATOM     19  C   UNL     1       2.209  -7.661   5.516  1.00  0.00     0.069 C 
BRANCH  13  20
ATOM     20  C   UNL     1       1.535  -4.718   2.068  1.00  0.00    -0.025 A 
ATOM     21  C   UNL     1       0.950  -2.561   0.340  1.00  0.00    -0.048 A 
ATOM     22  C   UNL     1       0.750  -3.893  -0.064  1.00  0.00     0.004 A 
ATOM     23  C   UNL     1       1.472  -2.328   1.616  1.00  0.00     0.004 A 
ATOM     24  C   UNL     1       1.040  -4.965   0.790  1.00  0.00     0.008 A 
ATOM     25  C   UNL     1       1.769  -3.394   2.467  1.00  0.00     0.008 A 
BRANCH  21  26
ATOM     26  C   UNL     1       0.530  -1.451  -0.598  1.00  0.00     0.032 C 
ATOM     27  C   UNL     1       0.931  -0.032  -0.207  1.00  0.00     0.009 C 
ENDBRANCH  21  26
ENDBRANCH  13  20
ENDBRANCH   6  12
ENDBRANCH   3   5
ENDBRANCH   2   3
ENDBRANCH   1   2
BRANCH   1  28
ATOM     28  C   UNL     1      -7.621  -5.945   5.311  1.00  0.00     0.275 C 
BRANCH  28  29
ATOM     29  O   UNL     1      -7.870  -5.571   6.681  1.00  0.00    -0.458 OA
BRANCH  29  30
ATOM     30  C   UNL     1      -6.999  -6.086   7.580  1.00  0.00     0.338 C 
ATOM     31  O   UNL     1      -6.106  -6.891   7.374  1.00  0.00    -0.246 OA
BRANCH  30  32
ATOM     32  C   UNL     1      -7.146  -5.382   8.864  1.00  0.00     0.060 A 
ATOM     33  C   UNL     1      -6.031  -4.684   9.322  1.00  0.00     0.016 A 
ATOM     34  C   UNL     1      -8.304  -5.442   9.640  1.00  0.00     0.016 A 
ATOM     35  C   UNL     1      -6.065  -4.007  10.536  1.00  0.00     0.010 A 
ATOM     36  C   UNL     1      -8.333  -4.783  10.879  1.00  0.00     0.010 A 
ATOM     37  C   UNL     1      -7.212  -4.062  11.334  1.00  0.00    -0.014 A 
BRANCH  37  38
ATOM     38  C   UNL     1      -7.168  -3.450  12.685  1.00  0.00     0.031 A 
ATOM     39  C   UNL     1      -6.971  -4.328  13.886  1.00  0.00     0.074 A 
ATOM     40  C   UNL     1      -7.216  -2.113  12.832  1.00  0.00     0.049 A 
ATOM     41  N   UNL     1      -6.912  -4.006  15.153  1.00  0.00    -0.248 NA
ATOM     42  C   UNL     1      -6.809  -5.766  13.621  1.00  0.00     0.031 C 
ATOM     43  C   UNL     1      -7.317  -1.147  11.740  1.00  0.00     0.029 A 
ATOM     44  N   UNL     1      -7.169  -1.337  13.964  1.00  0.00    -0.354 N 
ATOM     45  C   UNL     1      -6.729  -5.200  15.838  1.00  0.00     0.074 A 
ATOM     46  C   UNL     1      -6.700  -6.255  14.848  1.00  0.00     0.031 C 
ATOM     47  C   UNL     1      -7.314   0.095  12.254  1.00  0.00     0.029 A 
ATOM     48  C   UNL     1      -7.257   0.010  13.712  1.00  0.00     0.049 A 
ATOM     49  H   UNL     1      -7.080  -1.711  14.871  1.00  0.00     0.167 HD
ATOM     50  C   UNL     1      -6.595  -5.396  17.172  1.00  0.00     0.037 A 
ATOM     51  C   UNL     1      -7.306   1.053  14.563  1.00  0.00     0.037 A 
ATOM     52  C   UNL     1      -6.603  -4.343  18.154  1.00  0.00     0.049 A 
ATOM     53  C   UNL     1      -7.248   0.798  16.048  1.00  0.00     0.074 A 
ATOM     54  C   UNL     1      -6.456  -4.441  19.526  1.00  0.00     0.029 A 
ATOM     55  N   UNL     1      -6.774  -2.996  17.866  1.00  0.00    -0.354 N 
ATOM     56  N   UNL     1      -7.078  -0.332  16.690  1.00  0.00    -0.248 NA
ATOM     57  C   UNL     1      -7.397   1.968  16.926  1.00  0.00     0.031 C 
ATOM     58  C   UNL     1      -6.595  -3.161  20.075  1.00  0.00     0.029 A 
ATOM     59  C   UNL     1      -6.771  -2.257  19.040  1.00  0.00     0.049 A 
ATOM     60  H   UNL     1      -6.883  -2.620  16.963  1.00  0.00     0.167 HD
ATOM     61  C   UNL     1      -7.069  -0.007  18.041  1.00  0.00     0.074 A 
ATOM     62  C   UNL     1      -7.239   1.428  18.126  1.00  0.00     0.031 C 
ATOM     63  C   UNL     1      -6.931  -0.826  19.113  1.00  0.00     0.037 A 
BRANCH  50  64
ATOM     64  C   UNL     1      -6.479  -6.814  17.651  1.00  0.00     0.064 A 
ATOM     65  C   UNL     1      -5.328  -7.584  17.429  1.00  0.00     0.173 A 
ATOM     66  C   UNL     1      -7.539  -7.405  18.355  1.00  0.00     0.173 A 
ATOM     67  F   UNL     1      -4.292  -7.071  16.749  1.00  0.00    -0.203 F 
ATOM     68  C   UNL     1      -5.257  -8.905  17.865  1.00  0.00     0.198 A 
ATOM     69  C   UNL     1      -7.452  -8.716  18.816  1.00  0.00     0.198 A 
ATOM     70  F   UNL     1      -8.661  -6.710  18.599  1.00  0.00    -0.203 F 
ATOM     71  F   UNL     1      -4.170  -9.641  17.594  1.00  0.00    -0.200 F 
ATOM     72  C   UNL     1      -6.316  -9.468  18.562  1.00  0.00     0.200 A 
ATOM     73  F   UNL     1      -8.472  -9.252  19.500  1.00  0.00    -0.200 F 
ATOM     74  F   UNL     1      -6.245 -10.739  18.982  1.00  0.00    -0.200 F 
ENDBRANCH  50  64
BRANCH  51  75
ATOM     75  C   UNL     1      -7.434   2.439  14.040  1.00  0.00     0.064 A 
ATOM     76  C   UNL     1      -6.398   3.370  14.196  1.00  0.00     0.173 A 
ATOM     77  C   UNL     1      -8.606   2.870  13.400  1.00  0.00     0.173 A 
ATOM     78  F   UNL     1      -5.271   3.016  14.832  1.00  0.00    -0.203 F 
ATOM     79  C   UNL     1      -6.534   4.682  13.746  1.00  0.00     0.198 A 
ATOM     80  C   UNL     1      -8.729   4.174  12.923  1.00  0.00     0.198 A 
ATOM     81  F   UNL     1      -9.633   2.023  13.236  1.00  0.00    -0.203 F 
ATOM     82  F   UNL     1      -5.547   5.565  13.954  1.00  0.00    -0.200 F 
ATOM     83  C   UNL     1      -7.696   5.081  13.104  1.00  0.00     0.200 A 
ATOM     84  F   UNL     1      -9.852   4.553  12.299  1.00  0.00    -0.200 F 
ATOM     85  F   UNL     1      -7.827   6.342  12.672  1.00  0.00    -0.200 F 
ENDBRANCH  51  75
BRANCH  63  86
ATOM     86  C   UNL     1      -6.914  -0.188  20.473  1.00  0.00     0.064 A 
ATOM     87  C   UNL     1      -8.072   0.353  21.049  1.00  0.00     0.173 A 
ATOM     88  C   UNL     1      -5.730  -0.156  21.226  1.00  0.00     0.173 A 
ATOM     89  F   UNL     1      -9.227   0.361  20.365  1.00  0.00    -0.203 F 
ATOM     90  C   UNL     1      -8.040   0.926  22.319  1.00  0.00     0.198 A 
ATOM     91  C   UNL     1      -5.709   0.389  22.507  1.00  0.00     0.198 A 
ATOM     92  F   UNL     1      -4.595  -0.666  20.725  1.00  0.00    -0.203 F 
ATOM     93  F   UNL     1      -9.148   1.480  22.830  1.00  0.00    -0.200 F 
ATOM     94  C   UNL     1      -6.861   0.936  23.049  1.00  0.00     0.200 A 
ATOM     95  F   UNL     1      -4.572   0.385  23.217  1.00  0.00    -0.200 F 
ATOM     96  F   UNL     1      -6.835   1.480  24.274  1.00  0.00    -0.200 F 
ENDBRANCH  63  86
ENDBRANCH  37  38
ENDBRANCH  30  32
ENDBRANCH  29  30
ENDBRANCH  28  29
ENDBRANCH   1  28
TORSDOF 14
