REMARK SMILES CCCC#C[C@](C)(O)C[NH2+][C@H](C)C(=O)OCCOC(=O)c1ccc(-c2c3nc(c(-c4c(F)c(F)c(F)c(F)c4F)c4ccc([nH]4)c(-c4c(F)c(F)c(F)c(F)c4F)c4nc(c(-c5c(F)c(F)c(F)c(F)c5F)c5ccc2[nH]5)C=C4)C=C3)cc1
REMARK SMILES IDX 13 1 14 2 11 3 12 4 10 5 9 8 6 9 7 10 5 11 4 12 3 13 2 14
REMARK SMILES IDX 1 15 8 16 15 18 16 19 17 20 18 21 19 22 20 23 21 24 22 25
REMARK SMILES IDX 83 26 23 27 82 28 24 29 25 30 26 31 76 32 27 33 81 34 75 35
REMARK SMILES IDX 77 36 28 37 80 38 74 39 73 40 29 42 61 43 41 44 60 45 42 46
REMARK SMILES IDX 45 47 59 48 78 49 43 50 44 51 58 53 79 54 46 55 30 56 31 57
REMARK SMILES IDX 39 58 32 59 33 60 37 61 40 62 34 63 35 64 38 65 36 66 62 67
REMARK SMILES IDX 63 68 71 69 64 70 65 71 69 72 72 73 66 74 67 75 70 76 68 77
REMARK SMILES IDX 47 78 48 79 56 80 49 81 50 82 54 83 57 84 51 85 52 86 55 87
REMARK SMILES IDX 53 88
REMARK H PARENT 10 6 10 7 8 17 77 41 45 52
REMARK Flexibility Score: inf
ROOT
ATOM      1  C   UNL     1       2.608   7.773   2.250  1.00  0.00     0.364 C 
ATOM      2  O   UNL     1       3.788   8.103   2.160  1.00  0.00    -0.245 OA
ENDROOT
BRANCH   1   3
ATOM      3  C   UNL     1       1.756   7.333   1.036  1.00  0.00     0.290 C 
ATOM      4  C   UNL     1       0.405   6.735   1.414  1.00  0.00     0.088 C 
BRANCH   3   5
ATOM      5  N   UNL     1       1.548   8.437   0.073  1.00  0.00    -0.332 N 
ATOM      6  H   UNL     1       0.867   8.138  -0.624  1.00  0.00     0.347 HD
ATOM      7  H   UNL     1       1.219   9.247   0.598  1.00  0.00     0.347 HD
BRANCH   5   8
ATOM      8  C   UNL     1       2.794   8.828  -0.619  1.00  0.00     0.310 C 
BRANCH   8   9
ATOM      9  C   UNL     1       2.663  10.179  -1.366  1.00  0.00     0.171 C 
ATOM     10  C   UNL     1       1.753  10.058  -2.590  1.00  0.00     0.063 C 
BRANCH   9  11
ATOM     11  C   UNL     1       4.000  10.661  -1.765  1.00  0.00    -0.063 C 
ATOM     12  C   UNL     1       5.132  11.129  -2.211  1.00  0.00    -0.100 C 
BRANCH  12  13
ATOM     13  C   UNL     1       6.452  11.675  -2.732  1.00  0.00     0.089 C 
BRANCH  13  14
ATOM     14  C   UNL     1       6.689  11.268  -4.185  1.00  0.00     0.010 C 
ATOM     15  C   UNL     1       5.672  11.867  -5.148  1.00  0.00     0.005 C 
ENDBRANCH  13  14
ENDBRANCH  12  13
ENDBRANCH   9  11
BRANCH   9  16
ATOM     16  O   UNL     1       2.088  11.140  -0.468  1.00  0.00    -0.372 OA
ATOM     17  H   UNL     1       1.207  10.840  -0.195  1.00  0.00     0.212 HD
ENDBRANCH   9  16
ENDBRANCH   8   9
ENDBRANCH   5   8
ENDBRANCH   3   5
ENDBRANCH   1   3
BRANCH   1  18
ATOM     18  O   UNL     1       1.934   7.732   3.430  1.00  0.00    -0.458 OA
BRANCH  18  19
ATOM     19  C   UNL     1       2.716   8.067   4.592  1.00  0.00     0.274 C 
BRANCH  19  20
ATOM     20  C   UNL     1       3.372   6.835   5.230  1.00  0.00     0.275 C 
BRANCH  20  21
ATOM     21  O   UNL     1       4.426   6.269   4.425  1.00  0.00    -0.458 OA
BRANCH  21  22
ATOM     22  C   UNL     1       4.033   5.321   3.542  1.00  0.00     0.338 C 
ATOM     23  O   UNL     1       2.903   4.894   3.372  1.00  0.00    -0.246 OA
BRANCH  22  24
ATOM     24  C   UNL     1       5.156   4.928   2.673  1.00  0.00     0.060 A 
ATOM     25  C   UNL     1       5.037   5.165   1.301  1.00  0.00     0.016 A 
ATOM     26  C   UNL     1       6.261   4.242   3.175  1.00  0.00     0.016 A 
ATOM     27  C   UNL     1       6.010   4.711   0.419  1.00  0.00     0.010 A 
ATOM     28  C   UNL     1       7.245   3.788   2.288  1.00  0.00     0.010 A 
ATOM     29  C   UNL     1       7.119   4.012   0.905  1.00  0.00    -0.014 A 
BRANCH  29  30
ATOM     30  C   UNL     1       8.126   3.492  -0.049  1.00  0.00     0.031 A 
ATOM     31  C   UNL     1       8.175   2.026  -0.361  1.00  0.00     0.074 A 
ATOM     32  C   UNL     1       8.971   4.345  -0.656  1.00  0.00     0.049 A 
ATOM     33  N   UNL     1       9.042   1.363  -1.083  1.00  0.00    -0.248 NA
ATOM     34  C   UNL     1       7.106   1.196   0.213  1.00  0.00     0.031 C 
ATOM     35  C   UNL     1       8.972   5.797  -0.480  1.00  0.00     0.029 A 
ATOM     36  N   UNL     1       9.993   4.111  -1.540  1.00  0.00    -0.354 N 
ATOM     37  C   UNL     1       8.639   0.036  -1.031  1.00  0.00     0.074 A 
ATOM     38  C   UNL     1       7.453  -0.015  -0.202  1.00  0.00     0.031 C 
ATOM     39  C   UNL     1       9.953   6.325  -1.230  1.00  0.00     0.029 A 
ATOM     40  C   UNL     1      10.678   5.246  -1.894  1.00  0.00     0.049 A 
ATOM     41  H   UNL     1      10.214   3.216  -1.886  1.00  0.00     0.167 HD
ATOM     42  C   UNL     1       9.212  -1.039  -1.622  1.00  0.00     0.037 A 
ATOM     43  C   UNL     1      11.789   5.393  -2.640  1.00  0.00     0.037 A 
ATOM     44  C   UNL     1      10.380  -0.979  -2.462  1.00  0.00     0.049 A 
ATOM     45  C   UNL     1      12.445   4.175  -3.228  1.00  0.00     0.074 A 
ATOM     46  C   UNL     1      11.027  -2.011  -3.118  1.00  0.00     0.029 A 
ATOM     47  N   UNL     1      11.074   0.184  -2.762  1.00  0.00    -0.354 N 
ATOM     48  N   UNL     1      12.075   2.920  -3.154  1.00  0.00    -0.248 NA
ATOM     49  C   UNL     1      13.682   4.392  -3.991  1.00  0.00     0.031 C 
ATOM     50  C   UNL     1      12.136  -1.478  -3.785  1.00  0.00     0.029 A 
ATOM     51  C   UNL     1      12.157  -0.108  -3.575  1.00  0.00     0.049 A 
ATOM     52  H   UNL     1      10.833   1.084  -2.444  1.00  0.00     0.167 HD
ATOM     53  C   UNL     1      13.023   2.199  -3.866  1.00  0.00     0.074 A 
ATOM     54  C   UNL     1      13.978   3.159  -4.380  1.00  0.00     0.031 C 
ATOM     55  C   UNL     1      13.099   0.862  -4.072  1.00  0.00     0.037 A 
BRANCH  42  56
ATOM     56  C   UNL     1       8.604  -2.382  -1.352  1.00  0.00     0.064 A 
ATOM     57  C   UNL     1       7.401  -2.783  -1.950  1.00  0.00     0.173 A 
ATOM     58  C   UNL     1       9.256  -3.295  -0.508  1.00  0.00     0.173 A 
ATOM     59  F   UNL     1       6.734  -1.940  -2.753  1.00  0.00    -0.203 F 
ATOM     60  C   UNL     1       6.863  -4.043  -1.699  1.00  0.00     0.198 A 
ATOM     61  C   UNL     1       8.727  -4.561  -0.277  1.00  0.00     0.198 A 
ATOM     62  F   UNL     1      10.412  -2.959   0.086  1.00  0.00    -0.203 F 
ATOM     63  F   UNL     1       5.694  -4.393  -2.253  1.00  0.00    -0.200 F 
ATOM     64  C   UNL     1       7.529  -4.932  -0.868  1.00  0.00     0.200 A 
ATOM     65  F   UNL     1       9.376  -5.422   0.519  1.00  0.00    -0.200 F 
ATOM     66  F   UNL     1       7.012  -6.146  -0.632  1.00  0.00    -0.200 F 
ENDBRANCH  42  56
BRANCH  43  67
ATOM     67  C   UNL     1      12.370   6.744  -2.836  1.00  0.00     0.064 A 
ATOM     68  C   UNL     1      12.322   7.377  -4.084  1.00  0.00     0.173 A 
ATOM     69  C   UNL     1      12.978   7.432  -1.775  1.00  0.00     0.173 A 
ATOM     70  F   UNL     1      11.774   6.748  -5.134  1.00  0.00    -0.203 F 
ATOM     71  C   UNL     1      12.867   8.647  -4.266  1.00  0.00     0.198 A 
ATOM     72  C   UNL     1      13.500   8.710  -1.952  1.00  0.00     0.198 A 
ATOM     73  F   UNL     1      13.051   6.865  -0.561  1.00  0.00    -0.203 F 
ATOM     74  F   UNL     1      12.839   9.218  -5.478  1.00  0.00    -0.200 F 
ATOM     75  C   UNL     1      13.449   9.315  -3.198  1.00  0.00     0.200 A 
ATOM     76  F   UNL     1      14.051   9.357  -0.915  1.00  0.00    -0.200 F 
ATOM     77  F   UNL     1      13.965  10.539  -3.373  1.00  0.00    -0.200 F 
ENDBRANCH  43  67
BRANCH  55  78
ATOM     78  C   UNL     1      14.245   0.362  -4.897  1.00  0.00     0.064 A 
ATOM     79  C   UNL     1      15.544   0.292  -4.374  1.00  0.00     0.173 A 
ATOM     80  C   UNL     1      14.037  -0.084  -6.211  1.00  0.00     0.173 A 
ATOM     81  F   UNL     1      15.795   0.724  -3.129  1.00  0.00    -0.203 F 
ATOM     82  C   UNL     1      16.599  -0.192  -5.144  1.00  0.00     0.198 A 
ATOM     83  C   UNL     1      15.089  -0.588  -6.969  1.00  0.00     0.198 A 
ATOM     84  F   UNL     1      12.811  -0.039  -6.753  1.00  0.00    -0.203 F 
ATOM     85  F   UNL     1      17.839  -0.216  -4.638  1.00  0.00    -0.200 F 
ATOM     86  C   UNL     1      16.369  -0.637  -6.438  1.00  0.00     0.200 A 
ATOM     87  F   UNL     1      14.865  -1.026  -8.216  1.00  0.00    -0.200 F 
ATOM     88  F   UNL     1      17.384  -1.107  -7.176  1.00  0.00    -0.200 F 
ENDBRANCH  55  78
ENDBRANCH  29  30
ENDBRANCH  22  24
ENDBRANCH  21  22
ENDBRANCH  20  21
ENDBRANCH  19  20
ENDBRANCH  18  19
ENDBRANCH   1  18
TORSDOF 18
