REMARK SMILES Cc1ccc2c(c1)C=C(C(=O)OCCOC(=O)c1ccc(-c3c4nc(c(-c5c(F)c(F)c(F)c(F)c5F)c5ccc([nH]5)c(-c5c(F)c(F)c(F)c(F)c5F)c5nc(c(-c6c(F)c(F)c(F)c(F)c6F)c6ccc3[nH]6)C=C5)C=C4)cc1)[C@@H](C(F)(F)F)O2
REMARK SMILES IDX 14 1 13 2 12 3 10 4 11 5 9 6 1 7 2 8 3 9 7 10 4 11 6 12 5 13
REMARK SMILES IDX 8 14 86 15 81 16 82 17 83 18 84 19 85 20 15 21 16 22 17 23
REMARK SMILES IDX 18 24 19 25 80 26 20 27 79 28 21 29 22 30 23 31 73 32 24 33
REMARK SMILES IDX 78 34 72 35 74 36 25 37 77 38 71 39 70 40 26 42 58 43 38 44
REMARK SMILES IDX 57 45 39 46 42 47 56 48 75 49 40 50 41 51 55 53 76 54 43 55
REMARK SMILES IDX 27 56 28 57 36 58 29 59 30 60 34 61 37 62 31 63 32 64 35 65
REMARK SMILES IDX 33 66 59 67 60 68 68 69 61 70 62 71 66 72 69 73 63 74 64 75
REMARK SMILES IDX 67 76 65 77 44 78 45 79 53 80 46 81 47 82 51 83 54 84 48 85
REMARK SMILES IDX 49 86 52 87 50 88
REMARK H PARENT 74 41 42 52
REMARK Flexibility Score: inf
ROOT
ATOM      1  C   UNL     1      -6.189  -5.401  -4.084  1.00  0.00     0.275 C 
ENDROOT
BRANCH   1   2
ATOM      2  C   UNL     1      -4.855  -5.990  -4.545  1.00  0.00     0.275 C 
BRANCH   2   3
ATOM      3  O   UNL     1      -3.807  -5.757  -3.578  1.00  0.00    -0.459 OA
BRANCH   3   4
ATOM      4  C   UNL     1      -2.937  -4.767  -3.884  1.00  0.00     0.338 C 
ATOM      5  O   UNL     1      -2.971  -4.048  -4.871  1.00  0.00    -0.246 OA
BRANCH   4   6
ATOM      6  C   UNL     1      -1.931  -4.612  -2.814  1.00  0.00     0.087 C 
ATOM      7  C   UNL     1       1.156  -0.275   0.294  1.00  0.00     0.044 C 
ATOM      8  C   UNL     1       0.791  -1.667  -0.132  1.00  0.00    -0.050 A 
ATOM      9  C   UNL     1       1.445  -2.780   0.408  1.00  0.00     0.007 A 
ATOM     10  C   UNL     1      -0.241  -1.874  -1.051  1.00  0.00     0.015 A 
ATOM     11  C   UNL     1       1.075  -4.077   0.031  1.00  0.00     0.047 A 
ATOM     12  C   UNL     1      -0.590  -3.172  -1.446  1.00  0.00     0.017 A 
ATOM     13  C   UNL     1       0.055  -4.275  -0.898  1.00  0.00     0.128 A 
ATOM     14  C   UNL     1      -1.617  -3.365  -2.445  1.00  0.00     0.027 C 
ATOM     15  O   UNL     1      -0.268  -5.567  -1.203  1.00  0.00    -0.475 OA
ATOM     16  C   UNL     1      -1.217  -5.824  -2.281  1.00  0.00     0.316 C 
BRANCH  16  17
ATOM     17  C   UNL     1      -0.484  -6.563  -3.413  1.00  0.00     0.430 C 
ATOM     18  F   UNL     1       0.193  -7.639  -2.948  1.00  0.00    -0.167 F 
ATOM     19  F   UNL     1      -1.351  -7.025  -4.347  1.00  0.00    -0.167 F 
ATOM     20  F   UNL     1       0.405  -5.767  -4.050  1.00  0.00    -0.167 F 
ENDBRANCH  16  17
ENDBRANCH   4   6
ENDBRANCH   3   4
ENDBRANCH   2   3
ENDBRANCH   1   2
BRANCH   1  21
ATOM     21  O   UNL     1      -6.128  -3.963  -4.080  1.00  0.00    -0.458 OA
BRANCH  21  22
ATOM     22  C   UNL     1      -6.158  -3.378  -2.862  1.00  0.00     0.338 C 
ATOM     23  O   UNL     1      -6.266  -3.917  -1.775  1.00  0.00    -0.246 OA
BRANCH  22  24
ATOM     24  C   UNL     1      -5.943  -1.932  -3.015  1.00  0.00     0.060 A 
ATOM     25  C   UNL     1      -6.957  -1.013  -2.772  1.00  0.00     0.016 A 
ATOM     26  C   UNL     1      -4.651  -1.490  -3.273  1.00  0.00     0.016 A 
ATOM     27  C   UNL     1      -6.658   0.355  -2.813  1.00  0.00     0.010 A 
ATOM     28  C   UNL     1      -4.328  -0.141  -3.186  1.00  0.00     0.010 A 
ATOM     29  C   UNL     1      -5.333   0.810  -2.987  1.00  0.00    -0.014 A 
BRANCH  29  30
ATOM     30  C   UNL     1      -4.997   2.263  -2.961  1.00  0.00     0.031 A 
ATOM     31  C   UNL     1      -4.297   2.925  -4.125  1.00  0.00     0.074 A 
ATOM     32  C   UNL     1      -5.287   2.993  -1.865  1.00  0.00     0.049 A 
ATOM     33  N   UNL     1      -3.951   4.181  -4.277  1.00  0.00    -0.248 NA
ATOM     34  C   UNL     1      -3.890   2.063  -5.247  1.00  0.00     0.031 C 
ATOM     35  C   UNL     1      -5.858   2.465  -0.625  1.00  0.00     0.029 A 
ATOM     36  N   UNL     1      -5.161   4.340  -1.622  1.00  0.00    -0.354 N 
ATOM     37  C   UNL     1      -3.272   4.247  -5.488  1.00  0.00     0.074 A 
ATOM     38  C   UNL     1      -3.187   2.898  -5.997  1.00  0.00     0.031 C 
ATOM     39  C   UNL     1      -6.110   3.483   0.213  1.00  0.00     0.029 A 
ATOM     40  C   UNL     1      -5.688   4.731  -0.415  1.00  0.00     0.049 A 
ATOM     41  H   UNL     1      -4.733   4.964  -2.252  1.00  0.00     0.167 HD
ATOM     42  C   UNL     1      -2.801   5.336  -6.142  1.00  0.00     0.037 A 
ATOM     43  C   UNL     1      -5.842   5.959   0.116  1.00  0.00     0.037 A 
ATOM     44  C   UNL     1      -2.947   6.688  -5.673  1.00  0.00     0.049 A 
ATOM     45  C   UNL     1      -5.384   7.162  -0.661  1.00  0.00     0.074 A 
ATOM     46  C   UNL     1      -2.586   7.864  -6.306  1.00  0.00     0.029 A 
ATOM     47  N   UNL     1      -3.514   7.042  -4.459  1.00  0.00    -0.354 N 
ATOM     48  N   UNL     1      -4.819   7.215  -1.842  1.00  0.00    -0.248 NA
ATOM     49  C   UNL     1      -5.590   8.475  -0.034  1.00  0.00     0.031 C 
ATOM     50  C   UNL     1      -2.913   8.931  -5.463  1.00  0.00     0.029 A 
ATOM     51  C   UNL     1      -3.507   8.420  -4.321  1.00  0.00     0.049 A 
ATOM     52  H   UNL     1      -3.869   6.409  -3.794  1.00  0.00     0.167 HD
ATOM     53  C   UNL     1      -4.611   8.561  -2.105  1.00  0.00     0.074 A 
ATOM     54  C   UNL     1      -5.133   9.295  -0.971  1.00  0.00     0.031 C 
ATOM     55  C   UNL     1      -4.032   9.136  -3.187  1.00  0.00     0.037 A 
BRANCH  42  56
ATOM     56  C   UNL     1      -2.124   5.118  -7.466  1.00  0.00     0.064 A 
ATOM     57  C   UNL     1      -2.849   4.717  -8.600  1.00  0.00     0.173 A 
ATOM     58  C   UNL     1      -0.752   5.366  -7.621  1.00  0.00     0.173 A 
ATOM     59  F   UNL     1      -4.163   4.462  -8.504  1.00  0.00    -0.203 F 
ATOM     60  C   UNL     1      -2.221   4.544  -9.830  1.00  0.00     0.198 A 
ATOM     61  C   UNL     1      -0.133   5.221  -8.861  1.00  0.00     0.198 A 
ATOM     62  F   UNL     1      -0.013   5.763  -6.575  1.00  0.00    -0.203 F 
ATOM     63  F   UNL     1      -2.928   4.116 -10.886  1.00  0.00    -0.200 F 
ATOM     64  C   UNL     1      -0.866   4.803  -9.962  1.00  0.00     0.200 A 
ATOM     65  F   UNL     1       1.174   5.488  -8.992  1.00  0.00    -0.200 F 
ATOM     66  F   UNL     1      -0.266   4.648 -11.150  1.00  0.00    -0.200 F 
ENDBRANCH  42  56
BRANCH  43  67
ATOM     67  C   UNL     1      -6.536   6.112   1.421  1.00  0.00     0.064 A 
ATOM     68  C   UNL     1      -7.837   6.630   1.477  1.00  0.00     0.173 A 
ATOM     69  C   UNL     1      -5.938   5.713   2.624  1.00  0.00     0.173 A 
ATOM     70  F   UNL     1      -8.443   7.040   0.353  1.00  0.00    -0.203 F 
ATOM     71  C   UNL     1      -8.512   6.751   2.690  1.00  0.00     0.198 A 
ATOM     72  C   UNL     1      -6.623   5.813   3.834  1.00  0.00     0.198 A 
ATOM     73  F   UNL     1      -4.697   5.205   2.621  1.00  0.00    -0.203 F 
ATOM     74  F   UNL     1      -9.745   7.275   2.718  1.00  0.00    -0.200 F 
ATOM     75  C   UNL     1      -7.908   6.335   3.866  1.00  0.00     0.200 A 
ATOM     76  F   UNL     1      -6.042   5.396   4.967  1.00  0.00    -0.200 F 
ATOM     77  F   UNL     1      -8.562   6.439   5.031  1.00  0.00    -0.200 F 
ENDBRANCH  43  67
BRANCH  55  78
ATOM     78  C   UNL     1      -3.928  10.631  -3.204  1.00  0.00     0.064 A 
ATOM     79  C   UNL     1      -2.990  11.303  -2.409  1.00  0.00     0.173 A 
ATOM     80  C   UNL     1      -4.721  11.391  -4.077  1.00  0.00     0.173 A 
ATOM     81  F   UNL     1      -2.218  10.619  -1.551  1.00  0.00    -0.203 F 
ATOM     82  C   UNL     1      -2.857  12.687  -2.478  1.00  0.00     0.198 A 
ATOM     83  C   UNL     1      -4.568  12.772  -4.161  1.00  0.00     0.198 A 
ATOM     84  F   UNL     1      -5.627  10.791  -4.863  1.00  0.00    -0.203 F 
ATOM     85  F   UNL     1      -1.974  13.314  -1.688  1.00  0.00    -0.200 F 
ATOM     86  C   UNL     1      -3.639  13.419  -3.360  1.00  0.00     0.200 A 
ATOM     87  F   UNL     1      -5.315  13.476  -5.022  1.00  0.00    -0.200 F 
ATOM     88  F   UNL     1      -3.499  14.749  -3.435  1.00  0.00    -0.200 F 
ENDBRANCH  55  78
ENDBRANCH  29  30
ENDBRANCH  22  24
ENDBRANCH  21  22
ENDBRANCH   1  21
TORSDOF 12
