REMARK SMILES CC(C)CC[C@@]1(CC(=O)OCCOC(=O)c2ccc(-c3c4nc(c(-c5c(F)c(F)c(F)c(F)c5F)c5ccc([nH]5)c(-c5c(F)c(F)c(F)c(F)c5F)c5nc(c(-c6c(F)c(F)c(F)c(F)c6F)c6ccc3[nH]6)C=C5)C=C4)cc2)CCOC(C)(C)C1
REMARK SMILES IDX 11 1 10 2 8 3 9 4 7 5 6 6 79 7 85 8 80 9 82 10 81 11 83 12
REMARK SMILES IDX 84 13 5 14 4 15 2 16 1 17 3 18 12 19 13 20 14 21 15 22 16 23
REMARK SMILES IDX 17 24 78 25 18 26 77 27 19 28 20 29 21 30 71 31 22 32 76 33
REMARK SMILES IDX 70 34 72 35 23 36 75 37 69 38 68 39 24 41 56 42 36 43 55 44
REMARK SMILES IDX 37 45 40 46 54 47 73 48 38 49 39 50 53 52 74 53 41 54 25 55
REMARK SMILES IDX 26 56 34 57 27 58 28 59 32 60 35 61 29 62 30 63 33 64 31 65
REMARK SMILES IDX 57 66 58 67 66 68 59 69 60 70 64 71 67 72 61 73 62 74 65 75
REMARK SMILES IDX 63 76 42 77 43 78 51 79 44 80 45 81 49 82 52 83 46 84 47 85
REMARK SMILES IDX 50 86 48 87
REMARK H PARENT 72 40 40 51
REMARK Flexibility Score: inf
ROOT
ATOM      1  C   UNL     1       1.066   2.208   4.185  1.00  0.00     0.274 C 
ENDROOT
BRANCH   1   2
ATOM      2  O   UNL     1       0.674   0.975   3.539  1.00  0.00    -0.462 OA
BRANCH   2   3
ATOM      3  C   UNL     1      -0.402   0.387   4.101  1.00  0.00     0.306 C 
ATOM      4  O   UNL     1      -1.041   0.874   5.034  1.00  0.00    -0.252 OA
BRANCH   3   5
ATOM      5  C   UNL     1      -0.708  -1.013   3.639  1.00  0.00     0.130 C 
BRANCH   5   6
ATOM      6  C   UNL     1      -0.628  -1.597   2.177  1.00  0.00    -0.014 C 
ATOM      7  C   UNL     1      -1.548  -2.876   2.336  1.00  0.00     0.036 C 
ATOM      8  C   UNL     1       0.796  -2.092   1.861  1.00  0.00     0.042 C 
ATOM      9  C   UNL     1      -1.312  -4.000   1.351  1.00  0.00     0.161 C 
ATOM     10  C   UNL     1       0.929  -3.302   0.894  1.00  0.00     0.063 C 
ATOM     11  O   UNL     1       0.063  -4.360   1.331  1.00  0.00    -0.376 OA
ATOM     12  C   UNL     1       0.668  -3.051  -0.594  1.00  0.00     0.042 C 
ATOM     13  C   UNL     1       2.363  -3.848   1.008  1.00  0.00     0.042 C 
BRANCH   6  14
ATOM     14  C   UNL     1      -1.265  -0.620   1.126  1.00  0.00     0.008 C 
BRANCH  14  15
ATOM     15  C   UNL     1      -0.552   0.045  -0.094  1.00  0.00     0.003 C 
BRANCH  15  16
ATOM     16  C   UNL     1       0.704   0.937   0.057  1.00  0.00    -0.017 C 
ATOM     17  C   UNL     1       1.959   0.322  -0.580  1.00  0.00     0.007 C 
ATOM     18  C   UNL     1       0.520   2.286  -0.672  1.00  0.00     0.007 C 
ENDBRANCH  15  16
ENDBRANCH  14  15
ENDBRANCH   6  14
ENDBRANCH   5   6
ENDBRANCH   3   5
ENDBRANCH   2   3
ENDBRANCH   1   2
BRANCH   1  19
ATOM     19  C   UNL     1       0.362   3.462   3.647  1.00  0.00     0.275 C 
BRANCH  19  20
ATOM     20  O   UNL     1      -1.073   3.428   3.794  1.00  0.00    -0.458 OA
BRANCH  20  21
ATOM     21  C   UNL     1      -1.710   2.965   2.703  1.00  0.00     0.338 C 
ATOM     22  O   UNL     1      -1.189   2.594   1.660  1.00  0.00    -0.246 OA
BRANCH  21  23
ATOM     23  C   UNL     1      -3.162   2.925   2.817  1.00  0.00     0.060 A 
ATOM     24  C   UNL     1      -3.781   1.781   3.324  1.00  0.00     0.016 A 
ATOM     25  C   UNL     1      -3.902   3.919   2.174  1.00  0.00     0.016 A 
ATOM     26  C   UNL     1      -5.161   1.639   3.207  1.00  0.00     0.010 A 
ATOM     27  C   UNL     1      -5.287   3.793   2.088  1.00  0.00     0.010 A 
ATOM     28  C   UNL     1      -5.922   2.656   2.611  1.00  0.00    -0.014 A 
BRANCH  28  29
ATOM     29  C   UNL     1      -7.397   2.608   2.674  1.00  0.00     0.031 A 
ATOM     30  C   UNL     1      -8.230   2.312   1.468  1.00  0.00     0.074 A 
ATOM     31  C   UNL     1      -7.968   2.898   3.857  1.00  0.00     0.049 A 
ATOM     32  N   UNL     1      -9.533   2.344   1.346  1.00  0.00    -0.248 NA
ATOM     33  C   UNL     1      -7.517   1.936   0.240  1.00  0.00     0.031 C 
ATOM     34  C   UNL     1      -7.234   3.202   5.089  1.00  0.00     0.029 A 
ATOM     35  N   UNL     1      -9.284   3.002   4.216  1.00  0.00    -0.354 N 
ATOM     36  C   UNL     1      -9.799   2.005   0.027  1.00  0.00     0.074 A 
ATOM     37  C   UNL     1      -8.521   1.776  -0.616  1.00  0.00     0.031 C 
ATOM     38  C   UNL     1      -8.111   3.460   6.068  1.00  0.00     0.029 A 
ATOM     39  C   UNL     1      -9.460   3.385   5.521  1.00  0.00     0.049 A 
ATOM     40  H   UNL     1     -10.030   2.821   3.600  1.00  0.00     0.167 HD
ATOM     41  C   UNL     1     -11.005   1.901  -0.581  1.00  0.00     0.037 A 
ATOM     42  C   UNL     1     -10.585   3.675   6.196  1.00  0.00     0.037 A 
ATOM     43  C   UNL     1     -12.268   2.127   0.076  1.00  0.00     0.049 A 
ATOM     44  C   UNL     1     -11.901   3.575   5.489  1.00  0.00     0.074 A 
ATOM     45  C   UNL     1     -13.546   2.013  -0.445  1.00  0.00     0.029 A 
ATOM     46  N   UNL     1     -12.411   2.517   1.399  1.00  0.00    -0.354 N 
ATOM     47  N   UNL     1     -12.143   3.242   4.245  1.00  0.00    -0.248 NA
ATOM     48  C   UNL     1     -13.098   3.896   6.274  1.00  0.00     0.031 C 
ATOM     49  C   UNL     1     -14.460   2.364   0.555  1.00  0.00     0.029 A 
ATOM     50  C   UNL     1     -13.754   2.667   1.708  1.00  0.00     0.049 A 
ATOM     51  H   UNL     1     -11.667   2.666   2.027  1.00  0.00     0.167 HD
ATOM     52  C   UNL     1     -13.518   3.306   4.096  1.00  0.00     0.074 A 
ATOM     53  C   UNL     1     -14.060   3.695   5.384  1.00  0.00     0.031 C 
ATOM     54  C   UNL     1     -14.265   3.067   2.992  1.00  0.00     0.037 A 
BRANCH  41  55
ATOM     55  C   UNL     1     -11.027   1.540  -2.035  1.00  0.00     0.064 A 
ATOM     56  C   UNL     1     -10.835   0.220  -2.465  1.00  0.00     0.173 A 
ATOM     57  C   UNL     1     -11.323   2.513  -3.002  1.00  0.00     0.173 A 
ATOM     58  F   UNL     1     -10.543  -0.743  -1.578  1.00  0.00    -0.203 F 
ATOM     59  C   UNL     1     -10.934  -0.113  -3.814  1.00  0.00     0.198 A 
ATOM     60  C   UNL     1     -11.435   2.173  -4.348  1.00  0.00     0.198 A 
ATOM     61  F   UNL     1     -11.520   3.789  -2.639  1.00  0.00    -0.203 F 
ATOM     62  F   UNL     1     -10.732  -1.379  -4.207  1.00  0.00    -0.200 F 
ATOM     63  C   UNL     1     -11.240   0.861  -4.753  1.00  0.00     0.200 A 
ATOM     64  F   UNL     1     -11.740   3.114  -5.252  1.00  0.00    -0.200 F 
ATOM     65  F   UNL     1     -11.347   0.536  -6.048  1.00  0.00    -0.200 F 
ENDBRANCH  41  55
BRANCH  42  66
ATOM     66  C   UNL     1     -10.491   4.095   7.613  1.00  0.00     0.064 A 
ATOM     67  C   UNL     1     -10.853   3.221   8.645  1.00  0.00     0.173 A 
ATOM     68  C   UNL     1      -9.983   5.354   7.963  1.00  0.00     0.173 A 
ATOM     69  F   UNL     1     -11.355   2.012   8.352  1.00  0.00    -0.203 F 
ATOM     70  C   UNL     1     -10.713   3.593   9.979  1.00  0.00     0.198 A 
ATOM     71  C   UNL     1      -9.824   5.717   9.298  1.00  0.00     0.198 A 
ATOM     72  F   UNL     1      -9.614   6.219   7.007  1.00  0.00    -0.203 F 
ATOM     73  F   UNL     1     -11.085   2.748  10.950  1.00  0.00    -0.200 F 
ATOM     74  C   UNL     1     -10.192   4.837  10.305  1.00  0.00     0.200 A 
ATOM     75  F   UNL     1      -9.306   6.913   9.608  1.00  0.00    -0.200 F 
ATOM     76  F   UNL     1     -10.045   5.188  11.589  1.00  0.00    -0.200 F 
ENDBRANCH  42  66
BRANCH  54  77
ATOM     77  C   UNL     1     -15.746   3.217   3.143  1.00  0.00     0.064 A 
ATOM     78  C   UNL     1     -16.348   4.483   3.170  1.00  0.00     0.173 A 
ATOM     79  C   UNL     1     -16.569   2.088   3.255  1.00  0.00     0.173 A 
ATOM     80  F   UNL     1     -15.595   5.590   3.087  1.00  0.00    -0.203 F 
ATOM     81  C   UNL     1     -17.725   4.614   3.324  1.00  0.00     0.198 A 
ATOM     82  C   UNL     1     -17.947   2.222   3.390  1.00  0.00     0.198 A 
ATOM     83  F   UNL     1     -16.035   0.858   3.235  1.00  0.00    -0.203 F 
ATOM     84  F   UNL     1     -18.278   5.833   3.388  1.00  0.00    -0.200 F 
ATOM     85  C   UNL     1     -18.523   3.484   3.431  1.00  0.00     0.200 A 
ATOM     86  F   UNL     1     -18.718   1.131   3.492  1.00  0.00    -0.200 F 
ATOM     87  F   UNL     1     -19.848   3.611   3.584  1.00  0.00    -0.200 F 
ENDBRANCH  54  77
ENDBRANCH  28  29
ENDBRANCH  21  23
ENDBRANCH  20  21
ENDBRANCH  19  20
ENDBRANCH   1  19
TORSDOF 15
