REMARK SMILES O=C(CC1(NC(=O)c2ccc3cc[nH]c3c2)CCC1)OCCOC(=O)c1ccc(-c2c3nc(c(-c4c(F)c(F)c(F)c(F)c4F)c4ccc([nH]4)c(-c4c(F)c(F)c(F)c(F)c4F)c4nc(c(-c5c(F)c(F)c(F)c(F)c5F)c5ccc2[nH]5)C=C4)C=C3)cc1
REMARK SMILES IDX 21 1 20 2 2 3 1 4 3 5 4 6 17 7 19 8 18 9 5 10 6 11 7 13 8 14
REMARK SMILES IDX 9 15 16 16 10 17 15 18 11 19 14 20 12 21 13 22 22 24 23 25
REMARK SMILES IDX 24 26 25 27 26 28 27 29 88 30 28 31 87 32 29 33 30 34 31 35
REMARK SMILES IDX 81 36 32 37 86 38 80 39 82 40 33 41 85 42 79 43 78 44 34 46
REMARK SMILES IDX 66 47 46 48 65 49 47 50 50 51 64 52 83 53 48 54 49 55 63 57
REMARK SMILES IDX 84 58 51 59 35 60 36 61 44 62 37 63 38 64 42 65 45 66 39 67
REMARK SMILES IDX 40 68 43 69 41 70 67 71 68 72 76 73 69 74 70 75 74 76 77 77
REMARK SMILES IDX 71 78 72 79 75 80 73 81 52 82 53 83 61 84 54 85 55 86 59 87
REMARK SMILES IDX 62 88 56 89 57 90 60 91 58 92
REMARK H PARENT 5 12 14 23 82 45 50 56
REMARK Flexibility Score: inf
ROOT
ATOM      1  C   UNL     1       4.720   0.837   0.735  1.00  0.00     0.274 C 
ENDROOT
BRANCH   1   2
ATOM      2  O   UNL     1       3.285   0.834   0.924  1.00  0.00    -0.462 OA
BRANCH   2   3
ATOM      3  C   UNL     1       2.471  -0.231   1.044  1.00  0.00     0.308 C 
ATOM      4  O   UNL     1       1.257  -0.121   1.202  1.00  0.00    -0.252 OA
BRANCH   3   5
ATOM      5  C   UNL     1       3.058  -1.574   1.024  1.00  0.00     0.151 C 
BRANCH   5   6
ATOM      6  C   UNL     1       3.696  -2.051  -0.264  1.00  0.00     0.051 C 
ATOM      7  C   UNL     1       5.241  -2.352  -0.099  1.00  0.00     0.029 C 
ATOM      8  C   UNL     1       3.540  -3.624  -0.370  1.00  0.00     0.029 C 
ATOM      9  C   UNL     1       4.926  -3.808   0.252  1.00  0.00     0.005 C 
BRANCH   6  10
ATOM     10  N   UNL     1       3.356  -1.423  -1.601  1.00  0.00    -0.346 N 
ATOM     11  C   UNL     1       2.699  -0.375  -2.249  1.00  0.00     0.251 C 
ATOM     12  H   UNL     1       3.766  -1.984  -2.298  1.00  0.00     0.164 HD
ATOM     13  O   UNL     1       2.758  -0.398  -3.484  1.00  0.00    -0.269 OA
BRANCH  11  14
ATOM     14  C   UNL     1       1.977   0.789  -1.678  1.00  0.00     0.041 A 
ATOM     15  C   UNL     1       2.660   1.999  -1.487  1.00  0.00     0.014 A 
ATOM     16  C   UNL     1       0.588   0.749  -1.470  1.00  0.00     0.040 A 
ATOM     17  C   UNL     1       2.071   3.058  -0.771  1.00  0.00     0.011 A 
ATOM     18  C   UNL     1      -0.002   1.836  -0.787  1.00  0.00     0.046 A 
ATOM     19  C   UNL     1       0.734   2.940  -0.352  1.00  0.00    -0.001 A 
ATOM     20  N   UNL     1      -1.297   2.040  -0.359  1.00  0.00    -0.361 N 
ATOM     21  C   UNL     1      -0.110   3.702   0.506  1.00  0.00     0.028 A 
ATOM     22  C   UNL     1      -1.357   3.121   0.484  1.00  0.00     0.083 A 
ATOM     23  H   UNL     1      -2.069   1.487  -0.620  1.00  0.00     0.166 HD
ENDBRANCH  11  14
ENDBRANCH   6  10
ENDBRANCH   5   6
ENDBRANCH   3   5
ENDBRANCH   2   3
ENDBRANCH   1   2
BRANCH   1  24
ATOM     24  C   UNL     1       5.345   1.917   1.610  1.00  0.00     0.275 C 
BRANCH  24  25
ATOM     25  O   UNL     1       4.931   1.661   2.959  1.00  0.00    -0.458 OA
BRANCH  25  26
ATOM     26  C   UNL     1       3.709   2.195   3.248  1.00  0.00     0.338 C 
ATOM     27  O   UNL     1       3.192   3.158   2.736  1.00  0.00    -0.246 OA
BRANCH  26  28
ATOM     28  C   UNL     1       3.009   1.223   4.116  1.00  0.00     0.060 A 
ATOM     29  C   UNL     1       1.671   0.924   3.827  1.00  0.00     0.016 A 
ATOM     30  C   UNL     1       3.670   0.589   5.167  1.00  0.00     0.016 A 
ATOM     31  C   UNL     1       0.985  -0.021   4.580  1.00  0.00     0.010 A 
ATOM     32  C   UNL     1       2.963  -0.290   5.978  1.00  0.00     0.010 A 
ATOM     33  C   UNL     1       1.611  -0.560   5.705  1.00  0.00    -0.014 A 
BRANCH  33  34
ATOM     34  C   UNL     1       0.773  -1.099   6.789  1.00  0.00     0.031 A 
ATOM     35  C   UNL     1       0.265  -0.105   7.793  1.00  0.00     0.074 A 
ATOM     36  C   UNL     1       0.521  -2.412   6.883  1.00  0.00     0.049 A 
ATOM     37  N   UNL     1      -0.357  -0.301   8.923  1.00  0.00    -0.248 NA
ATOM     38  C   UNL     1       0.512   1.316   7.483  1.00  0.00     0.031 C 
ATOM     39  C   UNL     1       0.927  -3.422   5.910  1.00  0.00     0.029 A 
ATOM     40  N   UNL     1      -0.127  -3.117   7.860  1.00  0.00    -0.354 N 
ATOM     41  C   UNL     1      -0.553   0.964   9.463  1.00  0.00     0.074 A 
ATOM     42  C   UNL     1       0.027   1.921   8.553  1.00  0.00     0.031 C 
ATOM     43  C   UNL     1       0.534  -4.630   6.351  1.00  0.00     0.029 A 
ATOM     44  C   UNL     1      -0.110  -4.473   7.653  1.00  0.00     0.049 A 
ATOM     45  H   UNL     1      -0.562  -2.693   8.634  1.00  0.00     0.167 HD
ATOM     46  C   UNL     1      -1.159   1.288  10.627  1.00  0.00     0.037 A 
ATOM     47  C   UNL     1      -0.547  -5.460   8.456  1.00  0.00     0.037 A 
ATOM     48  C   UNL     1      -1.708   0.304  11.518  1.00  0.00     0.049 A 
ATOM     49  C   UNL     1      -1.164  -5.078   9.778  1.00  0.00     0.074 A 
ATOM     50  C   UNL     1      -2.346   0.488  12.728  1.00  0.00     0.029 A 
ATOM     51  N   UNL     1      -1.667  -1.066  11.284  1.00  0.00    -0.354 N 
ATOM     52  N   UNL     1      -1.353  -3.884  10.292  1.00  0.00    -0.248 NA
ATOM     53  C   UNL     1      -1.628  -6.177  10.631  1.00  0.00     0.031 C 
ATOM     54  C   UNL     1      -2.640  -0.775  13.255  1.00  0.00     0.029 A 
ATOM     55  C   UNL     1      -2.248  -1.743  12.341  1.00  0.00     0.049 A 
ATOM     56  H   UNL     1      -1.281  -1.492  10.485  1.00  0.00     0.167 HD
ATOM     57  C   UNL     1      -1.992  -4.084  11.508  1.00  0.00     0.074 A 
ATOM     58  C   UNL     1      -2.165  -5.517  11.647  1.00  0.00     0.031 C 
ATOM     59  C   UNL     1      -2.404  -3.175  12.429  1.00  0.00     0.037 A 
BRANCH  46  60
ATOM     60  C   UNL     1      -1.190   2.741  11.009  1.00  0.00     0.064 A 
ATOM     61  C   UNL     1      -1.940   3.687  10.293  1.00  0.00     0.173 A 
ATOM     62  C   UNL     1      -0.431   3.200  12.097  1.00  0.00     0.173 A 
ATOM     63  F   UNL     1      -2.663   3.310   9.227  1.00  0.00    -0.203 F 
ATOM     64  C   UNL     1      -1.900   5.040  10.627  1.00  0.00     0.198 A 
ATOM     65  C   UNL     1      -0.421   4.548  12.450  1.00  0.00     0.198 A 
ATOM     66  F   UNL     1       0.313   2.344  12.813  1.00  0.00    -0.203 F 
ATOM     67  F   UNL     1      -2.571   5.932   9.886  1.00  0.00    -0.200 F 
ATOM     68  C   UNL     1      -1.146   5.468  11.709  1.00  0.00     0.200 A 
ATOM     69  F   UNL     1       0.302   4.957  13.501  1.00  0.00    -0.200 F 
ATOM     70  F   UNL     1      -1.108   6.768  12.030  1.00  0.00    -0.200 F 
ENDBRANCH  46  60
BRANCH  47  71
ATOM     71  C   UNL     1      -0.423  -6.881   8.034  1.00  0.00     0.064 A 
ATOM     72  C   UNL     1      -1.562  -7.650   7.757  1.00  0.00     0.173 A 
ATOM     73  C   UNL     1       0.828  -7.500   7.893  1.00  0.00     0.173 A 
ATOM     74  F   UNL     1      -2.783  -7.112   7.894  1.00  0.00    -0.203 F 
ATOM     75  C   UNL     1      -1.456  -8.986   7.372  1.00  0.00     0.198 A 
ATOM     76  C   UNL     1       0.934  -8.828   7.479  1.00  0.00     0.198 A 
ATOM     77  F   UNL     1       1.952  -6.812   8.142  1.00  0.00    -0.203 F 
ATOM     78  F   UNL     1      -2.564  -9.708   7.155  1.00  0.00    -0.200 F 
ATOM     79  C   UNL     1      -0.208  -9.572   7.227  1.00  0.00     0.200 A 
ATOM     80  F   UNL     1       2.143  -9.384   7.324  1.00  0.00    -0.200 F 
ATOM     81  F   UNL     1      -0.106 -10.853   6.849  1.00  0.00    -0.200 F 
ENDBRANCH  47  71
BRANCH  59  82
ATOM     82  C   UNL     1      -3.126  -3.709  13.631  1.00  0.00     0.064 A 
ATOM     83  C   UNL     1      -2.465  -4.441  14.627  1.00  0.00     0.173 A 
ATOM     84  C   UNL     1      -4.496  -3.455  13.797  1.00  0.00     0.173 A 
ATOM     85  F   UNL     1      -1.158  -4.720  14.507  1.00  0.00    -0.203 F 
ATOM     86  C   UNL     1      -3.159  -4.935  15.727  1.00  0.00     0.198 A 
ATOM     87  C   UNL     1      -5.178  -3.917  14.918  1.00  0.00     0.198 A 
ATOM     88  F   UNL     1      -5.170  -2.748  12.877  1.00  0.00    -0.203 F 
ATOM     89  F   UNL     1      -2.523  -5.688  16.635  1.00  0.00    -0.200 F 
ATOM     90  C   UNL     1      -4.512  -4.666  15.875  1.00  0.00     0.200 A 
ATOM     91  F   UNL     1      -6.480  -3.639  15.068  1.00  0.00    -0.200 F 
ATOM     92  F   UNL     1      -5.178  -5.139  16.938  1.00  0.00    -0.200 F 
ENDBRANCH  59  82
ENDBRANCH  33  34
ENDBRANCH  26  28
ENDBRANCH  25  26
ENDBRANCH  24  25
ENDBRANCH   1  24
TORSDOF 14
