REMARK SMILES COc1ccc([C@@H]([NH3+])[C@](C)(C(N)=O)C(=O)OCCOC(=O)c2ccc(-c3c4nc(c(-c5c(F)c(F)c(F)c(F)c5F)c5ccc([nH]5)c(-c5c(F)c(F)c(F)c(F)c5F)c5nc(c(-c6c(F)c(F)c(F)c(F)c6F)c6ccc3[nH]6)C=C5)C=C4)cc2)cc1OC
REMARK SMILES IDX 17 1 16 2 14 3 15 4 9 5 10 6 7 7 6 8 3 9 4 10 86 11 5 12
REMARK SMILES IDX 85 13 2 14 1 15 87 16 88 17 8 18 11 22 12 23 13 24 18 27
REMARK SMILES IDX 19 28 20 29 21 30 22 31 23 32 84 33 24 34 83 35 25 36 26 37
REMARK SMILES IDX 27 38 77 39 28 40 82 41 76 42 78 43 29 44 81 45 75 46 74 47
REMARK SMILES IDX 30 49 62 50 42 51 61 52 43 53 46 54 60 55 79 56 44 57 45 58
REMARK SMILES IDX 59 60 80 61 47 62 31 63 32 64 40 65 33 66 34 67 38 68 41 69
REMARK SMILES IDX 35 70 36 71 39 72 37 73 63 74 64 75 72 76 65 77 66 78 70 79
REMARK SMILES IDX 73 80 67 81 68 82 71 83 69 84 48 85 49 86 57 87 50 88 51 89
REMARK SMILES IDX 55 90 58 91 52 92 53 93 56 94 54 95
REMARK H PARENT 8 19 8 20 8 21 12 25 12 26 78 48 46 59
REMARK Flexibility Score: inf
ROOT
ATOM      1  C   UNL     1      -2.836  -5.664  -3.878  1.00  0.00     0.274 C 
ENDROOT
BRANCH   1   2
ATOM      2  O   UNL     1      -1.537  -6.056  -4.383  1.00  0.00    -0.461 OA
BRANCH   2   3
ATOM      3  C   UNL     1      -0.456  -5.445  -3.828  1.00  0.00     0.328 C 
ATOM      4  O   UNL     1      -0.559  -4.556  -2.984  1.00  0.00    -0.251 OA
BRANCH   3   5
ATOM      5  C   UNL     1       0.896  -5.891  -4.382  1.00  0.00     0.198 C 
ATOM      6  C   UNL     1       1.790  -6.111  -3.128  1.00  0.00     0.041 C 
BRANCH   5   7
ATOM      7  C   UNL     1       1.399  -4.680  -5.247  1.00  0.00     0.239 C 
BRANCH   7   8
ATOM      8  C   UNL     1       2.914  -4.506  -5.257  1.00  0.00     0.015 A 
ATOM      9  C   UNL     1       5.703  -4.333  -4.939  1.00  0.00     0.160 A 
ATOM     10  C   UNL     1       5.141  -5.276  -5.810  1.00  0.00     0.051 A 
ATOM     11  C   UNL     1       4.886  -3.408  -4.283  1.00  0.00     0.161 A 
ATOM     12  C   UNL     1       3.757  -5.363  -5.968  1.00  0.00     0.014 A 
ATOM     13  C   UNL     1       3.498  -3.513  -4.446  1.00  0.00     0.060 A 
BRANCH   9  14
ATOM     14  O   UNL     1       7.063  -4.344  -4.771  1.00  0.00    -0.493 OA
ATOM     15  C   UNL     1       7.451  -5.448  -3.949  1.00  0.00     0.278 C 
ENDBRANCH   9  14
BRANCH  11  16
ATOM     16  O   UNL     1       5.244  -2.400  -3.429  1.00  0.00    -0.493 OA
ATOM     17  C   UNL     1       6.624  -2.104  -3.274  1.00  0.00     0.278 C 
ENDBRANCH  11  16
ENDBRANCH   7   8
BRANCH   7  18
ATOM     18  N   UNL     1       0.865  -4.644  -6.620  1.00  0.00    -0.350 N 
ATOM     19  H   UNL     1       1.235  -5.434  -7.150  1.00  0.00     0.345 HD
ATOM     20  H   UNL     1       1.142  -3.772  -7.070  1.00  0.00     0.345 HD
ATOM     21  H   UNL     1      -0.153  -4.703  -6.590  1.00  0.00     0.345 HD
ENDBRANCH   7  18
ENDBRANCH   5   7
BRANCH   5  22
ATOM     22  C   UNL     1       0.958  -7.226  -5.137  1.00  0.00     0.241 C 
ATOM     23  N   UNL     1      -0.129  -7.677  -5.814  1.00  0.00    -0.368 N 
ATOM     24  O   UNL     1       1.974  -7.923  -5.180  1.00  0.00    -0.274 OA
ATOM     25  H   UNL     1      -0.964  -7.155  -5.810  1.00  0.00     0.159 HD
ATOM     26  H   UNL     1      -0.083  -8.526  -6.310  1.00  0.00     0.159 HD
ENDBRANCH   5  22
ENDBRANCH   3   5
ENDBRANCH   2   3
ENDBRANCH   1   2
BRANCH   1  27
ATOM     27  C   UNL     1      -3.361  -6.707  -2.895  1.00  0.00     0.275 C 
BRANCH  27  28
ATOM     28  O   UNL     1      -2.505  -6.740  -1.740  1.00  0.00    -0.458 OA
BRANCH  28  29
ATOM     29  C   UNL     1      -1.964  -7.937  -1.432  1.00  0.00     0.338 C 
ATOM     30  O   UNL     1      -2.172  -9.010  -1.989  1.00  0.00    -0.246 OA
BRANCH  29  31
ATOM     31  C   UNL     1      -1.036  -7.790  -0.298  1.00  0.00     0.060 A 
ATOM     32  C   UNL     1      -0.071  -6.784  -0.309  1.00  0.00     0.016 A 
ATOM     33  C   UNL     1      -1.046  -8.730   0.731  1.00  0.00     0.016 A 
ATOM     34  C   UNL     1       0.953  -6.786   0.635  1.00  0.00     0.010 A 
ATOM     35  C   UNL     1      -0.090  -8.653   1.750  1.00  0.00     0.010 A 
ATOM     36  C   UNL     1       0.947  -7.704   1.694  1.00  0.00    -0.014 A 
BRANCH  36  37
ATOM     37  C   UNL     1       2.030  -7.695   2.720  1.00  0.00     0.031 A 
ATOM     38  C   UNL     1       2.831  -8.943   2.988  1.00  0.00     0.074 A 
ATOM     39  C   UNL     1       2.311  -6.575   3.418  1.00  0.00     0.049 A 
ATOM     40  N   UNL     1       3.636  -9.214   3.985  1.00  0.00    -0.248 NA
ATOM     41  C   UNL     1       2.695 -10.038   2.015  1.00  0.00     0.031 C 
ATOM     42  C   UNL     1       1.661  -5.276   3.240  1.00  0.00     0.029 A 
ATOM     43  N   UNL     1       3.227  -6.349   4.417  1.00  0.00    -0.354 N 
ATOM     44  C   UNL     1       4.040 -10.530   3.800  1.00  0.00     0.074 A 
ATOM     45  C   UNL     1       3.405 -11.001   2.588  1.00  0.00     0.031 C 
ATOM     46  C   UNL     1       2.232  -4.380   4.059  1.00  0.00     0.029 A 
ATOM     47  C   UNL     1       3.216  -5.061   4.893  1.00  0.00     0.049 A 
ATOM     48  H   UNL     1       3.834  -7.045   4.759  1.00  0.00     0.167 HD
ATOM     49  C   UNL     1       4.859 -11.278   4.578  1.00  0.00     0.037 A 
ATOM     50  C   UNL     1       3.884  -4.495   5.915  1.00  0.00     0.037 A 
ATOM     51  C   UNL     1       5.552 -10.787   5.740  1.00  0.00     0.049 A 
ATOM     52  C   UNL     1       4.794  -5.341   6.758  1.00  0.00     0.074 A 
ATOM     53  C   UNL     1       6.401 -11.469   6.596  1.00  0.00     0.029 A 
ATOM     54  N   UNL     1       5.501  -9.477   6.191  1.00  0.00    -0.354 N 
ATOM     55  N   UNL     1       5.084  -6.613   6.639  1.00  0.00    -0.248 NA
ATOM     56  C   UNL     1       5.446  -4.679   7.897  1.00  0.00     0.031 C 
ATOM     57  C   UNL     1       6.851 -10.575   7.574  1.00  0.00     0.029 A 
ATOM     58  C   UNL     1       6.306  -9.329   7.309  1.00  0.00     0.049 A 
ATOM     59  H   UNL     1       4.971  -8.758   5.778  1.00  0.00     0.167 HD
ATOM     60  C   UNL     1       5.946  -6.906   7.685  1.00  0.00     0.074 A 
ATOM     61  C   UNL     1       6.156  -5.672   8.414  1.00  0.00     0.031 C 
ATOM     62  C   UNL     1       6.503  -8.095   8.020  1.00  0.00     0.037 A 
BRANCH  49  63
ATOM     63  C   UNL     1       5.028 -12.725   4.219  1.00  0.00     0.064 A 
ATOM     64  C   UNL     1       5.820 -13.135   3.138  1.00  0.00     0.173 A 
ATOM     65  C   UNL     1       4.417 -13.717   5.001  1.00  0.00     0.173 A 
ATOM     66  F   UNL     1       6.413 -12.224   2.353  1.00  0.00    -0.203 F 
ATOM     67  C   UNL     1       5.980 -14.487   2.842  1.00  0.00     0.198 A 
ATOM     68  C   UNL     1       4.597 -15.068   4.717  1.00  0.00     0.198 A 
ATOM     69  F   UNL     1       3.653 -13.377   6.050  1.00  0.00    -0.203 F 
ATOM     70  F   UNL     1       6.713 -14.857   1.783  1.00  0.00    -0.200 F 
ATOM     71  C   UNL     1       5.374 -15.452   3.634  1.00  0.00     0.200 A 
ATOM     72  F   UNL     1       4.020 -15.998   5.490  1.00  0.00    -0.200 F 
ATOM     73  F   UNL     1       5.536 -16.752   3.352  1.00  0.00    -0.200 F 
ENDBRANCH  49  63
BRANCH  50  74
ATOM     74  C   UNL     1       3.675  -3.058   6.226  1.00  0.00     0.064 A 
ATOM     75  C   UNL     1       4.687  -2.118   5.989  1.00  0.00     0.173 A 
ATOM     76  C   UNL     1       2.458  -2.594   6.747  1.00  0.00     0.173 A 
ATOM     77  F   UNL     1       5.877  -2.518   5.518  1.00  0.00    -0.203 F 
ATOM     78  C   UNL     1       4.489  -0.767   6.266  1.00  0.00     0.198 A 
ATOM     79  C   UNL     1       2.253  -1.240   6.997  1.00  0.00     0.198 A 
ATOM     80  F   UNL     1       1.461  -3.456   6.992  1.00  0.00    -0.203 F 
ATOM     81  F   UNL     1       5.483   0.109   6.063  1.00  0.00    -0.200 F 
ATOM     82  C   UNL     1       3.270  -0.328   6.761  1.00  0.00     0.200 A 
ATOM     83  F   UNL     1       1.069  -0.819   7.462  1.00  0.00    -0.200 F 
ATOM     84  F   UNL     1       3.076   0.973   7.015  1.00  0.00    -0.200 F 
ENDBRANCH  50  74
BRANCH  62  85
ATOM     85  C   UNL     1       7.402  -8.109   9.218  1.00  0.00     0.064 A 
ATOM     86  C   UNL     1       6.881  -8.079  10.519  1.00  0.00     0.173 A 
ATOM     87  C   UNL     1       8.793  -8.177   9.062  1.00  0.00     0.173 A 
ATOM     88  F   UNL     1       5.556  -7.997  10.714  1.00  0.00    -0.203 F 
ATOM     89  C   UNL     1       7.725  -8.097  11.625  1.00  0.00     0.198 A 
ATOM     90  C   UNL     1       9.634  -8.214  10.171  1.00  0.00     0.198 A 
ATOM     91  F   UNL     1       9.336  -8.209   7.836  1.00  0.00    -0.203 F 
ATOM     92  F   UNL     1       7.210  -8.029  12.861  1.00  0.00    -0.200 F 
ATOM     93  C   UNL     1       9.100  -8.168  11.451  1.00  0.00     0.200 A 
ATOM     94  F   UNL     1      10.961  -8.287  10.002  1.00  0.00    -0.200 F 
ATOM     95  F   UNL     1       9.911  -8.184  12.517  1.00  0.00    -0.200 F 
ENDBRANCH  62  85
ENDBRANCH  36  37
ENDBRANCH  29  31
ENDBRANCH  28  29
ENDBRANCH  27  28
ENDBRANCH   1  27
TORSDOF 17
