REMARK SMILES CCOc1cccc(-c2ccc([C@@H](C)C(=O)OCCOC(=O)c3ccc(-c4c5nc(c(-c6c(F)c(F)c(F)c(F)c6F)c6ccc([nH]6)c(-c6c(F)c(F)c(F)c(F)c6F)c6nc(c(-c7c(F)c(F)c(F)c(F)c7F)c7ccc4[nH]7)C=C6)C=C5)cc3)cc2F)c1
REMARK SMILES IDX 18 1 17 2 15 3 16 4 13 5 14 6 12 7 9 8 10 9 87 10 11 11
REMARK SMILES IDX 86 12 88 13 8 14 4 15 5 16 89 17 6 18 7 19 3 20 2 21 1 22
REMARK SMILES IDX 19 23 20 24 21 25 22 26 23 27 24 28 85 29 25 30 84 31 26 32
REMARK SMILES IDX 27 33 28 34 78 35 29 36 83 37 77 38 79 39 30 40 82 41 76 42
REMARK SMILES IDX 75 43 31 45 63 46 43 47 62 48 44 49 47 50 61 51 80 52 45 53
REMARK SMILES IDX 46 54 60 56 81 57 48 58 32 59 33 60 41 61 34 62 35 63 39 64
REMARK SMILES IDX 42 65 36 66 37 67 40 68 38 69 64 70 65 71 73 72 66 73 67 74
REMARK SMILES IDX 71 75 74 76 68 77 69 78 72 79 70 80 49 81 50 82 58 83 51 84
REMARK SMILES IDX 52 85 56 86 59 87 53 88 54 89 57 90 55 91
REMARK H PARENT 79 44 47 55
REMARK Flexibility Score: inf
ROOT
ATOM      1  C   UNL     1       8.585   3.988  -1.734  1.00  0.00     0.274 C 
ENDROOT
BRANCH   1   2
ATOM      2  O   UNL     1       8.499   3.144  -0.568  1.00  0.00    -0.462 OA
BRANCH   2   3
ATOM      3  C   UNL     1       8.713   3.738   0.635  1.00  0.00     0.313 C 
ATOM      4  O   UNL     1       9.001   4.923   0.779  1.00  0.00    -0.252 OA
BRANCH   3   5
ATOM      5  C   UNL     1       8.620   2.782   1.820  1.00  0.00     0.126 C 
ATOM      6  C   UNL     1      10.014   2.289   2.203  1.00  0.00     0.025 C 
BRANCH   5   7
ATOM      7  C   UNL     1       7.616   1.647   1.686  1.00  0.00    -0.031 A 
ATOM      8  C   UNL     1       5.689  -0.447   1.477  1.00  0.00     0.018 A 
ATOM      9  C   UNL     1       6.869  -0.462   0.716  1.00  0.00     0.012 A 
ATOM     10  C   UNL     1       5.504   0.637   2.345  1.00  0.00     0.131 A 
ATOM     11  C   UNL     1       7.817   0.566   0.818  1.00  0.00     0.005 A 
ATOM     12  C   UNL     1       6.447   1.658   2.459  1.00  0.00     0.044 A 
ATOM     13  F   UNL     1       4.407   0.716   3.114  1.00  0.00    -0.206 F 
BRANCH   8  14
ATOM     14  C   UNL     1       4.690  -1.524   1.358  1.00  0.00    -0.012 A 
ATOM     15  C   UNL     1       2.381  -2.246   1.073  1.00  0.00     0.119 A 
ATOM     16  C   UNL     1       2.765  -3.580   1.160  1.00  0.00     0.046 A 
ATOM     17  C   UNL     1       3.327  -1.229   1.193  1.00  0.00     0.055 A 
ATOM     18  C   UNL     1       4.112  -3.897   1.327  1.00  0.00     0.004 A 
ATOM     19  C   UNL     1       5.065  -2.878   1.420  1.00  0.00     0.009 A 
BRANCH  15  20
ATOM     20  O   UNL     1       1.049  -1.956   0.977  1.00  0.00    -0.494 OA
BRANCH  20  21
ATOM     21  C   UNL     1       0.684  -1.479  -0.324  1.00  0.00     0.226 C 
ATOM     22  C   UNL     1       0.578   0.037  -0.340  1.00  0.00     0.049 C 
ENDBRANCH  20  21
ENDBRANCH  15  20
ENDBRANCH   8  14
ENDBRANCH   5   7
ENDBRANCH   3   5
ENDBRANCH   2   3
ENDBRANCH   1   2
BRANCH   1  23
ATOM     23  C   UNL     1       7.199   4.382  -2.250  1.00  0.00     0.275 C 
BRANCH  23  24
ATOM     24  O   UNL     1       6.529   5.263  -1.330  1.00  0.00    -0.458 OA
BRANCH  24  25
ATOM     25  C   UNL     1       5.648   4.658  -0.502  1.00  0.00     0.338 C 
ATOM     26  O   UNL     1       5.322   3.484  -0.494  1.00  0.00    -0.246 OA
BRANCH  25  27
ATOM     27  C   UNL     1       5.212   5.606   0.535  1.00  0.00     0.060 A 
ATOM     28  C   UNL     1       5.565   5.316   1.853  1.00  0.00     0.016 A 
ATOM     29  C   UNL     1       4.397   6.700   0.244  1.00  0.00     0.016 A 
ATOM     30  C   UNL     1       5.085   6.099   2.896  1.00  0.00     0.010 A 
ATOM     31  C   UNL     1       3.923   7.499   1.294  1.00  0.00     0.010 A 
ATOM     32  C   UNL     1       4.250   7.190   2.627  1.00  0.00    -0.014 A 
BRANCH  32  33
ATOM     33  C   UNL     1       3.697   7.959   3.767  1.00  0.00     0.031 A 
ATOM     34  C   UNL     1       2.271   7.759   4.192  1.00  0.00     0.074 A 
ATOM     35  C   UNL     1       4.503   8.777   4.469  1.00  0.00     0.049 A 
ATOM     36  N   UNL     1       1.619   8.305   5.188  1.00  0.00    -0.248 NA
ATOM     37  C   UNL     1       1.472   6.818   3.393  1.00  0.00     0.031 C 
ATOM     38  C   UNL     1       5.913   9.027   4.172  1.00  0.00     0.029 A 
ATOM     39  N   UNL     1       4.255   9.533   5.587  1.00  0.00    -0.354 N 
ATOM     40  C   UNL     1       0.334   7.784   5.130  1.00  0.00     0.074 A 
ATOM     41  C   UNL     1       0.290   6.894   3.988  1.00  0.00     0.031 C 
ATOM     42  C   UNL     1       6.412   9.862   5.098  1.00  0.00     0.029 A 
ATOM     43  C   UNL     1       5.351  10.228   6.032  1.00  0.00     0.049 A 
ATOM     44  H   UNL     1       3.375   9.572   6.027  1.00  0.00     0.167 HD
ATOM     45  C   UNL     1      -0.711   8.021   5.958  1.00  0.00     0.037 A 
ATOM     46  C   UNL     1       5.483  11.068   7.076  1.00  0.00     0.037 A 
ATOM     47  C   UNL     1      -0.664   8.894   7.103  1.00  0.00     0.049 A 
ATOM     48  C   UNL     1       4.300  11.329   7.967  1.00  0.00     0.074 A 
ATOM     49  C   UNL     1      -1.671   9.193   8.005  1.00  0.00     0.029 A 
ATOM     50  N   UNL     1       0.456   9.606   7.506  1.00  0.00    -0.354 N 
ATOM     51  N   UNL     1       3.090  10.830   7.904  1.00  0.00    -0.248 NA
ATOM     52  C   UNL     1       4.504  12.269   9.078  1.00  0.00     0.031 C 
ATOM     53  C   UNL     1      -1.169  10.111   8.935  1.00  0.00     0.029 A 
ATOM     54  C   UNL     1       0.161  10.354   8.635  1.00  0.00     0.049 A 
ATOM     55  H   UNL     1       1.332   9.582   7.056  1.00  0.00     0.167 HD
ATOM     56  C   UNL     1       2.393  11.383   8.969  1.00  0.00     0.074 A 
ATOM     57  C   UNL     1       3.323  12.238   9.678  1.00  0.00     0.031 C 
ATOM     58  C   UNL     1       1.097  11.204   9.325  1.00  0.00     0.037 A 
BRANCH  45  59
ATOM     59  C   UNL     1      -2.009   7.341   5.641  1.00  0.00     0.064 A 
ATOM     60  C   UNL     1      -2.200   5.973   5.880  1.00  0.00     0.173 A 
ATOM     61  C   UNL     1      -3.085   8.076   5.121  1.00  0.00     0.173 A 
ATOM     62  F   UNL     1      -1.197   5.225   6.364  1.00  0.00    -0.203 F 
ATOM     63  C   UNL     1      -3.417   5.359   5.591  1.00  0.00     0.198 A 
ATOM     64  C   UNL     1      -4.307   7.464   4.854  1.00  0.00     0.198 A 
ATOM     65  F   UNL     1      -2.953   9.388   4.878  1.00  0.00    -0.203 F 
ATOM     66  F   UNL     1      -3.567   4.043   5.791  1.00  0.00    -0.200 F 
ATOM     67  C   UNL     1      -4.470   6.106   5.084  1.00  0.00     0.200 A 
ATOM     68  F   UNL     1      -5.327   8.189   4.373  1.00  0.00    -0.200 F 
ATOM     69  F   UNL     1      -5.642   5.516   4.810  1.00  0.00    -0.200 F 
ENDBRANCH  45  59
BRANCH  46  70
ATOM     70  C   UNL     1       6.790  11.722   7.336  1.00  0.00     0.064 A 
ATOM     71  C   UNL     1       7.567  11.367   8.446  1.00  0.00     0.173 A 
ATOM     72  C   UNL     1       7.283  12.719   6.482  1.00  0.00     0.173 A 
ATOM     73  F   UNL     1       7.124  10.438   9.305  1.00  0.00    -0.203 F 
ATOM     74  C   UNL     1       8.785  11.995   8.700  1.00  0.00     0.198 A 
ATOM     75  C   UNL     1       8.512  13.328   6.722  1.00  0.00     0.198 A 
ATOM     76  F   UNL     1       6.574  13.095   5.407  1.00  0.00    -0.203 F 
ATOM     77  F   UNL     1       9.491  11.667   9.790  1.00  0.00    -0.200 F 
ATOM     78  C   UNL     1       9.259  12.970   7.834  1.00  0.00     0.200 A 
ATOM     79  F   UNL     1       8.971  14.262   5.879  1.00  0.00    -0.200 F 
ATOM     80  F   UNL     1      10.432  13.571   8.077  1.00  0.00    -0.200 F 
ENDBRANCH  46  70
BRANCH  58  81
ATOM     81  C   UNL     1       0.620  11.938  10.542  1.00  0.00     0.064 A 
ATOM     82  C   UNL     1       0.396  13.322  10.521  1.00  0.00     0.173 A 
ATOM     83  C   UNL     1       0.372  11.249  11.739  1.00  0.00     0.173 A 
ATOM     84  F   UNL     1       0.635  14.027   9.404  1.00  0.00    -0.203 F 
ATOM     85  C   UNL     1      -0.029  13.996  11.662  1.00  0.00     0.198 A 
ATOM     86  C   UNL     1      -0.078  11.922  12.871  1.00  0.00     0.198 A 
ATOM     87  F   UNL     1       0.566   9.924  11.809  1.00  0.00    -0.203 F 
ATOM     88  F   UNL     1      -0.188  15.326  11.633  1.00  0.00    -0.200 F 
ATOM     89  C   UNL     1      -0.270  13.295  12.835  1.00  0.00     0.200 A 
ATOM     90  F   UNL     1      -0.317  11.243  14.002  1.00  0.00    -0.200 F 
ATOM     91  F   UNL     1      -0.676  13.945  13.934  1.00  0.00    -0.200 F 
ENDBRANCH  58  81
ENDBRANCH  32  33
ENDBRANCH  25  27
ENDBRANCH  24  25
ENDBRANCH  23  24
ENDBRANCH   1  23
TORSDOF 15
