REMARK SMILES COc1ccccc1-c1ccc(C(=O)OCCOC(=O)c2ccc(-c3c4nc(c(-c5c(F)c(F)c(F)c(F)c5F)c5ccc([nH]5)c(-c5c(F)c(F)c(F)c(F)c5F)c5nc(c(-c6c(F)c(F)c(F)c(F)c6F)c6ccc3[nH]6)C=C5)C=C4)cc2)c(O)c1
REMARK SMILES IDX 16 1 15 2 13 3 14 4 12 5 9 6 10 7 86 8 11 9 84 10 8 11 3 12
REMARK SMILES IDX 4 13 5 14 7 15 6 16 2 17 1 18 85 19 17 21 18 22 19 23 20 24
REMARK SMILES IDX 21 25 22 26 83 27 23 28 82 29 24 30 25 31 26 32 76 33 27 34
REMARK SMILES IDX 81 35 75 36 77 37 28 38 80 39 74 40 73 41 29 43 61 44 41 45
REMARK SMILES IDX 60 46 42 47 45 48 59 49 78 50 43 51 44 52 58 54 79 55 46 56
REMARK SMILES IDX 30 57 31 58 39 59 32 60 33 61 37 62 40 63 34 64 35 65 38 66
REMARK SMILES IDX 36 67 62 68 63 69 71 70 64 71 65 72 69 73 72 74 66 75 67 76
REMARK SMILES IDX 70 77 68 78 47 79 48 80 56 81 49 82 50 83 54 84 57 85 51 86
REMARK SMILES IDX 52 87 55 88 53 89
REMARK H PARENT 85 20 77 42 45 53
REMARK Flexibility Score: inf
ROOT
ATOM      1  C   UNL     1       7.365  -3.029   0.107  1.00  0.00     0.275 C 
ENDROOT
BRANCH   1   2
ATOM      2  O   UNL     1       6.500  -1.992  -0.392  1.00  0.00    -0.458 OA
BRANCH   2   3
ATOM      3  C   UNL     1       5.562  -1.546   0.475  1.00  0.00     0.342 C 
ATOM      4  O   UNL     1       5.421  -1.905   1.637  1.00  0.00    -0.246 OA
BRANCH   3   5
ATOM      5  C   UNL     1       4.768  -0.430  -0.087  1.00  0.00     0.101 A 
ATOM      6  C   UNL     1       3.067   1.670  -0.890  1.00  0.00    -0.011 A 
ATOM      7  C   UNL     1       3.626   1.660   0.393  1.00  0.00     0.010 A 
ATOM      8  C   UNL     1       3.411   0.641  -1.786  1.00  0.00     0.056 A 
ATOM      9  C   UNL     1       4.436   0.606   0.797  1.00  0.00     0.020 A 
ATOM     10  C   UNL     1       4.255  -0.404  -1.386  1.00  0.00     0.130 A 
BRANCH   6  11
ATOM     11  C   UNL     1       2.023   2.658  -1.188  1.00  0.00     0.024 A 
ATOM     12  C   UNL     1       0.675   2.283  -1.358  1.00  0.00     0.126 A 
ATOM     13  C   UNL     1      -0.320   3.244  -1.551  1.00  0.00     0.047 A 
ATOM     14  C   UNL     1       0.006   4.598  -1.538  1.00  0.00     0.004 A 
ATOM     15  C   UNL     1       2.331   4.030  -1.196  1.00  0.00     0.012 A 
ATOM     16  C   UNL     1       1.331   4.992  -1.364  1.00  0.00     0.001 A 
BRANCH  12  17
ATOM     17  O   UNL     1       0.270   0.970  -1.388  1.00  0.00    -0.496 OA
ATOM     18  C   UNL     1       0.237   0.397  -0.079  1.00  0.00     0.278 C 
ENDBRANCH  12  17
ENDBRANCH   6  11
BRANCH  10  19
ATOM     19  O   UNL     1       4.497  -1.436  -2.248  1.00  0.00    -0.507 OA
ATOM     20  H   UNL     1       5.059  -2.140  -1.991  1.00  0.00     0.293 HD
ENDBRANCH  10  19
ENDBRANCH   3   5
ENDBRANCH   2   3
ENDBRANCH   1   2
BRANCH   1  21
ATOM     21  C   UNL     1       8.739  -2.463   0.453  1.00  0.00     0.275 C 
BRANCH  21  22
ATOM     22  O   UNL     1       8.625  -1.518   1.535  1.00  0.00    -0.458 OA
BRANCH  22  23
ATOM     23  C   UNL     1       9.019  -0.257   1.252  1.00  0.00     0.338 C 
ATOM     24  O   UNL     1       9.505   0.161   0.215  1.00  0.00    -0.246 OA
BRANCH  23  25
ATOM     25  C   UNL     1       8.775   0.620   2.410  1.00  0.00     0.060 A 
ATOM     26  C   UNL     1       7.473   0.824   2.856  1.00  0.00     0.016 A 
ATOM     27  C   UNL     1       9.819   1.368   2.947  1.00  0.00     0.016 A 
ATOM     28  C   UNL     1       7.190   1.861   3.746  1.00  0.00     0.010 A 
ATOM     29  C   UNL     1       9.548   2.329   3.929  1.00  0.00     0.010 A 
ATOM     30  C   UNL     1       8.225   2.628   4.305  1.00  0.00    -0.014 A 
BRANCH  30  31
ATOM     31  C   UNL     1       7.937   3.764   5.234  1.00  0.00     0.031 A 
ATOM     32  C   UNL     1       8.475   5.144   4.935  1.00  0.00     0.074 A 
ATOM     33  C   UNL     1       7.208   3.582   6.355  1.00  0.00     0.049 A 
ATOM     34  N   UNL     1       8.543   6.198   5.712  1.00  0.00    -0.248 NA
ATOM     35  C   UNL     1       9.030   5.362   3.589  1.00  0.00     0.031 C 
ATOM     36  C   UNL     1       6.590   2.324   6.773  1.00  0.00     0.029 A 
ATOM     37  N   UNL     1       6.867   4.463   7.356  1.00  0.00    -0.354 N 
ATOM     38  C   UNL     1       9.219   7.169   4.981  1.00  0.00     0.074 A 
ATOM     39  C   UNL     1       9.527   6.587   3.692  1.00  0.00     0.031 C 
ATOM     40  C   UNL     1       5.923   2.518   7.920  1.00  0.00     0.029 A 
ATOM     41  C   UNL     1       6.141   3.888   8.371  1.00  0.00     0.049 A 
ATOM     42  H   UNL     1       7.120   5.415   7.346  1.00  0.00     0.167 HD
ATOM     43  C   UNL     1       9.556   8.427   5.354  1.00  0.00     0.037 A 
ATOM     44  C   UNL     1       5.736   4.383   9.557  1.00  0.00     0.037 A 
ATOM     45  C   UNL     1       9.169   9.042   6.598  1.00  0.00     0.049 A 
ATOM     46  C   UNL     1       6.098   5.792   9.936  1.00  0.00     0.074 A 
ATOM     47  C   UNL     1       9.427  10.329   7.040  1.00  0.00     0.029 A 
ATOM     48  N   UNL     1       8.420   8.423   7.585  1.00  0.00    -0.354 N 
ATOM     49  N   UNL     1       6.785   6.679   9.260  1.00  0.00    -0.248 NA
ATOM     50  C   UNL     1       5.644   6.262  11.254  1.00  0.00     0.031 C 
ATOM     51  C   UNL     1       8.856  10.480   8.308  1.00  0.00     0.029 A 
ATOM     52  C   UNL     1       8.211   9.300   8.638  1.00  0.00     0.049 A 
ATOM     53  H   UNL     1       8.085   7.498   7.545  1.00  0.00     0.167 HD
ATOM     54  C   UNL     1       6.839   7.811  10.062  1.00  0.00     0.074 A 
ATOM     55  C   UNL     1       6.096   7.508  11.267  1.00  0.00     0.031 C 
ATOM     56  C   UNL     1       7.460   8.991   9.825  1.00  0.00     0.037 A 
BRANCH  43  57
ATOM     57  C   UNL     1      10.415   9.232   4.423  1.00  0.00     0.064 A 
ATOM     58  C   UNL     1       9.908   9.808   3.251  1.00  0.00     0.173 A 
ATOM     59  C   UNL     1      11.754   9.492   4.757  1.00  0.00     0.173 A 
ATOM     60  F   UNL     1       8.638   9.583   2.883  1.00  0.00    -0.203 F 
ATOM     61  C   UNL     1      10.713  10.605   2.439  1.00  0.00     0.198 A 
ATOM     62  C   UNL     1      12.549  10.309   3.958  1.00  0.00     0.198 A 
ATOM     63  F   UNL     1      12.285   8.972   5.874  1.00  0.00    -0.203 F 
ATOM     64  F   UNL     1      10.216  11.123   1.308  1.00  0.00    -0.200 F 
ATOM     65  C   UNL     1      12.029  10.862   2.798  1.00  0.00     0.200 A 
ATOM     66  F   UNL     1      13.815  10.567   4.315  1.00  0.00    -0.200 F 
ATOM     67  F   UNL     1      12.796  11.642   2.024  1.00  0.00    -0.200 F 
ENDBRANCH  43  57
BRANCH  44  68
ATOM     68  C   UNL     1       4.982   3.516  10.501  1.00  0.00     0.064 A 
ATOM     69  C   UNL     1       3.633   3.761  10.789  1.00  0.00     0.173 A 
ATOM     70  C   UNL     1       5.598   2.426  11.134  1.00  0.00     0.173 A 
ATOM     71  F   UNL     1       3.009   4.809  10.231  1.00  0.00    -0.203 F 
ATOM     72  C   UNL     1       2.931   2.956  11.683  1.00  0.00     0.198 A 
ATOM     73  C   UNL     1       4.886   1.602  12.003  1.00  0.00     0.198 A 
ATOM     74  F   UNL     1       6.888   2.150  10.895  1.00  0.00    -0.203 F 
ATOM     75  F   UNL     1       1.654   3.238  11.976  1.00  0.00    -0.200 F 
ATOM     76  C   UNL     1       3.556   1.872  12.283  1.00  0.00     0.200 A 
ATOM     77  F   UNL     1       5.490   0.548  12.568  1.00  0.00    -0.200 F 
ATOM     78  F   UNL     1       2.877   1.093  13.136  1.00  0.00    -0.200 F 
ENDBRANCH  44  68
BRANCH  56  79
ATOM     79  C   UNL     1       7.333  10.055  10.873  1.00  0.00     0.064 A 
ATOM     80  C   UNL     1       8.048   9.986  12.078  1.00  0.00     0.173 A 
ATOM     81  C   UNL     1       6.512  11.171  10.656  1.00  0.00     0.173 A 
ATOM     82  F   UNL     1       8.833   8.929  12.337  1.00  0.00    -0.203 F 
ATOM     83  C   UNL     1       7.927  10.986  13.038  1.00  0.00     0.198 A 
ATOM     84  C   UNL     1       6.412  12.181  11.609  1.00  0.00     0.198 A 
ATOM     85  F   UNL     1       5.813  11.285   9.518  1.00  0.00    -0.203 F 
ATOM     86  F   UNL     1       8.587  10.880  14.200  1.00  0.00    -0.200 F 
ATOM     87  C   UNL     1       7.115  12.085  12.801  1.00  0.00     0.200 A 
ATOM     88  F   UNL     1       5.634  13.247  11.375  1.00  0.00    -0.200 F 
ATOM     89  F   UNL     1       7.002  13.049  13.726  1.00  0.00    -0.200 F 
ENDBRANCH  56  79
ENDBRANCH  30  31
ENDBRANCH  23  25
ENDBRANCH  22  23
ENDBRANCH  21  22
ENDBRANCH   1  21
TORSDOF 14
