REMARK SMILES Cc1cc([C@H]([NH3+])C(=O)OCCOC(=O)c2ccc(-c3c4nc(c(-c5c(F)c(F)c(F)c(F)c5F)c5ccc([nH]5)c(-c5c(F)c(F)c(F)c(F)c5F)c5nc(c(-c6c(F)c(F)c(F)c(F)c6F)c6ccc3[nH]6)C=C5)C=C4)cc2)ccc1F
REMARK SMILES IDX 11 1 10 2 9 3 7 4 8 5 5 6 4 7 1 8 2 9 3 10 80 11 79 12 81 13
REMARK SMILES IDX 78 14 6 15 12 19 13 20 14 21 15 22 16 23 77 24 17 25 76 26
REMARK SMILES IDX 18 27 19 28 20 29 70 30 21 31 75 32 69 33 71 34 22 35 74 36
REMARK SMILES IDX 68 37 67 38 23 40 55 41 35 42 54 43 36 44 39 45 53 46 72 47
REMARK SMILES IDX 37 48 38 49 52 51 73 52 40 53 24 54 25 55 33 56 26 57 27 58
REMARK SMILES IDX 31 59 34 60 28 61 29 62 32 63 30 64 56 65 57 66 65 67 58 68
REMARK SMILES IDX 59 69 63 70 66 71 60 72 61 73 64 74 62 75 41 76 42 77 50 78
REMARK SMILES IDX 43 79 44 80 48 81 51 82 45 83 46 84 49 85 47 86
REMARK H PARENT 6 16 6 17 6 18 71 39 39 50
REMARK Flexibility Score: inf
ROOT
ATOM      1  C   UNL     1      -5.051  -1.369   3.433  1.00  0.00     0.275 C 
ENDROOT
BRANCH   1   2
ATOM      2  C   UNL     1      -5.749  -1.615   2.093  1.00  0.00     0.274 C 
BRANCH   2   3
ATOM      3  O   UNL     1      -4.915  -1.241   0.982  1.00  0.00    -0.457 OA
BRANCH   3   4
ATOM      4  C   UNL     1      -5.065   0.030   0.505  1.00  0.00     0.369 C 
ATOM      5  O   UNL     1      -5.930   0.816   0.885  1.00  0.00    -0.245 OA
BRANCH   4   6
ATOM      6  C   UNL     1      -3.999   0.407  -0.548  1.00  0.00     0.323 C 
BRANCH   6   7
ATOM      7  C   UNL     1      -4.487   0.051  -1.930  1.00  0.00     0.021 A 
ATOM      8  C   UNL     1      -4.987  -3.097  -4.013  1.00  0.00     0.047 C 
ATOM      9  C   UNL     1      -4.984  -1.662  -3.592  1.00  0.00    -0.015 A 
ATOM     10  C   UNL     1      -4.475  -1.291  -2.348  1.00  0.00     0.017 A 
ATOM     11  C   UNL     1      -5.507  -0.668  -4.419  1.00  0.00     0.126 A 
ATOM     12  C   UNL     1      -5.524   0.668  -4.027  1.00  0.00     0.040 A 
ATOM     13  F   UNL     1      -6.014  -0.997  -5.615  1.00  0.00    -0.207 F 
ATOM     14  C   UNL     1      -5.017   1.031  -2.781  1.00  0.00     0.013 A 
ENDBRANCH   6   7
BRANCH   6  15
ATOM     15  N   UNL     1      -2.680  -0.203  -0.280  1.00  0.00    -0.342 N 
ATOM     16  H   UNL     1      -2.759  -1.219  -0.329  1.00  0.00     0.345 HD
ATOM     17  H   UNL     1      -2.361   0.069   0.650  1.00  0.00     0.345 HD
ATOM     18  H   UNL     1      -2.008   0.119  -0.977  1.00  0.00     0.345 HD
ENDBRANCH   6  15
ENDBRANCH   4   6
ENDBRANCH   3   4
ENDBRANCH   2   3
ENDBRANCH   1   2
BRANCH   1  19
ATOM     19  O   UNL     1      -4.855   0.032   3.677  1.00  0.00    -0.458 OA
BRANCH  19  20
ATOM     20  C   UNL     1      -3.716   0.519   3.141  1.00  0.00     0.338 C 
ATOM     21  O   UNL     1      -2.868  -0.084   2.503  1.00  0.00    -0.246 OA
BRANCH  20  22
ATOM     22  C   UNL     1      -3.527   1.929   3.461  1.00  0.00     0.060 A 
ATOM     23  C   UNL     1      -2.913   2.744   2.494  1.00  0.00     0.016 A 
ATOM     24  C   UNL     1      -3.581   2.282   4.805  1.00  0.00     0.016 A 
ATOM     25  C   UNL     1      -2.179   3.845   2.900  1.00  0.00     0.010 A 
ATOM     26  C   UNL     1      -2.838   3.367   5.207  1.00  0.00     0.010 A 
ATOM     27  C   UNL     1      -2.078   4.085   4.265  1.00  0.00    -0.014 A 
BRANCH  27  28
ATOM     28  C   UNL     1      -1.069   4.955   4.838  1.00  0.00     0.031 A 
ATOM     29  C   UNL     1      -1.401   6.323   5.263  1.00  0.00     0.074 A 
ATOM     30  C   UNL     1       0.102   4.388   5.197  1.00  0.00     0.049 A 
ATOM     31  N   UNL     1      -0.520   7.223   5.548  1.00  0.00    -0.248 NA
ATOM     32  C   UNL     1      -2.777   6.796   5.374  1.00  0.00     0.031 C 
ATOM     33  C   UNL     1       1.008   4.854   6.239  1.00  0.00     0.029 A 
ATOM     34  N   UNL     1       0.771   3.305   4.599  1.00  0.00    -0.354 N 
ATOM     35  C   UNL     1      -1.183   8.257   6.160  1.00  0.00     0.074 A 
ATOM     36  C   UNL     1      -2.590   7.988   5.950  1.00  0.00     0.031 C 
ATOM     37  C   UNL     1       2.195   4.249   6.086  1.00  0.00     0.029 A 
ATOM     38  C   UNL     1       2.147   3.533   4.824  1.00  0.00     0.049 A 
ATOM     39  H   UNL     1       0.364   2.546   4.123  1.00  0.00     0.167 HD
ATOM     40  C   UNL     1      -0.487   9.146   6.924  1.00  0.00     0.037 A 
ATOM     41  C   UNL     1       3.020   3.750   3.797  1.00  0.00     0.037 A 
ATOM     42  C   UNL     1       0.938   8.839   6.953  1.00  0.00     0.049 A 
ATOM     43  C   UNL     1       3.752   5.067   3.867  1.00  0.00     0.074 A 
ATOM     44  C   UNL     1       1.718   8.142   7.862  1.00  0.00     0.029 A 
ATOM     45  N   UNL     1       1.705   8.977   5.802  1.00  0.00    -0.354 N 
ATOM     46  N   UNL     1       3.320   6.098   4.536  1.00  0.00    -0.248 NA
ATOM     47  C   UNL     1       4.999   5.341   3.159  1.00  0.00     0.031 C 
ATOM     48  C   UNL     1       2.956   7.845   7.250  1.00  0.00     0.029 A 
ATOM     49  C   UNL     1       2.933   8.365   5.968  1.00  0.00     0.049 A 
ATOM     50  H   UNL     1       1.415   9.444   4.985  1.00  0.00     0.167 HD
ATOM     51  C   UNL     1       4.174   7.152   4.351  1.00  0.00     0.074 A 
ATOM     52  C   UNL     1       5.220   6.625   3.495  1.00  0.00     0.031 C 
ATOM     53  C   UNL     1       3.930   8.372   4.912  1.00  0.00     0.037 A 
BRANCH  40  54
ATOM     54  C   UNL     1      -1.173  10.069   7.898  1.00  0.00     0.064 A 
ATOM     55  C   UNL     1      -0.636  10.316   9.179  1.00  0.00     0.173 A 
ATOM     56  C   UNL     1      -2.405  10.693   7.635  1.00  0.00     0.173 A 
ATOM     57  F   UNL     1       0.576   9.873   9.532  1.00  0.00    -0.203 F 
ATOM     58  C   UNL     1      -1.337  11.021  10.159  1.00  0.00     0.198 A 
ATOM     59  C   UNL     1      -3.131  11.353   8.631  1.00  0.00     0.198 A 
ATOM     60  F   UNL     1      -2.926  10.691   6.399  1.00  0.00    -0.203 F 
ATOM     61  F   UNL     1      -0.784  11.209  11.366  1.00  0.00    -0.200 F 
ATOM     62  C   UNL     1      -2.603  11.505   9.898  1.00  0.00     0.200 A 
ATOM     63  F   UNL     1      -4.354  11.830   8.357  1.00  0.00    -0.200 F 
ATOM     64  F   UNL     1      -3.300  12.128  10.857  1.00  0.00    -0.200 F 
ENDBRANCH  40  54
BRANCH  41  65
ATOM     65  C   UNL     1       2.635   3.087   2.529  1.00  0.00     0.064 A 
ATOM     66  C   UNL     1       2.773   1.693   2.425  1.00  0.00     0.173 A 
ATOM     67  C   UNL     1       1.817   3.736   1.594  1.00  0.00     0.173 A 
ATOM     68  F   UNL     1       3.540   1.028   3.304  1.00  0.00    -0.203 F 
ATOM     69  C   UNL     1       2.054   0.967   1.477  1.00  0.00     0.198 A 
ATOM     70  C   UNL     1       1.090   3.004   0.655  1.00  0.00     0.198 A 
ATOM     71  F   UNL     1       1.640   5.063   1.654  1.00  0.00    -0.203 F 
ATOM     72  F   UNL     1       2.150  -0.370   1.446  1.00  0.00    -0.200 F 
ATOM     73  C   UNL     1       1.192   1.621   0.612  1.00  0.00     0.200 A 
ATOM     74  F   UNL     1       0.234   3.632  -0.164  1.00  0.00    -0.200 F 
ATOM     75  F   UNL     1       0.433   0.921  -0.244  1.00  0.00    -0.200 F 
ENDBRANCH  41  65
BRANCH  53  76
ATOM     76  C   UNL     1       4.657   9.656   4.607  1.00  0.00     0.064 A 
ATOM     77  C   UNL     1       5.244   9.945   3.365  1.00  0.00     0.173 A 
ATOM     78  C   UNL     1       4.647  10.722   5.541  1.00  0.00     0.173 A 
ATOM     79  F   UNL     1       5.216   9.061   2.359  1.00  0.00    -0.203 F 
ATOM     80  C   UNL     1       5.830  11.185   3.097  1.00  0.00     0.198 A 
ATOM     81  C   UNL     1       5.183  11.975   5.250  1.00  0.00     0.198 A 
ATOM     82  F   UNL     1       4.092  10.586   6.755  1.00  0.00    -0.203 F 
ATOM     83  F   UNL     1       6.411  11.399   1.908  1.00  0.00    -0.200 F 
ATOM     84  C   UNL     1       5.789  12.202   4.033  1.00  0.00     0.200 A 
ATOM     85  F   UNL     1       5.089  12.964   6.150  1.00  0.00    -0.200 F 
ATOM     86  F   UNL     1       6.311  13.403   3.753  1.00  0.00    -0.200 F 
ENDBRANCH  53  76
ENDBRANCH  27  28
ENDBRANCH  20  22
ENDBRANCH  19  20
ENDBRANCH   1  19
TORSDOF 13
