REMARK SMILES [NH3+][C@@H](Cc1ccc(OC(F)F)cc1)C(=O)OCCOC(=O)c1ccc(-c2c3nc(c(-c4c(F)c(F)c(F)c(F)c4F)c4ccc([nH]4)c(-c4c(F)c(F)c(F)c(F)c4F)c4nc(c(-c5c(F)c(F)c(F)c(F)c5F)c5ccc2[nH]5)C=C4)C=C3)cc1
REMARK SMILES IDX 17 1 16 2 14 3 15 4 2 5 1 6 3 10 4 11 5 12 13 13 6 14 12 15
REMARK SMILES IDX 7 16 8 17 9 18 10 19 11 20 18 21 19 22 20 23 21 24 22 25
REMARK SMILES IDX 23 26 84 27 24 28 83 29 25 30 26 31 27 32 77 33 28 34 82 35
REMARK SMILES IDX 76 36 78 37 29 38 81 39 75 40 74 41 30 43 62 44 42 45 61 46
REMARK SMILES IDX 43 47 46 48 60 49 79 50 44 51 45 52 59 54 80 55 47 56 31 57
REMARK SMILES IDX 32 58 40 59 33 60 34 61 38 62 41 63 35 64 36 65 39 66 37 67
REMARK SMILES IDX 63 68 64 69 72 70 65 71 66 72 70 73 73 74 67 75 68 76 71 77
REMARK SMILES IDX 69 78 48 79 49 80 57 81 50 82 51 83 55 84 58 85 52 86 53 87
REMARK SMILES IDX 56 88 54 89
REMARK H PARENT 1 7 1 8 1 9 78 42 46 53
REMARK Flexibility Score: inf
ROOT
ATOM      1  C   UNL     1      -3.046   1.182   0.205  1.00  0.00     0.274 C 
ENDROOT
BRANCH   1   2
ATOM      2  O   UNL     1      -1.610   1.076   0.166  1.00  0.00    -0.458 OA
BRANCH   2   3
ATOM      3  C   UNL     1      -0.908   1.808   1.079  1.00  0.00     0.365 C 
ATOM      4  O   UNL     1      -1.402   2.551   1.918  1.00  0.00    -0.245 OA
BRANCH   3   5
ATOM      5  C   UNL     1       0.609   1.620   0.909  1.00  0.00     0.296 C 
BRANCH   5   6
ATOM      6  N   UNL     1       0.982   0.252   0.476  1.00  0.00    -0.346 N 
ATOM      7  H   UNL     1       1.996   0.190   0.382  1.00  0.00     0.345 HD
ATOM      8  H   UNL     1       0.544   0.049  -0.422  1.00  0.00     0.345 HD
ATOM      9  H   UNL     1       0.663  -0.423   1.171  1.00  0.00     0.345 HD
ENDBRANCH   5   6
BRANCH   5  10
ATOM     10  C   UNL     1       1.224   2.749   0.066  1.00  0.00     0.113 C 
BRANCH  10  11
ATOM     11  C   UNL     1       0.611   3.043  -1.285  1.00  0.00    -0.041 A 
ATOM     12  C   UNL     1       0.462   4.378  -1.686  1.00  0.00     0.008 A 
ATOM     13  C   UNL     1       0.220   2.041  -2.179  1.00  0.00     0.008 A 
ATOM     14  C   UNL     1      -0.105   4.692  -2.923  1.00  0.00     0.047 A 
ATOM     15  C   UNL     1      -0.364   2.356  -3.410  1.00  0.00     0.047 A 
ATOM     16  C   UNL     1      -0.534   3.684  -3.788  1.00  0.00     0.126 A 
BRANCH  16  17
ATOM     17  O   UNL     1      -1.086   4.128  -4.955  1.00  0.00    -0.435 OA
BRANCH  17  18
ATOM     18  C   UNL     1      -1.614   3.163  -5.854  1.00  0.00     0.542 C 
ATOM     19  F   UNL     1      -0.636   2.316  -6.258  1.00  0.00    -0.167 F 
ATOM     20  F   UNL     1      -2.581   2.436  -5.243  1.00  0.00    -0.167 F 
ENDBRANCH  17  18
ENDBRANCH  16  17
ENDBRANCH  10  11
ENDBRANCH   5  10
ENDBRANCH   3   5
ENDBRANCH   2   3
ENDBRANCH   1   2
BRANCH   1  21
ATOM     21  C   UNL     1      -3.673  -0.185   0.483  1.00  0.00     0.275 C 
BRANCH  21  22
ATOM     22  O   UNL     1      -3.256  -0.683   1.768  1.00  0.00    -0.458 OA
BRANCH  22  23
ATOM     23  C   UNL     1      -2.131  -1.438   1.738  1.00  0.00     0.338 C 
ATOM     24  O   UNL     1      -1.520  -1.818   0.755  1.00  0.00    -0.246 OA
BRANCH  23  25
ATOM     25  C   UNL     1      -1.632  -1.606   3.113  1.00  0.00     0.060 A 
ATOM     26  C   UNL     1      -0.357  -1.116   3.401  1.00  0.00     0.016 A 
ATOM     27  C   UNL     1      -2.369  -2.278   4.089  1.00  0.00     0.016 A 
ATOM     28  C   UNL     1       0.199  -1.299   4.660  1.00  0.00     0.010 A 
ATOM     29  C   UNL     1      -1.808  -2.470   5.356  1.00  0.00     0.010 A 
ATOM     30  C   UNL     1      -0.516  -1.992   5.641  1.00  0.00    -0.014 A 
BRANCH  30  31
ATOM     31  C   UNL     1       0.150  -2.286   6.929  1.00  0.00     0.031 A 
ATOM     32  C   UNL     1       0.714  -3.655   7.171  1.00  0.00     0.074 A 
ATOM     33  C   UNL     1       0.315  -1.308   7.837  1.00  0.00     0.049 A 
ATOM     34  N   UNL     1       1.313  -4.129   8.233  1.00  0.00    -0.248 NA
ATOM     35  C   UNL     1       0.592  -4.618   6.066  1.00  0.00     0.031 C 
ATOM     36  C   UNL     1      -0.137   0.074   7.679  1.00  0.00     0.029 A 
ATOM     37  N   UNL     1       0.915  -1.327   9.070  1.00  0.00    -0.354 N 
ATOM     38  C   UNL     1       1.633  -5.445   7.928  1.00  0.00     0.074 A 
ATOM     39  C   UNL     1       1.140  -5.704   6.592  1.00  0.00     0.031 C 
ATOM     40  C   UNL     1       0.201   0.772   8.776  1.00  0.00     0.029 A 
ATOM     41  C   UNL     1       0.857  -0.123   9.726  1.00  0.00     0.049 A 
ATOM     42  H   UNL     1       1.345  -2.128   9.449  1.00  0.00     0.167 HD
ATOM     43  C   UNL     1       2.289  -6.350   8.692  1.00  0.00     0.037 A 
ATOM     44  C   UNL     1       1.268   0.210  10.964  1.00  0.00     0.037 A 
ATOM     45  C   UNL     1       2.778  -6.084  10.020  1.00  0.00     0.049 A 
ATOM     46  C   UNL     1       1.936  -0.835  11.818  1.00  0.00     0.074 A 
ATOM     47  C   UNL     1       3.428  -6.941  10.890  1.00  0.00     0.029 A 
ATOM     48  N   UNL     1       2.673  -4.861  10.666  1.00  0.00    -0.354 N 
ATOM     49  N   UNL     1       2.214  -2.084  11.532  1.00  0.00    -0.248 NA
ATOM     50  C   UNL     1       2.348  -0.423  13.166  1.00  0.00     0.031 C 
ATOM     51  C   UNL     1       3.686  -6.246  12.077  1.00  0.00     0.029 A 
ATOM     52  C   UNL     1       3.237  -4.944  11.929  1.00  0.00     0.049 A 
ATOM     53  H   UNL     1       2.258  -4.054  10.284  1.00  0.00     0.167 HD
ATOM     54  C   UNL     1       2.850  -2.601  12.653  1.00  0.00     0.074 A 
ATOM     55  C   UNL     1       2.935  -1.523  13.617  1.00  0.00     0.031 C 
ATOM     56  C   UNL     1       3.317  -3.855  12.869  1.00  0.00     0.037 A 
BRANCH  43  57
ATOM     57  C   UNL     1       2.491  -7.720   8.117  1.00  0.00     0.064 A 
ATOM     58  C   UNL     1       3.418  -7.956   7.092  1.00  0.00     0.173 A 
ATOM     59  C   UNL     1       1.765  -8.813   8.613  1.00  0.00     0.173 A 
ATOM     60  F   UNL     1       4.124  -6.941   6.572  1.00  0.00    -0.203 F 
ATOM     61  C   UNL     1       3.597  -9.235   6.570  1.00  0.00     0.198 A 
ATOM     62  C   UNL     1       1.965 -10.094   8.106  1.00  0.00     0.198 A 
ATOM     63  F   UNL     1       0.867  -8.640   9.593  1.00  0.00    -0.203 F 
ATOM     64  F   UNL     1       4.458  -9.431   5.562  1.00  0.00    -0.200 F 
ATOM     65  C   UNL     1       2.876 -10.303   7.081  1.00  0.00     0.200 A 
ATOM     66  F   UNL     1       1.274 -11.127   8.607  1.00  0.00    -0.200 F 
ATOM     67  F   UNL     1       3.053 -11.534   6.581  1.00  0.00    -0.200 F 
ENDBRANCH  43  57
BRANCH  44  68
ATOM     68  C   UNL     1       1.039   1.584  11.480  1.00  0.00     0.064 A 
ATOM     69  C   UNL     1       2.107   2.456  11.726  1.00  0.00     0.173 A 
ATOM     70  C   UNL     1      -0.257   2.043  11.761  1.00  0.00     0.173 A 
ATOM     71  F   UNL     1       3.366   2.054  11.499  1.00  0.00    -0.203 F 
ATOM     72  C   UNL     1       1.891   3.728  12.253  1.00  0.00     0.198 A 
ATOM     73  C   UNL     1      -0.475   3.325  12.260  1.00  0.00     0.198 A 
ATOM     74  F   UNL     1      -1.314   1.246  11.547  1.00  0.00    -0.203 F 
ATOM     75  F   UNL     1       2.934   4.523  12.527  1.00  0.00    -0.200 F 
ATOM     76  C   UNL     1       0.600   4.164  12.514  1.00  0.00     0.200 A 
ATOM     77  F   UNL     1      -1.724   3.745  12.502  1.00  0.00    -0.200 F 
ATOM     78  F   UNL     1       0.393   5.386  13.022  1.00  0.00    -0.200 F 
ENDBRANCH  44  68
BRANCH  56  79
ATOM     79  C   UNL     1       3.988  -4.115  14.185  1.00  0.00     0.064 A 
ATOM     80  C   UNL     1       3.255  -4.205  15.378  1.00  0.00     0.173 A 
ATOM     81  C   UNL     1       5.377  -4.302  14.250  1.00  0.00     0.173 A 
ATOM     82  F   UNL     1       1.926  -4.018  15.369  1.00  0.00    -0.203 F 
ATOM     83  C   UNL     1       3.892  -4.442  16.592  1.00  0.00     0.198 A 
ATOM     84  C   UNL     1       6.007  -4.567  15.462  1.00  0.00     0.198 A 
ATOM     85  F   UNL     1       6.121  -4.232  13.136  1.00  0.00    -0.203 F 
ATOM     86  F   UNL     1       3.179  -4.474  17.726  1.00  0.00    -0.200 F 
ATOM     87  C   UNL     1       5.266  -4.629  16.632  1.00  0.00     0.200 A 
ATOM     88  F   UNL     1       7.333  -4.758  15.498  1.00  0.00    -0.200 F 
ATOM     89  F   UNL     1       5.878  -4.859  17.802  1.00  0.00    -0.200 F 
ENDBRANCH  56  79
ENDBRANCH  30  31
ENDBRANCH  23  25
ENDBRANCH  22  23
ENDBRANCH  21  22
ENDBRANCH   1  21
TORSDOF 16
