REMARK SMILES O=C(Cn1nc(C2CC2)c2c(C(F)F)cc(-c3ccc(Cl)cc3)nc21)OCCOC(=O)c1ccc(-c2c3nc(c(-c4c(F)c(F)c(F)c(F)c4F)c4ccc([nH]4)c(-c4c(F)c(F)c(F)c(F)c4F)c4nc(c(-c5c(F)c(F)c(F)c(F)c5F)c5ccc2[nH]5)C=C4)C=C3)cc1
REMARK SMILES IDX 27 1 26 2 2 3 1 4 3 5 4 6 5 7 25 8 6 9 10 10 24 11 11 12
REMARK SMILES IDX 16 13 15 14 7 15 8 16 9 17 12 18 13 19 14 20 17 21 18 22
REMARK SMILES IDX 23 23 19 24 22 25 20 26 21 27 28 28 29 29 30 30 31 31 32 32
REMARK SMILES IDX 33 33 94 34 34 35 93 36 35 37 36 38 37 39 87 40 38 41 92 42
REMARK SMILES IDX 86 43 88 44 39 45 91 46 85 47 84 48 40 50 72 51 52 52 71 53
REMARK SMILES IDX 53 54 56 55 70 56 89 57 54 58 55 59 69 61 90 62 57 63 41 64
REMARK SMILES IDX 42 65 50 66 43 67 44 68 48 69 51 70 45 71 46 72 49 73 47 74
REMARK SMILES IDX 73 75 74 76 82 77 75 78 76 79 80 80 83 81 77 82 78 83 81 84
REMARK SMILES IDX 79 85 58 86 59 87 67 88 60 89 61 90 65 91 68 92 62 93 63 94
REMARK SMILES IDX 66 95 64 96
REMARK H PARENT 88 49 56 60
REMARK Flexibility Score: inf
ROOT
ATOM      1  C   UNL     1       4.214  -1.051  -0.693  1.00  0.00     0.274 C 
ENDROOT
BRANCH   1   2
ATOM      2  O   UNL     1       2.799  -1.097  -0.399  1.00  0.00    -0.461 OA
BRANCH   2   3
ATOM      3  C   UNL     1       2.122  -0.367   0.523  1.00  0.00     0.327 C 
ATOM      4  O   UNL     1       0.897  -0.484   0.602  1.00  0.00    -0.250 OA
BRANCH   3   5
ATOM      5  C   UNL     1       2.836   0.631   1.403  1.00  0.00     0.269 C 
BRANCH   5   6
ATOM      6  N   UNL     1       3.772   0.049   2.334  1.00  0.00    -0.236 N 
ATOM      7  N   UNL     1       3.805  -1.271   2.482  1.00  0.00    -0.174 NA
ATOM      8  C   UNL     1       4.687   0.710   3.109  1.00  0.00     0.159 A 
ATOM      9  C   UNL     1       4.682  -1.488   3.461  1.00  0.00     0.076 A 
ATOM     10  C   UNL     1       5.296  -0.274   3.908  1.00  0.00     0.051 A 
ATOM     11  N   UNL     1       4.917   2.048   3.088  1.00  0.00    -0.228 NA
ATOM     12  C   UNL     1       6.264   0.192   4.830  1.00  0.00     0.033 A 
ATOM     13  C   UNL     1       5.879   2.447   3.944  1.00  0.00     0.073 A 
ATOM     14  C   UNL     1       6.540   1.575   4.805  1.00  0.00     0.039 A 
BRANCH   9  15
ATOM     15  C   UNL     1       4.763  -2.952   3.856  1.00  0.00     0.041 C 
ATOM     16  C   UNL     1       5.775  -3.630   4.718  1.00  0.00     0.011 C 
ATOM     17  C   UNL     1       4.431  -3.299   5.286  1.00  0.00     0.011 C 
ENDBRANCH   9  15
BRANCH  12  18
ATOM     18  C   UNL     1       7.063  -0.625   5.804  1.00  0.00     0.373 C 
ATOM     19  F   UNL     1       6.302  -1.414   6.603  1.00  0.00    -0.205 F 
ATOM     20  F   UNL     1       7.978  -1.420   5.191  1.00  0.00    -0.205 F 
ENDBRANCH  12  18
BRANCH  13  21
ATOM     21  C   UNL     1       6.223   3.881   4.008  1.00  0.00     0.000 A 
ATOM     22  C   UNL     1       5.294   4.833   4.458  1.00  0.00     0.012 A 
ATOM     23  C   UNL     1       7.553   4.304   3.800  1.00  0.00     0.012 A 
ATOM     24  C   UNL     1       5.697   6.140   4.763  1.00  0.00     0.021 A 
ATOM     25  C   UNL     1       7.956   5.609   4.101  1.00  0.00     0.021 A 
ATOM     26  C   UNL     1       7.029   6.516   4.601  1.00  0.00     0.041 A 
ATOM     27  Cl  UNL     1       7.538   8.096   5.053  1.00  0.00    -0.084 Cl
ENDBRANCH  13  21
ENDBRANCH   5   6
ENDBRANCH   3   5
ENDBRANCH   2   3
ENDBRANCH   1   2
BRANCH   1  28
ATOM     28  C   UNL     1       4.504  -0.134  -1.867  1.00  0.00     0.275 C 
BRANCH  28  29
ATOM     29  O   UNL     1       4.278   1.212  -1.468  1.00  0.00    -0.458 OA
BRANCH  29  30
ATOM     30  C   UNL     1       3.039   1.701  -1.710  1.00  0.00     0.338 C 
ATOM     31  O   UNL     1       2.075   1.110  -2.137  1.00  0.00    -0.246 OA
BRANCH  30  32
ATOM     32  C   UNL     1       3.066   3.134  -1.398  1.00  0.00     0.060 A 
ATOM     33  C   UNL     1       1.855   3.830  -1.409  1.00  0.00     0.016 A 
ATOM     34  C   UNL     1       4.304   3.788  -1.325  1.00  0.00     0.016 A 
ATOM     35  C   UNL     1       1.896   5.197  -1.575  1.00  0.00     0.010 A 
ATOM     36  C   UNL     1       4.346   5.139  -1.524  1.00  0.00     0.010 A 
ATOM     37  C   UNL     1       3.145   5.805  -1.736  1.00  0.00    -0.014 A 
BRANCH  37  38
ATOM     38  C   UNL     1       3.202   7.190  -2.130  1.00  0.00     0.031 A 
ATOM     39  C   UNL     1       3.049   8.126  -0.999  1.00  0.00     0.074 A 
ATOM     40  C   UNL     1       3.486   7.539  -3.399  1.00  0.00     0.049 A 
ATOM     41  N   UNL     1       2.051   8.910  -0.772  1.00  0.00    -0.248 NA
ATOM     42  C   UNL     1       4.032   8.067   0.095  1.00  0.00     0.031 C 
ATOM     43  C   UNL     1       3.919   6.687  -4.511  1.00  0.00     0.029 A 
ATOM     44  N   UNL     1       3.513   8.782  -3.943  1.00  0.00    -0.354 N 
ATOM     45  C   UNL     1       2.369   9.590   0.396  1.00  0.00     0.074 A 
ATOM     46  C   UNL     1       3.493   8.906   0.979  1.00  0.00     0.031 C 
ATOM     47  C   UNL     1       4.366   7.466  -5.525  1.00  0.00     0.029 A 
ATOM     48  C   UNL     1       4.121   8.858  -5.189  1.00  0.00     0.049 A 
ATOM     49  H   UNL     1       3.131   9.569  -3.490  1.00  0.00     0.167 HD
ATOM     50  C   UNL     1       1.839  10.816   0.648  1.00  0.00     0.037 A 
ATOM     51  C   UNL     1       4.444  10.005  -5.840  1.00  0.00     0.037 A 
ATOM     52  C   UNL     1       0.680  11.059  -0.172  1.00  0.00     0.049 A 
ATOM     53  C   UNL     1       3.607  11.085  -5.252  1.00  0.00     0.074 A 
ATOM     54  C   UNL     1      -0.562  10.467  -0.288  1.00  0.00     0.029 A 
ATOM     55  N   UNL     1       0.854  11.796  -1.317  1.00  0.00    -0.354 N 
ATOM     56  N   UNL     1       2.311  11.148  -5.387  1.00  0.00    -0.248 NA
ATOM     57  C   UNL     1       4.154  11.816  -4.118  1.00  0.00     0.031 C 
ATOM     58  C   UNL     1      -0.862  10.501  -1.682  1.00  0.00     0.029 A 
ATOM     59  C   UNL     1       0.179  11.168  -2.331  1.00  0.00     0.049 A 
ATOM     60  H   UNL     1       1.373  12.630  -1.396  1.00  0.00     0.167 HD
ATOM     61  C   UNL     1       1.845  11.551  -4.144  1.00  0.00     0.074 A 
ATOM     62  C   UNL     1       3.030  12.018  -3.426  1.00  0.00     0.031 C 
ATOM     63  C   UNL     1       0.600  11.194  -3.713  1.00  0.00     0.037 A 
BRANCH  50  64
ATOM     64  C   UNL     1       2.586  11.922   1.342  1.00  0.00     0.064 A 
ATOM     65  C   UNL     1       1.894  13.093   1.702  1.00  0.00     0.173 A 
ATOM     66  C   UNL     1       3.995  12.001   1.403  1.00  0.00     0.173 A 
ATOM     67  F   UNL     1       0.554  13.137   1.650  1.00  0.00    -0.203 F 
ATOM     68  C   UNL     1       2.566  14.272   2.032  1.00  0.00     0.198 A 
ATOM     69  C   UNL     1       4.660  13.162   1.789  1.00  0.00     0.198 A 
ATOM     70  F   UNL     1       4.787  11.007   0.983  1.00  0.00    -0.203 F 
ATOM     71  F   UNL     1       1.868  15.396   2.245  1.00  0.00    -0.200 F 
ATOM     72  C   UNL     1       3.948  14.306   2.073  1.00  0.00     0.200 A 
ATOM     73  F   UNL     1       6.001  13.180   1.798  1.00  0.00    -0.200 F 
ATOM     74  F   UNL     1       4.594  15.449   2.333  1.00  0.00    -0.200 F 
ENDBRANCH  50  64
BRANCH  51  75
ATOM     75  C   UNL     1       5.670  10.303  -6.624  1.00  0.00     0.064 A 
ATOM     76  C   UNL     1       5.755  11.469  -7.405  1.00  0.00     0.173 A 
ATOM     77  C   UNL     1       6.880   9.625  -6.383  1.00  0.00     0.173 A 
ATOM     78  F   UNL     1       4.656  12.199  -7.649  1.00  0.00    -0.203 F 
ATOM     79  C   UNL     1       6.981  11.950  -7.878  1.00  0.00     0.198 A 
ATOM     80  C   UNL     1       8.102  10.104  -6.860  1.00  0.00     0.198 A 
ATOM     81  F   UNL     1       6.918   8.542  -5.594  1.00  0.00    -0.203 F 
ATOM     82  F   UNL     1       7.030  13.105  -8.557  1.00  0.00    -0.200 F 
ATOM     83  C   UNL     1       8.155  11.275  -7.593  1.00  0.00     0.200 A 
ATOM     84  F   UNL     1       9.236   9.460  -6.545  1.00  0.00    -0.200 F 
ATOM     85  F   UNL     1       9.337  11.772  -7.983  1.00  0.00    -0.200 F 
ENDBRANCH  51  75
BRANCH  63  86
ATOM     86  C   UNL     1      -0.335  10.572  -4.714  1.00  0.00     0.064 A 
ATOM     87  C   UNL     1      -0.119   9.325  -5.327  1.00  0.00     0.173 A 
ATOM     88  C   UNL     1      -1.572  11.191  -4.936  1.00  0.00     0.173 A 
ATOM     89  F   UNL     1       0.998   8.626  -5.093  1.00  0.00    -0.203 F 
ATOM     90  C   UNL     1      -1.086   8.743  -6.146  1.00  0.00     0.198 A 
ATOM     91  C   UNL     1      -2.550  10.591  -5.724  1.00  0.00     0.198 A 
ATOM     92  F   UNL     1      -1.854  12.358  -4.336  1.00  0.00    -0.203 F 
ATOM     93  F   UNL     1      -0.855   7.554  -6.722  1.00  0.00    -0.200 F 
ATOM     94  C   UNL     1      -2.305   9.373  -6.335  1.00  0.00     0.200 A 
ATOM     95  F   UNL     1      -3.745  11.182  -5.863  1.00  0.00    -0.200 F 
ATOM     96  F   UNL     1      -3.255   8.792  -7.082  1.00  0.00    -0.200 F 
ENDBRANCH  63  86
ENDBRANCH  37  38
ENDBRANCH  30  32
ENDBRANCH  29  30
ENDBRANCH  28  29
ENDBRANCH   1  28
TORSDOF 15
