REMARK SMILES COc1ccc([C@H]2[C@H](C(=O)OCCOC(=O)c3ccc(-c4c5nc(c(-c6c(F)c(F)c(F)c(F)c6F)c6ccc([nH]6)c(-c6c(F)c(F)c(F)c(F)c6F)c6nc(c(-c7c(F)c(F)c(F)c(F)c7F)c7ccc4[nH]7)C=C6)C=C5)cc3)CCN2c2ccc(F)cc2)cc1
REMARK SMILES IDX 12 1 11 2 9 3 10 4 8 5 7 6 82 7 80 8 81 9 6 10 3 11 4 12
REMARK SMILES IDX 91 13 5 14 90 15 2 16 1 17 83 18 84 19 89 20 85 21 88 22
REMARK SMILES IDX 86 23 87 24 13 25 14 26 15 27 16 28 17 29 18 30 79 31 19 32
REMARK SMILES IDX 78 33 20 34 21 35 22 36 72 37 23 38 77 39 71 40 73 41 24 42
REMARK SMILES IDX 76 43 70 44 69 45 25 47 57 48 37 49 56 50 38 51 41 52 55 53
REMARK SMILES IDX 74 54 39 55 40 56 54 58 75 59 42 60 26 61 27 62 35 63 28 64
REMARK SMILES IDX 29 65 33 66 36 67 30 68 31 69 34 70 32 71 58 72 59 73 67 74
REMARK SMILES IDX 60 75 61 76 65 77 68 78 62 79 63 80 66 81 64 82 43 83 44 84
REMARK SMILES IDX 52 85 45 86 46 87 50 88 53 89 47 90 48 91 51 92 49 93
REMARK H PARENT 73 46 41 57
REMARK Flexibility Score: inf
ROOT
ATOM      1  C   UNL     1       5.905   5.103  -0.330  1.00  0.00     0.274 C 
ENDROOT
BRANCH   1   2
ATOM      2  O   UNL     1       4.672   5.838  -0.190  1.00  0.00    -0.462 OA
BRANCH   2   3
ATOM      3  C   UNL     1       4.431   6.820  -1.090  1.00  0.00     0.311 C 
ATOM      4  O   UNL     1       5.197   7.128  -1.998  1.00  0.00    -0.252 OA
BRANCH   3   5
ATOM      5  C   UNL     1       3.125   7.559  -0.878  1.00  0.00     0.128 C 
ATOM      6  C   UNL     1       2.049   6.781  -0.099  1.00  0.00     0.127 C 
ATOM      7  N   UNL     1       2.317   7.164   1.297  1.00  0.00    -0.364 N 
ATOM      8  C   UNL     1       3.343   8.820  -0.049  1.00  0.00     0.039 C 
ATOM      9  C   UNL     1       3.173   8.348   1.390  1.00  0.00     0.118 C 
BRANCH   6  10
ATOM     10  C   UNL     1       0.646   7.224  -0.542  1.00  0.00    -0.024 A 
ATOM     11  C   UNL     1      -1.827   8.204  -1.510  1.00  0.00     0.118 A 
ATOM     12  C   UNL     1      -1.034   7.383  -2.308  1.00  0.00     0.047 A 
ATOM     13  C   UNL     1      -1.427   8.475  -0.205  1.00  0.00     0.047 A 
ATOM     14  C   UNL     1       0.185   6.893  -1.828  1.00  0.00     0.010 A 
ATOM     15  C   UNL     1      -0.203   7.991   0.271  1.00  0.00     0.010 A 
BRANCH  11  16
ATOM     16  O   UNL     1      -2.978   8.659  -2.091  1.00  0.00    -0.497 OA
ATOM     17  C   UNL     1      -3.466   9.897  -1.581  1.00  0.00     0.278 C 
ENDBRANCH  11  16
ENDBRANCH   6  10
BRANCH   7  18
ATOM     18  C   UNL     1       2.247   6.312   2.380  1.00  0.00     0.037 A 
ATOM     19  C   UNL     1       1.927   6.821   3.650  1.00  0.00     0.029 A 
ATOM     20  C   UNL     1       2.518   4.939   2.286  1.00  0.00     0.029 A 
ATOM     21  C   UNL     1       1.885   6.000   4.780  1.00  0.00     0.041 A 
ATOM     22  C   UNL     1       2.500   4.114   3.415  1.00  0.00     0.041 A 
ATOM     23  C   UNL     1       2.182   4.653   4.652  1.00  0.00     0.123 A 
ATOM     24  F   UNL     1       2.167   3.866   5.735  1.00  0.00    -0.207 F 
ENDBRANCH   7  18
ENDBRANCH   3   5
ENDBRANCH   2   3
ENDBRANCH   1   2
BRANCH   1  25
ATOM     25  C   UNL     1       5.663   3.707  -0.911  1.00  0.00     0.275 C 
BRANCH  25  26
ATOM     26  O   UNL     1       5.224   3.775  -2.280  1.00  0.00    -0.458 OA
BRANCH  26  27
ATOM     27  C   UNL     1       3.883   3.800  -2.445  1.00  0.00     0.338 C 
ATOM     28  O   UNL     1       3.024   3.730  -1.583  1.00  0.00    -0.246 OA
BRANCH  27  29
ATOM     29  C   UNL     1       3.562   4.091  -3.847  1.00  0.00     0.060 A 
ATOM     30  C   UNL     1       2.987   5.330  -4.134  1.00  0.00     0.016 A 
ATOM     31  C   UNL     1       3.724   3.133  -4.847  1.00  0.00     0.016 A 
ATOM     32  C   UNL     1       2.531   5.611  -5.415  1.00  0.00     0.010 A 
ATOM     33  C   UNL     1       3.290   3.425  -6.144  1.00  0.00     0.010 A 
ATOM     34  C   UNL     1       2.675   4.658  -6.430  1.00  0.00    -0.014 A 
BRANCH  34  35
ATOM     35  C   UNL     1       2.148   4.949  -7.783  1.00  0.00     0.031 A 
ATOM     36  C   UNL     1       0.905   4.263  -8.266  1.00  0.00     0.074 A 
ATOM     37  C   UNL     1       2.774   5.851  -8.560  1.00  0.00     0.049 A 
ATOM     38  N   UNL     1       0.339   4.310  -9.445  1.00  0.00    -0.248 NA
ATOM     39  C   UNL     1       0.206   3.409  -7.294  1.00  0.00     0.031 C 
ATOM     40  C   UNL     1       3.958   6.619  -8.175  1.00  0.00     0.029 A 
ATOM     41  N   UNL     1       2.501   6.273  -9.836  1.00  0.00    -0.354 N 
ATOM     42  C   UNL     1      -0.766   3.475  -9.366  1.00  0.00     0.074 A 
ATOM     43  C   UNL     1      -0.789   2.927  -8.026  1.00  0.00     0.031 C 
ATOM     44  C   UNL     1       4.310   7.420  -9.193  1.00  0.00     0.029 A 
ATOM     45  C   UNL     1       3.407   7.184 -10.316  1.00  0.00     0.049 A 
ATOM     46  H   UNL     1       1.729   5.953 -10.357  1.00  0.00     0.167 HD
ATOM     47  C   UNL     1      -1.677   3.194 -10.328  1.00  0.00     0.037 A 
ATOM     48  C   UNL     1       3.515   7.742 -11.537  1.00  0.00     0.037 A 
ATOM     49  C   UNL     1      -1.661   3.761 -11.651  1.00  0.00     0.049 A 
ATOM     50  C   UNL     1       2.520   7.374 -12.601  1.00  0.00     0.074 A 
ATOM     51  C   UNL     1      -2.547   3.548 -12.693  1.00  0.00     0.029 A 
ATOM     52  N   UNL     1      -0.709   4.658 -12.111  1.00  0.00    -0.354 N 
ATOM     53  N   UNL     1       1.490   6.567 -12.526  1.00  0.00    -0.248 NA
ATOM     54  C   UNL     1       2.708   7.986 -13.924  1.00  0.00     0.031 C 
ATOM     55  C   UNL     1      -2.110   4.291 -13.796  1.00  0.00     0.029 A 
ATOM     56  C   UNL     1      -0.975   4.995 -13.429  1.00  0.00     0.049 A 
ATOM     57  H   UNL     1       0.044   5.005 -11.581  1.00  0.00     0.167 HD
ATOM     58  C   UNL     1       0.900   6.584 -13.782  1.00  0.00     0.074 A 
ATOM     59  C   UNL     1       1.678   7.494 -14.597  1.00  0.00     0.031 C 
ATOM     60  C   UNL     1      -0.187   5.904 -14.221  1.00  0.00     0.037 A 
BRANCH  47  61
ATOM     61  C   UNL     1      -2.751   2.204  -9.994  1.00  0.00     0.064 A 
ATOM     62  C   UNL     1      -3.828   2.535  -9.159  1.00  0.00     0.173 A 
ATOM     63  C   UNL     1      -2.718   0.914 -10.545  1.00  0.00     0.173 A 
ATOM     64  F   UNL     1      -3.896   3.751  -8.597  1.00  0.00    -0.203 F 
ATOM     65  C   UNL     1      -4.823   1.604  -8.872  1.00  0.00     0.198 A 
ATOM     66  C   UNL     1      -3.726  -0.007 -10.274  1.00  0.00     0.198 A 
ATOM     67  F   UNL     1      -1.710   0.549 -11.351  1.00  0.00    -0.203 F 
ATOM     68  F   UNL     1      -5.824   1.929  -8.043  1.00  0.00    -0.200 F 
ATOM     69  C   UNL     1      -4.775   0.337  -9.434  1.00  0.00     0.200 A 
ATOM     70  F   UNL     1      -3.682  -1.228 -10.824  1.00  0.00    -0.200 F 
ATOM     71  F   UNL     1      -5.736  -0.557  -9.161  1.00  0.00    -0.200 F 
ENDBRANCH  47  61
BRANCH  48  72
ATOM     72  C   UNL     1       4.627   8.684 -11.820  1.00  0.00     0.064 A 
ATOM     73  C   UNL     1       4.385  10.050 -12.008  1.00  0.00     0.173 A 
ATOM     74  C   UNL     1       5.954   8.236 -11.900  1.00  0.00     0.173 A 
ATOM     75  F   UNL     1       3.129  10.520 -11.966  1.00  0.00    -0.203 F 
ATOM     76  C   UNL     1       5.428  10.934 -12.276  1.00  0.00     0.198 A 
ATOM     77  C   UNL     1       6.999   9.124 -12.142  1.00  0.00     0.198 A 
ATOM     78  F   UNL     1       6.236   6.936 -11.729  1.00  0.00    -0.203 F 
ATOM     79  F   UNL     1       5.167  12.231 -12.487  1.00  0.00    -0.200 F 
ATOM     80  C   UNL     1       6.735  10.471 -12.335  1.00  0.00     0.200 A 
ATOM     81  F   UNL     1       8.260   8.674 -12.188  1.00  0.00    -0.200 F 
ATOM     82  F   UNL     1       7.739  11.323 -12.585  1.00  0.00    -0.200 F 
ENDBRANCH  48  72
BRANCH  60  83
ATOM     83  C   UNL     1      -0.608   6.135 -15.641  1.00  0.00     0.064 A 
ATOM     84  C   UNL     1       0.099   5.573 -16.713  1.00  0.00     0.173 A 
ATOM     85  C   UNL     1      -1.751   6.896 -15.928  1.00  0.00     0.173 A 
ATOM     86  F   UNL     1       1.207   4.852 -16.487  1.00  0.00    -0.203 F 
ATOM     87  C   UNL     1      -0.315   5.779 -18.026  1.00  0.00     0.198 A 
ATOM     88  C   UNL     1      -2.174   7.081 -17.241  1.00  0.00     0.198 A 
ATOM     89  F   UNL     1      -2.461   7.451 -14.935  1.00  0.00    -0.203 F 
ATOM     90  F   UNL     1       0.396   5.264 -19.039  1.00  0.00    -0.200 F 
ATOM     91  C   UNL     1      -1.453   6.527 -18.289  1.00  0.00     0.200 A 
ATOM     92  F   UNL     1      -3.278   7.798 -17.493  1.00  0.00    -0.200 F 
ATOM     93  F   UNL     1      -1.851   6.721 -19.554  1.00  0.00    -0.200 F 
ENDBRANCH  60  83
ENDBRANCH  34  35
ENDBRANCH  27  29
ENDBRANCH  26  27
ENDBRANCH  25  26
ENDBRANCH   1  25
TORSDOF 14
