REMARK SMILES CC(C)(C)OC(=O)N1CCC[C@](Cc2ccccc2)(C(=O)OCCOC(=O)c2ccc(-c3c4nc(c(-c5c(F)c(F)c(F)c(F)c5F)c5ccc([nH]5)c(-c5c(F)c(F)c(F)c(F)c5F)c5nc(c(-c6c(F)c(F)c(F)c(F)c6F)c6ccc3[nH]6)C=C5)C=C4)cc2)C1
REMARK SMILES IDX 23 1 22 2 20 3 21 4 12 5 8 6 9 7 91 8 10 9 11 10 6 11 7 12
REMARK SMILES IDX 5 13 2 14 1 15 3 16 4 17 13 18 14 19 15 20 19 21 16 22 18 23
REMARK SMILES IDX 17 24 24 25 25 26 26 27 27 28 28 29 29 30 90 31 30 32 89 33
REMARK SMILES IDX 31 34 32 35 33 36 83 37 34 38 88 39 82 40 84 41 35 42 87 43
REMARK SMILES IDX 81 44 80 45 36 47 68 48 48 49 67 50 49 51 52 52 66 53 85 54
REMARK SMILES IDX 50 55 51 56 65 58 86 59 53 60 37 61 38 62 46 63 39 64 40 65
REMARK SMILES IDX 44 66 47 67 41 68 42 69 45 70 43 71 69 72 70 73 78 74 71 75
REMARK SMILES IDX 72 76 76 77 79 78 73 79 74 80 77 81 75 82 54 83 55 84 63 85
REMARK SMILES IDX 56 86 57 87 61 88 64 89 58 90 59 91 62 92 60 93
REMARK H PARENT 84 46 52 57
REMARK Flexibility Score: inf
ROOT
ATOM      1  C   UNL     1       2.340  -2.204   6.327  1.00  0.00     0.274 C 
ENDROOT
BRANCH   1   2
ATOM      2  O   UNL     1       2.139  -3.099   5.214  1.00  0.00    -0.462 OA
BRANCH   2   3
ATOM      3  C   UNL     1       3.240  -3.728   4.730  1.00  0.00     0.314 C 
ATOM      4  O   UNL     1       4.366  -3.558   5.187  1.00  0.00    -0.252 OA
BRANCH   3   5
ATOM      5  C   UNL     1       2.933  -4.692   3.560  1.00  0.00     0.090 C 
ATOM      6  N   UNL     1       0.834  -3.620   2.731  1.00  0.00    -0.307 N 
ATOM      7  C   UNL     1      -0.002  -4.752   3.094  1.00  0.00     0.123 C 
ATOM      8  C   UNL     1       2.239  -3.896   2.433  1.00  0.00     0.142 C 
ATOM      9  C   UNL     1       0.582  -5.520   4.264  1.00  0.00     0.023 C 
ATOM     10  C   UNL     1       2.043  -5.883   4.002  1.00  0.00     0.023 C 
BRANCH   6  11
ATOM     11  C   UNL     1       0.267  -2.364   2.643  1.00  0.00     0.410 C 
ATOM     12  O   UNL     1      -0.774  -2.054   3.197  1.00  0.00    -0.224 OA
BRANCH  11  13
ATOM     13  O   UNL     1       0.973  -1.562   1.807  1.00  0.00    -0.444 OA
BRANCH  13  14
ATOM     14  C   UNL     1       0.502  -0.239   1.443  1.00  0.00     0.106 C 
ATOM     15  C   UNL     1       1.210   0.070   0.115  1.00  0.00     0.056 C 
ATOM     16  C   UNL     1       0.960   0.751   2.514  1.00  0.00     0.056 C 
ATOM     17  C   UNL     1      -1.011  -0.149   1.200  1.00  0.00     0.056 C 
ENDBRANCH  13  14
ENDBRANCH  11  13
ENDBRANCH   6  11
BRANCH   5  18
ATOM     18  C   UNL     1       4.345  -5.208   3.111  1.00  0.00     0.056 C 
BRANCH  18  19
ATOM     19  C   UNL     1       4.431  -6.202   1.978  1.00  0.00    -0.047 A 
ATOM     20  C   UNL     1       4.623  -7.567   2.240  1.00  0.00     0.004 A 
ATOM     21  C   UNL     1       4.375  -5.772   0.647  1.00  0.00     0.004 A 
ATOM     22  C   UNL     1       4.726  -8.482   1.192  1.00  0.00     0.000 A 
ATOM     23  C   UNL     1       4.459  -6.689  -0.400  1.00  0.00     0.000 A 
ATOM     24  C   UNL     1       4.633  -8.043  -0.128  1.00  0.00     0.000 A 
ENDBRANCH  18  19
ENDBRANCH   5  18
ENDBRANCH   3   5
ENDBRANCH   2   3
ENDBRANCH   1   2
BRANCH   1  25
ATOM     25  C   UNL     1       1.917  -2.875   7.630  1.00  0.00     0.275 C 
BRANCH  25  26
ATOM     26  O   UNL     1       2.712  -4.057   7.835  1.00  0.00    -0.458 OA
BRANCH  26  27
ATOM     27  C   UNL     1       2.026  -5.214   7.964  1.00  0.00     0.338 C 
ATOM     28  O   UNL     1       0.819  -5.368   8.014  1.00  0.00    -0.246 OA
BRANCH  27  29
ATOM     29  C   UNL     1       2.974  -6.337   8.042  1.00  0.00     0.060 A 
ATOM     30  C   UNL     1       3.929  -6.527   7.043  1.00  0.00     0.016 A 
ATOM     31  C   UNL     1       2.846  -7.265   9.073  1.00  0.00     0.016 A 
ATOM     32  C   UNL     1       4.706  -7.680   7.024  1.00  0.00     0.010 A 
ATOM     33  C   UNL     1       3.708  -8.362   9.118  1.00  0.00     0.010 A 
ATOM     34  C   UNL     1       4.639  -8.586   8.088  1.00  0.00    -0.014 A 
BRANCH  34  35
ATOM     35  C   UNL     1       5.575  -9.735   8.174  1.00  0.00     0.031 A 
ATOM     36  C   UNL     1       5.047 -11.137   8.269  1.00  0.00     0.074 A 
ATOM     37  C   UNL     1       6.901  -9.504   8.248  1.00  0.00     0.049 A 
ATOM     38  N   UNL     1       5.666 -12.233   8.624  1.00  0.00    -0.248 NA
ATOM     39  C   UNL     1       3.627 -11.330   7.932  1.00  0.00     0.031 C 
ATOM     40  C   UNL     1       7.542  -8.192   8.129  1.00  0.00     0.029 A 
ATOM     41  N   UNL     1       7.948 -10.362   8.476  1.00  0.00    -0.354 N 
ATOM     42  C   UNL     1       4.705 -13.235   8.604  1.00  0.00     0.074 A 
ATOM     43  C   UNL     1       3.459 -12.618   8.197  1.00  0.00     0.031 C 
ATOM     44  C   UNL     1       8.865  -8.330   8.288  1.00  0.00     0.029 A 
ATOM     45  C   UNL     1       9.154  -9.718   8.618  1.00  0.00     0.049 A 
ATOM     46  H   UNL     1       7.846 -11.340   8.531  1.00  0.00     0.167 HD
ATOM     47  C   UNL     1       4.856 -14.546   8.907  1.00  0.00     0.037 A 
ATOM     48  C   UNL     1      10.347 -10.175   9.041  1.00  0.00     0.037 A 
ATOM     49  C   UNL     1       6.112 -15.147   9.280  1.00  0.00     0.049 A 
ATOM     50  C   UNL     1      10.473 -11.618   9.438  1.00  0.00     0.074 A 
ATOM     51  C   UNL     1       6.384 -16.474   9.562  1.00  0.00     0.029 A 
ATOM     52  N   UNL     1       7.306 -14.455   9.425  1.00  0.00    -0.354 N 
ATOM     53  N   UNL     1       9.561 -12.560   9.427  1.00  0.00    -0.248 NA
ATOM     54  C   UNL     1      11.787 -12.058   9.923  1.00  0.00     0.031 C 
ATOM     55  C   UNL     1       7.729 -16.576   9.931  1.00  0.00     0.029 A 
ATOM     56  C   UNL     1       8.310 -15.322   9.827  1.00  0.00     0.049 A 
ATOM     57  H   UNL     1       7.423 -13.490   9.267  1.00  0.00     0.167 HD
ATOM     58  C   UNL     1      10.192 -13.705   9.890  1.00  0.00     0.074 A 
ATOM     59  C   UNL     1      11.570 -13.345  10.152  1.00  0.00     0.031 C 
ATOM     60  C   UNL     1       9.675 -14.942  10.086  1.00  0.00     0.037 A 
BRANCH  47  61
ATOM     61  C   UNL     1       3.635 -15.420   8.890  1.00  0.00     0.064 A 
ATOM     62  C   UNL     1       3.008 -15.801   7.696  1.00  0.00     0.173 A 
ATOM     63  C   UNL     1       3.120 -15.931  10.093  1.00  0.00     0.173 A 
ATOM     64  F   UNL     1       3.453 -15.333   6.520  1.00  0.00    -0.203 F 
ATOM     65  C   UNL     1       1.899 -16.645   7.707  1.00  0.00     0.198 A 
ATOM     66  C   UNL     1       2.030 -16.796  10.098  1.00  0.00     0.198 A 
ATOM     67  F   UNL     1       3.686 -15.603  11.264  1.00  0.00    -0.203 F 
ATOM     68  F   UNL     1       1.293 -16.967   6.555  1.00  0.00    -0.200 F 
ATOM     69  C   UNL     1       1.417 -17.149   8.906  1.00  0.00     0.200 A 
ATOM     70  F   UNL     1       1.575 -17.292  11.257  1.00  0.00    -0.200 F 
ATOM     71  F   UNL     1       0.358 -17.971   8.912  1.00  0.00    -0.200 F 
ENDBRANCH  47  61
BRANCH  48  72
ATOM     72  C   UNL     1      11.492  -9.237   9.174  1.00  0.00     0.064 A 
ATOM     73  C   UNL     1      12.611  -9.342   8.338  1.00  0.00     0.173 A 
ATOM     74  C   UNL     1      11.488  -8.212  10.133  1.00  0.00     0.173 A 
ATOM     75  F   UNL     1      12.673 -10.320   7.423  1.00  0.00    -0.203 F 
ATOM     76  C   UNL     1      13.688  -8.466   8.465  1.00  0.00     0.198 A 
ATOM     77  C   UNL     1      12.549  -7.316  10.236  1.00  0.00     0.198 A 
ATOM     78  F   UNL     1      10.440  -8.066  10.958  1.00  0.00    -0.203 F 
ATOM     79  F   UNL     1      14.765  -8.616   7.683  1.00  0.00    -0.200 F 
ATOM     80  C   UNL     1      13.652  -7.449   9.408  1.00  0.00     0.200 A 
ATOM     81  F   UNL     1      12.502  -6.324  11.136  1.00  0.00    -0.200 F 
ATOM     82  F   UNL     1      14.684  -6.602   9.522  1.00  0.00    -0.200 F 
ENDBRANCH  48  72
BRANCH  60  83
ATOM     83  C   UNL     1      10.612 -16.000  10.588  1.00  0.00     0.064 A 
ATOM     84  C   UNL     1      11.069 -16.005  11.914  1.00  0.00     0.173 A 
ATOM     85  C   UNL     1      11.026 -17.042   9.744  1.00  0.00     0.173 A 
ATOM     86  F   UNL     1      10.717 -15.019  12.752  1.00  0.00    -0.203 F 
ATOM     87  C   UNL     1      11.924 -17.004  12.371  1.00  0.00     0.198 A 
ATOM     88  C   UNL     1      11.856 -18.055  10.213  1.00  0.00     0.198 A 
ATOM     89  F   UNL     1      10.613 -17.083   8.468  1.00  0.00    -0.203 F 
ATOM     90  F   UNL     1      12.385 -16.964  13.628  1.00  0.00    -0.200 F 
ATOM     91  C   UNL     1      12.309 -18.032  11.523  1.00  0.00     0.200 A 
ATOM     92  F   UNL     1      12.217 -19.055   9.396  1.00  0.00    -0.200 F 
ATOM     93  F   UNL     1      13.124 -18.999  11.968  1.00  0.00    -0.200 F 
ENDBRANCH  60  83
ENDBRANCH  34  35
ENDBRANCH  27  29
ENDBRANCH  26  27
ENDBRANCH  25  26
ENDBRANCH   1  25
TORSDOF 16
