REMARK SMILES COCc1cc(C)nc(N/N=C\c2ccc(-c3cccc(C(=O)OCCOC(=O)c4ccc(-c5c6nc(c(-c7c(F)c(F)c(F)c(F)c7F)c7ccc([nH]7)c(-c7c(F)c(F)c(F)c(F)c7F)c7nc(c(-c8c(F)c(F)c(F)c(F)c8F)c8ccc5[nH]8)C=C7)C=C6)cc4)c3)o2)c1C#N
REMARK SMILES IDX 22 1 23 2 21 3 17 4 18 5 93 6 19 7 20 8 16 9 13 10 14 11
REMARK SMILES IDX 94 12 15 13 12 14 11 15 10 16 9 18 4 19 5 20 95 21 6 22 7 23
REMARK SMILES IDX 8 24 3 25 2 26 1 27 96 28 97 29 24 30 25 31 26 32 27 33
REMARK SMILES IDX 28 34 29 35 30 36 31 37 92 38 32 39 91 40 33 41 34 42 35 43
REMARK SMILES IDX 85 44 36 45 90 46 84 47 86 48 37 49 89 50 83 51 82 52 38 54
REMARK SMILES IDX 70 55 50 56 69 57 51 58 54 59 68 60 87 61 52 62 53 63 67 65
REMARK SMILES IDX 88 66 55 67 39 68 40 69 48 70 41 71 42 72 46 73 49 74 43 75
REMARK SMILES IDX 44 76 47 77 45 78 71 79 72 80 80 81 73 82 74 83 78 84 81 85
REMARK SMILES IDX 75 86 76 87 79 88 77 89 56 90 57 91 65 92 58 93 59 94 63 95
REMARK SMILES IDX 66 96 60 97 61 98 64 99 62 100
REMARK H PARENT 10 17 86 53 54 64
REMARK Flexibility Score: inf
ROOT
ATOM      1  C   UNL     1       2.903  -8.817   4.526  1.00  0.00     0.338 C 
ATOM      2  O   UNL     1       3.837  -8.547   5.261  1.00  0.00    -0.246 OA
ENDROOT
BRANCH   1   3
ATOM      3  C   UNL     1       2.847  -8.464   3.083  1.00  0.00     0.060 A 
ATOM      4  C   UNL     1       1.569  -8.168   1.049  1.00  0.00     0.018 A 
ATOM      5  C   UNL     1       2.764  -7.936   0.346  1.00  0.00     0.012 A 
ATOM      6  C   UNL     1       1.636  -8.529   2.395  1.00  0.00     0.027 A 
ATOM      7  C   UNL     1       3.981  -7.870   1.027  1.00  0.00     0.002 A 
ATOM      8  C   UNL     1       4.004  -8.056   2.407  1.00  0.00     0.016 A 
BRANCH   4   9
ATOM      9  C   UNL     1       0.287  -7.714   0.524  1.00  0.00     0.134 A 
ATOM     10  C   UNL     1      -0.795  -6.550  -0.976  1.00  0.00     0.147 A 
ATOM     11  C   UNL     1      -1.559  -6.494   0.170  1.00  0.00     0.053 A 
ATOM     12  O   UNL     1       0.257  -7.401  -0.795  1.00  0.00    -0.455 OA
ATOM     13  C   UNL     1      -0.866  -7.259   1.140  1.00  0.00     0.051 A 
BRANCH  10  14
ATOM     14  C   UNL     1      -0.799  -5.848  -2.217  1.00  0.00     0.180 C 
ATOM     15  N   UNL     1      -0.973  -4.585  -2.466  1.00  0.00    -0.178 NA
BRANCH  15  16
ATOM     16  N   UNL     1      -1.200  -3.639  -1.508  1.00  0.00    -0.260 N 
ATOM     17  H   UNL     1      -2.039  -3.129  -1.577  1.00  0.00     0.192 HD
BRANCH  16  18
ATOM     18  C   UNL     1      -0.334  -3.318  -0.409  1.00  0.00     0.164 A 
ATOM     19  C   UNL     1       0.322  -1.756   1.349  1.00  0.00     0.001 A 
ATOM     20  C   UNL     1       1.133  -2.745   1.885  1.00  0.00     0.031 A 
ATOM     21  C   UNL     1      -0.497  -2.079   0.248  1.00  0.00     0.102 A 
ATOM     22  C   UNL     1       1.267  -3.928   1.192  1.00  0.00     0.040 A 
ATOM     23  C   UNL     1       2.220  -4.942   1.733  1.00  0.00     0.067 C 
ATOM     24  N   UNL     1       0.583  -4.206   0.051  1.00  0.00    -0.233 NA
BRANCH  19  25
ATOM     25  C   UNL     1       0.446  -0.381   1.954  1.00  0.00     0.196 C 
BRANCH  25  26
ATOM     26  O   UNL     1       0.370   0.656   0.981  1.00  0.00    -0.380 OA
ATOM     27  C   UNL     1       1.468   0.682   0.073  1.00  0.00     0.195 C 
ENDBRANCH  25  26
ENDBRANCH  19  25
BRANCH  21  28
ATOM     28  C   UNL     1      -1.459  -1.138  -0.247  1.00  0.00     0.103 C 
ATOM     29  N   UNL     1      -2.252  -0.433  -0.713  1.00  0.00    -0.192 NA
ENDBRANCH  21  28
ENDBRANCH  16  18
ENDBRANCH  15  16
ENDBRANCH  10  14
ENDBRANCH   4   9
ENDBRANCH   1   3
BRANCH   1  30
ATOM     30  O   UNL     1       1.831  -9.589   4.822  1.00  0.00    -0.458 OA
BRANCH  30  31
ATOM     31  C   UNL     1       1.888 -10.387   6.013  1.00  0.00     0.275 C 
BRANCH  31  32
ATOM     32  C   UNL     1       2.244 -11.828   5.641  1.00  0.00     0.275 C 
BRANCH  32  33
ATOM     33  O   UNL     1       3.638 -11.931   5.280  1.00  0.00    -0.458 OA
BRANCH  33  34
ATOM     34  C   UNL     1       3.891 -11.945   3.952  1.00  0.00     0.338 C 
ATOM     35  O   UNL     1       3.083 -11.920   3.039  1.00  0.00    -0.246 OA
BRANCH  34  36
ATOM     36  C   UNL     1       5.340 -11.876   3.716  1.00  0.00     0.060 A 
ATOM     37  C   UNL     1       5.905 -10.621   3.527  1.00  0.00     0.016 A 
ATOM     38  C   UNL     1       6.105 -13.018   3.515  1.00  0.00     0.016 A 
ATOM     39  C   UNL     1       7.189 -10.484   3.020  1.00  0.00     0.010 A 
ATOM     40  C   UNL     1       7.444 -12.879   3.121  1.00  0.00     0.010 A 
ATOM     41  C   UNL     1       7.991 -11.612   2.835  1.00  0.00    -0.014 A 
BRANCH  41  42
ATOM     42  C   UNL     1       9.387 -11.454   2.339  1.00  0.00     0.031 A 
ATOM     43  C   UNL     1       9.825 -12.150   1.077  1.00  0.00     0.074 A 
ATOM     44  C   UNL     1      10.262 -10.681   3.017  1.00  0.00     0.049 A 
ATOM     45  N   UNL     1      11.028 -12.270   0.573  1.00  0.00    -0.248 NA
ATOM     46  C   UNL     1       8.777 -12.808   0.280  1.00  0.00     0.031 C 
ATOM     47  C   UNL     1       9.957  -9.910   4.225  1.00  0.00     0.029 A 
ATOM     48  N   UNL     1      11.592 -10.416   2.790  1.00  0.00    -0.354 N 
ATOM     49  C   UNL     1      10.889 -13.059  -0.562  1.00  0.00     0.074 A 
ATOM     50  C   UNL     1       9.486 -13.395  -0.674  1.00  0.00     0.031 C 
ATOM     51  C   UNL     1      11.054  -9.245   4.618  1.00  0.00     0.029 A 
ATOM     52  C   UNL     1      12.165  -9.618   3.753  1.00  0.00     0.049 A 
ATOM     53  H   UNL     1      12.086 -10.763   2.013  1.00  0.00     0.167 HD
ATOM     54  C   UNL     1      11.848 -13.465  -1.427  1.00  0.00     0.037 A 
ATOM     55  C   UNL     1      13.450  -9.272   3.955  1.00  0.00     0.037 A 
ATOM     56  C   UNL     1      13.235 -13.084  -1.335  1.00  0.00     0.049 A 
ATOM     57  C   UNL     1      14.499  -9.792   3.010  1.00  0.00     0.074 A 
ATOM     58  C   UNL     1      14.274 -13.409  -2.190  1.00  0.00     0.029 A 
ATOM     59  N   UNL     1      13.776 -12.297  -0.330  1.00  0.00    -0.354 N 
ATOM     60  N   UNL     1      14.356 -10.534   1.939  1.00  0.00    -0.248 NA
ATOM     61  C   UNL     1      15.893  -9.433   3.306  1.00  0.00     0.031 C 
ATOM     62  C   UNL     1      15.455 -12.881  -1.662  1.00  0.00     0.029 A 
ATOM     63  C   UNL     1      15.141 -12.157  -0.524  1.00  0.00     0.049 A 
ATOM     64  H   UNL     1      13.266 -11.896   0.411  1.00  0.00     0.167 HD
ATOM     65  C   UNL     1      15.632 -10.697   1.415  1.00  0.00     0.074 A 
ATOM     66  C   UNL     1      16.533  -9.960   2.273  1.00  0.00     0.031 C 
ATOM     67  C   UNL     1      16.023 -11.399   0.324  1.00  0.00     0.037 A 
BRANCH  54  68
ATOM     68  C   UNL     1      11.460 -14.402  -2.535  1.00  0.00     0.064 A 
ATOM     69  C   UNL     1      10.700 -13.985  -3.636  1.00  0.00     0.173 A 
ATOM     70  C   UNL     1      11.945 -15.720  -2.535  1.00  0.00     0.173 A 
ATOM     71  F   UNL     1      10.204 -12.739  -3.683  1.00  0.00    -0.203 F 
ATOM     72  C   UNL     1      10.431 -14.855  -4.691  1.00  0.00     0.198 A 
ATOM     73  C   UNL     1      11.702 -16.577  -3.605  1.00  0.00     0.198 A 
ATOM     74  F   UNL     1      12.684 -16.169  -1.509  1.00  0.00    -0.203 F 
ATOM     75  F   UNL     1       9.677 -14.445  -5.721  1.00  0.00    -0.200 F 
ATOM     76  C   UNL     1      10.943 -16.145  -4.681  1.00  0.00     0.200 A 
ATOM     77  F   UNL     1      12.215 -17.815  -3.601  1.00  0.00    -0.200 F 
ATOM     78  F   UNL     1      10.705 -16.971  -5.709  1.00  0.00    -0.200 F 
ENDBRANCH  54  68
BRANCH  55  79
ATOM     79  C   UNL     1      13.838  -8.441   5.130  1.00  0.00     0.064 A 
ATOM     80  C   UNL     1      14.435  -7.183   4.962  1.00  0.00     0.173 A 
ATOM     81  C   UNL     1      13.682  -8.912   6.443  1.00  0.00     0.173 A 
ATOM     82  F   UNL     1      14.628  -6.693   3.728  1.00  0.00    -0.203 F 
ATOM     83  C   UNL     1      14.903  -6.454   6.054  1.00  0.00     0.198 A 
ATOM     84  C   UNL     1      14.108  -8.162   7.537  1.00  0.00     0.198 A 
ATOM     85  F   UNL     1      13.114 -10.107   6.667  1.00  0.00    -0.203 F 
ATOM     86  F   UNL     1      15.546  -5.295   5.857  1.00  0.00    -0.200 F 
ATOM     87  C   UNL     1      14.736  -6.943   7.341  1.00  0.00     0.200 A 
ATOM     88  F   UNL     1      13.925  -8.630   8.779  1.00  0.00    -0.200 F 
ATOM     89  F   UNL     1      15.194  -6.247   8.390  1.00  0.00    -0.200 F 
ENDBRANCH  55  79
BRANCH  67  90
ATOM     90  C   UNL     1      17.478 -11.346  -0.046  1.00  0.00     0.064 A 
ATOM     91  C   UNL     1      18.468 -11.958   0.737  1.00  0.00     0.173 A 
ATOM     92  C   UNL     1      17.882 -10.695  -1.222  1.00  0.00     0.173 A 
ATOM     93  F   UNL     1      18.137 -12.579   1.880  1.00  0.00    -0.203 F 
ATOM     94  C   UNL     1      19.810 -11.890   0.375  1.00  0.00     0.198 A 
ATOM     95  C   UNL     1      19.220 -10.665  -1.603  1.00  0.00     0.198 A 
ATOM     96  F   UNL     1      16.976 -10.100  -2.012  1.00  0.00    -0.203 F 
ATOM     97  F   UNL     1      20.745 -12.427   1.172  1.00  0.00    -0.200 F 
ATOM     98  C   UNL     1      20.184 -11.252  -0.799  1.00  0.00     0.200 A 
ATOM     99  F   UNL     1      19.576 -10.066  -2.748  1.00  0.00    -0.200 F 
ATOM    100  F   UNL     1      21.476 -11.196  -1.151  1.00  0.00    -0.200 F 
ENDBRANCH  67  90
ENDBRANCH  41  42
ENDBRANCH  34  36
ENDBRANCH  33  34
ENDBRANCH  32  33
ENDBRANCH  31  32
ENDBRANCH  30  31
ENDBRANCH   1  30
TORSDOF 18
