REMARK SMILES Cc1c(NCc2ccccn2)cccc1C(=O)N1CCOC[C@@H]1CC(=O)OCCOC(=O)c1ccc(-c2c3nc(c(-c4c(F)c(F)c(F)c(F)c4F)c4ccc([nH]4)c(-c4c(F)c(F)c(F)c(F)c4F)c4nc(c(-c5c(F)c(F)c(F)c(F)c5F)c5ccc2[nH]5)C=C4)C=C3)cc1
REMARK SMILES IDX 25 1 26 2 24 3 23 4 18 5 19 6 20 7 22 8 21 9 16 10 17 11
REMARK SMILES IDX 15 12 1 13 2 14 3 15 12 16 14 17 13 18 4 19 5 21 6 22 7 23
REMARK SMILES IDX 11 24 8 25 10 26 9 27 27 28 28 29 29 30 30 31 31 32 32 33
REMARK SMILES IDX 33 34 34 35 95 36 35 37 94 38 36 39 37 40 38 41 88 42 39 43
REMARK SMILES IDX 93 44 87 45 89 46 40 47 92 48 86 49 85 50 41 52 73 53 53 54
REMARK SMILES IDX 72 55 54 56 57 57 71 58 90 59 55 60 56 61 70 63 91 64 58 65
REMARK SMILES IDX 42 66 43 67 51 68 44 69 45 70 49 71 52 72 46 73 47 74 50 75
REMARK SMILES IDX 48 76 74 77 75 78 83 79 76 80 77 81 81 82 84 83 78 84 79 85
REMARK SMILES IDX 82 86 80 87 59 88 60 89 68 90 61 91 62 92 66 93 69 94 63 95
REMARK SMILES IDX 64 96 67 97 65 98
REMARK H PARENT 4 20 89 51 57 62
REMARK Flexibility Score: inf
ROOT
ATOM      1  C   UNL     1       1.315   2.080   1.250  1.00  0.00     0.308 C 
ATOM      2  O   UNL     1       0.092   2.092   1.252  1.00  0.00    -0.252 OA
ENDROOT
BRANCH   1   3
ATOM      3  C   UNL     1       2.150   3.241   0.774  1.00  0.00     0.150 C 
BRANCH   3   4
ATOM      4  C   UNL     1       3.241   2.862  -0.219  1.00  0.00     0.122 C 
ATOM      5  N   UNL     1       2.836   1.881  -1.245  1.00  0.00    -0.330 N 
ATOM      6  C   UNL     1       3.920   1.573  -2.176  1.00  0.00     0.148 C 
ATOM      7  C   UNL     1       5.189   1.152  -1.420  1.00  0.00     0.181 C 
ATOM      8  C   UNL     1       4.521   2.364   0.500  1.00  0.00     0.185 C 
ATOM      9  O   UNL     1       5.574   2.141  -0.454  1.00  0.00    -0.377 OA
BRANCH   5  10
ATOM     10  C   UNL     1       1.536   1.885  -1.739  1.00  0.00     0.254 C 
ATOM     11  O   UNL     1       1.053   2.909  -2.216  1.00  0.00    -0.269 OA
BRANCH  10  12
ATOM     12  C   UNL     1       0.658   0.671  -1.448  1.00  0.00     0.045 A 
ATOM     13  C   UNL     1       2.550  -0.930  -0.793  1.00  0.00     0.047 C 
ATOM     14  C   UNL     1       1.088  -0.612  -0.994  1.00  0.00    -0.015 A 
ATOM     15  C   UNL     1       0.119  -1.602  -0.623  1.00  0.00     0.038 A 
ATOM     16  C   UNL     1      -1.240  -1.261  -0.656  1.00  0.00     0.026 A 
ATOM     17  C   UNL     1      -0.724   0.945  -1.472  1.00  0.00     0.014 A 
ATOM     18  C   UNL     1      -1.660   0.000  -1.062  1.00  0.00     0.003 A 
BRANCH  15  19
ATOM     19  N   UNL     1       0.524  -2.829  -0.098  1.00  0.00    -0.379 N 
ATOM     20  H   UNL     1       1.368  -2.857   0.408  1.00  0.00     0.160 HD
BRANCH  19  21
ATOM     21  C   UNL     1      -0.221  -4.075  -0.249  1.00  0.00     0.169 C 
BRANCH  21  22
ATOM     22  C   UNL     1       0.207  -4.831  -1.495  1.00  0.00     0.059 A 
ATOM     23  C   UNL     1       0.641  -4.167  -2.646  1.00  0.00     0.026 A 
ATOM     24  N   UNL     1       0.141  -6.184  -1.435  1.00  0.00    -0.259 NA
ATOM     25  C   UNL     1       1.031  -4.903  -3.757  1.00  0.00     0.004 A 
ATOM     26  C   UNL     1       0.511  -6.875  -2.536  1.00  0.00     0.111 A 
ATOM     27  C   UNL     1       0.959  -6.285  -3.706  1.00  0.00     0.020 A 
ENDBRANCH  21  22
ENDBRANCH  19  21
ENDBRANCH  15  19
ENDBRANCH  10  12
ENDBRANCH   5  10
ENDBRANCH   3   4
ENDBRANCH   1   3
BRANCH   1  28
ATOM     28  O   UNL     1       2.067   1.042   1.698  1.00  0.00    -0.462 OA
BRANCH  28  29
ATOM     29  C   UNL     1       1.331  -0.075   2.201  1.00  0.00     0.274 C 
BRANCH  29  30
ATOM     30  C   UNL     1       2.172  -0.973   3.105  1.00  0.00     0.275 C 
BRANCH  30  31
ATOM     31  O   UNL     1       3.190  -0.403   3.988  1.00  0.00    -0.458 OA
BRANCH  31  32
ATOM     32  C   UNL     1       3.460   0.910   4.197  1.00  0.00     0.338 C 
ATOM     33  O   UNL     1       4.604   1.360   4.167  1.00  0.00    -0.246 OA
BRANCH  32  34
ATOM     34  C   UNL     1       2.306   1.787   4.462  1.00  0.00     0.060 A 
ATOM     35  C   UNL     1       2.348   3.167   4.175  1.00  0.00     0.016 A 
ATOM     36  C   UNL     1       1.112   1.172   4.766  1.00  0.00     0.016 A 
ATOM     37  C   UNL     1       1.157   3.895   4.061  1.00  0.00     0.010 A 
ATOM     38  C   UNL     1      -0.018   1.796   4.324  1.00  0.00     0.010 A 
ATOM     39  C   UNL     1      -0.035   3.180   4.088  1.00  0.00    -0.014 A 
BRANCH  39  40
ATOM     40  C   UNL     1      -1.392   3.706   4.194  1.00  0.00     0.031 A 
ATOM     41  C   UNL     1      -2.118   4.387   3.108  1.00  0.00     0.074 A 
ATOM     42  C   UNL     1      -1.957   3.287   5.359  1.00  0.00     0.049 A 
ATOM     43  N   UNL     1      -3.227   5.003   3.316  1.00  0.00    -0.248 NA
ATOM     44  C   UNL     1      -1.725   4.444   1.704  1.00  0.00     0.031 C 
ATOM     45  C   UNL     1      -3.308   3.268   5.878  1.00  0.00     0.029 A 
ATOM     46  N   UNL     1      -1.212   2.785   6.455  1.00  0.00    -0.354 N 
ATOM     47  C   UNL     1      -3.829   5.260   2.100  1.00  0.00     0.074 A 
ATOM     48  C   UNL     1      -2.822   4.950   1.119  1.00  0.00     0.031 C 
ATOM     49  C   UNL     1      -3.227   3.197   7.229  1.00  0.00     0.029 A 
ATOM     50  C   UNL     1      -1.812   3.281   7.601  1.00  0.00     0.049 A 
ATOM     51  H   UNL     1      -0.422   2.199   6.410  1.00  0.00     0.167 HD
ATOM     52  C   UNL     1      -5.156   5.585   2.116  1.00  0.00     0.037 A 
ATOM     53  C   UNL     1      -1.131   4.318   8.176  1.00  0.00     0.037 A 
ATOM     54  C   UNL     1      -5.592   5.742   3.508  1.00  0.00     0.049 A 
ATOM     55  C   UNL     1      -1.865   5.623   7.952  1.00  0.00     0.074 A 
ATOM     56  C   UNL     1      -6.193   4.898   4.426  1.00  0.00     0.029 A 
ATOM     57  N   UNL     1      -5.005   6.750   4.252  1.00  0.00    -0.354 N 
ATOM     58  N   UNL     1      -2.870   5.768   7.131  1.00  0.00    -0.248 NA
ATOM     59  C   UNL     1      -1.481   6.876   8.586  1.00  0.00     0.031 C 
ATOM     60  C   UNL     1      -5.888   5.387   5.738  1.00  0.00     0.029 A 
ATOM     61  C   UNL     1      -5.121   6.532   5.612  1.00  0.00     0.049 A 
ATOM     62  H   UNL     1      -4.557   7.533   3.858  1.00  0.00     0.167 HD
ATOM     63  C   UNL     1      -3.320   7.050   7.165  1.00  0.00     0.074 A 
ATOM     64  C   UNL     1      -2.364   7.724   8.033  1.00  0.00     0.031 C 
ATOM     65  C   UNL     1      -4.447   7.463   6.509  1.00  0.00     0.037 A 
BRANCH  52  66
ATOM     66  C   UNL     1      -6.117   5.569   0.945  1.00  0.00     0.064 A 
ATOM     67  C   UNL     1      -7.501   5.379   1.177  1.00  0.00     0.173 A 
ATOM     68  C   UNL     1      -5.768   5.703  -0.413  1.00  0.00     0.173 A 
ATOM     69  F   UNL     1      -7.996   5.287   2.419  1.00  0.00    -0.203 F 
ATOM     70  C   UNL     1      -8.438   5.264   0.146  1.00  0.00     0.198 A 
ATOM     71  C   UNL     1      -6.706   5.564  -1.449  1.00  0.00     0.198 A 
ATOM     72  F   UNL     1      -4.523   6.016  -0.787  1.00  0.00    -0.203 F 
ATOM     73  F   UNL     1      -9.731   5.071   0.443  1.00  0.00    -0.200 F 
ATOM     74  C   UNL     1      -8.039   5.337  -1.169  1.00  0.00     0.200 A 
ATOM     75  F   UNL     1      -6.307   5.655  -2.727  1.00  0.00    -0.200 F 
ATOM     76  F   UNL     1      -8.933   5.205  -2.159  1.00  0.00    -0.200 F 
ENDBRANCH  52  66
BRANCH  53  77
ATOM     77  C   UNL     1       0.381   4.142   8.135  1.00  0.00     0.064 A 
ATOM     78  C   UNL     1       0.945   2.893   8.509  1.00  0.00     0.173 A 
ATOM     79  C   UNL     1       1.248   5.029   7.479  1.00  0.00     0.173 A 
ATOM     80  F   UNL     1       0.190   1.972   9.132  1.00  0.00    -0.203 F 
ATOM     81  C   UNL     1       2.244   2.521   8.149  1.00  0.00     0.198 A 
ATOM     82  C   UNL     1       2.567   4.670   7.162  1.00  0.00     0.198 A 
ATOM     83  F   UNL     1       0.814   6.224   7.055  1.00  0.00    -0.203 F 
ATOM     84  F   UNL     1       2.675   1.273   8.388  1.00  0.00    -0.200 F 
ATOM     85  C   UNL     1       3.053   3.409   7.470  1.00  0.00     0.200 A 
ATOM     86  F   UNL     1       3.338   5.518   6.464  1.00  0.00    -0.200 F 
ATOM     87  F   UNL     1       4.270   3.031   7.053  1.00  0.00    -0.200 F 
ENDBRANCH  53  77
BRANCH  65  88
ATOM     88  C   UNL     1      -4.988   8.854   6.670  1.00  0.00     0.064 A 
ATOM     89  C   UNL     1      -4.952   9.520   7.904  1.00  0.00     0.173 A 
ATOM     90  C   UNL     1      -5.629   9.542   5.618  1.00  0.00     0.173 A 
ATOM     91  F   UNL     1      -4.533   8.898   9.016  1.00  0.00    -0.203 F 
ATOM     92  C   UNL     1      -5.364  10.843   8.031  1.00  0.00     0.198 A 
ATOM     93  C   UNL     1      -6.108  10.837   5.768  1.00  0.00     0.198 A 
ATOM     94  F   UNL     1      -5.799   9.003   4.404  1.00  0.00    -0.203 F 
ATOM     95  F   UNL     1      -5.198  11.475   9.200  1.00  0.00    -0.200 F 
ATOM     96  C   UNL     1      -5.936  11.503   6.961  1.00  0.00     0.200 A 
ATOM     97  F   UNL     1      -6.720  11.437   4.737  1.00  0.00    -0.200 F 
ATOM     98  F   UNL     1      -6.330  12.776   7.082  1.00  0.00    -0.200 F 
ENDBRANCH  65  88
ENDBRANCH  39  40
ENDBRANCH  32  34
ENDBRANCH  31  32
ENDBRANCH  30  31
ENDBRANCH  29  30
ENDBRANCH  28  29
ENDBRANCH   1  28
TORSDOF 17
