REMARK SMILES O=C(Cc1cncnc1N1CCC2(CC1)OCCC[C@@H]2O)OCCOC(=O)c1ccc(-c2c3nc(c(-c4c(F)c(F)c(F)c(F)c4F)c4ccc([nH]4)c(-c4c(F)c(F)c(F)c(F)c4F)c4nc(c(-c5c(F)c(F)c(F)c(F)c5F)c5ccc2[nH]5)C=C4)C=C3)cc1
REMARK SMILES IDX 23 1 22 2 2 3 1 4 3 5 4 6 5 7 9 8 6 9 8 10 7 11 10 12 11 13
REMARK SMILES IDX 15 14 12 15 14 16 13 17 16 18 20 19 17 20 19 21 18 22 21 23
REMARK SMILES IDX 24 25 25 26 26 27 27 28 28 29 29 30 90 31 30 32 89 33 31 34
REMARK SMILES IDX 32 35 33 36 83 37 34 38 88 39 82 40 84 41 35 42 87 43 81 44
REMARK SMILES IDX 80 45 36 47 68 48 48 49 67 50 49 51 52 52 66 53 85 54 50 55
REMARK SMILES IDX 51 56 65 58 86 59 53 60 37 61 38 62 46 63 39 64 40 65 44 66
REMARK SMILES IDX 47 67 41 68 42 69 45 70 43 71 69 72 70 73 78 74 71 75 72 76
REMARK SMILES IDX 76 77 79 78 73 79 74 80 77 81 75 82 54 83 55 84 63 85 56 86
REMARK SMILES IDX 57 87 61 88 64 89 58 90 59 91 62 92 60 93
REMARK H PARENT 21 24 84 46 52 57
REMARK Flexibility Score: inf
ROOT
ATOM      1  C   UNL     1       4.550  -1.466   0.193  1.00  0.00     0.274 C 
ENDROOT
BRANCH   1   2
ATOM      2  O   UNL     1       3.117  -1.282   0.138  1.00  0.00    -0.462 OA
BRANCH   2   3
ATOM      3  C   UNL     1       2.575  -0.157   0.682  1.00  0.00     0.310 C 
ATOM      4  O   UNL     1       1.626  -0.216   1.456  1.00  0.00    -0.252 OA
BRANCH   3   5
ATOM      5  C   UNL     1       3.051   1.130   0.066  1.00  0.00     0.163 C 
BRANCH   5   6
ATOM      6  C   UNL     1       3.285   2.252   1.036  1.00  0.00     0.024 A 
ATOM      7  C   UNL     1       4.475   2.243   1.760  1.00  0.00     0.121 A 
ATOM      8  C   UNL     1       2.475   3.399   1.137  1.00  0.00     0.135 A 
ATOM      9  N   UNL     1       4.904   3.261   2.512  1.00  0.00    -0.244 NA
ATOM     10  N   UNL     1       2.881   4.421   1.924  1.00  0.00    -0.219 NA
ATOM     11  C   UNL     1       4.071   4.306   2.555  1.00  0.00     0.224 A 
BRANCH   8  12
ATOM     12  N   UNL     1       1.621   3.701   0.077  1.00  0.00    -0.356 N 
ATOM     13  C   UNL     1       2.283   4.638  -0.773  1.00  0.00     0.121 C 
ATOM     14  C   UNL     1       0.171   3.882  -0.092  1.00  0.00     0.121 C 
ATOM     15  C   UNL     1       2.050   4.001  -2.117  1.00  0.00     0.060 C 
ATOM     16  C   UNL     1      -0.323   3.665  -1.651  1.00  0.00     0.060 C 
ATOM     17  C   UNL     1       0.606   4.096  -2.934  1.00  0.00     0.097 C 
ATOM     18  O   UNL     1       0.201   5.676  -3.437  1.00  0.00    -0.372 OA
ATOM     19  C   UNL     1       0.360   2.932  -4.458  1.00  0.00     0.146 C 
ATOM     20  C   UNL     1       0.576   6.485  -4.998  1.00  0.00     0.161 C 
ATOM     21  C   UNL     1       1.149   3.432  -6.288  1.00  0.00     0.037 C 
ATOM     22  C   UNL     1       1.284   5.414  -6.580  1.00  0.00     0.031 C 
BRANCH  19  23
ATOM     23  O   UNL     1      -1.081   2.736  -4.120  1.00  0.00    -0.390 OA
ATOM     24  H   UNL     1      -1.505   3.601  -4.000  1.00  0.00     0.211 HD
ENDBRANCH  19  23
ENDBRANCH   8  12
ENDBRANCH   5   6
ENDBRANCH   3   5
ENDBRANCH   2   3
ENDBRANCH   1   2
BRANCH   1  25
ATOM     25  C   UNL     1       5.133  -1.736  -1.205  1.00  0.00     0.275 C 
BRANCH  25  26
ATOM     26  O   UNL     1       5.131  -0.515  -1.989  1.00  0.00    -0.458 OA
BRANCH  26  27
ATOM     27  C   UNL     1       4.989  -0.635  -3.345  1.00  0.00     0.338 C 
ATOM     28  O   UNL     1       4.994  -1.673  -3.982  1.00  0.00    -0.246 OA
BRANCH  27  29
ATOM     29  C   UNL     1       4.382   0.633  -3.836  1.00  0.00     0.060 A 
ATOM     30  C   UNL     1       3.075   0.705  -3.487  1.00  0.00     0.016 A 
ATOM     31  C   UNL     1       4.924   1.744  -4.521  1.00  0.00     0.016 A 
ATOM     32  C   UNL     1       2.413   1.900  -3.721  1.00  0.00     0.010 A 
ATOM     33  C   UNL     1       4.149   2.964  -4.836  1.00  0.00     0.010 A 
ATOM     34  C   UNL     1       2.800   3.123  -4.449  1.00  0.00    -0.014 A 
BRANCH  34  35
ATOM     35  C   UNL     1       1.743   4.647  -4.731  1.00  0.00     0.031 A 
ATOM     36  C   UNL     1      -0.245   4.630  -5.514  1.00  0.00     0.074 A 
ATOM     37  C   UNL     1       2.771   5.778  -4.573  1.00  0.00     0.049 A 
ATOM     38  N   UNL     1      -0.968   5.617  -6.264  1.00  0.00    -0.248 NA
ATOM     39  C   UNL     1      -1.186   3.360  -6.241  1.00  0.00     0.031 C 
ATOM     40  C   UNL     1       3.061   6.289  -3.201  1.00  0.00     0.029 A 
ATOM     41  N   UNL     1       3.046   7.075  -5.228  1.00  0.00    -0.354 N 
ATOM     42  C   UNL     1      -1.627   5.168  -7.431  1.00  0.00     0.074 A 
ATOM     43  C   UNL     1      -1.912   3.803  -7.245  1.00  0.00     0.031 C 
ATOM     44  C   UNL     1       3.503   7.543  -3.082  1.00  0.00     0.029 A 
ATOM     45  C   UNL     1       3.245   8.170  -4.352  1.00  0.00     0.049 A 
ATOM     46  H   UNL     1       3.088   7.171  -6.206  1.00  0.00     0.167 HD
ATOM     47  C   UNL     1      -1.713   5.760  -8.666  1.00  0.00     0.037 A 
ATOM     48  C   UNL     1       2.908   9.495  -4.377  1.00  0.00     0.037 A 
ATOM     49  C   UNL     1      -1.414   7.147  -8.967  1.00  0.00     0.049 A 
ATOM     50  C   UNL     1       2.073  10.088  -5.494  1.00  0.00     0.074 A 
ATOM     51  C   UNL     1      -1.653   7.823 -10.158  1.00  0.00     0.029 A 
ATOM     52  N   UNL     1      -0.792   8.053  -8.122  1.00  0.00    -0.354 N 
ATOM     53  N   UNL     1       1.307   9.495  -6.378  1.00  0.00    -0.248 NA
ATOM     54  C   UNL     1       2.012  11.562  -5.541  1.00  0.00     0.031 C 
ATOM     55  C   UNL     1      -1.093   9.098 -10.069  1.00  0.00     0.029 A 
ATOM     56  C   UNL     1      -0.604   9.259  -8.786  1.00  0.00     0.049 A 
ATOM     57  H   UNL     1      -0.524   7.870  -7.193  1.00  0.00     0.167 HD
ATOM     58  C   UNL     1       0.691  10.521  -7.091  1.00  0.00     0.074 A 
ATOM     59  C   UNL     1       1.094  11.766  -6.473  1.00  0.00     0.031 C 
ATOM     60  C   UNL     1      -0.104  10.466  -8.188  1.00  0.00     0.037 A 
BRANCH  47  61
ATOM     61  C   UNL     1      -1.974   4.887  -9.906  1.00  0.00     0.064 A 
ATOM     62  C   UNL     1      -3.187   4.231 -10.155  1.00  0.00     0.173 A 
ATOM     63  C   UNL     1      -0.995   4.806 -10.927  1.00  0.00     0.173 A 
ATOM     64  F   UNL     1      -4.171   4.268  -9.246  1.00  0.00    -0.203 F 
ATOM     65  C   UNL     1      -3.399   3.511 -11.337  1.00  0.00     0.198 A 
ATOM     66  C   UNL     1      -1.231   4.135 -12.130  1.00  0.00     0.198 A 
ATOM     67  F   UNL     1       0.192   5.417 -10.780  1.00  0.00    -0.203 F 
ATOM     68  F   UNL     1      -4.551   2.849 -11.517  1.00  0.00    -0.200 F 
ATOM     69  C   UNL     1      -2.430   3.477 -12.329  1.00  0.00     0.200 A 
ATOM     70  F   UNL     1      -0.302   4.138 -13.098  1.00  0.00    -0.200 F 
ATOM     71  F   UNL     1      -2.654   2.813 -13.472  1.00  0.00    -0.200 F 
ENDBRANCH  47  61
BRANCH  48  72
ATOM     72  C   UNL     1       3.163  10.370  -3.156  1.00  0.00     0.064 A 
ATOM     73  C   UNL     1       2.134  11.049  -2.467  1.00  0.00     0.173 A 
ATOM     74  C   UNL     1       4.464  10.536  -2.656  1.00  0.00     0.173 A 
ATOM     75  F   UNL     1       0.863  10.953  -2.886  1.00  0.00    -0.203 F 
ATOM     76  C   UNL     1       2.402  11.863  -1.360  1.00  0.00     0.198 A 
ATOM     77  C   UNL     1       4.724  11.312  -1.523  1.00  0.00     0.198 A 
ATOM     78  F   UNL     1       5.492   9.923  -3.259  1.00  0.00    -0.203 F 
ATOM     79  F   UNL     1       1.409  12.538  -0.764  1.00  0.00    -0.200 F 
ATOM     80  C   UNL     1       3.696  11.983  -0.882  1.00  0.00     0.200 A 
ATOM     81  F   UNL     1       5.976  11.405  -1.054  1.00  0.00    -0.200 F 
ATOM     82  F   UNL     1       3.955  12.749   0.188  1.00  0.00    -0.200 F 
ENDBRANCH  48  72
BRANCH  60  83
ATOM     83  C   UNL     1      -0.395  11.767  -8.899  1.00  0.00     0.064 A 
ATOM     84  C   UNL     1       0.644  12.497  -9.504  1.00  0.00     0.173 A 
ATOM     85  C   UNL     1      -1.704  12.244  -9.063  1.00  0.00     0.173 A 
ATOM     86  F   UNL     1       1.915  12.076  -9.399  1.00  0.00    -0.203 F 
ATOM     87  C   UNL     1       0.392  13.675 -10.201  1.00  0.00     0.198 A 
ATOM     88  C   UNL     1      -1.956  13.409  -9.789  1.00  0.00     0.198 A 
ATOM     89  F   UNL     1      -2.740  11.578  -8.534  1.00  0.00    -0.203 F 
ATOM     90  F   UNL     1       1.409  14.372 -10.725  1.00  0.00    -0.200 F 
ATOM     91  C   UNL     1      -0.909  14.128 -10.348  1.00  0.00     0.200 A 
ATOM     92  F   UNL     1      -3.216  13.837  -9.951  1.00  0.00    -0.200 F 
ATOM     93  F   UNL     1      -1.152  15.256 -11.028  1.00  0.00    -0.200 F 
ENDBRANCH  60  83
ENDBRANCH  34  35
ENDBRANCH  27  29
ENDBRANCH  26  27
ENDBRANCH  25  26
ENDBRANCH   1  25
TORSDOF 14
