REMARK SMILES CCN(CC)c1ccc(NC(=O)c2ccc(OC)cc2)cc1C(=O)OCCOC(=O)c1ccc(-c2c3nc(c(-c4c(F)c(F)c(F)c(F)c4F)c4ccc([nH]4)c(-c4c(F)c(F)c(F)c(F)c4F)c4nc(c(-c5c(F)c(F)c(F)c(F)c5F)c5ccc2[nH]5)C=C4)C=C3)cc1
REMARK SMILES IDX 26 1 25 2 23 3 24 4 22 5 6 6 7 7 8 8 21 9 9 10 3 11 2 12
REMARK SMILES IDX 1 13 4 14 5 15 10 16 11 17 12 19 13 20 14 21 20 22 15 23
REMARK SMILES IDX 19 24 16 25 17 26 18 27 27 28 28 29 29 30 30 31 31 32 32 33
REMARK SMILES IDX 93 34 33 35 92 36 34 37 35 38 36 39 86 40 37 41 91 42 85 43
REMARK SMILES IDX 87 44 38 45 90 46 84 47 83 48 39 50 71 51 51 52 70 53 52 54
REMARK SMILES IDX 55 55 69 56 88 57 53 58 54 59 68 61 89 62 56 63 40 64 41 65
REMARK SMILES IDX 49 66 42 67 43 68 47 69 50 70 44 71 45 72 48 73 46 74 72 75
REMARK SMILES IDX 73 76 81 77 74 78 75 79 79 80 82 81 76 82 77 83 80 84 78 85
REMARK SMILES IDX 57 86 58 87 66 88 59 89 60 90 64 91 67 92 61 93 62 94 65 95
REMARK SMILES IDX 63 96
REMARK H PARENT 10 18 87 49 55 60
REMARK Flexibility Score: inf
ROOT
ATOM      1  C   UNL     1       1.308   1.487   0.519  1.00  0.00     0.275 C 
ENDROOT
BRANCH   1   2
ATOM      2  O   UNL     1       1.739   0.144   0.820  1.00  0.00    -0.458 OA
BRANCH   2   3
ATOM      3  C   UNL     1       2.631  -0.420  -0.034  1.00  0.00     0.340 C 
ATOM      4  O   UNL     1       3.193   0.128  -0.969  1.00  0.00    -0.246 OA
BRANCH   3   5
ATOM      5  C   UNL     1       2.971  -1.789   0.413  1.00  0.00     0.085 A 
ATOM      6  C   UNL     1       1.999  -2.763   0.715  1.00  0.00     0.051 A 
ATOM      7  C   UNL     1       2.479  -3.916   1.353  1.00  0.00     0.029 A 
ATOM      8  C   UNL     1       3.842  -4.137   1.589  1.00  0.00     0.028 A 
ATOM      9  C   UNL     1       4.352  -2.043   0.580  1.00  0.00     0.044 A 
ATOM     10  C   UNL     1       4.798  -3.236   1.142  1.00  0.00     0.042 A 
BRANCH   6  11
ATOM     11  N   UNL     1       0.656  -2.663   0.364  1.00  0.00    -0.371 N 
BRANCH  11  12
ATOM     12  C   UNL     1       0.310  -2.488  -1.056  1.00  0.00     0.113 C 
ATOM     13  C   UNL     1      -0.318  -1.133  -1.344  1.00  0.00     0.027 C 
ENDBRANCH  11  12
BRANCH  11  14
ATOM     14  C   UNL     1      -0.406  -3.080   1.290  1.00  0.00     0.113 C 
ATOM     15  C   UNL     1      -0.832  -4.536   1.123  1.00  0.00     0.027 C 
ENDBRANCH  11  14
ENDBRANCH   6  11
BRANCH  10  16
ATOM     16  N   UNL     1       6.188  -3.434   1.265  1.00  0.00    -0.322 N 
ATOM     17  C   UNL     1       6.923  -4.584   1.483  1.00  0.00     0.255 C 
ATOM     18  H   UNL     1       6.727  -2.615   1.181  1.00  0.00     0.170 HD
ATOM     19  O   UNL     1       8.103  -4.514   1.820  1.00  0.00    -0.269 OA
BRANCH  17  20
ATOM     20  C   UNL     1       6.325  -5.912   1.239  1.00  0.00     0.040 A 
ATOM     21  C   UNL     1       6.368  -6.878   2.247  1.00  0.00     0.017 A 
ATOM     22  C   UNL     1       5.672  -6.179   0.029  1.00  0.00     0.017 A 
ATOM     23  C   UNL     1       5.655  -8.067   2.083  1.00  0.00     0.047 A 
ATOM     24  C   UNL     1       4.954  -7.365  -0.124  1.00  0.00     0.047 A 
ATOM     25  C   UNL     1       4.907  -8.289   0.922  1.00  0.00     0.118 A 
BRANCH  25  26
ATOM     26  O   UNL     1       4.172  -9.443   0.902  1.00  0.00    -0.497 OA
ATOM     27  C   UNL     1       2.955  -9.361   0.163  1.00  0.00     0.278 C 
ENDBRANCH  25  26
ENDBRANCH  17  20
ENDBRANCH  10  16
ENDBRANCH   3   5
ENDBRANCH   2   3
ENDBRANCH   1   2
BRANCH   1  28
ATOM     28  C   UNL     1       1.248   2.320   1.797  1.00  0.00     0.275 C 
BRANCH  28  29
ATOM     29  O   UNL     1       2.592   2.584   2.229  1.00  0.00    -0.458 OA
BRANCH  29  30
ATOM     30  C   UNL     1       3.015   1.864   3.286  1.00  0.00     0.338 C 
ATOM     31  O   UNL     1       2.358   1.162   4.045  1.00  0.00    -0.246 OA
BRANCH  30  32
ATOM     32  C   UNL     1       4.476   1.914   3.296  1.00  0.00     0.060 A 
ATOM     33  C   UNL     1       5.156   0.922   2.590  1.00  0.00     0.016 A 
ATOM     34  C   UNL     1       5.166   2.869   4.035  1.00  0.00     0.016 A 
ATOM     35  C   UNL     1       6.543   0.847   2.649  1.00  0.00     0.010 A 
ATOM     36  C   UNL     1       6.561   2.813   4.073  1.00  0.00     0.010 A 
ATOM     37  C   UNL     1       7.256   1.785   3.404  1.00  0.00    -0.014 A 
BRANCH  37  38
ATOM     38  C   UNL     1       8.718   1.627   3.603  1.00  0.00     0.031 A 
ATOM     39  C   UNL     1       9.229   1.284   4.973  1.00  0.00     0.074 A 
ATOM     40  C   UNL     1       9.579   1.768   2.580  1.00  0.00     0.049 A 
ATOM     41  N   UNL     1      10.450   1.320   5.440  1.00  0.00    -0.248 NA
ATOM     42  C   UNL     1       8.219   0.858   5.955  1.00  0.00     0.031 C 
ATOM     43  C   UNL     1       9.207   2.020   1.188  1.00  0.00     0.029 A 
ATOM     44  N   UNL     1      10.950   1.722   2.558  1.00  0.00    -0.354 N 
ATOM     45  C   UNL     1      10.346   0.986   6.784  1.00  0.00     0.074 A 
ATOM     46  C   UNL     1       8.946   0.742   7.056  1.00  0.00     0.031 C 
ATOM     47  C   UNL     1      10.323   2.095   0.445  1.00  0.00     0.029 A 
ATOM     48  C   UNL     1      11.487   1.971   1.319  1.00  0.00     0.049 A 
ATOM     49  H   UNL     1      11.496   1.528   3.354  1.00  0.00     0.167 HD
ATOM     50  C   UNL     1      11.335   0.904   7.706  1.00  0.00     0.037 A 
ATOM     51  C   UNL     1      12.771   2.127   0.944  1.00  0.00     0.037 A 
ATOM     52  C   UNL     1      12.730   1.090   7.408  1.00  0.00     0.049 A 
ATOM     53  C   UNL     1      13.853   2.044   1.986  1.00  0.00     0.074 A 
ATOM     54  C   UNL     1      13.815   1.029   8.264  1.00  0.00     0.029 A 
ATOM     55  N   UNL     1      13.233   1.351   6.141  1.00  0.00    -0.354 N 
ATOM     56  N   UNL     1      13.747   1.819   3.273  1.00  0.00    -0.248 NA
ATOM     57  C   UNL     1      15.233   2.258   1.527  1.00  0.00     0.031 C 
ATOM     58  C   UNL     1      14.973   1.280   7.519  1.00  0.00     0.029 A 
ATOM     59  C   UNL     1      14.612   1.460   6.192  1.00  0.00     0.049 A 
ATOM     60  H   UNL     1      12.689   1.445   5.325  1.00  0.00     0.167 HD
ATOM     61  C   UNL     1      15.039   1.859   3.777  1.00  0.00     0.074 A 
ATOM     62  C   UNL     1      15.917   2.109   2.652  1.00  0.00     0.031 C 
ATOM     63  C   UNL     1      15.462   1.710   5.057  1.00  0.00     0.037 A 
BRANCH  50  64
ATOM     64  C   UNL     1      10.931   0.652   9.128  1.00  0.00     0.064 A 
ATOM     65  C   UNL     1      10.466  -0.597   9.563  1.00  0.00     0.173 A 
ATOM     66  C   UNL     1      11.013   1.687  10.073  1.00  0.00     0.173 A 
ATOM     67  F   UNL     1      10.350  -1.613   8.696  1.00  0.00    -0.203 F 
ATOM     68  C   UNL     1      10.071  -0.793  10.885  1.00  0.00     0.198 A 
ATOM     69  C   UNL     1      10.643   1.481  11.399  1.00  0.00     0.198 A 
ATOM     70  F   UNL     1      11.451   2.902   9.709  1.00  0.00    -0.203 F 
ATOM     71  F   UNL     1       9.579  -1.980  11.267  1.00  0.00    -0.200 F 
ATOM     72  C   UNL     1      10.165   0.244  11.802  1.00  0.00     0.200 A 
ATOM     73  F   UNL     1      10.742   2.482  12.285  1.00  0.00    -0.200 F 
ATOM     74  F   UNL     1       9.783   0.054  13.072  1.00  0.00    -0.200 F 
ENDBRANCH  50  64
BRANCH  51  75
ATOM     75  C   UNL     1      13.092   2.421  -0.476  1.00  0.00     0.064 A 
ATOM     76  C   UNL     1      13.732   1.471  -1.283  1.00  0.00     0.173 A 
ATOM     77  C   UNL     1      12.749   3.649  -1.061  1.00  0.00     0.173 A 
ATOM     78  F   UNL     1      14.107   0.293  -0.762  1.00  0.00    -0.203 F 
ATOM     79  C   UNL     1      14.017   1.738  -2.621  1.00  0.00     0.198 A 
ATOM     80  C   UNL     1      13.009   3.905  -2.405  1.00  0.00     0.198 A 
ATOM     81  F   UNL     1      12.139   4.594  -0.330  1.00  0.00    -0.203 F 
ATOM     82  F   UNL     1      14.657   0.825  -3.363  1.00  0.00    -0.200 F 
ATOM     83  C   UNL     1      13.646   2.951  -3.183  1.00  0.00     0.200 A 
ATOM     84  F   UNL     1      12.639   5.074  -2.946  1.00  0.00    -0.200 F 
ATOM     85  F   UNL     1      13.908   3.202  -4.473  1.00  0.00    -0.200 F 
ENDBRANCH  51  75
BRANCH  63  86
ATOM     86  C   UNL     1      16.938   1.796   5.301  1.00  0.00     0.064 A 
ATOM     87  C   UNL     1      17.609   3.027   5.294  1.00  0.00     0.173 A 
ATOM     88  C   UNL     1      17.680   0.640   5.583  1.00  0.00     0.173 A 
ATOM     89  F   UNL     1      16.943   4.157   5.014  1.00  0.00    -0.203 F 
ATOM     90  C   UNL     1      18.977   3.095   5.543  1.00  0.00     0.198 A 
ATOM     91  C   UNL     1      19.043   0.714   5.853  1.00  0.00     0.198 A 
ATOM     92  F   UNL     1      17.080  -0.560   5.606  1.00  0.00    -0.203 F 
ATOM     93  F   UNL     1      19.607   4.277   5.495  1.00  0.00    -0.200 F 
ATOM     94  C   UNL     1      19.691   1.940   5.827  1.00  0.00     0.200 A 
ATOM     95  F   UNL     1      19.731  -0.401   6.137  1.00  0.00    -0.200 F 
ATOM     96  F   UNL     1      21.007   2.008   6.070  1.00  0.00    -0.200 F 
ENDBRANCH  63  86
ENDBRANCH  37  38
ENDBRANCH  30  32
ENDBRANCH  29  30
ENDBRANCH  28  29
ENDBRANCH   1  28
TORSDOF 17
