REMARK SMILES CC[C@H](C(=O)OCCOC(=O)c1ccc(-c2c3nc(c(-c4c(F)c(F)c(F)c(F)c4F)c4ccc([nH]4)c(-c4c(F)c(F)c(F)c(F)c4F)c4nc(c(-c5c(F)c(F)c(F)c(F)c5F)c5ccc2[nH]5)C=C4)C=C3)cc1)N(C)c1cc(C)ccc1[N+](=O)[O-]
REMARK SMILES IDX 7 1 6 2 4 3 5 4 3 5 2 6 1 7 75 8 76 9 77 10 78 11 83 12
REMARK SMILES IDX 79 13 82 14 80 15 81 16 84 17 85 18 86 19 8 20 9 21 10 22
REMARK SMILES IDX 11 23 12 24 13 25 74 26 14 27 73 28 15 29 16 30 17 31 67 32
REMARK SMILES IDX 18 33 72 34 66 35 68 36 19 37 71 38 65 39 64 40 20 42 52 43
REMARK SMILES IDX 32 44 51 45 33 46 36 47 50 48 69 49 34 50 35 51 49 53 70 54
REMARK SMILES IDX 37 55 21 56 22 57 30 58 23 59 24 60 28 61 31 62 25 63 26 64
REMARK SMILES IDX 29 65 27 66 53 67 54 68 62 69 55 70 56 71 60 72 63 73 57 74
REMARK SMILES IDX 58 75 61 76 59 77 38 78 39 79 47 80 40 81 41 82 45 83 48 84
REMARK SMILES IDX 42 85 43 86 46 87 44 88
REMARK H PARENT 68 41 36 52
REMARK Flexibility Score: inf
ROOT
ATOM      1  C   UNL     1       0.831   0.600   1.646  1.00  0.00     0.274 C 
ENDROOT
BRANCH   1   2
ATOM      2  O   UNL     1       1.225   0.406   0.258  1.00  0.00    -0.461 OA
BRANCH   2   3
ATOM      3  C   UNL     1       0.537   1.204  -0.591  1.00  0.00     0.328 C 
ATOM      4  O   UNL     1      -0.144   2.128  -0.184  1.00  0.00    -0.250 OA
BRANCH   3   5
ATOM      5  C   UNL     1       0.750   0.995  -2.083  1.00  0.00     0.192 C 
BRANCH   5   6
ATOM      6  C   UNL     1       0.655  -0.380  -2.754  1.00  0.00     0.034 C 
ATOM      7  C   UNL     1      -0.678  -1.099  -2.756  1.00  0.00     0.007 C 
ENDBRANCH   5   6
BRANCH   5   8
ATOM      8  N   UNL     1       0.082   2.085  -2.898  1.00  0.00    -0.356 N 
ATOM      9  C   UNL     1       1.063   2.941  -3.607  1.00  0.00     0.145 C 
BRANCH   8  10
ATOM     10  C   UNL     1      -1.289   2.366  -3.058  1.00  0.00     0.116 A 
ATOM     11  C   UNL     1      -1.653   3.171  -4.180  1.00  0.00     0.036 A 
ATOM     12  C   UNL     1      -2.425   2.023  -2.268  1.00  0.00     0.292 A 
ATOM     13  C   UNL     1      -2.963   3.596  -4.489  1.00  0.00    -0.049 A 
ATOM     14  C   UNL     1      -3.759   2.334  -2.645  1.00  0.00     0.088 A 
ATOM     15  C   UNL     1      -3.195   4.603  -5.577  1.00  0.00     0.044 C 
ATOM     16  C   UNL     1      -4.026   3.108  -3.755  1.00  0.00     0.010 A 
BRANCH  12  17
ATOM     17  N   UNL     1      -2.433   1.491  -0.911  1.00  0.00     0.064 N 
ATOM     18  O   UNL     1      -2.853   2.248  -0.017  1.00  0.00    -0.258 OA
ATOM     19  O   UNL     1      -2.208   0.284  -0.759  1.00  0.00    -0.258 OA
ENDBRANCH  12  17
ENDBRANCH   8  10
ENDBRANCH   5   8
ENDBRANCH   3   5
ENDBRANCH   2   3
ENDBRANCH   1   2
BRANCH   1  20
ATOM     20  C   UNL     1       1.285   1.923   2.329  1.00  0.00     0.275 C 
BRANCH  20  21
ATOM     21  O   UNL     1       0.442   3.074   2.037  1.00  0.00    -0.458 OA
BRANCH  21  22
ATOM     22  C   UNL     1       1.026   4.105   1.365  1.00  0.00     0.338 C 
ATOM     23  O   UNL     1       2.224   4.240   1.157  1.00  0.00    -0.246 OA
BRANCH  22  24
ATOM     24  C   UNL     1       0.022   4.975   0.686  1.00  0.00     0.060 A 
ATOM     25  C   UNL     1      -0.022   4.905  -0.709  1.00  0.00     0.016 A 
ATOM     26  C   UNL     1      -0.803   5.892   1.337  1.00  0.00     0.016 A 
ATOM     27  C   UNL     1      -0.930   5.659  -1.454  1.00  0.00     0.010 A 
ATOM     28  C   UNL     1      -1.685   6.700   0.581  1.00  0.00     0.010 A 
ATOM     29  C   UNL     1      -1.769   6.575  -0.819  1.00  0.00    -0.014 A 
BRANCH  29  30
ATOM     30  C   UNL     1      -2.669   7.414  -1.660  1.00  0.00     0.031 A 
ATOM     31  C   UNL     1      -2.150   8.682  -2.274  1.00  0.00     0.074 A 
ATOM     32  C   UNL     1      -3.909   6.998  -1.977  1.00  0.00     0.049 A 
ATOM     33  N   UNL     1      -2.787   9.589  -2.973  1.00  0.00    -0.248 NA
ATOM     34  C   UNL     1      -0.720   8.962  -2.084  1.00  0.00     0.031 C 
ATOM     35  C   UNL     1      -4.495   5.732  -1.554  1.00  0.00     0.029 A 
ATOM     36  N   UNL     1      -4.889   7.578  -2.752  1.00  0.00    -0.354 N 
ATOM     37  C   UNL     1      -1.852  10.577  -3.252  1.00  0.00     0.074 A 
ATOM     38  C   UNL     1      -0.592  10.131  -2.695  1.00  0.00     0.031 C 
ATOM     39  C   UNL     1      -5.718   5.613  -2.100  1.00  0.00     0.029 A 
ATOM     40  C   UNL     1      -6.033   6.821  -2.859  1.00  0.00     0.049 A 
ATOM     41  H   UNL     1      -4.781   8.454  -3.189  1.00  0.00     0.167 HD
ATOM     42  C   UNL     1      -2.043  11.765  -3.876  1.00  0.00     0.037 A 
ATOM     43  C   UNL     1      -7.208   7.087  -3.469  1.00  0.00     0.037 A 
ATOM     44  C   UNL     1      -3.300  12.206  -4.424  1.00  0.00     0.049 A 
ATOM     45  C   UNL     1      -7.416   8.447  -4.096  1.00  0.00     0.074 A 
ATOM     46  C   UNL     1      -3.604  13.416  -5.025  1.00  0.00     0.029 A 
ATOM     47  N   UNL     1      -4.466  11.455  -4.434  1.00  0.00    -0.354 N 
ATOM     48  N   UNL     1      -6.554   9.416  -4.284  1.00  0.00    -0.248 NA
ATOM     49  C   UNL     1      -8.781   8.770  -4.544  1.00  0.00     0.031 C 
ATOM     50  C   UNL     1      -4.966  13.420  -5.341  1.00  0.00     0.029 A 
ATOM     51  C   UNL     1      -5.500  12.189  -4.996  1.00  0.00     0.049 A 
ATOM     52  H   UNL     1      -4.548  10.535  -4.091  1.00  0.00     0.167 HD
ATOM     53  C   UNL     1      -7.272  10.465  -4.847  1.00  0.00     0.074 A 
ATOM     54  C   UNL     1      -8.629   9.995  -5.026  1.00  0.00     0.031 C 
ATOM     55  C   UNL     1      -6.851  11.716  -5.158  1.00  0.00     0.037 A 
BRANCH  42  56
ATOM     56  C   UNL     1      -0.887  12.722  -3.891  1.00  0.00     0.064 A 
ATOM     57  C   UNL     1       0.245  12.524  -4.693  1.00  0.00     0.173 A 
ATOM     58  C   UNL     1      -0.922  13.866  -3.076  1.00  0.00     0.173 A 
ATOM     59  F   UNL     1       0.336  11.439  -5.476  1.00  0.00    -0.203 F 
ATOM     60  C   UNL     1       1.314  13.418  -4.653  1.00  0.00     0.198 A 
ATOM     61  C   UNL     1       0.133  14.773  -3.062  1.00  0.00     0.198 A 
ATOM     62  F   UNL     1      -1.985  14.105  -2.292  1.00  0.00    -0.203 F 
ATOM     63  F   UNL     1       2.412  13.179  -5.383  1.00  0.00    -0.200 F 
ATOM     64  C   UNL     1       1.255  14.542  -3.842  1.00  0.00     0.200 A 
ATOM     65  F   UNL     1       0.066  15.865  -2.288  1.00  0.00    -0.200 F 
ATOM     66  F   UNL     1       2.284  15.399  -3.804  1.00  0.00    -0.200 F 
ENDBRANCH  42  56
BRANCH  43  67
ATOM     67  C   UNL     1      -8.319   6.090  -3.464  1.00  0.00     0.064 A 
ATOM     68  C   UNL     1      -8.837   5.580  -4.665  1.00  0.00     0.173 A 
ATOM     69  C   UNL     1      -8.920   5.660  -2.271  1.00  0.00     0.173 A 
ATOM     70  F   UNL     1      -8.330   5.984  -5.839  1.00  0.00    -0.203 F 
ATOM     71  C   UNL     1      -9.914   4.692  -4.671  1.00  0.00     0.198 A 
ATOM     72  C   UNL     1      -9.967   4.739  -2.276  1.00  0.00     0.198 A 
ATOM     73  F   UNL     1      -8.489   6.131  -1.092  1.00  0.00    -0.203 F 
ATOM     74  F   UNL     1     -10.426   4.271  -5.836  1.00  0.00    -0.200 F 
ATOM     75  C   UNL     1     -10.470   4.264  -3.476  1.00  0.00     0.200 A 
ATOM     76  F   UNL     1     -10.492   4.320  -1.117  1.00  0.00    -0.200 F 
ATOM     77  F   UNL     1     -11.499   3.405  -3.481  1.00  0.00    -0.200 F 
ENDBRANCH  43  67
BRANCH  55  78
ATOM     78  C   UNL     1      -7.870  12.677  -5.705  1.00  0.00     0.064 A 
ATOM     79  C   UNL     1      -8.878  13.215  -4.889  1.00  0.00     0.173 A 
ATOM     80  C   UNL     1      -7.804  13.114  -7.037  1.00  0.00     0.173 A 
ATOM     81  F   UNL     1      -8.995  12.820  -3.612  1.00  0.00    -0.203 F 
ATOM     82  C   UNL     1      -9.790  14.141  -5.391  1.00  0.00     0.198 A 
ATOM     83  C   UNL     1      -8.699  14.063  -7.526  1.00  0.00     0.198 A 
ATOM     84  F   UNL     1      -6.858  12.637  -7.859  1.00  0.00    -0.203 F 
ATOM     85  F   UNL     1     -10.768  14.610  -4.603  1.00  0.00    -0.200 F 
ATOM     86  C   UNL     1      -9.694  14.571  -6.705  1.00  0.00     0.200 A 
ATOM     87  F   UNL     1      -8.595  14.489  -8.793  1.00  0.00    -0.200 F 
ATOM     88  F   UNL     1     -10.563  15.473  -7.182  1.00  0.00    -0.200 F 
ENDBRANCH  55  78
ENDBRANCH  29  30
ENDBRANCH  22  24
ENDBRANCH  21  22
ENDBRANCH  20  21
ENDBRANCH   1  20
TORSDOF 15
