REMARK SMILES CC/C(=C/C(=O)[C@H](Cc1ccc(Cl)cc1Cl)C(=O)OCCOC(=O)c1ccc(-c2c3nc(c(-c4c(F)c(F)c(F)c(F)c4F)c4ccc([nH]4)c(-c4c(F)c(F)c(F)c(F)c4F)c4nc(c(-c5c(F)c(F)c(F)c(F)c5F)c5ccc2[nH]5)C=C4)C=C3)cc1)N(C)C
REMARK SMILES IDX 20 1 19 2 17 3 18 4 7 5 5 6 6 7 4 8 3 9 2 10 1 11 88 12
REMARK SMILES IDX 89 13 90 14 8 15 9 16 10 17 15 18 11 19 14 20 16 21 12 22
REMARK SMILES IDX 13 23 21 24 22 25 23 26 24 27 25 28 26 29 87 30 27 31 86 32
REMARK SMILES IDX 28 33 29 34 30 35 80 36 31 37 85 38 79 39 81 40 32 41 84 42
REMARK SMILES IDX 78 43 77 44 33 46 65 47 45 48 64 49 46 50 49 51 63 52 82 53
REMARK SMILES IDX 47 54 48 55 62 57 83 58 50 59 34 60 35 61 43 62 36 63 37 64
REMARK SMILES IDX 41 65 44 66 38 67 39 68 42 69 40 70 66 71 67 72 75 73 68 74
REMARK SMILES IDX 69 75 73 76 76 77 70 78 71 79 74 80 72 81 51 82 52 83 60 84
REMARK SMILES IDX 53 85 54 86 58 87 61 88 55 89 56 90 59 91 57 92
REMARK H PARENT 81 45 49 56
REMARK Flexibility Score: inf
ROOT
ATOM      1  C   UNL     1       3.630   3.133  -0.201  1.00  0.00     0.274 C 
ENDROOT
BRANCH   1   2
ATOM      2  O   UNL     1       2.668   2.967   0.853  1.00  0.00    -0.461 OA
BRANCH   2   3
ATOM      3  C   UNL     1       3.094   2.569   2.068  1.00  0.00     0.317 C 
ATOM      4  O   UNL     1       4.245   2.219   2.289  1.00  0.00    -0.251 OA
BRANCH   3   5
ATOM      5  C   UNL     1       2.009   2.768   3.121  1.00  0.00     0.175 C 
BRANCH   5   6
ATOM      6  C   UNL     1       2.505   2.257   4.492  1.00  0.00     0.171 C 
ATOM      7  O   UNL     1       1.808   1.467   5.145  1.00  0.00    -0.294 OA
BRANCH   6   8
ATOM      8  C   UNL     1       3.867   2.558   5.092  1.00  0.00     0.069 C 
ATOM      9  C   UNL     1       4.716   3.592   5.329  1.00  0.00     0.016 C 
BRANCH   9  10
ATOM     10  C   UNL     1       6.006   3.222   6.094  1.00  0.00     0.050 C 
ATOM     11  C   UNL     1       7.280   3.365   5.263  1.00  0.00     0.010 C 
ENDBRANCH   9  10
BRANCH   9  12
ATOM     12  N   UNL     1       4.568   4.958   5.042  1.00  0.00    -0.381 N 
ATOM     13  C   UNL     1       5.492   6.027   5.456  1.00  0.00     0.143 C 
ATOM     14  C   UNL     1       3.547   5.468   4.164  1.00  0.00     0.143 C 
ENDBRANCH   9  12
ENDBRANCH   6   8
ENDBRANCH   5   6
BRANCH   5  15
ATOM     15  C   UNL     1       0.614   2.115   2.756  1.00  0.00     0.060 C 
BRANCH  15  16
ATOM     16  C   UNL     1      -0.300   2.823   1.744  1.00  0.00    -0.028 A 
ATOM     17  C   UNL     1      -1.248   3.765   2.203  1.00  0.00     0.007 A 
ATOM     18  C   UNL     1      -0.252   2.601   0.352  1.00  0.00     0.045 A 
ATOM     19  C   UNL     1      -1.994   4.548   1.307  1.00  0.00     0.021 A 
ATOM     20  C   UNL     1      -0.928   3.443  -0.546  1.00  0.00     0.041 A 
ATOM     21  Cl  UNL     1       0.573   1.245  -0.337  1.00  0.00    -0.084 Cl
ATOM     22  C   UNL     1      -1.774   4.433  -0.061  1.00  0.00     0.042 A 
ATOM     23  Cl  UNL     1      -2.552   5.512  -1.155  1.00  0.00    -0.084 Cl
ENDBRANCH  15  16
ENDBRANCH   5  15
ENDBRANCH   3   5
ENDBRANCH   2   3
ENDBRANCH   1   2
BRANCH   1  24
ATOM     24  C   UNL     1       3.198   4.338  -1.044  1.00  0.00     0.275 C 
BRANCH  24  25
ATOM     25  O   UNL     1       3.281   5.587  -0.311  1.00  0.00    -0.458 OA
BRANCH  25  26
ATOM     26  C   UNL     1       2.197   5.872   0.445  1.00  0.00     0.338 C 
ATOM     27  O   UNL     1       1.219   5.161   0.613  1.00  0.00    -0.246 OA
BRANCH  26  28
ATOM     28  C   UNL     1       2.307   7.129   1.194  1.00  0.00     0.060 A 
ATOM     29  C   UNL     1       1.684   7.170   2.449  1.00  0.00     0.016 A 
ATOM     30  C   UNL     1       2.970   8.251   0.699  1.00  0.00     0.016 A 
ATOM     31  C   UNL     1       1.849   8.273   3.273  1.00  0.00     0.010 A 
ATOM     32  C   UNL     1       3.076   9.391   1.502  1.00  0.00     0.010 A 
ATOM     33  C   UNL     1       2.558   9.384   2.808  1.00  0.00    -0.014 A 
BRANCH  33  34
ATOM     34  C   UNL     1       2.688  10.540   3.716  1.00  0.00     0.031 A 
ATOM     35  C   UNL     1       1.522  11.462   3.872  1.00  0.00     0.074 A 
ATOM     36  C   UNL     1       3.783  10.663   4.487  1.00  0.00     0.049 A 
ATOM     37  N   UNL     1       1.387  12.502   4.650  1.00  0.00    -0.248 NA
ATOM     38  C   UNL     1       0.336  11.153   3.058  1.00  0.00     0.031 C 
ATOM     39  C   UNL     1       4.918   9.741   4.488  1.00  0.00     0.029 A 
ATOM     40  N   UNL     1       4.108  11.594   5.440  1.00  0.00    -0.354 N 
ATOM     41  C   UNL     1       0.102  12.971   4.422  1.00  0.00     0.074 A 
ATOM     42  C   UNL     1      -0.505  12.102   3.438  1.00  0.00     0.031 C 
ATOM     43  C   UNL     1       5.811  10.147   5.406  1.00  0.00     0.029 A 
ATOM     44  C   UNL     1       5.335  11.384   6.020  1.00  0.00     0.049 A 
ATOM     45  H   UNL     1       3.517  12.342   5.685  1.00  0.00     0.167 HD
ATOM     46  C   UNL     1      -0.505  14.045   4.978  1.00  0.00     0.037 A 
ATOM     47  C   UNL     1       6.003  12.131   6.923  1.00  0.00     0.037 A 
ATOM     48  C   UNL     1       0.135  14.923   5.920  1.00  0.00     0.049 A 
ATOM     49  C   UNL     1       5.349  13.393   7.428  1.00  0.00     0.074 A 
ATOM     50  C   UNL     1      -0.356  16.081   6.495  1.00  0.00     0.029 A 
ATOM     51  N   UNL     1       1.421  14.744   6.413  1.00  0.00    -0.354 N 
ATOM     52  N   UNL     1       4.148  13.861   7.181  1.00  0.00    -0.248 NA
ATOM     53  C   UNL     1       6.147  14.240   8.325  1.00  0.00     0.031 C 
ATOM     54  C   UNL     1       0.656  16.635   7.286  1.00  0.00     0.029 A 
ATOM     55  C   UNL     1       1.753  15.787   7.262  1.00  0.00     0.049 A 
ATOM     56  H   UNL     1       2.011  13.988   6.191  1.00  0.00     0.167 HD
ATOM     57  C   UNL     1       4.039  15.043   7.902  1.00  0.00     0.074 A 
ATOM     58  C   UNL     1       5.288  15.206   8.619  1.00  0.00     0.031 C 
ATOM     59  C   UNL     1       3.006  15.921   7.962  1.00  0.00     0.037 A 
BRANCH  46  60
ATOM     60  C   UNL     1      -1.890  14.365   4.502  1.00  0.00     0.064 A 
ATOM     61  C   UNL     1      -2.995  13.565   4.831  1.00  0.00     0.173 A 
ATOM     62  C   UNL     1      -2.110  15.480   3.679  1.00  0.00     0.173 A 
ATOM     63  F   UNL     1      -2.834  12.471   5.590  1.00  0.00    -0.203 F 
ATOM     64  C   UNL     1      -4.262  13.854   4.329  1.00  0.00     0.198 A 
ATOM     65  C   UNL     1      -3.382  15.783   3.205  1.00  0.00     0.198 A 
ATOM     66  F   UNL     1      -1.086  16.273   3.327  1.00  0.00    -0.203 F 
ATOM     67  F   UNL     1      -5.291  13.040   4.605  1.00  0.00    -0.200 F 
ATOM     68  C   UNL     1      -4.455  14.965   3.521  1.00  0.00     0.200 A 
ATOM     69  F   UNL     1      -3.567  16.860   2.429  1.00  0.00    -0.200 F 
ATOM     70  F   UNL     1      -5.674  15.238   3.035  1.00  0.00    -0.200 F 
ENDBRANCH  46  60
BRANCH  47  71
ATOM     71  C   UNL     1       7.376  11.750   7.362  1.00  0.00     0.064 A 
ATOM     72  C   UNL     1       7.662  11.455   8.703  1.00  0.00     0.173 A 
ATOM     73  C   UNL     1       8.446  11.723   6.454  1.00  0.00     0.173 A 
ATOM     74  F   UNL     1       6.685  11.494   9.620  1.00  0.00    -0.203 F 
ATOM     75  C   UNL     1       8.963  11.172   9.120  1.00  0.00     0.198 A 
ATOM     76  C   UNL     1       9.739  11.404   6.864  1.00  0.00     0.198 A 
ATOM     77  F   UNL     1       8.237  12.005   5.159  1.00  0.00    -0.203 F 
ATOM     78  F   UNL     1       9.216  10.955  10.418  1.00  0.00    -0.200 F 
ATOM     79  C   UNL     1       9.999  11.141   8.200  1.00  0.00     0.200 A 
ATOM     80  F   UNL     1      10.733  11.362   5.967  1.00  0.00    -0.200 F 
ATOM     81  F   UNL     1      11.249  10.869   8.600  1.00  0.00    -0.200 F 
ENDBRANCH  47  71
BRANCH  59  82
ATOM     82  C   UNL     1       3.177  17.119   8.854  1.00  0.00     0.064 A 
ATOM     83  C   UNL     1       4.066  18.156   8.536  1.00  0.00     0.173 A 
ATOM     84  C   UNL     1       2.408  17.247  10.021  1.00  0.00     0.173 A 
ATOM     85  F   UNL     1       4.833  18.076   7.438  1.00  0.00    -0.203 F 
ATOM     86  C   UNL     1       4.202  19.262   9.371  1.00  0.00     0.198 A 
ATOM     87  C   UNL     1       2.520  18.371  10.833  1.00  0.00     0.198 A 
ATOM     88  F   UNL     1       1.536  16.287  10.366  1.00  0.00    -0.203 F 
ATOM     89  F   UNL     1       5.098  20.214   9.077  1.00  0.00    -0.200 F 
ATOM     90  C   UNL     1       3.423  19.373  10.513  1.00  0.00     0.200 A 
ATOM     91  F   UNL     1       1.753  18.485  11.927  1.00  0.00    -0.200 F 
ATOM     92  F   UNL     1       3.549  20.442  11.310  1.00  0.00    -0.200 F 
ENDBRANCH  59  82
ENDBRANCH  33  34
ENDBRANCH  26  28
ENDBRANCH  25  26
ENDBRANCH  24  25
ENDBRANCH   1  24
TORSDOF 17
