REMARK SMILES O=C(OCCOC(=O)[C@H]1C=C[C@@H](NC(=O)[C@@H]2CSC[NH2+]2)C1)c1ccc(-c2c3nc(c(-c4c(F)c(F)c(F)c(F)c4F)c4ccc([nH]4)c(-c4c(F)c(F)c(F)c(F)c4F)c4nc(c(-c5c(F)c(F)c(F)c(F)c5F)c5ccc2[nH]5)C=C4)C=C3)cc1
REMARK SMILES IDX 4 1 3 2 2 3 1 4 22 5 23 6 84 7 24 8 83 9 25 10 26 11 27 12
REMARK SMILES IDX 77 13 28 14 82 15 76 16 78 17 29 18 81 19 75 20 74 21 30 23
REMARK SMILES IDX 62 24 42 25 61 26 43 27 46 28 60 29 79 30 44 31 45 32 59 34
REMARK SMILES IDX 80 35 47 36 31 37 32 38 40 39 33 40 34 41 38 42 41 43 35 44
REMARK SMILES IDX 36 45 39 46 37 47 63 48 64 49 72 50 65 51 66 52 70 53 73 54
REMARK SMILES IDX 67 55 68 56 71 57 69 58 48 59 49 60 57 61 50 62 51 63 55 64
REMARK SMILES IDX 58 65 52 66 53 67 56 68 54 69 5 70 6 71 7 72 8 73 9 74 10 75
REMARK SMILES IDX 21 76 11 77 12 78 13 79 14 80 15 82 16 83 17 84 20 85 18 86
REMARK SMILES IDX 19 87
REMARK H PARENT 78 22 46 33 13 81 20 88 20 89
REMARK Flexibility Score: inf
ROOT
ATOM      1  C   UNL     1      -2.330   3.151   1.118  1.00  0.00     0.275 C 
ENDROOT
BRANCH   1   2
ATOM      2  O   UNL     1      -2.137   2.533   2.405  1.00  0.00    -0.458 OA
BRANCH   2   3
ATOM      3  C   UNL     1      -2.961   1.745   3.137  1.00  0.00     0.338 C 
ATOM      4  O   UNL     1      -2.655   1.512   4.306  1.00  0.00    -0.246 OA
BRANCH   3   5
ATOM      5  C   UNL     1      -4.149   1.010   2.587  1.00  0.00     0.060 A 
ATOM      6  C   UNL     1      -4.955   1.410   1.519  1.00  0.00     0.016 A 
ATOM      7  C   UNL     1      -4.474  -0.204   3.229  1.00  0.00     0.016 A 
ATOM      8  C   UNL     1      -6.013   0.607   1.065  1.00  0.00     0.010 A 
ATOM      9  C   UNL     1      -5.524  -1.012   2.779  1.00  0.00     0.010 A 
ATOM     10  C   UNL     1      -6.302  -0.609   1.688  1.00  0.00    -0.014 A 
BRANCH  10  11
ATOM     11  C   UNL     1      -7.483  -1.405   1.280  1.00  0.00     0.031 A 
ATOM     12  C   UNL     1      -8.744  -1.279   2.078  1.00  0.00     0.074 A 
ATOM     13  C   UNL     1      -7.433  -2.234   0.220  1.00  0.00     0.049 A 
ATOM     14  N   UNL     1      -9.901  -1.855   1.882  1.00  0.00    -0.248 NA
ATOM     15  C   UNL     1      -8.715  -0.353   3.223  1.00  0.00     0.031 C 
ATOM     16  C   UNL     1      -6.302  -2.373  -0.687  1.00  0.00     0.029 A 
ATOM     17  N   UNL     1      -8.343  -3.142  -0.258  1.00  0.00    -0.354 N 
ATOM     18  C   UNL     1     -10.751  -1.315   2.835  1.00  0.00     0.074 A 
ATOM     19  C   UNL     1      -9.964  -0.425   3.659  1.00  0.00     0.031 C 
ATOM     20  C   UNL     1      -6.524  -3.390  -1.535  1.00  0.00     0.029 A 
ATOM     21  C   UNL     1      -7.841  -3.944  -1.257  1.00  0.00     0.049 A 
ATOM     22  H   UNL     1      -9.265  -3.214   0.081  1.00  0.00     0.167 HD
ATOM     23  C   UNL     1     -12.080  -1.518   2.973  1.00  0.00     0.037 A 
ATOM     24  C   UNL     1      -8.385  -5.006  -1.877  1.00  0.00     0.037 A 
ATOM     25  C   UNL     1     -12.839  -2.437   2.169  1.00  0.00     0.049 A 
ATOM     26  C   UNL     1      -9.822  -5.335  -1.588  1.00  0.00     0.074 A 
ATOM     27  C   UNL     1     -14.196  -2.699   2.202  1.00  0.00     0.029 A 
ATOM     28  N   UNL     1     -12.293  -3.268   1.200  1.00  0.00    -0.354 N 
ATOM     29  N   UNL     1     -10.649  -4.742  -0.761  1.00  0.00    -0.248 NA
ATOM     30  C   UNL     1     -10.420  -6.436  -2.352  1.00  0.00     0.031 C 
ATOM     31  C   UNL     1     -14.461  -3.732   1.297  1.00  0.00     0.029 A 
ATOM     32  C   UNL     1     -13.278  -4.079   0.663  1.00  0.00     0.049 A 
ATOM     33  H   UNL     1     -11.345  -3.279   0.934  1.00  0.00     0.167 HD
ATOM     34  C   UNL     1     -11.878  -5.354  -0.948  1.00  0.00     0.074 A 
ATOM     35  C   UNL     1     -11.685  -6.372  -1.962  1.00  0.00     0.031 C 
ATOM     36  C   UNL     1     -13.063  -5.084  -0.348  1.00  0.00     0.037 A 
BRANCH  23  37
ATOM     37  C   UNL     1     -12.787  -0.730   4.032  1.00  0.00     0.064 A 
ATOM     38  C   UNL     1     -13.028   0.644   3.877  1.00  0.00     0.173 A 
ATOM     39  C   UNL     1     -13.249  -1.353   5.199  1.00  0.00     0.173 A 
ATOM     40  F   UNL     1     -12.589   1.289   2.785  1.00  0.00    -0.203 F 
ATOM     41  C   UNL     1     -13.693   1.369   4.862  1.00  0.00     0.198 A 
ATOM     42  C   UNL     1     -13.931  -0.629   6.173  1.00  0.00     0.198 A 
ATOM     43  F   UNL     1     -13.037  -2.663   5.394  1.00  0.00    -0.203 F 
ATOM     44  F   UNL     1     -13.880   2.688   4.711  1.00  0.00    -0.200 F 
ATOM     45  C   UNL     1     -14.149   0.731   6.006  1.00  0.00     0.200 A 
ATOM     46  F   UNL     1     -14.375  -1.247   7.276  1.00  0.00    -0.200 F 
ATOM     47  F   UNL     1     -14.792   1.429   6.952  1.00  0.00    -0.200 F 
ENDBRANCH  23  37
BRANCH  24  48
ATOM     48  C   UNL     1      -7.584  -5.807  -2.840  1.00  0.00     0.064 A 
ATOM     49  C   UNL     1      -7.863  -5.796  -4.213  1.00  0.00     0.173 A 
ATOM     50  C   UNL     1      -6.536  -6.628  -2.395  1.00  0.00     0.173 A 
ATOM     51  F   UNL     1      -8.862  -5.037  -4.686  1.00  0.00    -0.203 F 
ATOM     52  C   UNL     1      -7.149  -6.601  -5.100  1.00  0.00     0.198 A 
ATOM     53  C   UNL     1      -5.808  -7.416  -3.286  1.00  0.00     0.198 A 
ATOM     54  F   UNL     1      -6.221  -6.672  -1.092  1.00  0.00    -0.203 F 
ATOM     55  F   UNL     1      -7.474  -6.610  -6.400  1.00  0.00    -0.200 F 
ATOM     56  C   UNL     1      -6.123  -7.410  -4.636  1.00  0.00     0.200 A 
ATOM     57  F   UNL     1      -4.813  -8.191  -2.832  1.00  0.00    -0.200 F 
ATOM     58  F   UNL     1      -5.447  -8.193  -5.489  1.00  0.00    -0.200 F 
ENDBRANCH  24  48
BRANCH  36  59
ATOM     59  C   UNL     1     -14.248  -5.881  -0.799  1.00  0.00     0.064 A 
ATOM     60  C   UNL     1     -14.392  -7.235  -0.465  1.00  0.00     0.173 A 
ATOM     61  C   UNL     1     -15.268  -5.272  -1.547  1.00  0.00     0.173 A 
ATOM     62  F   UNL     1     -13.432  -7.864   0.231  1.00  0.00    -0.203 F 
ATOM     63  C   UNL     1     -15.504  -7.958  -0.884  1.00  0.00     0.198 A 
ATOM     64  C   UNL     1     -16.394  -5.990  -1.935  1.00  0.00     0.198 A 
ATOM     65  F   UNL     1     -15.177  -3.978  -1.888  1.00  0.00    -0.203 F 
ATOM     66  F   UNL     1     -15.598  -9.263  -0.596  1.00  0.00    -0.200 F 
ATOM     67  C   UNL     1     -16.508  -7.333  -1.610  1.00  0.00     0.200 A 
ATOM     68  F   UNL     1     -17.369  -5.382  -2.625  1.00  0.00    -0.200 F 
ATOM     69  F   UNL     1     -17.583  -8.030  -2.003  1.00  0.00    -0.200 F 
ENDBRANCH  36  59
ENDBRANCH  10  11
ENDBRANCH   3   5
ENDBRANCH   2   3
ENDBRANCH   1   2
BRANCH   1  70
ATOM     70  C   UNL     1      -1.899   2.277  -0.061  1.00  0.00     0.274 C 
BRANCH  70  71
ATOM     71  O   UNL     1      -2.219   0.902   0.178  1.00  0.00    -0.462 OA
BRANCH  71  72
ATOM     72  C   UNL     1      -1.177   0.082   0.521  1.00  0.00     0.312 C 
ATOM     73  O   UNL     1       0.004   0.386   0.457  1.00  0.00    -0.252 OA
BRANCH  72  74
ATOM     74  C   UNL     1      -1.708  -1.206   1.138  1.00  0.00     0.124 C 
ATOM     75  C   UNL     1      -2.867  -1.770   0.383  1.00  0.00    -0.014 C 
ATOM     76  C   UNL     1      -0.719  -2.373   1.143  1.00  0.00     0.048 C 
ATOM     77  C   UNL     1      -2.798  -3.096   0.261  1.00  0.00    -0.006 C 
ATOM     78  C   UNL     1      -1.548  -3.637   0.865  1.00  0.00     0.106 C 
BRANCH  78  79
ATOM     79  N   UNL     1      -0.937  -4.483  -0.130  1.00  0.00    -0.345 N 
ATOM     80  C   UNL     1      -0.836  -5.847  -0.144  1.00  0.00     0.279 C 
ATOM     81  H   UNL     1      -0.540  -4.018  -0.901  1.00  0.00     0.164 HD
ATOM     82  O   UNL     1      -0.416  -6.377  -1.173  1.00  0.00    -0.268 OA
BRANCH  80  83
ATOM     83  C   UNL     1      -1.184  -6.641   1.132  1.00  0.00     0.283 C 
ATOM     84  C   UNL     1      -0.758  -8.114   1.042  1.00  0.00     0.150 C 
ATOM     85  N   UNL     1      -2.641  -6.542   1.443  1.00  0.00    -0.327 N 
ATOM     86  S   UNL     1      -2.292  -9.077   0.980  1.00  0.00    -0.096 SA
ATOM     87  C   UNL     1      -3.304  -7.619   0.714  1.00  0.00     0.333 C 
ATOM     88  H   UNL     1      -3.004  -5.638   1.140  1.00  0.00     0.347 HD
ATOM     89  H   UNL     1      -2.807  -6.625   2.446  1.00  0.00     0.347 HD
ENDBRANCH  80  83
ENDBRANCH  78  79
ENDBRANCH  72  74
ENDBRANCH  71  72
ENDBRANCH  70  71
ENDBRANCH   1  70
TORSDOF 13
