REMARK SMILES CC1(C)C(C(=O)N2CCOC[C@H]2C(=O)OCCOC(=O)c2ccc(-c3c4nc(c(-c5c(F)c(F)c(F)c(F)c5F)c5ccc([nH]5)c(-c5c(F)c(F)c(F)c(F)c5F)c5nc(c(-c6c(F)c(F)c(F)c(F)c6F)c6ccc3[nH]6)C=C5)C=C4)cc2)C1(C)C
REMARK SMILES IDX 16 1 15 2 13 3 14 4 12 5 7 6 8 7 9 8 11 9 10 10 5 11 6 12
REMARK SMILES IDX 4 13 1 14 2 15 3 16 84 17 85 18 86 19 17 20 18 21 19 22
REMARK SMILES IDX 20 23 21 24 22 25 83 26 23 27 82 28 24 29 25 30 26 31 76 32
REMARK SMILES IDX 27 33 81 34 75 35 77 36 28 37 80 38 74 39 73 40 29 42 61 43
REMARK SMILES IDX 41 44 60 45 42 46 45 47 59 48 78 49 43 50 44 51 58 53 79 54
REMARK SMILES IDX 46 55 30 56 31 57 39 58 32 59 33 60 37 61 40 62 34 63 35 64
REMARK SMILES IDX 38 65 36 66 62 67 63 68 71 69 64 70 65 71 69 72 72 73 66 74
REMARK SMILES IDX 67 75 70 76 68 77 47 78 48 79 56 80 49 81 50 82 54 83 57 84
REMARK SMILES IDX 51 85 52 86 55 87 53 88
REMARK H PARENT 77 41 45 52
REMARK Flexibility Score: inf
ROOT
ATOM      1  C   UNL     1      -3.986   4.717  -5.359  1.00  0.00     0.274 C 
ENDROOT
BRANCH   1   2
ATOM      2  O   UNL     1      -3.045   3.702  -4.963  1.00  0.00    -0.460 OA
BRANCH   2   3
ATOM      3  C   UNL     1      -2.071   3.377  -5.851  1.00  0.00     0.331 C 
ATOM      4  O   UNL     1      -1.946   3.899  -6.957  1.00  0.00    -0.250 OA
BRANCH   3   5
ATOM      5  C   UNL     1      -1.231   2.165  -5.420  1.00  0.00     0.221 C 
ATOM      6  N   UNL     1      -1.040   1.853  -3.982  1.00  0.00    -0.324 N 
ATOM      7  C   UNL     1      -2.229   1.369  -3.295  1.00  0.00     0.149 C 
ATOM      8  C   UNL     1      -2.894   0.233  -4.091  1.00  0.00     0.181 C 
ATOM      9  C   UNL     1      -1.851   0.941  -6.105  1.00  0.00     0.197 C 
ATOM     10  O   UNL     1      -3.091   0.573  -5.474  1.00  0.00    -0.377 OA
BRANCH   6  11
ATOM     11  C   UNL     1       0.244   1.963  -3.474  1.00  0.00     0.227 C 
ATOM     12  O   UNL     1       1.105   2.585  -4.099  1.00  0.00    -0.275 OA
BRANCH  11  13
ATOM     13  C   UNL     1       0.736   1.298  -2.224  1.00  0.00     0.091 C 
ATOM     14  C   UNL     1       1.180   0.075   0.008  1.00  0.00     0.012 C 
ATOM     15  C   UNL     1       0.562   0.032  -1.390  1.00  0.00    -0.017 C 
ATOM     16  C   UNL     1      -0.688  -0.806  -1.350  1.00  0.00     0.012 C 
ATOM     17  C   UNL     1       1.502  -0.018  -2.584  1.00  0.00    -0.017 C 
ATOM     18  C   UNL     1       3.003  -0.031  -2.408  1.00  0.00     0.012 C 
ATOM     19  C   UNL     1       1.097  -0.787  -3.832  1.00  0.00     0.012 C 
ENDBRANCH  11  13
ENDBRANCH   6  11
ENDBRANCH   3   5
ENDBRANCH   2   3
ENDBRANCH   1   2
BRANCH   1  20
ATOM     20  C   UNL     1      -3.772   5.994  -4.547  1.00  0.00     0.275 C 
BRANCH  20  21
ATOM     21  O   UNL     1      -2.502   6.589  -4.860  1.00  0.00    -0.458 OA
BRANCH  21  22
ATOM     22  C   UNL     1      -1.468   6.152  -4.101  1.00  0.00     0.338 C 
ATOM     23  O   UNL     1      -1.510   5.399  -3.146  1.00  0.00    -0.246 OA
BRANCH  22  24
ATOM     24  C   UNL     1      -0.215   6.636  -4.698  1.00  0.00     0.060 A 
ATOM     25  C   UNL     1       0.683   5.692  -5.199  1.00  0.00     0.016 A 
ATOM     26  C   UNL     1       0.097   7.995  -4.708  1.00  0.00     0.016 A 
ATOM     27  C   UNL     1       1.917   6.098  -5.695  1.00  0.00     0.010 A 
ATOM     28  C   UNL     1       1.333   8.403  -5.215  1.00  0.00     0.010 A 
ATOM     29  C   UNL     1       2.255   7.455  -5.695  1.00  0.00    -0.014 A 
BRANCH  29  30
ATOM     30  C   UNL     1       3.604   7.878  -6.130  1.00  0.00     0.031 A 
ATOM     31  C   UNL     1       4.610   8.304  -5.103  1.00  0.00     0.074 A 
ATOM     32  C   UNL     1       3.924   7.870  -7.436  1.00  0.00     0.049 A 
ATOM     33  N   UNL     1       5.802   8.817  -5.271  1.00  0.00    -0.248 NA
ATOM     34  C   UNL     1       4.217   8.136  -3.696  1.00  0.00     0.031 C 
ATOM     35  C   UNL     1       3.044   7.425  -8.516  1.00  0.00     0.029 A 
ATOM     36  N   UNL     1       5.075   8.255  -8.074  1.00  0.00    -0.354 N 
ATOM     37  C   UNL     1       6.291   9.055  -3.994  1.00  0.00     0.074 A 
ATOM     38  C   UNL     1       5.262   8.648  -3.061  1.00  0.00     0.031 C 
ATOM     39  C   UNL     1       3.686   7.567  -9.687  1.00  0.00     0.029 A 
ATOM     40  C   UNL     1       5.000   8.157  -9.441  1.00  0.00     0.049 A 
ATOM     41  H   UNL     1       5.876   8.572  -7.598  1.00  0.00     0.167 HD
ATOM     42  C   UNL     1       7.494   9.566  -3.637  1.00  0.00     0.037 A 
ATOM     43  C   UNL     1       5.882   8.532 -10.387  1.00  0.00     0.037 A 
ATOM     44  C   UNL     1       8.518   9.950  -4.573  1.00  0.00     0.049 A 
ATOM     45  C   UNL     1       7.189   9.149  -9.967  1.00  0.00     0.074 A 
ATOM     46  C   UNL     1       9.776  10.463  -4.315  1.00  0.00     0.029 A 
ATOM     47  N   UNL     1       8.398   9.859  -5.953  1.00  0.00    -0.354 N 
ATOM     48  N   UNL     1       7.643   9.383  -8.760  1.00  0.00    -0.248 NA
ATOM     49  C   UNL     1       8.103   9.558 -11.042  1.00  0.00     0.031 C 
ATOM     50  C   UNL     1      10.402  10.724  -5.540  1.00  0.00     0.029 A 
ATOM     51  C   UNL     1       9.552  10.327  -6.561  1.00  0.00     0.049 A 
ATOM     52  H   UNL     1       7.609   9.512  -6.430  1.00  0.00     0.167 HD
ATOM     53  C   UNL     1       8.901   9.945  -8.926  1.00  0.00     0.074 A 
ATOM     54  C   UNL     1       9.144  10.005 -10.353  1.00  0.00     0.031 C 
ATOM     55  C   UNL     1       9.776  10.373  -7.983  1.00  0.00     0.037 A 
BRANCH  42  56
ATOM     56  C   UNL     1       7.749   9.773  -2.174  1.00  0.00     0.064 A 
ATOM     57  C   UNL     1       7.964   8.697  -1.300  1.00  0.00     0.173 A 
ATOM     58  C   UNL     1       7.799  11.070  -1.642  1.00  0.00     0.173 A 
ATOM     59  F   UNL     1       7.912   7.436  -1.755  1.00  0.00    -0.203 F 
ATOM     60  C   UNL     1       8.190   8.911   0.058  1.00  0.00     0.198 A 
ATOM     61  C   UNL     1       8.053  11.282  -0.289  1.00  0.00     0.198 A 
ATOM     62  F   UNL     1       7.604  12.134  -2.435  1.00  0.00    -0.203 F 
ATOM     63  F   UNL     1       8.344   7.867   0.884  1.00  0.00    -0.200 F 
ATOM     64  C   UNL     1       8.241  10.203   0.560  1.00  0.00     0.200 A 
ATOM     65  F   UNL     1       8.113  12.532   0.192  1.00  0.00    -0.200 F 
ATOM     66  F   UNL     1       8.462  10.408   1.866  1.00  0.00    -0.200 F 
ENDBRANCH  42  56
BRANCH  43  67
ATOM     67  C   UNL     1       5.545   8.350 -11.822  1.00  0.00     0.064 A 
ATOM     68  C   UNL     1       6.218   7.405 -12.607  1.00  0.00     0.173 A 
ATOM     69  C   UNL     1       4.538   9.111 -12.434  1.00  0.00     0.173 A 
ATOM     70  F   UNL     1       7.206   6.672 -12.073  1.00  0.00    -0.203 F 
ATOM     71  C   UNL     1       5.905   7.236 -13.954  1.00  0.00     0.198 A 
ATOM     72  C   UNL     1       4.207   8.922 -13.774  1.00  0.00     0.198 A 
ATOM     73  F   UNL     1       3.867  10.031 -11.726  1.00  0.00    -0.203 F 
ATOM     74  F   UNL     1       6.590   6.353 -14.694  1.00  0.00    -0.200 F 
ATOM     75  C   UNL     1       4.894   7.989 -14.534  1.00  0.00     0.200 A 
ATOM     76  F   UNL     1       3.223   9.644 -14.327  1.00  0.00    -0.200 F 
ATOM     77  F   UNL     1       4.588   7.820 -15.828  1.00  0.00    -0.200 F 
ENDBRANCH  43  67
BRANCH  55  78
ATOM     78  C   UNL     1      11.091  10.914  -8.464  1.00  0.00     0.064 A 
ATOM     79  C   UNL     1      11.189  12.171  -9.077  1.00  0.00     0.173 A 
ATOM     80  C   UNL     1      12.272  10.182  -8.270  1.00  0.00     0.173 A 
ATOM     81  F   UNL     1      10.086  12.902  -9.298  1.00  0.00    -0.203 F 
ATOM     82  C   UNL     1      12.420  12.667  -9.498  1.00  0.00     0.198 A 
ATOM     83  C   UNL     1      13.504  10.692  -8.667  1.00  0.00     0.198 A 
ATOM     84  F   UNL     1      12.231   8.976  -7.682  1.00  0.00    -0.203 F 
ATOM     85  F   UNL     1      12.486  13.852 -10.120  1.00  0.00    -0.200 F 
ATOM     86  C   UNL     1      13.576  11.931  -9.286  1.00  0.00     0.200 A 
ATOM     87  F   UNL     1      14.622   9.985  -8.451  1.00  0.00    -0.200 F 
ATOM     88  F   UNL     1      14.761  12.413  -9.686  1.00  0.00    -0.200 F 
ENDBRANCH  55  78
ENDBRANCH  29  30
ENDBRANCH  22  24
ENDBRANCH  21  22
ENDBRANCH  20  21
ENDBRANCH   1  20
TORSDOF 13
