REMARK SMILES Cc1ccc(C)c([C@H]2[NH2+][C@@H](C(=O)OCCOC(=O)c3ccc(-c4c5nc(c(-c6c(F)c(F)c(F)c(F)c6F)c6ccc([nH]6)c(-c6c(F)c(F)c(F)c(F)c6F)c6nc(c(-c7c(F)c(F)c(F)c(F)c7F)c7ccc4[nH]7)C=C6)C=C5)cc3)Cc3c2[nH]c2ccccc32)c1
REMARK SMILES IDX 15 1 14 2 13 3 11 4 12 5 10 6 8 7 9 8 84 9 83 12 85 13 82 14
REMARK SMILES IDX 91 15 86 16 90 18 87 19 89 20 88 21 7 22 1 23 2 24 3 25
REMARK SMILES IDX 92 26 4 27 5 28 6 29 16 30 17 31 18 32 19 33 20 34 81 35
REMARK SMILES IDX 21 36 80 37 22 38 23 39 24 40 74 41 25 42 79 43 73 44 75 45
REMARK SMILES IDX 26 46 78 47 72 48 71 49 27 51 59 52 39 53 58 54 40 55 43 56
REMARK SMILES IDX 57 57 76 58 41 59 42 60 56 62 77 63 44 64 28 65 29 66 37 67
REMARK SMILES IDX 30 68 31 69 35 70 38 71 32 72 33 73 36 74 34 75 60 76 61 77
REMARK SMILES IDX 69 78 62 79 63 80 67 81 70 82 64 83 65 84 68 85 66 86 45 87
REMARK SMILES IDX 46 88 54 89 47 90 48 91 52 92 55 93 49 94 50 95 53 96 51 97
REMARK H PARENT 9 10 9 11 85 17 75 50 43 61
REMARK Flexibility Score: inf
ROOT
ATOM      1  C   UNL     1      -0.039   9.233  -1.984  1.00  0.00     0.275 C 
ENDROOT
BRANCH   1   2
ATOM      2  C   UNL     1      -1.158   8.747  -1.067  1.00  0.00     0.274 C 
BRANCH   2   3
ATOM      3  O   UNL     1      -0.755   7.548  -0.406  1.00  0.00    -0.458 OA
BRANCH   3   4
ATOM      4  C   UNL     1      -1.669   6.545  -0.451  1.00  0.00     0.365 C 
ATOM      5  O   UNL     1      -2.801   6.642  -0.911  1.00  0.00    -0.245 OA
BRANCH   4   6
ATOM      6  C   UNL     1      -1.170   5.311   0.271  1.00  0.00     0.298 C 
ATOM      7  C   UNL     1      -1.448   2.807   0.189  1.00  0.00     0.262 C 
ATOM      8  N   UNL     1      -1.564   4.113  -0.509  1.00  0.00    -0.323 N 
ATOM      9  C   UNL     1      -1.633   2.976   1.683  1.00  0.00     0.083 A 
ATOM     10  H   UNL     1      -2.538   4.230  -0.789  1.00  0.00     0.347 HD
ATOM     11  H   UNL     1      -0.906   4.065  -1.287  1.00  0.00     0.347 HD
ATOM     12  C   UNL     1      -1.772   4.174   2.351  1.00  0.00    -0.006 A 
ATOM     13  N   UNL     1      -1.533   2.001   2.649  1.00  0.00    -0.353 N 
ATOM     14  C   UNL     1      -1.855   5.450   1.634  1.00  0.00     0.115 C 
ATOM     15  C   UNL     1      -1.741   3.949   3.738  1.00  0.00     0.003 A 
ATOM     16  C   UNL     1      -1.587   2.575   3.912  1.00  0.00     0.046 A 
ATOM     17  H   UNL     1      -1.437   1.037   2.471  1.00  0.00     0.166 HD
ATOM     18  C   UNL     1      -1.794   4.802   4.856  1.00  0.00     0.010 A 
ATOM     19  C   UNL     1      -1.493   2.011   5.190  1.00  0.00     0.026 A 
ATOM     20  C   UNL     1      -1.689   4.255   6.133  1.00  0.00     0.001 A 
ATOM     21  C   UNL     1      -1.543   2.879   6.294  1.00  0.00     0.002 A 
BRANCH   7  22
ATOM     22  C   UNL     1      -2.416   1.861  -0.543  1.00  0.00     0.019 A 
ATOM     23  C   UNL     1      -6.018   0.600  -0.150  1.00  0.00     0.044 C 
ATOM     24  C   UNL     1      -4.670   0.892  -0.738  1.00  0.00    -0.051 A 
ATOM     25  C   UNL     1      -4.405   0.533  -2.059  1.00  0.00     0.004 A 
ATOM     26  C   UNL     1      -3.687   1.571  -0.000  1.00  0.00     0.014 A 
ATOM     27  C   UNL     1      -3.158   0.795  -2.616  1.00  0.00     0.004 A 
ATOM     28  C   UNL     1      -2.148   1.435  -1.873  1.00  0.00    -0.042 A 
ATOM     29  C   UNL     1      -0.855   1.698  -2.603  1.00  0.00     0.045 C 
ENDBRANCH   7  22
ENDBRANCH   4   6
ENDBRANCH   3   4
ENDBRANCH   2   3
ENDBRANCH   1   2
BRANCH   1  30
ATOM     30  O   UNL     1       0.711   8.229  -2.732  1.00  0.00    -0.458 OA
BRANCH  30  31
ATOM     31  C   UNL     1       0.304   7.064  -3.301  1.00  0.00     0.338 C 
ATOM     32  O   UNL     1       1.067   6.125  -3.443  1.00  0.00    -0.246 OA
BRANCH  31  33
ATOM     33  C   UNL     1      -1.102   6.947  -3.745  1.00  0.00     0.060 A 
ATOM     34  C   UNL     1      -1.738   5.696  -3.695  1.00  0.00     0.016 A 
ATOM     35  C   UNL     1      -1.813   8.075  -4.129  1.00  0.00     0.016 A 
ATOM     36  C   UNL     1      -3.119   5.602  -3.888  1.00  0.00     0.010 A 
ATOM     37  C   UNL     1      -3.190   8.002  -4.194  1.00  0.00     0.010 A 
ATOM     38  C   UNL     1      -3.855   6.769  -4.096  1.00  0.00    -0.014 A 
BRANCH  38  39
ATOM     39  C   UNL     1      -5.319   6.743  -4.210  1.00  0.00     0.031 A 
ATOM     40  C   UNL     1      -6.156   6.271  -3.053  1.00  0.00     0.074 A 
ATOM     41  C   UNL     1      -5.921   7.402  -5.224  1.00  0.00     0.049 A 
ATOM     42  N   UNL     1      -7.163   5.449  -3.070  1.00  0.00    -0.248 NA
ATOM     43  C   UNL     1      -5.879   6.812  -1.715  1.00  0.00     0.031 C 
ATOM     44  C   UNL     1      -5.295   8.189  -6.297  1.00  0.00     0.029 A 
ATOM     45  N   UNL     1      -7.248   7.625  -5.421  1.00  0.00    -0.354 N 
ATOM     46  C   UNL     1      -7.718   5.448  -1.784  1.00  0.00     0.074 A 
ATOM     47  C   UNL     1      -6.849   6.265  -0.978  1.00  0.00     0.031 C 
ATOM     48  C   UNL     1      -6.218   8.994  -6.861  1.00  0.00     0.029 A 
ATOM     49  C   UNL     1      -7.517   8.629  -6.334  1.00  0.00     0.049 A 
ATOM     50  H   UNL     1      -7.953   7.119  -4.955  1.00  0.00     0.167 HD
ATOM     51  C   UNL     1      -8.933   4.882  -1.511  1.00  0.00     0.037 A 
ATOM     52  C   UNL     1      -8.723   9.149  -6.643  1.00  0.00     0.037 A 
ATOM     53  C   UNL     1      -9.312   3.943  -2.531  1.00  0.00     0.049 A 
ATOM     54  C   UNL     1      -9.749   8.156  -6.259  1.00  0.00     0.074 A 
ATOM     55  C   UNL     1      -8.776   2.768  -3.020  1.00  0.00     0.029 A 
ATOM     56  N   UNL     1     -10.273   4.301  -3.442  1.00  0.00    -0.354 N 
ATOM     57  N   UNL     1      -9.881   6.990  -6.830  1.00  0.00    -0.248 NA
ATOM     58  C   UNL     1     -10.370   8.288  -4.951  1.00  0.00     0.031 C 
ATOM     59  C   UNL     1      -9.052   2.799  -4.419  1.00  0.00     0.029 A 
ATOM     60  C   UNL     1      -9.769   3.969  -4.671  1.00  0.00     0.049 A 
ATOM     61  H   UNL     1     -11.147   4.712  -3.251  1.00  0.00     0.167 HD
ATOM     62  C   UNL     1     -10.225   6.130  -5.799  1.00  0.00     0.074 A 
ATOM     63  C   UNL     1     -10.619   7.002  -4.695  1.00  0.00     0.031 C 
ATOM     64  C   UNL     1      -9.899   4.804  -5.840  1.00  0.00     0.037 A 
BRANCH  51  65
ATOM     65  C   UNL     1      -9.935   5.347  -0.471  1.00  0.00     0.064 A 
ATOM     66  C   UNL     1     -11.116   4.595  -0.260  1.00  0.00     0.173 A 
ATOM     67  C   UNL     1      -9.944   6.642   0.084  1.00  0.00     0.173 A 
ATOM     68  F   UNL     1     -11.227   3.343  -0.732  1.00  0.00    -0.203 F 
ATOM     69  C   UNL     1     -12.250   5.139   0.351  1.00  0.00     0.198 A 
ATOM     70  C   UNL     1     -11.063   7.165   0.740  1.00  0.00     0.198 A 
ATOM     71  F   UNL     1      -8.918   7.486  -0.075  1.00  0.00    -0.203 F 
ATOM     72  F   UNL     1     -13.387   4.431   0.398  1.00  0.00    -0.200 F 
ATOM     73  C   UNL     1     -12.227   6.430   0.838  1.00  0.00     0.200 A 
ATOM     74  F   UNL     1     -11.028   8.423   1.203  1.00  0.00    -0.200 F 
ATOM     75  F   UNL     1     -13.332   6.981   1.358  1.00  0.00    -0.200 F 
ENDBRANCH  51  65
BRANCH  52  76
ATOM     76  C   UNL     1      -9.012  10.547  -7.009  1.00  0.00     0.064 A 
ATOM     77  C   UNL     1     -10.129  10.890  -7.779  1.00  0.00     0.173 A 
ATOM     78  C   UNL     1      -8.302  11.606  -6.407  1.00  0.00     0.173 A 
ATOM     79  F   UNL     1     -10.875   9.931  -8.345  1.00  0.00    -0.203 F 
ATOM     80  C   UNL     1     -10.521  12.222  -7.934  1.00  0.00     0.198 A 
ATOM     81  C   UNL     1      -8.691  12.935  -6.566  1.00  0.00     0.198 A 
ATOM     82  F   UNL     1      -7.268  11.361  -5.588  1.00  0.00    -0.203 F 
ATOM     83  F   UNL     1     -11.620  12.516  -8.642  1.00  0.00    -0.200 F 
ATOM     84  C   UNL     1      -9.807  13.242  -7.322  1.00  0.00     0.200 A 
ATOM     85  F   UNL     1      -8.012  13.907  -5.941  1.00  0.00    -0.200 F 
ATOM     86  F   UNL     1     -10.214  14.514  -7.430  1.00  0.00    -0.200 F 
ENDBRANCH  52  76
BRANCH  64  87
ATOM     87  C   UNL     1      -9.353   4.236  -7.120  1.00  0.00     0.064 A 
ATOM     88  C   UNL     1      -8.123   4.622  -7.679  1.00  0.00     0.173 A 
ATOM     89  C   UNL     1      -9.992   3.125  -7.687  1.00  0.00     0.173 A 
ATOM     90  F   UNL     1      -7.396   5.600  -7.134  1.00  0.00    -0.203 F 
ATOM     91  C   UNL     1      -7.575   3.951  -8.770  1.00  0.00     0.198 A 
ATOM     92  C   UNL     1      -9.426   2.434  -8.756  1.00  0.00     0.198 A 
ATOM     93  F   UNL     1     -11.137   2.666  -7.157  1.00  0.00    -0.203 F 
ATOM     94  F   UNL     1      -6.396   4.342  -9.277  1.00  0.00    -0.200 F 
ATOM     95  C   UNL     1      -8.223   2.851  -9.302  1.00  0.00     0.200 A 
ATOM     96  F   UNL     1     -10.030   1.337  -9.233  1.00  0.00    -0.200 F 
ATOM     97  F   UNL     1      -7.672   2.172 -10.318  1.00  0.00    -0.200 F 
ENDBRANCH  64  87
ENDBRANCH  38  39
ENDBRANCH  31  33
ENDBRANCH  30  31
ENDBRANCH   1  30
TORSDOF 12
