REMARK SMILES Cc1ccccc1OCC(=O)N1C[C@H](O)C[C@H]1C(=O)OCCOC(=O)c1ccc(-c2c3nc(c(-c4c(F)c(F)c(F)c(F)c4F)c4ccc([nH]4)c(-c4c(F)c(F)c(F)c(F)c4F)c4nc(c(-c5c(F)c(F)c(F)c(F)c5F)c5ccc2[nH]5)C=C4)C=C3)cc1
REMARK SMILES IDX 21 1 20 2 18 3 19 4 17 5 12 6 13 7 14 8 16 9 10 10 11 11
REMARK SMILES IDX 9 12 8 13 7 14 1 15 2 16 3 17 4 18 6 19 5 20 15 21 22 23
REMARK SMILES IDX 23 24 24 25 25 26 26 27 27 28 88 29 28 30 87 31 29 32 30 33
REMARK SMILES IDX 31 34 81 35 32 36 86 37 80 38 82 39 33 40 85 41 79 42 78 43
REMARK SMILES IDX 34 45 66 46 46 47 65 48 47 49 50 50 64 51 83 52 48 53 49 54
REMARK SMILES IDX 63 56 84 57 51 58 35 59 36 60 44 61 37 62 38 63 42 64 45 65
REMARK SMILES IDX 39 66 40 67 43 68 41 69 67 70 68 71 76 72 69 73 70 74 74 75
REMARK SMILES IDX 77 76 71 77 72 78 75 79 73 80 52 81 53 82 61 83 54 84 55 85
REMARK SMILES IDX 59 86 62 87 56 88 57 89 60 90 58 91
REMARK H PARENT 15 22 82 44 50 55
REMARK Flexibility Score: inf
ROOT
ATOM      1  C   UNL     1       3.486  -1.465   2.570  1.00  0.00     0.274 C 
ENDROOT
BRANCH   1   2
ATOM      2  O   UNL     1       3.079  -0.103   2.466  1.00  0.00    -0.461 OA
BRANCH   2   3
ATOM      3  C   UNL     1       2.246   0.344   3.445  1.00  0.00     0.329 C 
ATOM      4  O   UNL     1       1.757  -0.383   4.301  1.00  0.00    -0.250 OA
BRANCH   3   5
ATOM      5  C   UNL     1       2.146   1.883   3.428  1.00  0.00     0.198 C 
ATOM      6  N   UNL     1       1.670   2.391   2.143  1.00  0.00    -0.323 N 
ATOM      7  C   UNL     1       0.393   3.071   2.298  1.00  0.00     0.152 C 
ATOM      8  C   UNL     1       0.467   3.584   3.734  1.00  0.00     0.136 C 
ATOM      9  C   UNL     1       1.168   2.447   4.470  1.00  0.00     0.070 C 
BRANCH   6  10
ATOM     10  C   UNL     1       2.492   2.420   1.042  1.00  0.00     0.261 C 
ATOM     11  O   UNL     1       3.700   2.200   1.149  1.00  0.00    -0.271 OA
BRANCH  10  12
ATOM     12  C   UNL     1       1.893   2.805  -0.316  1.00  0.00     0.329 C 
BRANCH  12  13
ATOM     13  O   UNL     1       0.613   2.390  -0.742  1.00  0.00    -0.484 OA
BRANCH  13  14
ATOM     14  C   UNL     1       0.149   1.131  -0.495  1.00  0.00     0.122 A 
ATOM     15  C   UNL     1       2.285  -0.263  -0.873  1.00  0.00     0.048 C 
ATOM     16  C   UNL     1       0.843  -0.085  -0.506  1.00  0.00    -0.009 A 
ATOM     17  C   UNL     1       0.135  -1.263  -0.174  1.00  0.00     0.007 A 
ATOM     18  C   UNL     1      -1.236  -1.248   0.085  1.00  0.00     0.001 A 
ATOM     19  C   UNL     1      -1.238   1.125  -0.268  1.00  0.00     0.047 A 
ATOM     20  C   UNL     1      -1.929  -0.049   0.021  1.00  0.00     0.004 A 
ENDBRANCH  13  14
ENDBRANCH  12  13
ENDBRANCH  10  12
ENDBRANCH   6  10
BRANCH   8  21
ATOM     21  O   UNL     1       1.264   4.767   3.809  1.00  0.00    -0.391 OA
ATOM     22  H   UNL     1       2.148   4.585   3.453  1.00  0.00     0.211 HD
ENDBRANCH   8  21
ENDBRANCH   3   5
ENDBRANCH   2   3
ENDBRANCH   1   2
BRANCH   1  23
ATOM     23  C   UNL     1       4.654  -1.788   1.620  1.00  0.00     0.275 C 
BRANCH  23  24
ATOM     24  O   UNL     1       5.489  -0.703   1.114  1.00  0.00    -0.458 OA
BRANCH  24  25
ATOM     25  C   UNL     1       6.196   0.257   1.769  1.00  0.00     0.338 C 
ATOM     26  O   UNL     1       6.912   1.059   1.200  1.00  0.00    -0.246 OA
BRANCH  25  27
ATOM     27  C   UNL     1       6.062   0.302   3.231  1.00  0.00     0.060 A 
ATOM     28  C   UNL     1       5.669   1.489   3.868  1.00  0.00     0.016 A 
ATOM     29  C   UNL     1       6.260  -0.866   3.949  1.00  0.00     0.016 A 
ATOM     30  C   UNL     1       5.319   1.469   5.222  1.00  0.00     0.010 A 
ATOM     31  C   UNL     1       5.819  -0.911   5.250  1.00  0.00     0.010 A 
ATOM     32  C   UNL     1       5.356   0.251   5.898  1.00  0.00    -0.014 A 
BRANCH  32  33
ATOM     33  C   UNL     1       5.110   0.063   7.326  1.00  0.00     0.031 A 
ATOM     34  C   UNL     1       3.776   0.075   7.959  1.00  0.00     0.074 A 
ATOM     35  C   UNL     1       6.215  -0.327   7.993  1.00  0.00     0.049 A 
ATOM     36  N   UNL     1       3.570  -0.077   9.223  1.00  0.00    -0.248 NA
ATOM     37  C   UNL     1       2.541   0.308   7.231  1.00  0.00     0.031 C 
ATOM     38  C   UNL     1       6.359  -0.980   9.281  1.00  0.00     0.029 A 
ATOM     39  N   UNL     1       7.530  -0.011   7.613  1.00  0.00    -0.354 N 
ATOM     40  C   UNL     1       2.212  -0.217   9.436  1.00  0.00     0.074 A 
ATOM     41  C   UNL     1       1.611   0.118   8.174  1.00  0.00     0.031 C 
ATOM     42  C   UNL     1       7.609  -0.757   9.729  1.00  0.00     0.029 A 
ATOM     43  C   UNL     1       8.209   0.211   8.817  1.00  0.00     0.049 A 
ATOM     44  H   UNL     1       7.895   0.042   6.700  1.00  0.00     0.167 HD
ATOM     45  C   UNL     1       1.799  -0.712  10.640  1.00  0.00     0.037 A 
ATOM     46  C   UNL     1       8.543   1.493   9.156  1.00  0.00     0.037 A 
ATOM     47  C   UNL     1       2.914  -0.665  11.584  1.00  0.00     0.049 A 
ATOM     48  C   UNL     1       7.918   1.891  10.466  1.00  0.00     0.074 A 
ATOM     49  C   UNL     1       3.830  -1.614  12.001  1.00  0.00     0.029 A 
ATOM     50  N   UNL     1       3.420   0.577  11.961  1.00  0.00    -0.354 N 
ATOM     51  N   UNL     1       6.726   1.528  10.857  1.00  0.00    -0.248 NA
ATOM     52  C   UNL     1       8.646   2.663  11.464  1.00  0.00     0.031 C 
ATOM     53  C   UNL     1       4.959  -0.919  12.513  1.00  0.00     0.029 A 
ATOM     54  C   UNL     1       4.700   0.443  12.458  1.00  0.00     0.049 A 
ATOM     55  H   UNL     1       2.933   1.430  11.883  1.00  0.00     0.167 HD
ATOM     56  C   UNL     1       6.554   1.927  12.157  1.00  0.00     0.074 A 
ATOM     57  C   UNL     1       7.770   2.654  12.482  1.00  0.00     0.031 C 
ATOM     58  C   UNL     1       5.458   1.600  12.903  1.00  0.00     0.037 A 
BRANCH  45  59
ATOM     59  C   UNL     1       0.498  -1.447  10.938  1.00  0.00     0.064 A 
ATOM     60  C   UNL     1       0.358  -2.164  12.154  1.00  0.00     0.173 A 
ATOM     61  C   UNL     1      -0.587  -1.608  10.053  1.00  0.00     0.173 A 
ATOM     62  F   UNL     1       1.280  -2.081  13.123  1.00  0.00    -0.203 F 
ATOM     63  C   UNL     1      -0.725  -3.014  12.418  1.00  0.00     0.198 A 
ATOM     64  C   UNL     1      -1.677  -2.448  10.324  1.00  0.00     0.198 A 
ATOM     65  F   UNL     1      -0.653  -0.973   8.882  1.00  0.00    -0.203 F 
ATOM     66  F   UNL     1      -0.767  -3.702  13.569  1.00  0.00    -0.200 F 
ATOM     67  C   UNL     1      -1.738  -3.165  11.497  1.00  0.00     0.200 A 
ATOM     68  F   UNL     1      -2.661  -2.567   9.419  1.00  0.00    -0.200 F 
ATOM     69  F   UNL     1      -2.764  -3.992  11.737  1.00  0.00    -0.200 F 
ENDBRANCH  45  59
BRANCH  46  70
ATOM     70  C   UNL     1       8.723   2.404   7.979  1.00  0.00     0.064 A 
ATOM     71  C   UNL     1       9.650   2.044   6.975  1.00  0.00     0.173 A 
ATOM     72  C   UNL     1       7.802   3.410   7.658  1.00  0.00     0.173 A 
ATOM     73  F   UNL     1      10.560   1.085   7.218  1.00  0.00    -0.203 F 
ATOM     74  C   UNL     1       9.582   2.575   5.687  1.00  0.00     0.198 A 
ATOM     75  C   UNL     1       7.750   3.955   6.370  1.00  0.00     0.198 A 
ATOM     76  F   UNL     1       6.894   3.815   8.556  1.00  0.00    -0.203 F 
ATOM     77  F   UNL     1      10.410   2.125   4.734  1.00  0.00    -0.200 F 
ATOM     78  C   UNL     1       8.617   3.517   5.380  1.00  0.00     0.200 A 
ATOM     79  F   UNL     1       6.807   4.860   6.066  1.00  0.00    -0.200 F 
ATOM     80  F   UNL     1       8.504   3.983   4.128  1.00  0.00    -0.200 F 
ENDBRANCH  46  70
BRANCH  58  81
ATOM     81  C   UNL     1       5.076   2.266  14.201  1.00  0.00     0.064 A 
ATOM     82  C   UNL     1       5.427   3.588  14.522  1.00  0.00     0.173 A 
ATOM     83  C   UNL     1       4.192   1.633  15.107  1.00  0.00     0.173 A 
ATOM     84  F   UNL     1       6.141   4.346  13.678  1.00  0.00    -0.203 F 
ATOM     85  C   UNL     1       5.001   4.201  15.701  1.00  0.00     0.198 A 
ATOM     86  C   UNL     1       3.716   2.271  16.251  1.00  0.00     0.198 A 
ATOM     87  F   UNL     1       3.736   0.390  14.895  1.00  0.00    -0.203 F 
ATOM     88  F   UNL     1       5.410   5.445  15.985  1.00  0.00    -0.200 F 
ATOM     89  C   UNL     1       4.138   3.547  16.559  1.00  0.00     0.200 A 
ATOM     90  F   UNL     1       2.828   1.649  17.039  1.00  0.00    -0.200 F 
ATOM     91  F   UNL     1       3.693   4.157  17.666  1.00  0.00    -0.200 F 
ENDBRANCH  58  81
ENDBRANCH  32  33
ENDBRANCH  25  27
ENDBRANCH  24  25
ENDBRANCH  23  24
ENDBRANCH   1  23
TORSDOF 16
