REMARK SMILES Cc1nc(C[NH2+][C@@H](C(=O)OCCOC(=O)c2ccc(-c3c4nc(c(-c5c(F)c(F)c(F)c(F)c5F)c5ccc([nH]5)c(-c5c(F)c(F)c(F)c(F)c5F)c5nc(c(-c6c(F)c(F)c(F)c(F)c6F)c6ccc3[nH]6)C=C5)C=C4)cc2)c2ccccc2)sc1C
REMARK SMILES IDX 11 1 10 2 8 3 9 4 7 5 6 6 5 9 4 10 1 11 2 12 3 13 86 14
REMARK SMILES IDX 85 15 87 16 79 17 80 18 84 19 81 20 83 21 82 22 12 23 13 24
REMARK SMILES IDX 14 25 15 26 16 27 17 28 78 29 18 30 77 31 19 32 20 33 21 34
REMARK SMILES IDX 71 35 22 36 76 37 70 38 72 39 23 40 75 41 69 42 68 43 24 45
REMARK SMILES IDX 56 46 36 47 55 48 37 49 40 50 54 51 73 52 38 53 39 54 53 56
REMARK SMILES IDX 74 57 41 58 25 59 26 60 34 61 27 62 28 63 32 64 35 65 29 66
REMARK SMILES IDX 30 67 33 68 31 69 57 70 58 71 66 72 59 73 60 74 64 75 67 76
REMARK SMILES IDX 61 77 62 78 65 79 63 80 42 81 43 82 51 83 44 84 45 85 49 86
REMARK SMILES IDX 52 87 46 88 47 89 50 90 48 91
REMARK H PARENT 6 7 6 8 72 44 40 55
REMARK Flexibility Score: inf
ROOT
ATOM      1  C   UNL     1      -5.815   3.051   0.487  1.00  0.00     0.274 C 
ENDROOT
BRANCH   1   2
ATOM      2  O   UNL     1      -4.382   3.169   0.592  1.00  0.00    -0.457 OA
BRANCH   2   3
ATOM      3  C   UNL     1      -3.867   4.425   0.751  1.00  0.00     0.369 C 
ATOM      4  O   UNL     1      -4.554   5.441   0.788  1.00  0.00    -0.245 OA
BRANCH   3   5
ATOM      5  C   UNL     1      -2.314   4.423   0.835  1.00  0.00     0.325 C 
BRANCH   5   6
ATOM      6  N   UNL     1      -1.750   3.058   0.912  1.00  0.00    -0.325 N 
ATOM      7  H   UNL     1      -0.855   3.104   1.399  1.00  0.00     0.347 HD
ATOM      8  H   UNL     1      -2.427   2.478   1.409  1.00  0.00     0.347 HD
BRANCH   6   9
ATOM      9  C   UNL     1      -1.535   2.448  -0.401  1.00  0.00     0.330 C 
BRANCH   9  10
ATOM     10  C   UNL     1      -0.614   1.263  -0.293  1.00  0.00     0.148 A 
ATOM     11  C   UNL     1       2.750   0.016  -0.109  1.00  0.00     0.068 C 
ATOM     12  C   UNL     1       1.267   0.095  -0.158  1.00  0.00     0.052 A 
ATOM     13  N   UNL     1       0.701   1.347  -0.317  1.00  0.00    -0.240 NA
ATOM     14  C   UNL     1       0.358  -0.944  -0.057  1.00  0.00     0.025 A 
ATOM     15  S   UNL     1      -1.241  -0.326  -0.126  1.00  0.00    -0.118 S 
ATOM     16  C   UNL     1       0.609  -2.401   0.102  1.00  0.00     0.058 C 
ENDBRANCH   9  10
ENDBRANCH   6   9
ENDBRANCH   5   6
BRANCH   5  17
ATOM     17  C   UNL     1      -1.797   5.304   1.978  1.00  0.00     0.021 A 
ATOM     18  C   UNL     1      -1.165   4.776   3.119  1.00  0.00     0.010 A 
ATOM     19  C   UNL     1      -1.937   6.702   1.895  1.00  0.00     0.010 A 
ATOM     20  C   UNL     1      -0.691   5.612   4.134  1.00  0.00     0.001 A 
ATOM     21  C   UNL     1      -1.469   7.537   2.914  1.00  0.00     0.001 A 
ATOM     22  C   UNL     1      -0.843   6.992   4.032  1.00  0.00     0.000 A 
ENDBRANCH   5  17
ENDBRANCH   3   5
ENDBRANCH   2   3
ENDBRANCH   1   2
BRANCH   1  23
ATOM     23  C   UNL     1      -6.359   2.227   1.651  1.00  0.00     0.275 C 
BRANCH  23  24
ATOM     24  O   UNL     1      -6.208   2.965   2.877  1.00  0.00    -0.458 OA
BRANCH  24  25
ATOM     25  C   UNL     1      -5.163   2.591   3.648  1.00  0.00     0.338 C 
ATOM     26  O   UNL     1      -4.389   1.668   3.465  1.00  0.00    -0.246 OA
BRANCH  25  27
ATOM     27  C   UNL     1      -5.008   3.553   4.747  1.00  0.00     0.060 A 
ATOM     28  C   UNL     1      -4.418   4.780   4.465  1.00  0.00     0.016 A 
ATOM     29  C   UNL     1      -5.275   3.183   6.065  1.00  0.00     0.016 A 
ATOM     30  C   UNL     1      -3.982   5.590   5.508  1.00  0.00     0.010 A 
ATOM     31  C   UNL     1      -4.907   4.043   7.110  1.00  0.00     0.010 A 
ATOM     32  C   UNL     1      -4.196   5.228   6.846  1.00  0.00    -0.014 A 
BRANCH  32  33
ATOM     33  C   UNL     1      -3.556   6.021   7.939  1.00  0.00     0.031 A 
ATOM     34  C   UNL     1      -2.570   5.363   8.874  1.00  0.00     0.074 A 
ATOM     35  C   UNL     1      -3.758   7.350   8.048  1.00  0.00     0.049 A 
ATOM     36  N   UNL     1      -2.009   5.840   9.959  1.00  0.00    -0.248 NA
ATOM     37  C   UNL     1      -2.170   3.983   8.557  1.00  0.00     0.031 C 
ATOM     38  C   UNL     1      -4.618   8.154   7.180  1.00  0.00     0.029 A 
ATOM     39  N   UNL     1      -3.206   8.270   8.908  1.00  0.00    -0.354 N 
ATOM     40  C   UNL     1      -1.272   4.793  10.498  1.00  0.00     0.074 A 
ATOM     41  C   UNL     1      -1.429   3.663   9.608  1.00  0.00     0.031 C 
ATOM     42  C   UNL     1      -4.457   9.452   7.481  1.00  0.00     0.029 A 
ATOM     43  C   UNL     1      -3.548   9.568   8.618  1.00  0.00     0.049 A 
ATOM     44  H   UNL     1      -2.621   8.022   9.660  1.00  0.00     0.167 HD
ATOM     45  C   UNL     1      -0.540   4.772  11.639  1.00  0.00     0.037 A 
ATOM     46  C   UNL     1      -3.175  10.723   9.202  1.00  0.00     0.037 A 
ATOM     47  C   UNL     1      -0.292   5.918  12.473  1.00  0.00     0.049 A 
ATOM     48  C   UNL     1      -2.299  10.691  10.423  1.00  0.00     0.074 A 
ATOM     49  C   UNL     1       0.389   5.986  13.677  1.00  0.00     0.029 A 
ATOM     50  N   UNL     1      -0.672   7.212  12.156  1.00  0.00    -0.354 N 
ATOM     51  N   UNL     1      -1.748   9.664  11.019  1.00  0.00    -0.248 NA
ATOM     52  C   UNL     1      -2.025  11.982  11.072  1.00  0.00     0.031 C 
ATOM     53  C   UNL     1       0.427   7.325  14.085  1.00  0.00     0.029 A 
ATOM     54  C   UNL     1      -0.214   8.089  13.125  1.00  0.00     0.049 A 
ATOM     55  H   UNL     1      -1.190   7.470  11.360  1.00  0.00     0.167 HD
ATOM     56  C   UNL     1      -1.075  10.179  12.117  1.00  0.00     0.074 A 
ATOM     57  C   UNL     1      -1.253  11.616  12.086  1.00  0.00     0.031 C 
ATOM     58  C   UNL     1      -0.392   9.515  13.080  1.00  0.00     0.037 A 
BRANCH  45  59
ATOM     59  C   UNL     1       0.012   3.450  12.078  1.00  0.00     0.064 A 
ATOM     60  C   UNL     1       1.148   2.884  11.485  1.00  0.00     0.173 A 
ATOM     61  C   UNL     1      -0.598   2.755  13.133  1.00  0.00     0.173 A 
ATOM     62  F   UNL     1       1.753   3.502  10.460  1.00  0.00    -0.203 F 
ATOM     63  C   UNL     1       1.643   1.657  11.921  1.00  0.00     0.198 A 
ATOM     64  C   UNL     1      -0.088   1.540  13.581  1.00  0.00     0.198 A 
ATOM     65  F   UNL     1      -1.686   3.259  13.735  1.00  0.00    -0.203 F 
ATOM     66  F   UNL     1       2.708   1.113  11.316  1.00  0.00    -0.200 F 
ATOM     67  C   UNL     1       1.028   0.990  12.971  1.00  0.00     0.200 A 
ATOM     68  F   UNL     1      -0.679   0.901  14.601  1.00  0.00    -0.200 F 
ATOM     69  F   UNL     1       1.509  -0.189  13.391  1.00  0.00    -0.200 F 
ENDBRANCH  45  59
BRANCH  46  70
ATOM     70  C   UNL     1      -3.622  12.018   8.634  1.00  0.00     0.064 A 
ATOM     71  C   UNL     1      -2.711  12.852   7.970  1.00  0.00     0.173 A 
ATOM     72  C   UNL     1      -4.950  12.451   8.742  1.00  0.00     0.173 A 
ATOM     73  F   UNL     1      -1.424  12.491   7.869  1.00  0.00    -0.203 F 
ATOM     74  C   UNL     1      -3.113  14.075   7.438  1.00  0.00     0.198 A 
ATOM     75  C   UNL     1      -5.356  13.664   8.190  1.00  0.00     0.198 A 
ATOM     76  F   UNL     1      -5.855  11.689   9.373  1.00  0.00    -0.203 F 
ATOM     77  F   UNL     1      -2.217  14.869   6.837  1.00  0.00    -0.200 F 
ATOM     78  C   UNL     1      -4.436  14.476   7.543  1.00  0.00     0.200 A 
ATOM     79  F   UNL     1      -6.636  14.046   8.286  1.00  0.00    -0.200 F 
ATOM     80  F   UNL     1      -4.824  15.650   7.026  1.00  0.00    -0.200 F 
ENDBRANCH  46  70
BRANCH  58  81
ATOM     81  C   UNL     1       0.215  10.336  14.174  1.00  0.00     0.064 A 
ATOM     82  C   UNL     1      -0.570  10.842  15.220  1.00  0.00     0.173 A 
ATOM     83  C   UNL     1       1.591  10.602  14.190  1.00  0.00     0.173 A 
ATOM     84  F   UNL     1      -1.893  10.624  15.237  1.00  0.00    -0.203 F 
ATOM     85  C   UNL     1       0.001  11.602  16.237  1.00  0.00     0.198 A 
ATOM     86  C   UNL     1       2.161  11.351  15.216  1.00  0.00     0.198 A 
ATOM     87  F   UNL     1       2.380  10.139  13.209  1.00  0.00    -0.203 F 
ATOM     88  F   UNL     1      -0.771  12.105  17.210  1.00  0.00    -0.200 F 
ATOM     89  C   UNL     1       1.365  11.854  16.235  1.00  0.00     0.200 A 
ATOM     90  F   UNL     1       3.479  11.594  15.215  1.00  0.00    -0.200 F 
ATOM     91  F   UNL     1       1.912  12.590  17.212  1.00  0.00    -0.200 F 
ENDBRANCH  58  81
ENDBRANCH  32  33
ENDBRANCH  25  27
ENDBRANCH  24  25
ENDBRANCH  23  24
ENDBRANCH   1  23
TORSDOF 15
