REMARK SMILES O=C(OCCOC(=O)[C@H]1CC[C@H]2CCCC[C@@H]2[N@H+]1C[C@@H]1CCCCO1)c1ccc(-c2c3nc(c(-c4c(F)c(F)c(F)c(F)c4F)c4ccc([nH]4)c(-c4c(F)c(F)c(F)c(F)c4F)c4nc(c(-c5c(F)c(F)c(F)c(F)c5F)c5ccc2[nH]5)C=C4)C=C3)cc1
REMARK SMILES IDX 4 1 3 2 2 3 1 4 26 5 27 6 88 7 28 8 87 9 29 10 30 11 31 12
REMARK SMILES IDX 81 13 32 14 86 15 80 16 82 17 33 18 85 19 79 20 78 21 34 23
REMARK SMILES IDX 66 24 46 25 65 26 47 27 50 28 64 29 83 30 48 31 49 32 63 34
REMARK SMILES IDX 84 35 51 36 35 37 36 38 44 39 37 40 38 41 42 42 45 43 39 44
REMARK SMILES IDX 40 45 43 46 41 47 67 48 68 49 76 50 69 51 70 52 74 53 77 54
REMARK SMILES IDX 71 55 72 56 75 57 73 58 52 59 53 60 61 61 54 62 55 63 59 64
REMARK SMILES IDX 62 65 56 66 57 67 60 68 58 69 5 70 6 71 7 72 8 73 9 74 10 75
REMARK SMILES IDX 18 76 11 77 17 78 12 80 16 81 13 82 15 83 14 84 19 85 20 86
REMARK SMILES IDX 21 87 25 88 22 89 24 90 23 91
REMARK H PARENT 82 22 50 33 18 79
REMARK Flexibility Score: inf
ROOT
ATOM      1  C   UNL     1       4.054   0.237  -1.808  1.00  0.00     0.275 C 
ENDROOT
BRANCH   1   2
ATOM      2  O   UNL     1       3.214  -0.452  -0.880  1.00  0.00    -0.458 OA
BRANCH   2   3
ATOM      3  C   UNL     1       3.663  -1.385  -0.006  1.00  0.00     0.338 C 
ATOM      4  O   UNL     1       3.007  -2.400   0.173  1.00  0.00    -0.246 OA
BRANCH   3   5
ATOM      5  C   UNL     1       4.746  -1.037   0.985  1.00  0.00     0.060 A 
ATOM      6  C   UNL     1       5.800  -0.129   0.860  1.00  0.00     0.016 A 
ATOM      7  C   UNL     1       4.586  -1.633   2.234  1.00  0.00     0.016 A 
ATOM      8  C   UNL     1       6.602   0.237   1.972  1.00  0.00     0.010 A 
ATOM      9  C   UNL     1       5.255  -1.121   3.354  1.00  0.00     0.010 A 
ATOM     10  C   UNL     1       6.274  -0.155   3.275  1.00  0.00    -0.014 A 
BRANCH  10  11
ATOM     11  C   UNL     1       6.831   0.496   4.537  1.00  0.00     0.031 A 
ATOM     12  C   UNL     1       6.968  -0.301   5.828  1.00  0.00     0.074 A 
ATOM     13  C   UNL     1       6.998   1.842   4.671  1.00  0.00     0.049 A 
ATOM     14  N   UNL     1       7.217   0.131   7.046  1.00  0.00    -0.248 NA
ATOM     15  C   UNL     1       6.711  -1.752   5.775  1.00  0.00     0.031 C 
ATOM     16  C   UNL     1       6.803   2.865   3.646  1.00  0.00     0.029 A 
ATOM     17  N   UNL     1       7.272   2.601   5.799  1.00  0.00    -0.354 N 
ATOM     18  C   UNL     1       7.174  -1.001   7.840  1.00  0.00     0.074 A 
ATOM     19  C   UNL     1       6.545  -2.036   7.056  1.00  0.00     0.031 C 
ATOM     20  C   UNL     1       6.824   4.089   4.202  1.00  0.00     0.029 A 
ATOM     21  C   UNL     1       7.115   3.960   5.620  1.00  0.00     0.049 A 
ATOM     22  H   UNL     1       7.555   2.204   6.655  1.00  0.00     0.167 HD
ATOM     23  C   UNL     1       7.832  -1.262   8.997  1.00  0.00     0.037 A 
ATOM     24  C   UNL     1       7.208   4.997   6.477  1.00  0.00     0.037 A 
ATOM     25  C   UNL     1       8.554  -0.288   9.755  1.00  0.00     0.049 A 
ATOM     26  C   UNL     1       7.754   4.776   7.858  1.00  0.00     0.074 A 
ATOM     27  C   UNL     1       9.422  -0.467  10.815  1.00  0.00     0.029 A 
ATOM     28  N   UNL     1       8.468   1.072   9.528  1.00  0.00    -0.354 N 
ATOM     29  N   UNL     1       8.036   3.653   8.462  1.00  0.00    -0.248 NA
ATOM     30  C   UNL     1       8.104   5.979   8.633  1.00  0.00     0.031 C 
ATOM     31  C   UNL     1       9.840   0.799  11.252  1.00  0.00     0.029 A 
ATOM     32  C   UNL     1       9.242   1.754  10.448  1.00  0.00     0.049 A 
ATOM     33  H   UNL     1       7.934   1.494   8.816  1.00  0.00     0.167 HD
ATOM     34  C   UNL     1       8.714   4.010   9.620  1.00  0.00     0.074 A 
ATOM     35  C   UNL     1       8.728   5.454   9.679  1.00  0.00     0.031 C 
ATOM     36  C   UNL     1       9.325   3.189  10.507  1.00  0.00     0.037 A 
BRANCH  23  37
ATOM     37  C   UNL     1       7.950  -2.716   9.346  1.00  0.00     0.064 A 
ATOM     38  C   UNL     1       8.675  -3.576   8.495  1.00  0.00     0.173 A 
ATOM     39  C   UNL     1       7.272  -3.280  10.429  1.00  0.00     0.173 A 
ATOM     40  F   UNL     1       9.334  -3.080   7.435  1.00  0.00    -0.203 F 
ATOM     41  C   UNL     1       8.628  -4.954   8.658  1.00  0.00     0.198 A 
ATOM     42  C   UNL     1       7.267  -4.661  10.616  1.00  0.00     0.198 A 
ATOM     43  F   UNL     1       6.581  -2.503  11.275  1.00  0.00    -0.203 F 
ATOM     44  F   UNL     1       9.216  -5.752   7.757  1.00  0.00    -0.200 F 
ATOM     45  C   UNL     1       7.920  -5.496   9.717  1.00  0.00     0.200 A 
ATOM     46  F   UNL     1       6.593  -5.193  11.645  1.00  0.00    -0.200 F 
ATOM     47  F   UNL     1       7.846  -6.826   9.857  1.00  0.00    -0.200 F 
ENDBRANCH  23  37
BRANCH  24  48
ATOM     48  C   UNL     1       6.927   6.391   6.044  1.00  0.00     0.064 A 
ATOM     49  C   UNL     1       7.947   7.202   5.529  1.00  0.00     0.173 A 
ATOM     50  C   UNL     1       5.675   6.977   6.271  1.00  0.00     0.173 A 
ATOM     51  F   UNL     1       9.175   6.694   5.346  1.00  0.00    -0.203 F 
ATOM     52  C   UNL     1       7.730   8.554   5.271  1.00  0.00     0.198 A 
ATOM     53  C   UNL     1       5.455   8.328   6.000  1.00  0.00     0.198 A 
ATOM     54  F   UNL     1       4.684   6.253   6.811  1.00  0.00    -0.203 F 
ATOM     55  F   UNL     1       8.739   9.321   4.835  1.00  0.00    -0.200 F 
ATOM     56  C   UNL     1       6.484   9.117   5.508  1.00  0.00     0.200 A 
ATOM     57  F   UNL     1       4.258   8.876   6.252  1.00  0.00    -0.200 F 
ATOM     58  F   UNL     1       6.287  10.425   5.292  1.00  0.00    -0.200 F 
ENDBRANCH  24  48
BRANCH  36  59
ATOM     59  C   UNL     1      10.191   3.806  11.557  1.00  0.00     0.064 A 
ATOM     60  C   UNL     1       9.663   4.490  12.658  1.00  0.00     0.173 A 
ATOM     61  C   UNL     1      11.586   3.658  11.479  1.00  0.00     0.173 A 
ATOM     62  F   UNL     1       8.339   4.682  12.763  1.00  0.00    -0.203 F 
ATOM     63  C   UNL     1      10.500   5.007  13.644  1.00  0.00     0.198 A 
ATOM     64  C   UNL     1      12.417   4.151  12.479  1.00  0.00     0.198 A 
ATOM     65  F   UNL     1      12.141   3.018  10.438  1.00  0.00    -0.203 F 
ATOM     66  F   UNL     1       9.977   5.687  14.674  1.00  0.00    -0.200 F 
ATOM     67  C   UNL     1      11.873   4.826  13.560  1.00  0.00     0.200 A 
ATOM     68  F   UNL     1      13.742   3.966  12.399  1.00  0.00    -0.200 F 
ATOM     69  F   UNL     1      12.674   5.307  14.521  1.00  0.00    -0.200 F 
ENDBRANCH  36  59
ENDBRANCH  10  11
ENDBRANCH   3   5
ENDBRANCH   2   3
ENDBRANCH   1   2
BRANCH   1  70
ATOM     70  C   UNL     1       3.847   1.754  -1.719  1.00  0.00     0.274 C 
BRANCH  70  71
ATOM     71  O   UNL     1       3.315   2.197  -0.451  1.00  0.00    -0.458 OA
BRANCH  71  72
ATOM     72  C   UNL     1       2.155   2.913  -0.484  1.00  0.00     0.365 C 
ATOM     73  O   UNL     1       1.491   3.059  -1.511  1.00  0.00    -0.245 OA
BRANCH  72  74
ATOM     74  C   UNL     1       1.695   3.544   0.858  1.00  0.00     0.295 C 
ATOM     75  C   UNL     1       0.469   2.835   1.447  1.00  0.00     0.078 C 
ATOM     76  N   UNL     1       2.739   3.925   1.831  1.00  0.00    -0.318 N 
ATOM     77  C   UNL     1       0.180   3.219   2.906  1.00  0.00     0.016 C 
ATOM     78  C   UNL     1       2.217   4.749   2.936  1.00  0.00     0.187 C 
ATOM     79  H   UNL     1       3.347   4.470   1.220  1.00  0.00     0.349 HD
ATOM     80  C   UNL     1       0.711   4.606   3.235  1.00  0.00     0.048 C 
ATOM     81  C   UNL     1       2.498   6.255   2.835  1.00  0.00     0.065 C 
ATOM     82  C   UNL     1       0.525   5.004   4.704  1.00  0.00     0.010 C 
ATOM     83  C   UNL     1       2.274   6.867   4.232  1.00  0.00     0.006 C 
ATOM     84  C   UNL     1       0.958   6.461   4.922  1.00  0.00     0.001 C 
BRANCH  76  85
ATOM     85  C   UNL     1       3.640   2.884   2.365  1.00  0.00     0.295 C 
BRANCH  85  86
ATOM     86  C   UNL     1       3.357   1.922   3.571  1.00  0.00     0.173 C 
ATOM     87  C   UNL     1       2.420   0.747   3.310  1.00  0.00     0.038 C 
ATOM     88  O   UNL     1       3.086   2.599   4.794  1.00  0.00    -0.372 OA
ATOM     89  C   UNL     1       1.527   0.251   4.445  1.00  0.00     0.005 C 
ATOM     90  C   UNL     1       3.017   1.701   5.894  1.00  0.00     0.161 C 
ATOM     91  C   UNL     1       1.718   0.932   5.795  1.00  0.00     0.029 C 
ENDBRANCH  85  86
ENDBRANCH  76  85
ENDBRANCH  72  74
ENDBRANCH  71  72
ENDBRANCH  70  71
ENDBRANCH   1  70
TORSDOF 13
