REMARK SMILES Cc1ccc(C#N)cc1Nc1cc(C)c(N)c(C(=O)OCCOC(=O)c2ccc(-c3c4nc(c(-c5c(F)c(F)c(F)c(F)c5F)c5ccc([nH]5)c(-c5c(F)c(F)c(F)c(F)c5F)c5nc(c(-c6c(F)c(F)c(F)c(F)c6F)c6ccc3[nH]6)C=C5)C=C4)cc2)c1
REMARK SMILES IDX 21 1 20 2 18 3 19 4 17 5 11 6 12 7 89 8 13 9 14 10 15 11
REMARK SMILES IDX 10 12 9 14 1 15 2 16 3 17 4 18 8 19 5 20 6 21 7 22 16 23
REMARK SMILES IDX 22 26 23 27 24 28 25 29 26 30 27 31 88 32 28 33 87 34 29 35
REMARK SMILES IDX 30 36 31 37 81 38 32 39 86 40 80 41 82 42 33 43 85 44 79 45
REMARK SMILES IDX 78 46 34 48 66 49 46 50 65 51 47 52 50 53 64 54 83 55 48 56
REMARK SMILES IDX 49 57 63 59 84 60 51 61 35 62 36 63 44 64 37 65 38 66 42 67
REMARK SMILES IDX 45 68 39 69 40 70 43 71 41 72 67 73 68 74 76 75 69 76 70 77
REMARK SMILES IDX 74 78 77 79 71 80 72 81 75 82 73 83 52 84 53 85 61 86 54 87
REMARK SMILES IDX 55 88 59 89 62 90 56 91 57 92 60 93 58 94
REMARK H PARENT 10 13 16 24 16 25 82 47 50 58
REMARK Flexibility Score: inf
ROOT
ATOM      1  C   UNL     1      -2.996   7.703  -1.770  1.00  0.00     0.275 C 
ENDROOT
BRANCH   1   2
ATOM      2  O   UNL     1      -1.879   6.860  -1.426  1.00  0.00    -0.458 OA
BRANCH   2   3
ATOM      3  C   UNL     1      -0.668   7.208  -1.934  1.00  0.00     0.340 C 
ATOM      4  O   UNL     1      -0.451   8.146  -2.686  1.00  0.00    -0.246 OA
BRANCH   3   5
ATOM      5  C   UNL     1       0.404   6.334  -1.367  1.00  0.00     0.085 A 
ATOM      6  C   UNL     1       1.077   4.215  -0.399  1.00  0.00     0.040 A 
ATOM      7  C   UNL     1       2.333   4.753  -0.122  1.00  0.00     0.031 A 
ATOM      8  C   UNL     1       0.085   5.048  -0.918  1.00  0.00     0.044 A 
ATOM      9  C   UNL     1       2.665   6.050  -0.538  1.00  0.00    -0.025 A 
ATOM     10  C   UNL     1       4.027   6.583  -0.183  1.00  0.00     0.047 C 
ATOM     11  C   UNL     1       1.748   6.775  -1.323  1.00  0.00     0.049 A 
BRANCH   6  12
ATOM     12  N   UNL     1       0.912   2.817  -0.371  1.00  0.00    -0.355 N 
ATOM     13  H   UNL     1       0.985   2.376   0.506  1.00  0.00     0.167 HD
BRANCH  12  14
ATOM     14  C   UNL     1       0.650   1.984  -1.489  1.00  0.00     0.043 A 
ATOM     15  C   UNL     1       0.836  -0.097  -0.033  1.00  0.00     0.046 C 
ATOM     16  C   UNL     1       0.544   0.587  -1.341  1.00  0.00    -0.027 A 
ATOM     17  C   UNL     1       0.242  -0.211  -2.463  1.00  0.00     0.007 A 
ATOM     18  C   UNL     1       0.038   0.359  -3.721  1.00  0.00     0.020 A 
ATOM     19  C   UNL     1       0.451   2.530  -2.772  1.00  0.00     0.045 A 
ATOM     20  C   UNL     1       0.153   1.735  -3.881  1.00  0.00     0.054 A 
BRANCH  20  21
ATOM     21  C   UNL     1      -0.011   2.345  -5.166  1.00  0.00     0.099 C 
ATOM     22  N   UNL     1      -0.136   2.853  -6.204  1.00  0.00    -0.192 NA
ENDBRANCH  20  21
ENDBRANCH  12  14
ENDBRANCH   6  12
BRANCH  11  23
ATOM     23  N   UNL     1       2.144   7.979  -1.912  1.00  0.00    -0.398 N 
ATOM     24  H   UNL     1       3.086   8.262  -1.866  1.00  0.00     0.156 HD
ATOM     25  H   UNL     1       1.482   8.543  -2.373  1.00  0.00     0.156 HD
ENDBRANCH  11  23
ENDBRANCH   3   5
ENDBRANCH   2   3
ENDBRANCH   1   2
BRANCH   1  26
ATOM     26  C   UNL     1      -3.405   8.594  -0.592  1.00  0.00     0.275 C 
BRANCH  26  27
ATOM     27  O   UNL     1      -2.403   9.591  -0.311  1.00  0.00    -0.458 OA
BRANCH  27  28
ATOM     28  C   UNL     1      -1.531   9.278   0.679  1.00  0.00     0.338 C 
ATOM     29  O   UNL     1      -1.550   8.293   1.397  1.00  0.00    -0.246 OA
BRANCH  28  30
ATOM     30  C   UNL     1      -0.400  10.222   0.627  1.00  0.00     0.060 A 
ATOM     31  C   UNL     1      -0.532  11.594   0.824  1.00  0.00     0.016 A 
ATOM     32  C   UNL     1       0.854   9.679   0.368  1.00  0.00     0.016 A 
ATOM     33  C   UNL     1       0.598  12.417   0.690  1.00  0.00     0.010 A 
ATOM     34  C   UNL     1       1.970  10.493   0.195  1.00  0.00     0.010 A 
ATOM     35  C   UNL     1       1.852  11.875   0.339  1.00  0.00    -0.014 A 
BRANCH  35  36
ATOM     36  C   UNL     1       3.070  12.716   0.244  1.00  0.00     0.031 A 
ATOM     37  C   UNL     1       3.724  13.024  -1.074  1.00  0.00     0.074 A 
ATOM     38  C   UNL     1       3.640  13.141   1.386  1.00  0.00     0.049 A 
ATOM     39  N   UNL     1       4.733  13.823  -1.323  1.00  0.00    -0.248 NA
ATOM     40  C   UNL     1       3.200  12.332  -2.261  1.00  0.00     0.031 C 
ATOM     41  C   UNL     1       3.167  12.803   2.727  1.00  0.00     0.029 A 
ATOM     42  N   UNL     1       4.732  13.941   1.604  1.00  0.00    -0.354 N 
ATOM     43  C   UNL     1       4.941  13.760  -2.695  1.00  0.00     0.074 A 
ATOM     44  C   UNL     1       4.004  12.785  -3.215  1.00  0.00     0.031 C 
ATOM     45  C   UNL     1       3.934  13.430   3.630  1.00  0.00     0.029 A 
ATOM     46  C   UNL     1       4.962  14.199   2.932  1.00  0.00     0.049 A 
ATOM     47  H   UNL     1       5.296  14.296   0.879  1.00  0.00     0.167 HD
ATOM     48  C   UNL     1       5.812  14.477  -3.448  1.00  0.00     0.037 A 
ATOM     49  C   UNL     1       5.881  14.985   3.522  1.00  0.00     0.037 A 
ATOM     50  C   UNL     1       6.755  15.430  -2.913  1.00  0.00     0.049 A 
ATOM     51  C   UNL     1       6.839  15.768   2.667  1.00  0.00     0.074 A 
ATOM     52  C   UNL     1       7.629  16.257  -3.598  1.00  0.00     0.029 A 
ATOM     53  N   UNL     1       6.961  15.669  -1.561  1.00  0.00    -0.354 N 
ATOM     54  N   UNL     1       6.933  15.815   1.361  1.00  0.00    -0.248 NA
ATOM     55  C   UNL     1       7.809  16.620   3.369  1.00  0.00     0.031 C 
ATOM     56  C   UNL     1       8.408  16.944  -2.664  1.00  0.00     0.029 A 
ATOM     57  C   UNL     1       7.973  16.603  -1.394  1.00  0.00     0.049 A 
ATOM     58  H   UNL     1       6.462  15.240  -0.829  1.00  0.00     0.167 HD
ATOM     59  C   UNL     1       7.953  16.715   1.082  1.00  0.00     0.074 A 
ATOM     60  C   UNL     1       8.431  17.210   2.357  1.00  0.00     0.031 C 
ATOM     61  C   UNL     1       8.448  17.091  -0.122  1.00  0.00     0.037 A 
BRANCH  48  62
ATOM     62  C   UNL     1       5.773  14.303  -4.943  1.00  0.00     0.064 A 
ATOM     63  C   UNL     1       4.675  14.747  -5.697  1.00  0.00     0.173 A 
ATOM     64  C   UNL     1       6.883  13.801  -5.643  1.00  0.00     0.173 A 
ATOM     65  F   UNL     1       3.590  15.242  -5.082  1.00  0.00    -0.203 F 
ATOM     66  C   UNL     1       4.682  14.681  -7.088  1.00  0.00     0.198 A 
ATOM     67  C   UNL     1       6.900  13.768  -7.036  1.00  0.00     0.198 A 
ATOM     68  F   UNL     1       7.968  13.379  -4.978  1.00  0.00    -0.203 F 
ATOM     69  F   UNL     1       3.610  15.087  -7.782  1.00  0.00    -0.200 F 
ATOM     70  C   UNL     1       5.798  14.203  -7.757  1.00  0.00     0.200 A 
ATOM     71  F   UNL     1       7.990  13.331  -7.681  1.00  0.00    -0.200 F 
ATOM     72  F   UNL     1       5.815  14.167  -9.097  1.00  0.00    -0.200 F 
ENDBRANCH  48  62
BRANCH  49  73
ATOM     73  C   UNL     1       5.874  15.124   5.001  1.00  0.00     0.064 A 
ATOM     74  C   UNL     1       5.481  16.326   5.605  1.00  0.00     0.173 A 
ATOM     75  C   UNL     1       6.209  14.051   5.840  1.00  0.00     0.173 A 
ATOM     76  F   UNL     1       5.165  17.386   4.845  1.00  0.00    -0.203 F 
ATOM     77  C   UNL     1       5.432  16.453   6.991  1.00  0.00     0.198 A 
ATOM     78  C   UNL     1       6.127  14.168   7.225  1.00  0.00     0.198 A 
ATOM     79  F   UNL     1       6.581  12.876   5.311  1.00  0.00    -0.203 F 
ATOM     80  F   UNL     1       5.085  17.624   7.542  1.00  0.00    -0.200 F 
ATOM     81  C   UNL     1       5.744  15.370   7.800  1.00  0.00     0.200 A 
ATOM     82  F   UNL     1       6.408  13.113   8.002  1.00  0.00    -0.200 F 
ATOM     83  F   UNL     1       5.677  15.487   9.133  1.00  0.00    -0.200 F 
ENDBRANCH  49  73
BRANCH  61  84
ATOM     84  C   UNL     1       9.568  18.096  -0.135  1.00  0.00     0.064 A 
ATOM     85  C   UNL     1      10.854  17.769   0.322  1.00  0.00     0.173 A 
ATOM     86  C   UNL     1       9.374  19.375  -0.679  1.00  0.00     0.173 A 
ATOM     87  F   UNL     1      11.093  16.564   0.862  1.00  0.00    -0.203 F 
ATOM     88  C   UNL     1      11.896  18.690   0.252  1.00  0.00     0.198 A 
ATOM     89  C   UNL     1      10.427  20.280  -0.782  1.00  0.00     0.198 A 
ATOM     90  F   UNL     1       8.167  19.739  -1.139  1.00  0.00    -0.203 F 
ATOM     91  F   UNL     1      13.104  18.369   0.735  1.00  0.00    -0.200 F 
ATOM     92  C   UNL     1      11.685  19.940  -0.310  1.00  0.00     0.200 A 
ATOM     93  F   UNL     1      10.225  21.480  -1.345  1.00  0.00    -0.200 F 
ATOM     94  F   UNL     1      12.695  20.817  -0.396  1.00  0.00    -0.200 F 
ENDBRANCH  61  84
ENDBRANCH  35  36
ENDBRANCH  28  30
ENDBRANCH  27  28
ENDBRANCH  26  27
ENDBRANCH   1  26
TORSDOF 15
