REMARK SMILES CC[C@](C)(NC(=O)NC[C@H]1COCCO1)C(=O)OCCOC(=O)c1ccc(-c2c3nc(c(-c4c(F)c(F)c(F)c(F)c4F)c4ccc([nH]4)c(-c4c(F)c(F)c(F)c(F)c4F)c4nc(c(-c5c(F)c(F)c(F)c(F)c5F)c5ccc2[nH]5)C=C4)C=C3)cc1
REMARK SMILES IDX 19 1 18 2 16 3 17 4 3 5 4 6 2 7 1 8 5 9 6 10 7 12 8 13 9 15
REMARK SMILES IDX 10 16 11 17 15 18 12 19 14 20 13 21 20 22 21 23 22 24 23 25
REMARK SMILES IDX 24 26 25 27 86 28 26 29 85 30 27 31 28 32 29 33 79 34 30 35
REMARK SMILES IDX 84 36 78 37 80 38 31 39 83 40 77 41 76 42 32 44 64 45 44 46
REMARK SMILES IDX 63 47 45 48 48 49 62 50 81 51 46 52 47 53 61 55 82 56 49 57
REMARK SMILES IDX 33 58 34 59 42 60 35 61 36 62 40 63 43 64 37 65 38 66 41 67
REMARK SMILES IDX 39 68 65 69 66 70 74 71 67 72 68 73 72 74 75 75 69 76 70 77
REMARK SMILES IDX 73 78 71 79 50 80 51 81 59 82 52 83 53 84 57 85 60 86 54 87
REMARK SMILES IDX 55 88 58 89 56 90
REMARK H PARENT 5 11 8 14 80 43 48 54
REMARK Flexibility Score: inf
ROOT
ATOM      1  C   UNL     1       2.882  -1.615   1.736  1.00  0.00     0.274 C 
ENDROOT
BRANCH   1   2
ATOM      2  O   UNL     1       3.226  -2.233   3.001  1.00  0.00    -0.460 OA
BRANCH   2   3
ATOM      3  C   UNL     1       4.293  -1.704   3.669  1.00  0.00     0.331 C 
ATOM      4  O   UNL     1       4.851  -0.672   3.312  1.00  0.00    -0.249 OA
BRANCH   3   5
ATOM      5  C   UNL     1       4.646  -2.489   4.983  1.00  0.00     0.136 C 
ATOM      6  C   UNL     1       4.011  -1.621   6.121  1.00  0.00     0.047 C 
BRANCH   5   7
ATOM      7  C   UNL     1       6.169  -2.415   5.297  1.00  0.00     0.037 C 
ATOM      8  C   UNL     1       7.068  -3.442   4.651  1.00  0.00     0.007 C 
ENDBRANCH   5   7
BRANCH   5   9
ATOM      9  N   UNL     1       4.066  -3.851   5.177  1.00  0.00    -0.322 N 
ATOM     10  C   UNL     1       4.136  -5.073   4.640  1.00  0.00     0.315 C 
ATOM     11  H   UNL     1       3.439  -3.848   5.936  1.00  0.00     0.166 HD
ATOM     12  O   UNL     1       3.813  -6.015   5.369  1.00  0.00    -0.249 OA
ATOM     13  N   UNL     1       4.512  -5.357   3.390  1.00  0.00    -0.335 N 
ATOM     14  H   UNL     1       4.749  -6.301   3.242  1.00  0.00     0.165 HD
BRANCH  13  15
ATOM     15  C   UNL     1       4.633  -4.525   2.223  1.00  0.00     0.152 C 
BRANCH  15  16
ATOM     16  C   UNL     1       5.336  -5.109   0.983  1.00  0.00     0.163 C 
ATOM     17  C   UNL     1       6.194  -4.022   0.311  1.00  0.00     0.194 C 
ATOM     18  O   UNL     1       6.119  -6.281   1.250  1.00  0.00    -0.372 OA
ATOM     19  O   UNL     1       7.322  -3.690   1.132  1.00  0.00    -0.376 OA
ATOM     20  C   UNL     1       7.304  -5.987   1.998  1.00  0.00     0.189 C 
ATOM     21  C   UNL     1       8.120  -4.857   1.369  1.00  0.00     0.188 C 
ENDBRANCH  15  16
ENDBRANCH  13  15
ENDBRANCH   5   9
ENDBRANCH   3   5
ENDBRANCH   2   3
ENDBRANCH   1   2
BRANCH   1  22
ATOM     22  C   UNL     1       1.599  -2.248   1.170  1.00  0.00     0.275 C 
BRANCH  22  23
ATOM     23  O   UNL     1       0.465  -1.725   1.880  1.00  0.00    -0.458 OA
BRANCH  23  24
ATOM     24  C   UNL     1       0.163  -2.380   3.029  1.00  0.00     0.338 C 
ATOM     25  O   UNL     1       0.420  -3.527   3.333  1.00  0.00    -0.246 OA
BRANCH  24  26
ATOM     26  C   UNL     1      -0.147  -1.309   3.982  1.00  0.00     0.060 A 
ATOM     27  C   UNL     1       0.935  -0.838   4.723  1.00  0.00     0.016 A 
ATOM     28  C   UNL     1      -1.384  -0.693   4.067  1.00  0.00     0.016 A 
ATOM     29  C   UNL     1       0.826   0.266   5.544  1.00  0.00     0.010 A 
ATOM     30  C   UNL     1      -1.503   0.436   4.881  1.00  0.00     0.010 A 
ATOM     31  C   UNL     1      -0.393   0.928   5.602  1.00  0.00    -0.014 A 
BRANCH  31  32
ATOM     32  C   UNL     1      -0.527   2.124   6.452  1.00  0.00     0.031 A 
ATOM     33  C   UNL     1      -1.411   2.033   7.648  1.00  0.00     0.074 A 
ATOM     34  C   UNL     1       0.111   3.263   6.127  1.00  0.00     0.049 A 
ATOM     35  N   UNL     1      -1.979   2.987   8.329  1.00  0.00    -0.248 NA
ATOM     36  C   UNL     1      -1.716   0.674   8.128  1.00  0.00     0.031 C 
ATOM     37  C   UNL     1       1.089   3.413   5.046  1.00  0.00     0.029 A 
ATOM     38  N   UNL     1       0.006   4.523   6.658  1.00  0.00    -0.354 N 
ATOM     39  C   UNL     1      -2.774   2.345   9.267  1.00  0.00     0.074 A 
ATOM     40  C   UNL     1      -2.590   0.922   9.092  1.00  0.00     0.031 C 
ATOM     41  C   UNL     1       1.471   4.699   4.974  1.00  0.00     0.029 A 
ATOM     42  C   UNL     1       0.693   5.470   5.936  1.00  0.00     0.049 A 
ATOM     43  H   UNL     1      -0.507   4.728   7.472  1.00  0.00     0.167 HD
ATOM     44  C   UNL     1      -3.601   2.920  10.167  1.00  0.00     0.037 A 
ATOM     45  C   UNL     1       0.625   6.813   5.992  1.00  0.00     0.037 A 
ATOM     46  C   UNL     1      -3.713   4.344  10.331  1.00  0.00     0.049 A 
ATOM     47  C   UNL     1      -0.342   7.429   6.970  1.00  0.00     0.074 A 
ATOM     48  C   UNL     1      -4.495   5.055  11.220  1.00  0.00     0.029 A 
ATOM     49  N   UNL     1      -3.002   5.274   9.582  1.00  0.00    -0.354 N 
ATOM     50  N   UNL     1      -1.148   6.835   7.819  1.00  0.00    -0.248 NA
ATOM     51  C   UNL     1      -0.433   8.894   6.978  1.00  0.00     0.031 C 
ATOM     52  C   UNL     1      -4.287   6.418  10.982  1.00  0.00     0.029 A 
ATOM     53  C   UNL     1      -3.344   6.555   9.974  1.00  0.00     0.049 A 
ATOM     54  H   UNL     1      -2.352   5.053   8.877  1.00  0.00     0.167 HD
ATOM     55  C   UNL     1      -1.838   7.850   8.465  1.00  0.00     0.074 A 
ATOM     56  C   UNL     1      -1.334   9.099   7.928  1.00  0.00     0.031 C 
ATOM     57  C   UNL     1      -2.808   7.767   9.408  1.00  0.00     0.037 A 
BRANCH  44  58
ATOM     58  C   UNL     1      -4.481   2.024  10.981  1.00  0.00     0.064 A 
ATOM     59  C   UNL     1      -3.982   1.228  12.021  1.00  0.00     0.173 A 
ATOM     60  C   UNL     1      -5.861   1.983  10.727  1.00  0.00     0.173 A 
ATOM     61  F   UNL     1      -2.667   1.211  12.287  1.00  0.00    -0.203 F 
ATOM     62  C   UNL     1      -4.831   0.416  12.771  1.00  0.00     0.198 A 
ATOM     63  C   UNL     1      -6.710   1.191  11.493  1.00  0.00     0.198 A 
ATOM     64  F   UNL     1      -6.388   2.718   9.735  1.00  0.00    -0.203 F 
ATOM     65  F   UNL     1      -4.328  -0.364  13.737  1.00  0.00    -0.200 F 
ATOM     66  C   UNL     1      -6.194   0.405  12.513  1.00  0.00     0.200 A 
ATOM     67  F   UNL     1      -8.027   1.186  11.245  1.00  0.00    -0.200 F 
ATOM     68  F   UNL     1      -7.011  -0.368  13.242  1.00  0.00    -0.200 F 
ENDBRANCH  44  58
BRANCH  45  69
ATOM     69  C   UNL     1       1.405   7.652   5.042  1.00  0.00     0.064 A 
ATOM     70  C   UNL     1       2.418   8.508   5.493  1.00  0.00     0.173 A 
ATOM     71  C   UNL     1       1.143   7.629   3.662  1.00  0.00     0.173 A 
ATOM     72  F   UNL     1       2.691   8.588   6.804  1.00  0.00    -0.203 F 
ATOM     73  C   UNL     1       3.124   9.322   4.608  1.00  0.00     0.198 A 
ATOM     74  C   UNL     1       1.873   8.417   2.773  1.00  0.00     0.198 A 
ATOM     75  F   UNL     1       0.182   6.833   3.172  1.00  0.00    -0.203 F 
ATOM     76  F   UNL     1       4.051  10.169   5.075  1.00  0.00    -0.200 F 
ATOM     77  C   UNL     1       2.856   9.270   3.248  1.00  0.00     0.200 A 
ATOM     78  F   UNL     1       1.619   8.353   1.459  1.00  0.00    -0.200 F 
ATOM     79  F   UNL     1       3.538  10.050   2.398  1.00  0.00    -0.200 F 
ENDBRANCH  45  69
BRANCH  57  80
ATOM     80  C   UNL     1      -3.362   9.060   9.921  1.00  0.00     0.064 A 
ATOM     81  C   UNL     1      -4.246   9.829   9.151  1.00  0.00     0.173 A 
ATOM     82  C   UNL     1      -3.045   9.504  11.212  1.00  0.00     0.173 A 
ATOM     83  F   UNL     1      -4.561   9.450   7.904  1.00  0.00    -0.203 F 
ATOM     84  C   UNL     1      -4.781  11.010   9.653  1.00  0.00     0.198 A 
ATOM     85  C   UNL     1      -3.605  10.671  11.721  1.00  0.00     0.198 A 
ATOM     86  F   UNL     1      -2.208   8.796  11.985  1.00  0.00    -0.203 F 
ATOM     87  F   UNL     1      -5.593  11.753   8.889  1.00  0.00    -0.200 F 
ATOM     88  C   UNL     1      -4.468  11.425  10.940  1.00  0.00     0.200 A 
ATOM     89  F   UNL     1      -3.312  11.063  12.968  1.00  0.00    -0.200 F 
ATOM     90  F   UNL     1      -4.994  12.557  11.425  1.00  0.00    -0.200 F 
ENDBRANCH  57  80
ENDBRANCH  31  32
ENDBRANCH  24  26
ENDBRANCH  23  24
ENDBRANCH  22  23
ENDBRANCH   1  22
TORSDOF 15
