REMARK SMILES NS(=O)(=O)c1ccc(C#Cc2cc(Cl)cc3c2O[C@H](C(F)(F)F)C(C(=O)OCCOC(=O)c2ccc(-c4c5nc(c(-c6c(F)c(F)c(F)c(F)c6F)c6ccc([nH]6)c(-c6c(F)c(F)c(F)c(F)c6F)c6nc(c(-c7c(F)c(F)c(F)c(F)c7F)c7ccc4[nH]7)C=C6)C=C5)cc2)=C3)cc1
REMARK SMILES IDX 28 1 27 2 25 3 26 4 24 5 11 6 12 7 17 8 13 9 16 10 18 11
REMARK SMILES IDX 14 12 15 13 96 14 19 15 10 16 9 17 8 18 5 19 6 20 98 21 7 22
REMARK SMILES IDX 97 23 2 24 3 25 4 26 1 27 20 30 21 31 22 32 23 33 29 34
REMARK SMILES IDX 30 35 31 36 32 37 33 38 34 39 95 40 35 41 94 42 36 43 37 44
REMARK SMILES IDX 38 45 88 46 39 47 93 48 87 49 89 50 40 51 92 52 86 53 85 54
REMARK SMILES IDX 41 56 73 57 53 58 72 59 54 60 57 61 71 62 90 63 55 64 56 65
REMARK SMILES IDX 70 67 91 68 58 69 42 70 43 71 51 72 44 73 45 74 49 75 52 76
REMARK SMILES IDX 46 77 47 78 50 79 48 80 74 81 75 82 83 83 76 84 77 85 81 86
REMARK SMILES IDX 84 87 78 88 79 89 82 90 80 91 59 92 60 93 68 94 61 95 62 96
REMARK SMILES IDX 66 97 69 98 63 99 64 100 67 101 65 102
REMARK H PARENT 1 28 1 29 89 55 57 66
REMARK Flexibility Score: inf
ROOT
ATOM      1  C   UNL     1       0.470  14.627   2.215  1.00  0.00     0.275 C 
ENDROOT
BRANCH   1   2
ATOM      2  O   UNL     1       0.807  13.283   2.630  1.00  0.00    -0.459 OA
BRANCH   2   3
ATOM      3  C   UNL     1       2.075  13.099   3.066  1.00  0.00     0.338 C 
ATOM      4  O   UNL     1       2.958  13.941   3.104  1.00  0.00    -0.246 OA
BRANCH   3   5
ATOM      5  C   UNL     1       2.270  11.713   3.546  1.00  0.00     0.087 C 
ATOM      6  C   UNL     1       3.149   7.804   4.764  1.00  0.00     0.069 A 
ATOM      7  C   UNL     1       3.939   7.593   5.901  1.00  0.00     0.041 A 
ATOM      8  C   UNL     1       2.810   9.099   4.354  1.00  0.00     0.143 A 
ATOM      9  C   UNL     1       4.362   8.681   6.655  1.00  0.00     0.043 A 
ATOM     10  C   UNL     1       3.252  10.175   5.114  1.00  0.00     0.020 A 
ATOM     11  O   UNL     1       2.037   9.253   3.231  1.00  0.00    -0.474 OA
ATOM     12  Cl  UNL     1       5.327   8.436   8.057  1.00  0.00    -0.084 Cl
ATOM     13  C   UNL     1       4.012   9.971   6.275  1.00  0.00     0.032 A 
ATOM     14  C   UNL     1       2.945  11.519   4.684  1.00  0.00     0.027 C 
ATOM     15  C   UNL     1       1.849  10.579   2.660  1.00  0.00     0.316 C 
BRANCH   6  16
ATOM     16  C   UNL     1       2.695   6.676   4.026  1.00  0.00    -0.058 C 
ATOM     17  C   UNL     1       2.281   5.764   3.365  1.00  0.00    -0.062 C 
BRANCH  17  18
ATOM     18  C   UNL     1       1.788   4.730   2.525  1.00  0.00     0.025 A 
ATOM     19  C   UNL     1       0.937   2.750   0.783  1.00  0.00     0.082 A 
ATOM     20  C   UNL     1       0.440   4.050   0.644  1.00  0.00     0.023 A 
ATOM     21  C   UNL     1       1.828   2.427   1.811  1.00  0.00     0.023 A 
ATOM     22  C   UNL     1       0.870   5.043   1.520  1.00  0.00     0.018 A 
ATOM     23  C   UNL     1       2.255   3.425   2.684  1.00  0.00     0.018 A 
BRANCH  19  24
ATOM     24  S   UNL     1       0.460   1.557  -0.427  1.00  0.00     0.238 S 
ATOM     25  O   UNL     1       1.116   1.891  -1.669  1.00  0.00    -0.207 OA
ATOM     26  O   UNL     1      -0.964   1.346  -0.323  1.00  0.00    -0.207 OA
BRANCH  24  27
ATOM     27  N   UNL     1       1.169   0.122   0.085  1.00  0.00    -0.225 NA
ATOM     28  H   UNL     1       0.937  -0.624  -0.570  1.00  0.00     0.137 HD
ATOM     29  H   UNL     1       0.820  -0.118   1.012  1.00  0.00     0.137 HD
ENDBRANCH  24  27
ENDBRANCH  19  24
ENDBRANCH  17  18
ENDBRANCH   6  16
BRANCH  15  30
ATOM     30  C   UNL     1       2.582  10.662   1.310  1.00  0.00     0.430 C 
ATOM     31  F   UNL     1       2.252   9.632   0.498  1.00  0.00    -0.167 F 
ATOM     32  F   UNL     1       2.266  11.799   0.642  1.00  0.00    -0.167 F 
ATOM     33  F   UNL     1       3.927  10.649   1.464  1.00  0.00    -0.167 F 
ENDBRANCH  15  30
ENDBRANCH   3   5
ENDBRANCH   2   3
ENDBRANCH   1   2
BRANCH   1  34
ATOM     34  C   UNL     1      -0.381  15.347   3.266  1.00  0.00     0.275 C 
BRANCH  34  35
ATOM     35  O   UNL     1       0.394  15.666   4.437  1.00  0.00    -0.458 OA
BRANCH  35  36
ATOM     36  C   UNL     1       0.335  14.742   5.420  1.00  0.00     0.338 C 
ATOM     37  O   UNL     1      -0.300  13.701   5.430  1.00  0.00    -0.246 OA
BRANCH  36  38
ATOM     38  C   UNL     1       1.306  15.076   6.465  1.00  0.00     0.060 A 
ATOM     39  C   UNL     1       0.960  15.763   7.617  1.00  0.00     0.016 A 
ATOM     40  C   UNL     1       2.571  14.522   6.345  1.00  0.00     0.016 A 
ATOM     41  C   UNL     1       1.917  15.895   8.629  1.00  0.00     0.010 A 
ATOM     42  C   UNL     1       3.436  14.470   7.423  1.00  0.00     0.010 A 
ATOM     43  C   UNL     1       3.155  15.217   8.562  1.00  0.00    -0.014 A 
BRANCH  43  44
ATOM     44  C   UNL     1       4.169  15.315   9.648  1.00  0.00     0.031 A 
ATOM     45  C   UNL     1       5.588  15.752   9.352  1.00  0.00     0.074 A 
ATOM     46  C   UNL     1       3.813  14.999  10.909  1.00  0.00     0.049 A 
ATOM     47  N   UNL     1       6.575  15.967  10.187  1.00  0.00    -0.248 NA
ATOM     48  C   UNL     1       5.970  15.935   7.940  1.00  0.00     0.031 C 
ATOM     49  C   UNL     1       2.511  14.462  11.306  1.00  0.00     0.029 A 
ATOM     50  N   UNL     1       4.498  15.113  12.092  1.00  0.00    -0.354 N 
ATOM     51  C   UNL     1       7.672  16.305   9.402  1.00  0.00     0.074 A 
ATOM     52  C   UNL     1       7.271  16.160   8.025  1.00  0.00     0.031 C 
ATOM     53  C   UNL     1       2.453  14.393  12.643  1.00  0.00     0.029 A 
ATOM     54  C   UNL     1       3.733  14.822  13.196  1.00  0.00     0.049 A 
ATOM     55  H   UNL     1       5.445  15.377  12.145  1.00  0.00     0.167 HD
ATOM     56  C   UNL     1       8.887  16.758   9.789  1.00  0.00     0.037 A 
ATOM     57  C   UNL     1       4.023  14.912  14.508  1.00  0.00     0.037 A 
ATOM     58  C   UNL     1       9.269  16.938  11.162  1.00  0.00     0.049 A 
ATOM     59  C   UNL     1       5.380  15.413  14.917  1.00  0.00     0.074 A 
ATOM     60  C   UNL     1      10.451  17.446  11.667  1.00  0.00     0.029 A 
ATOM     61  N   UNL     1       8.470  16.614  12.249  1.00  0.00    -0.354 N 
ATOM     62  N   UNL     1       6.369  15.829  14.164  1.00  0.00    -0.248 NA
ATOM     63  C   UNL     1       5.662  15.460  16.358  1.00  0.00     0.031 C 
ATOM     64  C   UNL     1      10.392  17.373  13.060  1.00  0.00     0.029 A 
ATOM     65  C   UNL     1       9.148  16.881  13.425  1.00  0.00     0.049 A 
ATOM     66  H   UNL     1       7.558  16.249  12.192  1.00  0.00     0.167 HD
ATOM     67  C   UNL     1       7.383  16.201  15.035  1.00  0.00     0.074 A 
ATOM     68  C   UNL     1       6.878  15.988  16.376  1.00  0.00     0.031 C 
ATOM     69  C   UNL     1       8.624  16.667  14.751  1.00  0.00     0.037 A 
BRANCH  56  70
ATOM     70  C   UNL     1       9.876  17.131   8.718  1.00  0.00     0.064 A 
ATOM     71  C   UNL     1       9.659  18.229   7.869  1.00  0.00     0.173 A 
ATOM     72  C   UNL     1      11.081  16.427   8.576  1.00  0.00     0.173 A 
ATOM     73  F   UNL     1       8.520  18.934   7.953  1.00  0.00    -0.203 F 
ATOM     74  C   UNL     1      10.596  18.591   6.905  1.00  0.00     0.198 A 
ATOM     75  C   UNL     1      12.034  16.815   7.636  1.00  0.00     0.198 A 
ATOM     76  F   UNL     1      11.347  15.374   9.363  1.00  0.00    -0.203 F 
ATOM     77  F   UNL     1      10.342  19.613   6.076  1.00  0.00    -0.200 F 
ATOM     78  C   UNL     1      11.787  17.891   6.797  1.00  0.00     0.200 A 
ATOM     79  F   UNL     1      13.194  16.150   7.546  1.00  0.00    -0.200 F 
ATOM     80  F   UNL     1      12.698  18.253   5.882  1.00  0.00    -0.200 F 
ENDBRANCH  56  70
BRANCH  57  81
ATOM     81  C   UNL     1       2.980  14.577  15.514  1.00  0.00     0.064 A 
ATOM     82  C   UNL     1       2.411  15.574  16.319  1.00  0.00     0.173 A 
ATOM     83  C   UNL     1       2.495  13.269  15.659  1.00  0.00     0.173 A 
ATOM     84  F   UNL     1       2.848  16.839  16.229  1.00  0.00    -0.203 F 
ATOM     85  C   UNL     1       1.402  15.275  17.233  1.00  0.00     0.198 A 
ATOM     86  C   UNL     1       1.464  12.976  16.549  1.00  0.00     0.198 A 
ATOM     87  F   UNL     1       2.998  12.279  14.907  1.00  0.00    -0.203 F 
ATOM     88  F   UNL     1       0.897  16.242  18.011  1.00  0.00    -0.200 F 
ATOM     89  C   UNL     1       0.922  13.978  17.339  1.00  0.00     0.200 A 
ATOM     90  F   UNL     1       0.987  11.727  16.631  1.00  0.00    -0.200 F 
ATOM     91  F   UNL     1      -0.063  13.695  18.203  1.00  0.00    -0.200 F 
ENDBRANCH  57  81
BRANCH  69  92
ATOM     92  C   UNL     1       9.530  16.988  15.903  1.00  0.00     0.064 A 
ATOM     93  C   UNL     1      10.092  15.975  16.693  1.00  0.00     0.173 A 
ATOM     94  C   UNL     1       9.921  18.312  16.153  1.00  0.00     0.173 A 
ATOM     95  F   UNL     1       9.742  14.694  16.499  1.00  0.00    -0.203 F 
ATOM     96  C   UNL     1      11.002  16.278  17.701  1.00  0.00     0.198 A 
ATOM     97  C   UNL     1      10.860  18.608  17.137  1.00  0.00     0.198 A 
ATOM     98  F   UNL     1       9.422  19.317  15.416  1.00  0.00    -0.203 F 
ATOM     99  F   UNL     1      11.499  15.298  18.468  1.00  0.00    -0.200 F 
ATOM    100  C   UNL     1      11.395  17.591  17.913  1.00  0.00     0.200 A 
ATOM    101  F   UNL     1      11.256  19.874  17.324  1.00  0.00    -0.200 F 
ATOM    102  F   UNL     1      12.293  17.877  18.866  1.00  0.00    -0.200 F 
ENDBRANCH  69  92
ENDBRANCH  43  44
ENDBRANCH  36  38
ENDBRANCH  35  36
ENDBRANCH  34  35
ENDBRANCH   1  34
TORSDOF 16
