REMARK SMILES O=C(N[C@@H](Cc1c[nH]c2ccccc12)C(=O)N[C@@H](CO)C(=O)OCCOC(=O)c1ccc(-c2c3nc(c(-c4c(F)c(F)c(F)c(F)c4F)c4ccc([nH]4)c(-c4c(F)c(F)c(F)c(F)c4F)c4nc(c(-c5c(F)c(F)c(F)c(F)c5F)c5ccc2[nH]5)C=C4)C=C3)cc1)c1ccc(F)cc1
REMARK SMILES IDX 24 1 23 2 21 3 22 4 18 5 17 6 15 7 16 8 4 10 3 11 1 12 2 13
REMARK SMILES IDX 92 15 93 16 98 17 94 18 97 19 95 20 96 21 5 22 6 23 7 24
REMARK SMILES IDX 14 25 8 26 9 27 13 28 10 30 12 31 11 32 19 33 20 34 25 36
REMARK SMILES IDX 26 37 27 38 28 39 29 40 30 41 91 42 31 43 90 44 32 45 33 46
REMARK SMILES IDX 34 47 84 48 35 49 89 50 83 51 85 52 36 53 88 54 82 55 81 56
REMARK SMILES IDX 37 58 69 59 49 60 68 61 50 62 53 63 67 64 86 65 51 66 52 67
REMARK SMILES IDX 66 69 87 70 54 71 38 72 39 73 47 74 40 75 41 76 45 77 48 78
REMARK SMILES IDX 42 79 43 80 46 81 44 82 70 83 71 84 79 85 72 86 73 87 77 88
REMARK SMILES IDX 80 89 74 90 75 91 78 92 76 93 55 94 56 95 64 96 57 97 58 98
REMARK SMILES IDX 62 99 65 100 59 101 60 102 63 103 61 104
REMARK H PARENT 17 9 3 14 8 29 20 35 85 57 53 68
REMARK Flexibility Score: inf
ROOT
ATOM      1  C   UNL     1       5.209   7.872  -2.221  1.00  0.00     0.274 C 
ENDROOT
BRANCH   1   2
ATOM      2  O   UNL     1       4.249   6.882  -1.617  1.00  0.00    -0.460 OA
BRANCH   2   3
ATOM      3  C   UNL     1       4.345   6.434  -0.301  1.00  0.00     0.331 C 
ATOM      4  O   UNL     1       5.126   6.922   0.511  1.00  0.00    -0.250 OA
BRANCH   3   5
ATOM      5  C   UNL     1       3.410   5.145   0.034  1.00  0.00     0.218 C 
BRANCH   5   6
ATOM      6  N   UNL     1       4.122   4.120   0.905  1.00  0.00    -0.339 N 
ATOM      7  C   UNL     1       4.282   2.800   1.195  1.00  0.00     0.243 C 
ATOM      8  O   UNL     1       5.119   2.673   2.120  1.00  0.00    -0.273 OA
ATOM      9  H   UNL     1       4.713   4.621   1.512  1.00  0.00     0.164 HD
BRANCH   7  10
ATOM     10  C   UNL     1       3.659   1.383   0.673  1.00  0.00     0.176 C 
BRANCH  10  11
ATOM     11  N   UNL     1       2.264   1.023   0.946  1.00  0.00    -0.340 N 
ATOM     12  O   UNL     1       0.552  -0.460   0.842  1.00  0.00    -0.269 OA
ATOM     13  C   UNL     1       1.766  -0.280   0.963  1.00  0.00     0.251 C 
ATOM     14  H   UNL     1       1.632   1.755   1.131  1.00  0.00     0.164 HD
BRANCH  13  15
ATOM     15  C   UNL     1       2.680  -1.478   1.010  1.00  0.00     0.040 A 
ATOM     16  C   UNL     1       3.751  -1.570   1.913  1.00  0.00     0.017 A 
ATOM     17  C   UNL     1       2.489  -2.518   0.081  1.00  0.00     0.017 A 
ATOM     18  C   UNL     1       4.661  -2.631   1.833  1.00  0.00     0.040 A 
ATOM     19  C   UNL     1       3.384  -3.597   0.026  1.00  0.00     0.040 A 
ATOM     20  C   UNL     1       4.469  -3.635   0.893  1.00  0.00     0.123 A 
ATOM     21  F   UNL     1       5.339  -4.652   0.827  1.00  0.00    -0.207 F 
ENDBRANCH  13  15
ENDBRANCH  10  11
BRANCH  10  22
ATOM     22  C   UNL     1       4.101   0.668  -0.640  1.00  0.00     0.072 C 
BRANCH  22  23
ATOM     23  C   UNL     1       4.225   1.634  -1.701  1.00  0.00    -0.020 A 
ATOM     24  C   UNL     1       3.224   2.144  -2.500  1.00  0.00     0.087 A 
ATOM     25  C   UNL     1       5.381   2.417  -1.754  1.00  0.00     0.003 A 
ATOM     26  N   UNL     1       3.681   3.360  -2.900  1.00  0.00    -0.361 N 
ATOM     27  C   UNL     1       4.927   3.554  -2.349  1.00  0.00     0.046 A 
ATOM     28  C   UNL     1       6.626   2.400  -1.084  1.00  0.00     0.010 A 
ATOM     29  H   UNL     1       3.203   3.993  -3.483  1.00  0.00     0.166 HD
ATOM     30  C   UNL     1       5.671   4.690  -2.231  1.00  0.00     0.026 A 
ATOM     31  C   UNL     1       7.327   3.590  -0.912  1.00  0.00     0.001 A 
ATOM     32  C   UNL     1       6.830   4.745  -1.462  1.00  0.00     0.002 A 
ENDBRANCH  22  23
ENDBRANCH  10  22
ENDBRANCH   7  10
ENDBRANCH   5   6
BRANCH   5  33
ATOM     33  C   UNL     1       2.111   5.604   0.711  1.00  0.00     0.193 C 
BRANCH  33  34
ATOM     34  O   UNL     1       2.326   6.332   1.914  1.00  0.00    -0.394 OA
ATOM     35  H   UNL     1       2.775   5.764   2.559  1.00  0.00     0.210 HD
ENDBRANCH  33  34
ENDBRANCH   5  33
ENDBRANCH   3   5
ENDBRANCH   2   3
ENDBRANCH   1   2
BRANCH   1  36
ATOM     36  C   UNL     1       6.387   7.450  -3.296  1.00  0.00     0.275 C 
BRANCH  36  37
ATOM     37  O   UNL     1       6.150   6.381  -4.307  1.00  0.00    -0.458 OA
BRANCH  37  38
ATOM     38  C   UNL     1       7.204   5.523  -4.628  1.00  0.00     0.338 C 
ATOM     39  O   UNL     1       8.387   5.780  -4.376  1.00  0.00    -0.246 OA
BRANCH  38  40
ATOM     40  C   UNL     1       6.800   4.146  -5.177  1.00  0.00     0.060 A 
ATOM     41  C   UNL     1       5.465   3.799  -5.314  1.00  0.00     0.016 A 
ATOM     42  C   UNL     1       7.722   3.100  -5.412  1.00  0.00     0.016 A 
ATOM     43  C   UNL     1       5.074   2.454  -5.535  1.00  0.00     0.010 A 
ATOM     44  C   UNL     1       7.308   1.782  -5.820  1.00  0.00     0.010 A 
ATOM     45  C   UNL     1       5.953   1.427  -5.912  1.00  0.00    -0.014 A 
BRANCH  45  46
ATOM     46  C   UNL     1       5.423   0.108  -6.492  1.00  0.00     0.031 A 
ATOM     47  C   UNL     1       6.039  -1.260  -6.204  1.00  0.00     0.074 A 
ATOM     48  C   UNL     1       4.357   0.094  -7.339  1.00  0.00     0.049 A 
ATOM     49  N   UNL     1       5.958  -2.379  -6.898  1.00  0.00    -0.248 NA
ATOM     50  C   UNL     1       6.806  -1.403  -4.960  1.00  0.00     0.031 C 
ATOM     51  C   UNL     1       3.503   1.235  -7.674  1.00  0.00     0.029 A 
ATOM     52  N   UNL     1       3.807  -0.928  -8.099  1.00  0.00    -0.354 N 
ATOM     53  C   UNL     1       6.716  -3.333  -6.217  1.00  0.00     0.074 A 
ATOM     54  C   UNL     1       7.213  -2.669  -5.026  1.00  0.00     0.031 C 
ATOM     55  C   UNL     1       2.530   0.856  -8.506  1.00  0.00     0.029 A 
ATOM     56  C   UNL     1       2.798  -0.502  -8.939  1.00  0.00     0.049 A 
ATOM     57  H   UNL     1       4.106  -1.864  -8.045  1.00  0.00     0.167 HD
ATOM     58  C   UNL     1       6.990  -4.624  -6.562  1.00  0.00     0.037 A 
ATOM     59  C   UNL     1       2.213  -1.048 -10.024  1.00  0.00     0.037 A 
ATOM     60  C   UNL     1       6.457  -5.304  -7.726  1.00  0.00     0.049 A 
ATOM     61  C   UNL     1       2.656  -2.393 -10.509  1.00  0.00     0.074 A 
ATOM     62  C   UNL     1       6.733  -6.583  -8.191  1.00  0.00     0.029 A 
ATOM     63  N   UNL     1       5.522  -4.770  -8.599  1.00  0.00    -0.354 N 
ATOM     64  N   UNL     1       3.516  -3.217  -9.970  1.00  0.00    -0.248 NA
ATOM     65  C   UNL     1       2.071  -2.868 -11.771  1.00  0.00     0.031 C 
ATOM     66  C   UNL     1       6.011  -6.797  -9.373  1.00  0.00     0.029 A 
ATOM     67  C   UNL     1       5.233  -5.679  -9.609  1.00  0.00     0.049 A 
ATOM     68  H   UNL     1       5.121  -3.874  -8.515  1.00  0.00     0.167 HD
ATOM     69  C   UNL     1       3.555  -4.321 -10.809  1.00  0.00     0.074 A 
ATOM     70  C   UNL     1       2.629  -4.064 -11.891  1.00  0.00     0.031 C 
ATOM     71  C   UNL     1       4.298  -5.446 -10.681  1.00  0.00     0.037 A 
BRANCH  58  72
ATOM     72  C   UNL     1       7.992  -5.387  -5.726  1.00  0.00     0.064 A 
ATOM     73  C   UNL     1       7.704  -5.865  -4.439  1.00  0.00     0.173 A 
ATOM     74  C   UNL     1       9.258  -5.695  -6.260  1.00  0.00     0.173 A 
ATOM     75  F   UNL     1       6.510  -5.620  -3.881  1.00  0.00    -0.203 F 
ATOM     76  C   UNL     1       8.656  -6.576  -3.704  1.00  0.00     0.198 A 
ATOM     77  C   UNL     1      10.195  -6.431  -5.536  1.00  0.00     0.198 A 
ATOM     78  F   UNL     1       9.582  -5.299  -7.500  1.00  0.00    -0.203 F 
ATOM     79  F   UNL     1       8.375  -6.978  -2.457  1.00  0.00    -0.200 F 
ATOM     80  C   UNL     1       9.899  -6.859  -4.253  1.00  0.00     0.200 A 
ATOM     81  F   UNL     1      11.383  -6.725  -6.082  1.00  0.00    -0.200 F 
ATOM     82  F   UNL     1      10.811  -7.538  -3.544  1.00  0.00    -0.200 F 
ENDBRANCH  58  72
BRANCH  59  83
ATOM     83  C   UNL     1       1.218  -0.253 -10.805  1.00  0.00     0.064 A 
ATOM     84  C   UNL     1      -0.124  -0.646 -10.880  1.00  0.00     0.173 A 
ATOM     85  C   UNL     1       1.588   0.927 -11.475  1.00  0.00     0.173 A 
ATOM     86  F   UNL     1      -0.523  -1.781 -10.289  1.00  0.00    -0.203 F 
ATOM     87  C   UNL     1      -1.056   0.110 -11.590  1.00  0.00     0.198 A 
ATOM     88  C   UNL     1       0.648   1.703 -12.147  1.00  0.00     0.198 A 
ATOM     89  F   UNL     1       2.861   1.350 -11.441  1.00  0.00    -0.203 F 
ATOM     90  F   UNL     1      -2.326  -0.309 -11.679  1.00  0.00    -0.200 F 
ATOM     91  C   UNL     1      -0.673   1.291 -12.210  1.00  0.00     0.200 A 
ATOM     92  F   UNL     1       1.020   2.856 -12.720  1.00  0.00    -0.200 F 
ATOM     93  F   UNL     1      -1.576   2.029 -12.870  1.00  0.00    -0.200 F 
ENDBRANCH  59  83
BRANCH  71  94
ATOM     94  C   UNL     1       4.088  -6.528 -11.699  1.00  0.00     0.064 A 
ATOM     95  C   UNL     1       4.555  -6.411 -13.016  1.00  0.00     0.173 A 
ATOM     96  C   UNL     1       3.424  -7.712 -11.341  1.00  0.00     0.173 A 
ATOM     97  F   UNL     1       5.171  -5.288 -13.416  1.00  0.00    -0.203 F 
ATOM     98  C   UNL     1       4.350  -7.432 -13.942  1.00  0.00     0.198 A 
ATOM     99  C   UNL     1       3.245  -8.741 -12.261  1.00  0.00     0.198 A 
ATOM    100  F   UNL     1       2.950  -7.872 -10.096  1.00  0.00    -0.203 F 
ATOM    101  F   UNL     1       4.765  -7.279 -15.207  1.00  0.00    -0.200 F 
ATOM    102  C   UNL     1       3.704  -8.599 -13.562  1.00  0.00     0.200 A 
ATOM    103  F   UNL     1       2.625  -9.870 -11.890  1.00  0.00    -0.200 F 
ATOM    104  F   UNL     1       3.515  -9.583 -14.452  1.00  0.00    -0.200 F 
ENDBRANCH  71  94
ENDBRANCH  45  46
ENDBRANCH  38  40
ENDBRANCH  37  38
ENDBRANCH  36  37
ENDBRANCH   1  36
TORSDOF 19
