REMARK SMILES CC(C)n1c2c(c3ccccc31)[C@@H](c1ccccc1)N(CC(=O)OCCOC(=O)c1ccc(-c3c4nc(c(-c5c(F)c(F)c(F)c(F)c5F)c5ccc([nH]5)c(-c5c(F)c(F)c(F)c(F)c5F)c5nc(c(-c6c(F)c(F)c(F)c(F)c6F)c6ccc3[nH]6)C=C5)C=C4)cc1)C2=O
REMARK SMILES IDX 25 1 24 2 22 3 23 4 21 5 20 6 4 7 5 8 12 9 6 10 93 11 7 12
REMARK SMILES IDX 11 13 13 14 94 15 8 16 10 17 9 18 2 19 1 20 3 21 14 22 15 23
REMARK SMILES IDX 19 24 16 25 18 26 17 27 26 28 27 29 28 30 29 31 30 32 31 33
REMARK SMILES IDX 92 34 32 35 91 36 33 37 34 38 35 39 85 40 36 41 90 42 84 43
REMARK SMILES IDX 86 44 37 45 89 46 83 47 82 48 38 50 70 51 50 52 69 53 51 54
REMARK SMILES IDX 54 55 68 56 87 57 52 58 53 59 67 61 88 62 55 63 39 64 40 65
REMARK SMILES IDX 48 66 41 67 42 68 46 69 49 70 43 71 44 72 47 73 45 74 71 75
REMARK SMILES IDX 72 76 80 77 73 78 74 79 78 80 81 81 75 82 76 83 79 84 77 85
REMARK SMILES IDX 56 86 57 87 65 88 58 89 59 90 63 91 66 92 60 93 61 94 64 95
REMARK SMILES IDX 62 96
REMARK H PARENT 86 49 54 60
REMARK Flexibility Score: inf
ROOT
ATOM      1  C   UNL     1      -4.686  -3.764   5.371  1.00  0.00     0.274 C 
ENDROOT
BRANCH   1   2
ATOM      2  O   UNL     1      -4.181  -3.766   4.007  1.00  0.00    -0.461 OA
BRANCH   2   3
ATOM      3  C   UNL     1      -3.710  -4.952   3.528  1.00  0.00     0.325 C 
ATOM      4  O   UNL     1      -3.745  -6.008   4.154  1.00  0.00    -0.250 OA
BRANCH   3   5
ATOM      5  C   UNL     1      -3.192  -4.894   2.075  1.00  0.00     0.243 C 
BRANCH   5   6
ATOM      6  N   UNL     1      -3.045  -3.638   1.366  1.00  0.00    -0.315 N 
ATOM      7  N   UNL     1      -1.247  -0.587   1.157  1.00  0.00    -0.334 N 
ATOM      8  C   UNL     1      -1.993  -1.712   1.158  1.00  0.00     0.114 A 
ATOM      9  C   UNL     1      -2.126   0.493   1.177  1.00  0.00     0.049 A 
ATOM     10  C   UNL     1      -3.320  -1.417   1.059  1.00  0.00     0.018 A 
ATOM     11  C   UNL     1      -1.759  -3.095   1.338  1.00  0.00     0.272 C 
ATOM     12  C   UNL     1      -3.444  -0.021   1.133  1.00  0.00     0.006 A 
ATOM     13  C   UNL     1      -1.895   1.874   1.247  1.00  0.00     0.027 A 
ATOM     14  C   UNL     1      -4.142  -2.662   1.001  1.00  0.00     0.150 C 
ATOM     15  O   UNL     1      -0.709  -3.661   1.559  1.00  0.00    -0.267 OA
ATOM     16  C   UNL     1      -4.537   0.864   1.170  1.00  0.00     0.011 A 
ATOM     17  C   UNL     1      -2.999   2.732   1.286  1.00  0.00     0.002 A 
ATOM     18  C   UNL     1      -4.300   2.238   1.251  1.00  0.00     0.001 A 
BRANCH   7  19
ATOM     19  C   UNL     1       0.211  -0.594   1.180  1.00  0.00     0.082 C 
ATOM     20  C   UNL     1       0.821   0.072  -0.049  1.00  0.00     0.031 C 
ATOM     21  C   UNL     1       0.773  -0.075   2.499  1.00  0.00     0.031 C 
ENDBRANCH   7  19
BRANCH  14  22
ATOM     22  C   UNL     1      -4.714  -2.787  -0.435  1.00  0.00    -0.021 A 
ATOM     23  C   UNL     1      -5.728  -3.718  -0.734  1.00  0.00     0.006 A 
ATOM     24  C   UNL     1      -4.351  -1.962  -1.520  1.00  0.00     0.006 A 
ATOM     25  C   UNL     1      -6.332  -3.844  -1.992  1.00  0.00     0.000 A 
ATOM     26  C   UNL     1      -4.965  -2.062  -2.783  1.00  0.00     0.000 A 
ATOM     27  C   UNL     1      -5.951  -3.009  -3.023  1.00  0.00     0.000 A 
ENDBRANCH  14  22
ENDBRANCH   5   6
ENDBRANCH   3   5
ENDBRANCH   2   3
ENDBRANCH   1   2
BRANCH   1  28
ATOM     28  C   UNL     1      -6.109  -3.191   5.436  1.00  0.00     0.275 C 
BRANCH  28  29
ATOM     29  O   UNL     1      -7.036  -4.194   4.980  1.00  0.00    -0.458 OA
BRANCH  29  30
ATOM     30  C   UNL     1      -7.462  -4.044   3.706  1.00  0.00     0.338 C 
ATOM     31  O   UNL     1      -7.511  -3.014   3.055  1.00  0.00    -0.246 OA
BRANCH  30  32
ATOM     32  C   UNL     1      -7.345  -5.381   3.103  1.00  0.00     0.060 A 
ATOM     33  C   UNL     1      -7.972  -6.534   3.535  1.00  0.00     0.016 A 
ATOM     34  C   UNL     1      -6.371  -5.460   2.119  1.00  0.00     0.016 A 
ATOM     35  C   UNL     1      -7.510  -7.759   3.035  1.00  0.00     0.010 A 
ATOM     36  C   UNL     1      -5.949  -6.661   1.577  1.00  0.00     0.010 A 
ATOM     37  C   UNL     1      -6.441  -7.825   2.110  1.00  0.00    -0.014 A 
BRANCH  37  38
ATOM     38  C   UNL     1      -6.048  -9.089   1.491  1.00  0.00     0.031 A 
ATOM     39  C   UNL     1      -7.167  -9.611   0.684  1.00  0.00     0.074 A 
ATOM     40  C   UNL     1      -4.867  -9.750   1.507  1.00  0.00     0.049 A 
ATOM     41  N   UNL     1      -8.046 -10.440   1.128  1.00  0.00    -0.248 NA
ATOM     42  C   UNL     1      -7.506  -8.996  -0.604  1.00  0.00     0.031 C 
ATOM     43  C   UNL     1      -3.543  -9.334   1.971  1.00  0.00     0.029 A 
ATOM     44  N   UNL     1      -4.639 -11.037   1.084  1.00  0.00    -0.354 N 
ATOM     45  C   UNL     1      -8.960 -10.614   0.108  1.00  0.00     0.074 A 
ATOM     46  C   UNL     1      -8.683  -9.579  -0.855  1.00  0.00     0.031 C 
ATOM     47  C   UNL     1      -2.622 -10.283   1.649  1.00  0.00     0.029 A 
ATOM     48  C   UNL     1      -3.306 -11.448   1.107  1.00  0.00     0.049 A 
ATOM     49  H   UNL     1      -5.367 -11.628   0.785  1.00  0.00     0.167 HD
ATOM     50  C   UNL     1      -9.691 -11.759   0.075  1.00  0.00     0.037 A 
ATOM     51  C   UNL     1      -2.822 -12.680   0.773  1.00  0.00     0.037 A 
ATOM     52  C   UNL     1      -9.630 -12.434   1.357  1.00  0.00     0.049 A 
ATOM     53  C   UNL     1      -3.939 -13.640   0.944  1.00  0.00     0.074 A 
ATOM     54  C   UNL     1     -10.002 -12.111   2.649  1.00  0.00     0.029 A 
ATOM     55  N   UNL     1      -8.727 -13.462   1.479  1.00  0.00    -0.354 N 
ATOM     56  N   UNL     1      -4.447 -13.963   2.099  1.00  0.00    -0.248 NA
ATOM     57  C   UNL     1      -4.782 -13.895  -0.212  1.00  0.00     0.031 C 
ATOM     58  C   UNL     1      -8.968 -12.638   3.481  1.00  0.00     0.029 A 
ATOM     59  C   UNL     1      -8.061 -13.316   2.667  1.00  0.00     0.049 A 
ATOM     60  H   UNL     1      -8.583 -14.183   0.823  1.00  0.00     0.167 HD
ATOM     61  C   UNL     1      -5.811 -14.012   1.869  1.00  0.00     0.074 A 
ATOM     62  C   UNL     1      -5.952 -14.035   0.413  1.00  0.00     0.031 C 
ATOM     63  C   UNL     1      -6.695 -13.740   2.870  1.00  0.00     0.037 A 
BRANCH  50  64
ATOM     64  C   UNL     1     -10.065 -12.484  -1.192  1.00  0.00     0.064 A 
ATOM     65  C   UNL     1     -10.808 -13.677  -1.080  1.00  0.00     0.173 A 
ATOM     66  C   UNL     1      -9.466 -12.255  -2.448  1.00  0.00     0.173 A 
ATOM     67  F   UNL     1     -11.420 -13.997   0.070  1.00  0.00    -0.203 F 
ATOM     68  C   UNL     1     -10.845 -14.620  -2.107  1.00  0.00     0.198 A 
ATOM     69  C   UNL     1      -9.547 -13.178  -3.488  1.00  0.00     0.198 A 
ATOM     70  F   UNL     1      -8.688 -11.198  -2.696  1.00  0.00    -0.203 F 
ATOM     71  F   UNL     1     -11.439 -15.803  -1.899  1.00  0.00    -0.200 F 
ATOM     72  C   UNL     1     -10.204 -14.376  -3.306  1.00  0.00     0.200 A 
ATOM     73  F   UNL     1      -8.903 -12.930  -4.637  1.00  0.00    -0.200 F 
ATOM     74  F   UNL     1     -10.176 -15.308  -4.266  1.00  0.00    -0.200 F 
ENDBRANCH  50  64
BRANCH  51  75
ATOM     75  C   UNL     1      -1.613 -13.075  -0.007  1.00  0.00     0.064 A 
ATOM     76  C   UNL     1      -1.227 -14.430  -0.115  1.00  0.00     0.173 A 
ATOM     77  C   UNL     1      -1.035 -12.196  -0.938  1.00  0.00     0.173 A 
ATOM     78  F   UNL     1      -1.759 -15.353   0.701  1.00  0.00    -0.203 F 
ATOM     79  C   UNL     1      -0.361 -14.879  -1.122  1.00  0.00     0.198 A 
ATOM     80  C   UNL     1      -0.170 -12.646  -1.943  1.00  0.00     0.198 A 
ATOM     81  F   UNL     1      -1.383 -10.902  -0.957  1.00  0.00    -0.203 F 
ATOM     82  F   UNL     1      -0.085 -16.187  -1.238  1.00  0.00    -0.200 F 
ATOM     83  C   UNL     1       0.152 -13.988  -2.047  1.00  0.00     0.200 A 
ATOM     84  F   UNL     1       0.290 -11.782  -2.859  1.00  0.00    -0.200 F 
ATOM     85  F   UNL     1       0.916 -14.425  -3.058  1.00  0.00    -0.200 F 
ENDBRANCH  51  75
BRANCH  63  86
ATOM     86  C   UNL     1      -6.172 -13.681   4.280  1.00  0.00     0.064 A 
ATOM     87  C   UNL     1      -5.253 -12.727   4.751  1.00  0.00     0.173 A 
ATOM     88  C   UNL     1      -6.757 -14.534   5.226  1.00  0.00     0.173 A 
ATOM     89  F   UNL     1      -4.702 -11.830   3.924  1.00  0.00    -0.203 F 
ATOM     90  C   UNL     1      -4.933 -12.642   6.107  1.00  0.00     0.198 A 
ATOM     91  C   UNL     1      -6.463 -14.424   6.581  1.00  0.00     0.198 A 
ATOM     92  F   UNL     1      -7.665 -15.443   4.837  1.00  0.00    -0.203 F 
ATOM     93  F   UNL     1      -4.057 -11.721   6.537  1.00  0.00    -0.200 F 
ATOM     94  C   UNL     1      -5.550 -13.481   7.021  1.00  0.00     0.200 A 
ATOM     95  F   UNL     1      -7.095 -15.209   7.464  1.00  0.00    -0.200 F 
ATOM     96  F   UNL     1      -5.287 -13.362   8.331  1.00  0.00    -0.200 F 
ENDBRANCH  63  86
ENDBRANCH  37  38
ENDBRANCH  30  32
ENDBRANCH  29  30
ENDBRANCH  28  29
ENDBRANCH   1  28
TORSDOF 14
