REMARK SMILES CC(C)(Cn1ccc(=O)nc1SCC(=O)OCCOC(=O)c1ccc(-c2c3nc(c(-c4c(F)c(F)c(F)c(F)c4F)c4ccc([nH]4)c(-c4c(F)c(F)c(F)c(F)c4F)c4nc(c(-c5c(F)c(F)c(F)c(F)c5F)c5ccc2[nH]5)C=C4)C=C3)cc1)S(C)(=O)=O
REMARK SMILES IDX 16 1 14 2 15 3 13 4 12 5 11 6 5 7 6 8 7 9 10 10 8 11 9 12
REMARK SMILES IDX 4 13 2 14 1 15 3 16 85 17 86 18 87 19 88 20 17 21 18 22
REMARK SMILES IDX 19 23 20 24 21 25 22 26 23 27 84 28 24 29 83 30 25 31 26 32
REMARK SMILES IDX 27 33 77 34 28 35 82 36 76 37 78 38 29 39 81 40 75 41 74 42
REMARK SMILES IDX 30 44 62 45 42 46 61 47 43 48 46 49 60 50 79 51 44 52 45 53
REMARK SMILES IDX 59 55 80 56 47 57 31 58 32 59 40 60 33 61 34 62 38 63 41 64
REMARK SMILES IDX 35 65 36 66 39 67 37 68 63 69 64 70 72 71 65 72 66 73 70 74
REMARK SMILES IDX 73 75 67 76 68 77 71 78 69 79 48 80 49 81 57 82 50 83 51 84
REMARK SMILES IDX 55 85 58 86 52 87 53 88 56 89 54 90
REMARK H PARENT 78 43 46 54
REMARK Flexibility Score: inf
ROOT
ATOM      1  O   UNL     1      -0.958   2.232   4.672  1.00  0.00    -0.461 OA
ENDROOT
BRANCH   1   2
ATOM      2  C   UNL     1      -2.148   2.445   4.037  1.00  0.00     0.316 C 
ATOM      3  O   UNL     1      -2.608   3.566   3.822  1.00  0.00    -0.251 OA
BRANCH   2   4
ATOM      4  C   UNL     1      -2.796   1.163   3.464  1.00  0.00     0.200 C 
BRANCH   4   5
ATOM      5  S   UNL     1      -1.889  -0.351   3.884  1.00  0.00    -0.076 SA
BRANCH   5   6
ATOM      6  C   UNL     1      -2.161  -1.493   2.568  1.00  0.00     0.172 A 
ATOM      7  N   UNL     1      -1.270  -1.648   1.479  1.00  0.00    -0.326 N 
ATOM      8  C   UNL     1      -1.569  -2.664   0.585  1.00  0.00     0.094 A 
ATOM      9  C   UNL     1      -2.537  -3.550   0.807  1.00  0.00     0.091 A 
ATOM     10  N   UNL     1      -3.146  -2.296   2.818  1.00  0.00    -0.185 NA
ATOM     11  C   UNL     1      -3.325  -3.425   2.055  1.00  0.00     0.273 A 
ATOM     12  O   UNL     1      -4.074  -4.336   2.359  1.00  0.00    -0.267 OA
BRANCH   7  13
ATOM     13  C   UNL     1      -0.178  -0.709   1.169  1.00  0.00     0.146 C 
BRANCH  13  14
ATOM     14  C   UNL     1       1.296  -1.146   1.342  1.00  0.00     0.084 C 
ATOM     15  C   UNL     1       1.751  -2.153   0.280  1.00  0.00     0.030 C 
ATOM     16  C   UNL     1       2.185   0.110   1.132  1.00  0.00     0.030 C 
BRANCH  14  17
ATOM     17  S   UNL     1       1.689  -1.733   3.013  1.00  0.00     0.154 S 
ATOM     18  C   UNL     1       0.822  -3.266   3.251  1.00  0.00     0.158 C 
ATOM     19  O   UNL     1       3.103  -2.072   3.019  1.00  0.00    -0.229 OA
ATOM     20  O   UNL     1       1.206  -0.761   3.971  1.00  0.00    -0.229 OA
ENDBRANCH  14  17
ENDBRANCH  13  14
ENDBRANCH   7  13
ENDBRANCH   5   6
ENDBRANCH   4   5
ENDBRANCH   2   4
ENDBRANCH   1   2
BRANCH   1  21
ATOM     21  C   UNL     1      -0.033   3.335   4.829  1.00  0.00     0.274 C 
BRANCH  21  22
ATOM     22  C   UNL     1       1.109   3.294   3.787  1.00  0.00     0.275 C 
BRANCH  22  23
ATOM     23  O   UNL     1       0.799   3.872   2.487  1.00  0.00    -0.458 OA
BRANCH  23  24
ATOM     24  C   UNL     1      -0.023   3.104   1.760  1.00  0.00     0.338 C 
ATOM     25  O   UNL     1      -0.584   2.092   2.141  1.00  0.00    -0.246 OA
BRANCH  24  26
ATOM     26  C   UNL     1      -0.148   3.312   0.335  1.00  0.00     0.060 A 
ATOM     27  C   UNL     1       0.865   2.768  -0.457  1.00  0.00     0.016 A 
ATOM     28  C   UNL     1      -1.428   3.543  -0.188  1.00  0.00     0.016 A 
ATOM     29  C   UNL     1       0.609   2.462  -1.786  1.00  0.00     0.010 A 
ATOM     30  C   UNL     1      -1.665   3.317  -1.543  1.00  0.00     0.010 A 
ATOM     31  C   UNL     1      -0.629   2.812  -2.349  1.00  0.00    -0.014 A 
BRANCH  31  32
ATOM     32  C   UNL     1      -0.600   3.124  -3.794  1.00  0.00     0.031 A 
ATOM     33  C   UNL     1      -0.111   4.512  -4.124  1.00  0.00     0.074 A 
ATOM     34  C   UNL     1      -0.779   2.200  -4.752  1.00  0.00     0.049 A 
ATOM     35  N   UNL     1       0.069   5.086  -5.281  1.00  0.00    -0.248 NA
ATOM     36  C   UNL     1       0.274   5.358  -2.975  1.00  0.00     0.031 C 
ATOM     37  C   UNL     1      -1.080   0.786  -4.534  1.00  0.00     0.029 A 
ATOM     38  N   UNL     1      -0.679   2.315  -6.116  1.00  0.00    -0.354 N 
ATOM     39  C   UNL     1       0.590   6.340  -4.989  1.00  0.00     0.074 A 
ATOM     40  C   UNL     1       0.700   6.459  -3.561  1.00  0.00     0.031 C 
ATOM     41  C   UNL     1      -1.108   0.158  -5.726  1.00  0.00     0.029 A 
ATOM     42  C   UNL     1      -0.878   1.134  -6.791  1.00  0.00     0.049 A 
ATOM     43  H   UNL     1      -0.483   3.166  -6.570  1.00  0.00     0.167 HD
ATOM     44  C   UNL     1       0.950   7.320  -5.842  1.00  0.00     0.037 A 
ATOM     45  C   UNL     1      -0.886   0.898  -8.119  1.00  0.00     0.037 A 
ATOM     46  C   UNL     1       0.805   7.212  -7.258  1.00  0.00     0.049 A 
ATOM     47  C   UNL     1      -0.655   2.066  -9.055  1.00  0.00     0.074 A 
ATOM     48  C   UNL     1       0.973   8.184  -8.222  1.00  0.00     0.029 A 
ATOM     49  N   UNL     1       0.454   6.038  -7.908  1.00  0.00    -0.354 N 
ATOM     50  N   UNL     1      -0.290   3.295  -8.776  1.00  0.00    -0.248 NA
ATOM     51  C   UNL     1      -0.868   1.820 -10.489  1.00  0.00     0.031 C 
ATOM     52  C   UNL     1       0.700   7.601  -9.462  1.00  0.00     0.029 A 
ATOM     53  C   UNL     1       0.404   6.259  -9.268  1.00  0.00     0.049 A 
ATOM     54  H   UNL     1       0.269   5.179  -7.465  1.00  0.00     0.167 HD
ATOM     55  C   UNL     1      -0.210   3.959  -9.994  1.00  0.00     0.074 A 
ATOM     56  C   UNL     1      -0.543   2.991 -11.018  1.00  0.00     0.031 C 
ATOM     57  C   UNL     1       0.095   5.255 -10.251  1.00  0.00     0.037 A 
BRANCH  44  58
ATOM     58  C   UNL     1       1.454   8.591  -5.238  1.00  0.00     0.064 A 
ATOM     59  C   UNL     1       2.737   8.677  -4.678  1.00  0.00     0.173 A 
ATOM     60  C   UNL     1       0.624   9.717  -5.169  1.00  0.00     0.173 A 
ATOM     61  F   UNL     1       3.543   7.604  -4.669  1.00  0.00    -0.203 F 
ATOM     62  C   UNL     1       3.167   9.848  -4.061  1.00  0.00     0.198 A 
ATOM     63  C   UNL     1       1.066  10.894  -4.573  1.00  0.00     0.198 A 
ATOM     64  F   UNL     1      -0.623   9.669  -5.661  1.00  0.00    -0.203 F 
ATOM     65  F   UNL     1       4.376   9.894  -3.483  1.00  0.00    -0.200 F 
ATOM     66  C   UNL     1       2.335  10.957  -4.016  1.00  0.00     0.200 A 
ATOM     67  F   UNL     1       0.258  11.961  -4.523  1.00  0.00    -0.200 F 
ATOM     68  F   UNL     1       2.750  12.083  -3.420  1.00  0.00    -0.200 F 
ENDBRANCH  44  58
BRANCH  45  69
ATOM     69  C   UNL     1      -1.165  -0.461  -8.668  1.00  0.00     0.064 A 
ATOM     70  C   UNL     1      -0.223  -1.131  -9.465  1.00  0.00     0.173 A 
ATOM     71  C   UNL     1      -2.406  -1.089  -8.477  1.00  0.00     0.173 A 
ATOM     72  F   UNL     1       0.969  -0.567  -9.709  1.00  0.00    -0.203 F 
ATOM     73  C   UNL     1      -0.520  -2.355 -10.067  1.00  0.00     0.198 A 
ATOM     74  C   UNL     1      -2.690  -2.327  -9.052  1.00  0.00     0.198 A 
ATOM     75  F   UNL     1      -3.353  -0.493  -7.737  1.00  0.00    -0.203 F 
ATOM     76  F   UNL     1       0.377  -2.939 -10.873  1.00  0.00    -0.200 F 
ATOM     77  C   UNL     1      -1.752  -2.954  -9.857  1.00  0.00     0.200 A 
ATOM     78  F   UNL     1      -3.881  -2.904  -8.838  1.00  0.00    -0.200 F 
ATOM     79  F   UNL     1      -2.041  -4.125 -10.440  1.00  0.00    -0.200 F 
ENDBRANCH  45  69
BRANCH  57  80
ATOM     80  C   UNL     1       0.115   5.700 -11.681  1.00  0.00     0.064 A 
ATOM     81  C   UNL     1      -1.073   5.910 -12.394  1.00  0.00     0.173 A 
ATOM     82  C   UNL     1       1.330   6.033 -12.299  1.00  0.00     0.173 A 
ATOM     83  F   UNL     1      -2.256   5.601 -11.842  1.00  0.00    -0.203 F 
ATOM     84  C   UNL     1      -1.044   6.433 -13.682  1.00  0.00     0.198 A 
ATOM     85  C   UNL     1       1.352   6.582 -13.575  1.00  0.00     0.198 A 
ATOM     86  F   UNL     1       2.489   5.864 -11.645  1.00  0.00    -0.203 F 
ATOM     87  F   UNL     1      -2.189   6.607 -14.357  1.00  0.00    -0.200 F 
ATOM     88  C   UNL     1       0.166   6.780 -14.267  1.00  0.00     0.200 A 
ATOM     89  F   UNL     1       2.519   6.937 -14.130  1.00  0.00    -0.200 F 
ATOM     90  F   UNL     1       0.188   7.308 -15.498  1.00  0.00    -0.200 F 
ENDBRANCH  57  80
ENDBRANCH  31  32
ENDBRANCH  24  26
ENDBRANCH  23  24
ENDBRANCH  22  23
ENDBRANCH  21  22
ENDBRANCH   1  21
TORSDOF 16
