REMARK SMILES COc1c(C)cccc1C(=O)NC(=S)Nc1ccc(C(=O)OCCOC(=O)c2ccc(-c3c4nc(c(-c5c(F)c(F)c(F)c(F)c5F)c5ccc([nH]5)c(-c5c(F)c(F)c(F)c(F)c5F)c5nc(c(-c6c(F)c(F)c(F)c(F)c6F)c6ccc3[nH]6)C=C5)C=C4)cc2)cc1C
REMARK SMILES IDX 22 1 20 2 21 3 19 4 16 5 17 6 92 7 18 8 91 9 93 10 15 11
REMARK SMILES IDX 13 13 14 14 12 15 10 16 11 17 9 19 3 20 4 21 5 22 6 23 8 24
REMARK SMILES IDX 7 25 2 26 1 27 23 28 24 29 25 30 26 31 27 32 28 33 29 34
REMARK SMILES IDX 90 35 30 36 89 37 31 38 32 39 33 40 83 41 34 42 88 43 82 44
REMARK SMILES IDX 84 45 35 46 87 47 81 48 80 49 36 51 68 52 48 53 67 54 49 55
REMARK SMILES IDX 52 56 66 57 85 58 50 59 51 60 65 62 86 63 53 64 37 65 38 66
REMARK SMILES IDX 46 67 39 68 40 69 44 70 47 71 41 72 42 73 45 74 43 75 69 76
REMARK SMILES IDX 70 77 78 78 71 79 72 80 76 81 79 82 73 83 74 84 77 85 75 86
REMARK SMILES IDX 54 87 55 88 63 89 56 90 57 91 61 92 64 93 58 94 59 95 62 96
REMARK SMILES IDX 60 97
REMARK H PARENT 15 12 12 18 84 50 52 61
REMARK Flexibility Score: inf
ROOT
ATOM      1  O   UNL     1       0.719   2.923   5.972  1.00  0.00    -0.458 OA
ENDROOT
BRANCH   1   2
ATOM      2  C   UNL     1       0.728   1.727   5.303  1.00  0.00     0.338 C 
ATOM      3  O   UNL     1       1.007   0.702   5.924  1.00  0.00    -0.246 OA
BRANCH   2   4
ATOM      4  C   UNL     1       0.500   1.666   3.551  1.00  0.00     0.060 A 
ATOM      5  C   UNL     1       0.951  -0.465   0.771  1.00  0.00     0.043 A 
ATOM      6  C   UNL     1       0.148  -0.949   2.270  1.00  0.00     0.027 A 
ATOM      7  C   UNL     1       1.928   1.123   0.651  1.00  0.00    -0.027 A 
ATOM      8  C   UNL     1      -0.153   0.068   3.539  1.00  0.00     0.018 A 
ATOM      9  C   UNL     1       1.580   2.359   1.966  1.00  0.00     0.021 A 
ATOM     10  C   UNL     1       3.083   1.641  -0.179  1.00  0.00     0.046 C 
BRANCH   5  11
ATOM     11  N   UNL     1      -0.566  -0.599   0.096  1.00  0.00    -0.332 N 
ATOM     12  H   UNL     1      -0.637  -1.453  -0.389  1.00  0.00     0.169 HD
BRANCH  11  13
ATOM     13  C   UNL     1      -1.788   0.110  -0.011  1.00  0.00     0.177 C 
ATOM     14  S   UNL     1      -2.943  -0.606  -1.020  1.00  0.00    -0.040 S 
BRANCH  13  15
ATOM     15  N   UNL     1      -2.216   1.368   0.524  1.00  0.00    -0.299 N 
ATOM     16  C   UNL     1      -1.927   2.582   1.302  1.00  0.00     0.261 C 
ATOM     17  O   UNL     1      -2.750   3.481   1.448  1.00  0.00    -0.269 OA
ATOM     18  H   UNL     1      -3.150   1.467   0.232  1.00  0.00     0.172 HD
BRANCH  16  19
ATOM     19  C   UNL     1      -0.628   2.682   1.944  1.00  0.00     0.082 A 
ATOM     20  C   UNL     1       0.152   1.206   1.643  1.00  0.00     0.134 A 
ATOM     21  C   UNL     1       1.848   0.630   2.626  1.00  0.00    -0.008 A 
ATOM     22  C   UNL     1       3.010  -0.400   2.450  1.00  0.00     0.048 C 
ATOM     23  C   UNL     1       2.598   1.901   3.690  1.00  0.00     0.007 A 
ATOM     24  C   UNL     1       0.135   3.797   2.964  1.00  0.00     0.018 A 
ATOM     25  C   UNL     1       1.677   3.441   3.789  1.00  0.00     0.001 A 
BRANCH  20  26
ATOM     26  O   UNL     1       0.117   1.785  -0.069  1.00  0.00    -0.496 OA
ATOM     27  C   UNL     1       0.464   1.096  -1.406  1.00  0.00     0.278 C 
ENDBRANCH  20  26
ENDBRANCH  16  19
ENDBRANCH  13  15
ENDBRANCH  11  13
ENDBRANCH   5  11
ENDBRANCH   2   4
ENDBRANCH   1   2
BRANCH   1  28
ATOM     28  C   UNL     1       1.208   2.987   7.345  1.00  0.00     0.275 C 
BRANCH  28  29
ATOM     29  C   UNL     1       2.709   2.716   7.742  1.00  0.00     0.275 C 
BRANCH  29  30
ATOM     30  O   UNL     1       3.973   3.250   7.198  1.00  0.00    -0.458 OA
BRANCH  30  31
ATOM     31  C   UNL     1       4.314   3.764   5.992  1.00  0.00     0.338 C 
ATOM     32  O   UNL     1       5.177   3.289   5.273  1.00  0.00    -0.246 OA
BRANCH  31  33
ATOM     33  C   UNL     1       3.626   5.021   5.662  1.00  0.00     0.060 A 
ATOM     34  C   UNL     1       3.474   5.470   4.321  1.00  0.00     0.016 A 
ATOM     35  C   UNL     1       2.805   5.479   6.668  1.00  0.00     0.016 A 
ATOM     36  C   UNL     1       2.394   6.299   3.995  1.00  0.00     0.010 A 
ATOM     37  C   UNL     1       1.590   5.942   6.294  1.00  0.00     0.010 A 
ATOM     38  C   UNL     1       1.446   6.476   5.007  1.00  0.00    -0.014 A 
BRANCH  38  39
ATOM     39  C   UNL     1       0.508   7.570   5.141  1.00  0.00     0.031 A 
ATOM     40  C   UNL     1      -0.901   7.219   4.790  1.00  0.00     0.074 A 
ATOM     41  C   UNL     1       1.188   8.503   5.880  1.00  0.00     0.049 A 
ATOM     42  N   UNL     1      -1.674   7.807   3.933  1.00  0.00    -0.248 NA
ATOM     43  C   UNL     1      -1.525   5.944   5.247  1.00  0.00     0.031 C 
ATOM     44  C   UNL     1       0.896   9.682   6.665  1.00  0.00     0.029 A 
ATOM     45  N   UNL     1       2.615   8.488   5.988  1.00  0.00    -0.354 N 
ATOM     46  C   UNL     1      -2.953   7.374   4.288  1.00  0.00     0.074 A 
ATOM     47  C   UNL     1      -2.760   6.024   4.731  1.00  0.00     0.031 C 
ATOM     48  C   UNL     1       2.000  10.475   6.658  1.00  0.00     0.029 A 
ATOM     49  C   UNL     1       3.075   9.794   5.932  1.00  0.00     0.049 A 
ATOM     50  H   UNL     1       3.176   7.684   6.085  1.00  0.00     0.167 HD
ATOM     51  C   UNL     1      -3.820   8.284   4.851  1.00  0.00     0.037 A 
ATOM     52  C   UNL     1       3.666  10.100   4.739  1.00  0.00     0.037 A 
ATOM     53  C   UNL     1      -3.090   9.536   5.081  1.00  0.00     0.049 A 
ATOM     54  C   UNL     1       2.603  10.713   3.841  1.00  0.00     0.074 A 
ATOM     55  C   UNL     1      -2.560  10.155   6.196  1.00  0.00     0.029 A 
ATOM     56  N   UNL     1      -2.474  10.127   4.000  1.00  0.00    -0.354 N 
ATOM     57  N   UNL     1       1.315  10.582   4.035  1.00  0.00    -0.248 NA
ATOM     58  C   UNL     1       2.906  11.515   2.668  1.00  0.00     0.031 C 
ATOM     59  C   UNL     1      -1.607  11.127   5.733  1.00  0.00     0.029 A 
ATOM     60  C   UNL     1      -1.497  11.026   4.356  1.00  0.00     0.049 A 
ATOM     61  H   UNL     1      -2.710   9.925   3.066  1.00  0.00     0.167 HD
ATOM     62  C   UNL     1       0.625  11.356   3.159  1.00  0.00     0.074 A 
ATOM     63  C   UNL     1       1.666  11.809   2.239  1.00  0.00     0.031 C 
ATOM     64  C   UNL     1      -0.717  11.624   3.276  1.00  0.00     0.037 A 
BRANCH  51  65
ATOM     65  C   UNL     1      -5.202   8.052   5.452  1.00  0.00     0.064 A 
ATOM     66  C   UNL     1      -5.920   9.166   5.954  1.00  0.00     0.173 A 
ATOM     67  C   UNL     1      -5.907   6.832   5.522  1.00  0.00     0.173 A 
ATOM     68  F   UNL     1      -5.414  10.405   5.886  1.00  0.00    -0.203 F 
ATOM     69  C   UNL     1      -7.196   9.064   6.518  1.00  0.00     0.198 A 
ATOM     70  C   UNL     1      -7.191   6.731   6.087  1.00  0.00     0.198 A 
ATOM     71  F   UNL     1      -5.404   5.693   5.036  1.00  0.00    -0.203 F 
ATOM     72  F   UNL     1      -7.804  10.163   6.987  1.00  0.00    -0.200 F 
ATOM     73  C   UNL     1      -7.833   7.845   6.588  1.00  0.00     0.200 A 
ATOM     74  F   UNL     1      -7.808   5.540   6.137  1.00  0.00    -0.200 F 
ATOM     75  F   UNL     1      -9.059   7.749   7.119  1.00  0.00    -0.200 F 
ENDBRANCH  51  65
BRANCH  52  76
ATOM     76  C   UNL     1       4.708   9.070   4.306  1.00  0.00     0.064 A 
ATOM     77  C   UNL     1       5.579   8.518   5.289  1.00  0.00     0.173 A 
ATOM     78  C   UNL     1       4.721   8.425   3.061  1.00  0.00     0.173 A 
ATOM     79  F   UNL     1       5.663   9.079   6.507  1.00  0.00    -0.203 F 
ATOM     80  C   UNL     1       6.276   7.321   5.094  1.00  0.00     0.198 A 
ATOM     81  C   UNL     1       5.483   7.261   2.842  1.00  0.00     0.198 A 
ATOM     82  F   UNL     1       3.897   8.819   2.081  1.00  0.00    -0.203 F 
ATOM     83  F   UNL     1       6.880   6.723   6.132  1.00  0.00    -0.200 F 
ATOM     84  C   UNL     1       6.229   6.692   3.867  1.00  0.00     0.200 A 
ATOM     85  F   UNL     1       5.336   6.580   1.694  1.00  0.00    -0.200 F 
ATOM     86  F   UNL     1       6.763   5.470   3.715  1.00  0.00    -0.200 F 
ENDBRANCH  52  76
BRANCH  64  87
ATOM     87  C   UNL     1      -1.429  12.514   2.296  1.00  0.00     0.064 A 
ATOM     88  C   UNL     1      -0.812  13.650   1.765  1.00  0.00     0.173 A 
ATOM     89  C   UNL     1      -2.767  12.300   1.887  1.00  0.00     0.173 A 
ATOM     90  F   UNL     1       0.363  14.087   2.242  1.00  0.00    -0.203 F 
ATOM     91  C   UNL     1      -1.398  14.385   0.741  1.00  0.00     0.198 A 
ATOM     92  C   UNL     1      -3.391  13.101   0.944  1.00  0.00     0.198 A 
ATOM     93  F   UNL     1      -3.529  11.304   2.352  1.00  0.00    -0.203 F 
ATOM     94  F   UNL     1      -0.699  15.362   0.152  1.00  0.00    -0.200 F 
ATOM     95  C   UNL     1      -2.687  14.108   0.328  1.00  0.00     0.200 A 
ATOM     96  F   UNL     1      -4.671  12.866   0.625  1.00  0.00    -0.200 F 
ATOM     97  F   UNL     1      -3.256  14.821  -0.650  1.00  0.00    -0.200 F 
ENDBRANCH  64  87
ENDBRANCH  38  39
ENDBRANCH  31  33
ENDBRANCH  30  31
ENDBRANCH  29  30
ENDBRANCH  28  29
ENDBRANCH   1  28
TORSDOF 16
