REMARK SMILES C[C@H]1CC[C@@H](C2(C(=O)OCCOC(=O)c3ccc(-c4c5nc(c(-c6c(F)c(F)c(F)c(F)c6F)c6ccc([nH]6)c(-c6c(F)c(F)c(F)c(F)c6F)c6nc(c(-c7c(F)c(F)c(F)c(F)c7F)c7ccc4[nH]7)C=C6)C=C5)cc3)CCCCC2)C[C@@H]1C
REMARK SMILES IDX 11 1 10 2 9 3 7 4 8 5 6 6 78 7 82 8 79 9 81 10 80 11 5 12
REMARK SMILES IDX 1 13 2 14 3 15 84 16 4 17 83 18 85 19 12 20 13 21 14 22
REMARK SMILES IDX 15 23 16 24 77 25 17 26 76 27 18 28 19 29 20 30 70 31 21 32
REMARK SMILES IDX 75 33 69 34 71 35 22 36 74 37 68 38 67 39 23 41 55 42 35 43
REMARK SMILES IDX 54 44 36 45 39 46 53 47 72 48 37 49 38 50 52 52 73 53 40 54
REMARK SMILES IDX 24 55 25 56 33 57 26 58 27 59 31 60 34 61 28 62 29 63 32 64
REMARK SMILES IDX 30 65 56 66 57 67 65 68 58 69 59 70 63 71 66 72 60 73 61 74
REMARK SMILES IDX 64 75 62 76 41 77 42 78 50 79 43 80 44 81 48 82 51 83 45 84
REMARK SMILES IDX 46 85 49 86 47 87
REMARK H PARENT 71 40 39 51
REMARK Flexibility Score: inf
ROOT
ATOM      1  C   UNL     1      -0.550  -2.284   4.804  1.00  0.00     0.275 C 
ENDROOT
BRANCH   1   2
ATOM      2  C   UNL     1      -0.992  -0.864   5.279  1.00  0.00     0.274 C 
BRANCH   2   3
ATOM      3  O   UNL     1      -2.150  -0.387   4.532  1.00  0.00    -0.462 OA
BRANCH   3   4
ATOM      4  C   UNL     1      -2.302   0.977   4.368  1.00  0.00     0.312 C 
ATOM      5  O   UNL     1      -1.659   1.811   4.990  1.00  0.00    -0.252 OA
BRANCH   4   6
ATOM      6  C   UNL     1      -3.306   1.321   3.221  1.00  0.00     0.071 C 
ATOM      7  C   UNL     1      -4.064   2.636   3.571  1.00  0.00     0.019 C 
ATOM      8  C   UNL     1      -4.397   0.197   3.228  1.00  0.00     0.019 C 
ATOM      9  C   UNL     1      -5.240   2.932   2.625  1.00  0.00     0.001 C 
ATOM     10  C   UNL     1      -5.562   0.438   2.277  1.00  0.00     0.001 C 
ATOM     11  C   UNL     1      -6.235   1.776   2.544  1.00  0.00     0.000 C 
BRANCH   6  12
ATOM     12  C   UNL     1      -2.605   1.483   1.793  1.00  0.00     0.007 C 
ATOM     13  C   UNL     1       1.676   0.733   2.489  1.00  0.00     0.008 C 
ATOM     14  C   UNL     1       0.432   1.095   1.655  1.00  0.00    -0.011 C 
ATOM     15  C   UNL     1      -0.602   0.050   1.942  1.00  0.00     0.004 C 
ATOM     16  C   UNL     1      -0.135   2.478   1.986  1.00  0.00    -0.011 C 
ATOM     17  C   UNL     1      -1.940   0.217   1.278  1.00  0.00     0.005 C 
ATOM     18  C   UNL     1      -1.609   2.660   1.538  1.00  0.00     0.008 C 
ATOM     19  C   UNL     1       0.767   3.522   1.317  1.00  0.00     0.008 C 
ENDBRANCH   6  12
ENDBRANCH   4   6
ENDBRANCH   3   4
ENDBRANCH   2   3
ENDBRANCH   1   2
BRANCH   1  20
ATOM     20  O   UNL     1       0.115  -2.273   3.508  1.00  0.00    -0.458 OA
BRANCH  20  21
ATOM     21  C   UNL     1       0.176  -3.448   2.806  1.00  0.00     0.338 C 
ATOM     22  O   UNL     1      -0.173  -4.543   3.199  1.00  0.00    -0.246 OA
BRANCH  21  23
ATOM     23  C   UNL     1       0.615  -3.179   1.400  1.00  0.00     0.060 A 
ATOM     24  C   UNL     1      -0.346  -2.710   0.496  1.00  0.00     0.016 A 
ATOM     25  C   UNL     1       1.945  -3.283   0.977  1.00  0.00     0.016 A 
ATOM     26  C   UNL     1       0.045  -2.131  -0.717  1.00  0.00     0.010 A 
ATOM     27  C   UNL     1       2.315  -2.831  -0.312  1.00  0.00     0.010 A 
ATOM     28  C   UNL     1       1.374  -2.208  -1.152  1.00  0.00    -0.014 A 
BRANCH  28  29
ATOM     29  C   UNL     1       1.648  -1.853  -2.576  1.00  0.00     0.031 A 
ATOM     30  C   UNL     1       1.192  -2.835  -3.625  1.00  0.00     0.074 A 
ATOM     31  C   UNL     1       2.109  -0.648  -2.970  1.00  0.00     0.049 A 
ATOM     32  N   UNL     1       1.312  -2.795  -4.926  1.00  0.00    -0.248 NA
ATOM     33  C   UNL     1       0.450  -4.005  -3.126  1.00  0.00     0.031 C 
ATOM     34  C   UNL     1       2.394   0.480  -2.088  1.00  0.00     0.029 A 
ATOM     35  N   UNL     1       2.382  -0.158  -4.230  1.00  0.00    -0.354 N 
ATOM     36  C   UNL     1       0.675  -3.938  -5.393  1.00  0.00     0.074 A 
ATOM     37  C   UNL     1       0.121  -4.620  -4.247  1.00  0.00     0.031 C 
ATOM     38  C   UNL     1       2.797   1.529  -2.830  1.00  0.00     0.029 A 
ATOM     39  C   UNL     1       2.874   1.128  -4.235  1.00  0.00     0.049 A 
ATOM     40  H   UNL     1       2.239  -0.681  -5.052  1.00  0.00     0.167 HD
ATOM     41  C   UNL     1       0.599  -4.410  -6.659  1.00  0.00     0.037 A 
ATOM     42  C   UNL     1       3.375   1.870  -5.249  1.00  0.00     0.037 A 
ATOM     43  C   UNL     1       1.193  -3.756  -7.790  1.00  0.00     0.049 A 
ATOM     44  C   UNL     1       3.421   1.268  -6.637  1.00  0.00     0.074 A 
ATOM     45  C   UNL     1       1.289  -4.199  -9.095  1.00  0.00     0.029 A 
ATOM     46  N   UNL     1       1.810  -2.514  -7.737  1.00  0.00    -0.354 N 
ATOM     47  N   UNL     1       2.940   0.122  -7.059  1.00  0.00    -0.248 NA
ATOM     48  C   UNL     1       4.107   2.044  -7.683  1.00  0.00     0.031 C 
ATOM     49  C   UNL     1       2.017  -3.249  -9.821  1.00  0.00     0.029 A 
ATOM     50  C   UNL     1       2.315  -2.185  -8.982  1.00  0.00     0.049 A 
ATOM     51  H   UNL     1       1.877  -1.951  -6.933  1.00  0.00     0.167 HD
ATOM     52  C   UNL     1       3.257   0.042  -8.410  1.00  0.00     0.074 A 
ATOM     53  C   UNL     1       3.950   1.268  -8.747  1.00  0.00     0.031 C 
ATOM     54  C   UNL     1       3.005  -0.958  -9.292  1.00  0.00     0.037 A 
BRANCH  41  55
ATOM     55  C   UNL     1      -0.013  -5.770  -6.826  1.00  0.00     0.064 A 
ATOM     56  C   UNL     1      -1.389  -6.002  -6.678  1.00  0.00     0.173 A 
ATOM     57  C   UNL     1       0.820  -6.878  -7.048  1.00  0.00     0.173 A 
ATOM     58  F   UNL     1      -2.222  -4.982  -6.421  1.00  0.00    -0.203 F 
ATOM     59  C   UNL     1      -1.901  -7.298  -6.704  1.00  0.00     0.198 A 
ATOM     60  C   UNL     1       0.301  -8.167  -7.104  1.00  0.00     0.198 A 
ATOM     61  F   UNL     1       2.144  -6.711  -7.180  1.00  0.00    -0.203 F 
ATOM     62  F   UNL     1      -3.205  -7.506  -6.478  1.00  0.00    -0.200 F 
ATOM     63  C   UNL     1      -1.056  -8.378  -6.918  1.00  0.00     0.200 A 
ATOM     64  F   UNL     1       1.120  -9.207  -7.311  1.00  0.00    -0.200 F 
ATOM     65  F   UNL     1      -1.547  -9.625  -6.923  1.00  0.00    -0.200 F 
ENDBRANCH  41  55
BRANCH  42  66
ATOM     66  C   UNL     1       3.975   3.214  -4.985  1.00  0.00     0.064 A 
ATOM     67  C   UNL     1       3.473   4.385  -5.573  1.00  0.00     0.173 A 
ATOM     68  C   UNL     1       5.111   3.345  -4.169  1.00  0.00     0.173 A 
ATOM     69  F   UNL     1       2.420   4.322  -6.401  1.00  0.00    -0.203 F 
ATOM     70  C   UNL     1       4.080   5.625  -5.356  1.00  0.00     0.198 A 
ATOM     71  C   UNL     1       5.696   4.587  -3.925  1.00  0.00     0.198 A 
ATOM     72  F   UNL     1       5.660   2.259  -3.604  1.00  0.00    -0.203 F 
ATOM     73  F   UNL     1       3.609   6.718  -5.971  1.00  0.00    -0.200 F 
ATOM     74  C   UNL     1       5.185   5.726  -4.523  1.00  0.00     0.200 A 
ATOM     75  F   UNL     1       6.761   4.675  -3.115  1.00  0.00    -0.200 F 
ATOM     76  F   UNL     1       5.763   6.915  -4.310  1.00  0.00    -0.200 F 
ENDBRANCH  42  66
BRANCH  54  77
ATOM     77  C   UNL     1       3.462  -0.766 -10.710  1.00  0.00     0.064 A 
ATOM     78  C   UNL     1       4.818  -0.825 -11.062  1.00  0.00     0.173 A 
ATOM     79  C   UNL     1       2.523  -0.588 -11.737  1.00  0.00     0.173 A 
ATOM     80  F   UNL     1       5.755  -0.986 -10.115  1.00  0.00    -0.203 F 
ATOM     81  C   UNL     1       5.219  -0.689 -12.388  1.00  0.00     0.198 A 
ATOM     82  C   UNL     1       2.925  -0.483 -13.065  1.00  0.00     0.198 A 
ATOM     83  F   UNL     1       1.213  -0.537 -11.454  1.00  0.00    -0.203 F 
ATOM     84  F   UNL     1       6.523  -0.707 -12.697  1.00  0.00    -0.200 F 
ATOM     85  C   UNL     1       4.272  -0.527 -13.389  1.00  0.00     0.200 A 
ATOM     86  F   UNL     1       2.008  -0.345 -14.033  1.00  0.00    -0.200 F 
ATOM     87  F   UNL     1       4.660  -0.408 -14.667  1.00  0.00    -0.200 F 
ENDBRANCH  54  77
ENDBRANCH  28  29
ENDBRANCH  21  23
ENDBRANCH  20  21
ENDBRANCH   1  20
TORSDOF 12
