REMARK SMILES O=C(OCCOC(=O)[C@@H]1[C@H](C(=O)NCc2ccncc2)[C@H]2C=C[C@@H]1O2)c1ccc(-c2c3nc(c(-c4c(F)c(F)c(F)c(F)c4F)c4ccc([nH]4)c(-c4c(F)c(F)c(F)c(F)c4F)c4nc(c(-c5c(F)c(F)c(F)c(F)c5F)c5ccc2[nH]5)C=C4)C=C3)cc1
REMARK SMILES IDX 5 1 4 2 3 3 2 4 1 5 26 6 27 7 88 8 28 9 87 10 29 11 30 12
REMARK SMILES IDX 31 13 81 14 32 15 86 16 80 17 82 18 33 19 85 20 79 21 78 22
REMARK SMILES IDX 34 24 66 25 46 26 65 27 47 28 50 29 64 30 83 31 48 32 49 33
REMARK SMILES IDX 63 35 84 36 51 37 35 38 36 39 44 40 37 41 38 42 42 43 45 44
REMARK SMILES IDX 39 45 40 46 43 47 41 48 67 49 68 50 76 51 69 52 70 53 74 54
REMARK SMILES IDX 77 55 71 56 72 57 75 58 73 59 52 60 53 61 61 62 54 63 55 64
REMARK SMILES IDX 59 65 62 66 56 67 57 68 60 69 58 70 6 71 7 72 8 73 9 74
REMARK SMILES IDX 10 75 24 76 21 77 23 78 25 79 22 80 11 81 12 82 13 83 14 85
REMARK SMILES IDX 15 86 16 87 20 88 17 89 19 90 18 91
REMARK H PARENT 82 23 50 34 13 84
REMARK Flexibility Score: inf
ROOT
ATOM      1  C   UNL     1       4.421  -2.395  -0.413  1.00  0.00     0.274 C 
ENDROOT
BRANCH   1   2
ATOM      2  C   UNL     1       3.684  -2.180   1.279  1.00  0.00     0.275 C 
BRANCH   2   3
ATOM      3  O   UNL     1       2.277  -0.758   1.724  1.00  0.00    -0.458 OA
BRANCH   3   4
ATOM      4  C   UNL     1       1.783   0.682   1.086  1.00  0.00     0.338 C 
ATOM      5  O   UNL     1       0.821   1.250   1.588  1.00  0.00    -0.246 OA
BRANCH   4   6
ATOM      6  C   UNL     1       2.717   1.452  -0.257  1.00  0.00     0.060 A 
ATOM      7  C   UNL     1       4.163   0.767  -1.263  1.00  0.00     0.016 A 
ATOM      8  C   UNL     1       2.364   3.167  -0.472  1.00  0.00     0.016 A 
ATOM      9  C   UNL     1       5.000   1.750  -2.538  1.00  0.00     0.010 A 
ATOM     10  C   UNL     1       3.209   4.121  -1.713  1.00  0.00     0.010 A 
ATOM     11  C   UNL     1       4.502   3.462  -2.748  1.00  0.00    -0.014 A 
BRANCH  11  12
ATOM     12  C   UNL     1       5.222   4.403  -3.625  1.00  0.00     0.031 A 
ATOM     13  C   UNL     1       5.791   5.667  -3.027  1.00  0.00     0.074 A 
ATOM     14  C   UNL     1       5.201   4.157  -4.946  1.00  0.00     0.049 A 
ATOM     15  N   UNL     1       6.225   6.750  -3.620  1.00  0.00    -0.248 NA
ATOM     16  C   UNL     1       5.861   5.764  -1.564  1.00  0.00     0.031 C 
ATOM     17  C   UNL     1       4.674   2.948  -5.587  1.00  0.00     0.029 A 
ATOM     18  N   UNL     1       5.559   4.952  -6.001  1.00  0.00    -0.354 N 
ATOM     19  C   UNL     1       6.608   7.613  -2.592  1.00  0.00     0.074 A 
ATOM     20  C   UNL     1       6.309   6.979  -1.349  1.00  0.00     0.031 C 
ATOM     21  C   UNL     1       4.665   3.114  -6.917  1.00  0.00     0.029 A 
ATOM     22  C   UNL     1       5.167   4.444  -7.218  1.00  0.00     0.049 A 
ATOM     23  H   UNL     1       6.048   5.800  -5.899  1.00  0.00     0.167 HD
ATOM     24  C   UNL     1       7.167   8.839  -2.670  1.00  0.00     0.037 A 
ATOM     25  C   UNL     1       5.179   5.021  -8.432  1.00  0.00     0.037 A 
ATOM     26  C   UNL     1       7.391   9.469  -3.930  1.00  0.00     0.049 A 
ATOM     27  C   UNL     1       5.754   6.405  -8.519  1.00  0.00     0.074 A 
ATOM     28  C   UNL     1       7.928  10.706  -4.206  1.00  0.00     0.029 A 
ATOM     29  N   UNL     1       7.054   8.878  -5.144  1.00  0.00    -0.354 N 
ATOM     30  N   UNL     1       6.140   7.195  -7.542  1.00  0.00    -0.248 NA
ATOM     31  C   UNL     1       5.929   6.968  -9.859  1.00  0.00     0.031 C 
ATOM     32  C   UNL     1       7.873  10.883  -5.593  1.00  0.00     0.029 A 
ATOM     33  C   UNL     1       7.366   9.728  -6.181  1.00  0.00     0.049 A 
ATOM     34  H   UNL     1       6.652   7.985  -5.246  1.00  0.00     0.167 HD
ATOM     35  C   UNL     1       6.652   8.331  -8.146  1.00  0.00     0.074 A 
ATOM     36  C   UNL     1       6.511   8.128  -9.578  1.00  0.00     0.031 C 
ATOM     37  C   UNL     1       7.205   9.436  -7.584  1.00  0.00     0.037 A 
BRANCH  24  38
ATOM     38  C   UNL     1       7.474   9.533  -1.366  1.00  0.00     0.064 A 
ATOM     39  C   UNL     1       8.408   9.011  -0.450  1.00  0.00     0.173 A 
ATOM     40  C   UNL     1       6.728  10.649  -0.959  1.00  0.00     0.173 A 
ATOM     41  F   UNL     1       9.124   7.920  -0.763  1.00  0.00    -0.203 F 
ATOM     42  C   UNL     1       8.525   9.529   0.840  1.00  0.00     0.198 A 
ATOM     43  C   UNL     1       6.881  11.193   0.317  1.00  0.00     0.198 A 
ATOM     44  F   UNL     1       5.812  11.186  -1.778  1.00  0.00    -0.203 F 
ATOM     45  F   UNL     1       9.332   8.934   1.730  1.00  0.00    -0.200 F 
ATOM     46  C   UNL     1       7.761  10.620   1.222  1.00  0.00     0.200 A 
ATOM     47  F   UNL     1       6.143  12.249   0.685  1.00  0.00    -0.200 F 
ATOM     48  F   UNL     1       7.853  11.100   2.470  1.00  0.00    -0.200 F 
ENDBRANCH  24  38
BRANCH  25  49
ATOM     49  C   UNL     1       4.681   4.261  -9.611  1.00  0.00     0.064 A 
ATOM     50  C   UNL     1       5.574   3.723 -10.547  1.00  0.00     0.173 A 
ATOM     51  C   UNL     1       3.318   3.960  -9.770  1.00  0.00     0.173 A 
ATOM     52  F   UNL     1       6.886   3.976 -10.440  1.00  0.00    -0.203 F 
ATOM     53  C   UNL     1       5.127   2.919 -11.596  1.00  0.00     0.198 A 
ATOM     54  C   UNL     1       2.874   3.138 -10.807  1.00  0.00     0.198 A 
ATOM     55  F   UNL     1       2.420   4.425  -8.889  1.00  0.00    -0.203 F 
ATOM     56  F   UNL     1       6.005   2.424 -12.479  1.00  0.00    -0.200 F 
ATOM     57  C   UNL     1       3.779   2.619 -11.720  1.00  0.00     0.200 A 
ATOM     58  F   UNL     1       1.573   2.831 -10.908  1.00  0.00    -0.200 F 
ATOM     59  F   UNL     1       3.354   1.825 -12.712  1.00  0.00    -0.200 F 
ENDBRANCH  25  49
BRANCH  37  60
ATOM     60  C   UNL     1       7.746  10.467  -8.517  1.00  0.00     0.064 A 
ATOM     61  C   UNL     1       6.901  11.341  -9.209  1.00  0.00     0.173 A 
ATOM     62  C   UNL     1       9.133  10.657  -8.606  1.00  0.00     0.173 A 
ATOM     63  F   UNL     1       5.570  11.183  -9.151  1.00  0.00    -0.203 F 
ATOM     64  C   UNL     1       7.430  12.377  -9.967  1.00  0.00     0.198 A 
ATOM     65  C   UNL     1       9.655  11.714  -9.336  1.00  0.00     0.198 A 
ATOM     66  F   UNL     1       9.971   9.846  -7.943  1.00  0.00    -0.203 F 
ATOM     67  F   UNL     1       6.610  13.194 -10.643  1.00  0.00    -0.200 F 
ATOM     68  C   UNL     1       8.804  12.572 -10.018  1.00  0.00     0.200 A 
ATOM     69  F   UNL     1      10.979  11.917  -9.364  1.00  0.00    -0.200 F 
ATOM     70  F   UNL     1       9.309  13.593 -10.722  1.00  0.00    -0.200 F 
ENDBRANCH  37  60
ENDBRANCH  11  12
ENDBRANCH   4   6
ENDBRANCH   3   4
ENDBRANCH   2   3
ENDBRANCH   1   2
BRANCH   1  71
ATOM     71  O   UNL     1       3.648  -2.085  -1.817  1.00  0.00    -0.462 OA
BRANCH  71  72
ATOM     72  C   UNL     1       2.995  -1.358  -2.776  1.00  0.00     0.312 C 
ATOM     73  O   UNL     1       2.543  -2.054  -3.704  1.00  0.00    -0.252 OA
BRANCH  72  74
ATOM     74  C   UNL     1       2.614   0.256  -2.936  1.00  0.00     0.147 C 
ATOM     75  C   UNL     1       2.923   1.986  -2.246  1.00  0.00     0.128 C 
ATOM     76  C   UNL     1       1.069   0.326  -3.184  1.00  0.00     0.157 C 
ATOM     77  C   UNL     1       1.296   2.416  -2.534  1.00  0.00     0.155 C 
ATOM     78  C   UNL     1       0.771   1.175  -4.382  1.00  0.00     0.004 C 
ATOM     79  O   UNL     1       0.614   1.208  -2.132  1.00  0.00    -0.365 OA
ATOM     80  C   UNL     1       0.954   2.442  -4.007  1.00  0.00     0.004 C 
BRANCH  75  81
ATOM     81  C   UNL     1       4.379   2.634  -0.760  1.00  0.00     0.227 C 
ATOM     82  O   UNL     1       5.521   3.205  -0.874  1.00  0.00    -0.275 OA
ATOM     83  N   UNL     1       4.708   2.297   0.567  1.00  0.00    -0.352 N 
ATOM     84  H   UNL     1       5.453   2.865   0.869  1.00  0.00     0.163 HD
BRANCH  83  85
ATOM     85  C   UNL     1       4.332   1.414   1.629  1.00  0.00     0.151 C 
BRANCH  85  86
ATOM     86  C   UNL     1       3.995  -0.102   1.339  1.00  0.00    -0.026 A 
ATOM     87  C   UNL     1       3.784  -0.705   3.009  1.00  0.00     0.025 A 
ATOM     88  C   UNL     1       2.861  -0.889   0.031  1.00  0.00     0.025 A 
ATOM     89  C   UNL     1       2.616  -1.930   3.295  1.00  0.00     0.111 A 
ATOM     90  C   UNL     1       1.695  -2.151   0.520  1.00  0.00     0.111 A 
ATOM     91  N   UNL     1       1.602  -2.642   2.124  1.00  0.00    -0.265 NA
ENDBRANCH  85  86
ENDBRANCH  83  85
ENDBRANCH  75  81
ENDBRANCH  72  74
ENDBRANCH  71  72
ENDBRANCH   1  71
TORSDOF 14
