REMARK SMILES CS(=O)(=O)c1ccc(/C=C(/C(=O)OCCOC(=O)c2ccc(-c3c4nc(c(-c5c(F)c(F)c(F)c(F)c5F)c5ccc([nH]5)c(-c5c(F)c(F)c(F)c(F)c5F)c5nc(c(-c6c(F)c(F)c(F)c(F)c6F)c6ccc3[nH]6)C=C5)C=C4)cc2)c2ccccc2)cc1
REMARK SMILES IDX 14 1 13 2 11 3 12 4 10 5 9 6 8 7 5 8 6 9 89 10 7 11 88 12
REMARK SMILES IDX 2 13 1 14 3 15 4 16 82 17 83 18 87 19 84 20 86 21 85 22
REMARK SMILES IDX 15 23 16 24 17 25 18 26 19 27 20 28 81 29 21 30 80 31 22 32
REMARK SMILES IDX 23 33 24 34 74 35 25 36 79 37 73 38 75 39 26 40 78 41 72 42
REMARK SMILES IDX 71 43 27 45 59 46 39 47 58 48 40 49 43 50 57 51 76 52 41 53
REMARK SMILES IDX 42 54 56 56 77 57 44 58 28 59 29 60 37 61 30 62 31 63 35 64
REMARK SMILES IDX 38 65 32 66 33 67 36 68 34 69 60 70 61 71 69 72 62 73 63 74
REMARK SMILES IDX 67 75 70 76 64 77 65 78 68 79 66 80 45 81 46 82 54 83 47 84
REMARK SMILES IDX 48 85 52 86 55 87 49 88 50 89 53 90 51 91
REMARK H PARENT 75 44 43 55
REMARK Flexibility Score: inf
ROOT
ATOM      1  C   UNL     1       2.706   7.556  -7.239  1.00  0.00     0.275 C 
ENDROOT
BRANCH   1   2
ATOM      2  O   UNL     1       2.660   6.471  -6.288  1.00  0.00    -0.458 OA
BRANCH   2   3
ATOM      3  C   UNL     1       2.532   5.231  -6.827  1.00  0.00     0.338 C 
ATOM      4  O   UNL     1       2.411   4.981  -8.018  1.00  0.00    -0.246 OA
BRANCH   3   5
ATOM      5  C   UNL     1       2.601   4.162  -5.785  1.00  0.00     0.067 C 
ATOM      6  C   UNL     1       1.847   4.308  -4.671  1.00  0.00     0.024 C 
BRANCH   6   7
ATOM      7  C   UNL     1       1.499   3.273  -3.668  1.00  0.00    -0.025 A 
ATOM      8  C   UNL     1       0.564   1.175  -2.053  1.00  0.00     0.067 A 
ATOM      9  C   UNL     1       1.875   1.156  -2.518  1.00  0.00     0.021 A 
ATOM     10  C   UNL     1      -0.267   2.261  -2.322  1.00  0.00     0.021 A 
ATOM     11  C   UNL     1       2.344   2.225  -3.282  1.00  0.00     0.009 A 
ATOM     12  C   UNL     1       0.203   3.304  -3.127  1.00  0.00     0.009 A 
BRANCH   8  13
ATOM     13  S   UNL     1      -0.052  -0.243  -1.184  1.00  0.00     0.175 S 
ATOM     14  C   UNL     1       0.752  -0.143   0.391  1.00  0.00     0.163 C 
ATOM     15  O   UNL     1       0.442  -1.416  -1.875  1.00  0.00    -0.224 OA
ATOM     16  O   UNL     1      -1.476  -0.046  -0.971  1.00  0.00    -0.224 OA
ENDBRANCH   8  13
ENDBRANCH   6   7
BRANCH   5  17
ATOM     17  C   UNL     1       3.335   2.923  -6.111  1.00  0.00    -0.011 A 
ATOM     18  C   UNL     1       4.661   2.772  -5.671  1.00  0.00     0.009 A 
ATOM     19  C   UNL     1       2.711   1.863  -6.778  1.00  0.00     0.009 A 
ATOM     20  C   UNL     1       5.334   1.562  -5.855  1.00  0.00     0.001 A 
ATOM     21  C   UNL     1       3.392   0.660  -6.973  1.00  0.00     0.001 A 
ATOM     22  C   UNL     1       4.697   0.506  -6.505  1.00  0.00     0.000 A 
ENDBRANCH   5  17
ENDBRANCH   3   5
ENDBRANCH   2   3
ENDBRANCH   1   2
BRANCH   1  23
ATOM     23  C   UNL     1       4.144   8.027  -7.445  1.00  0.00     0.275 C 
BRANCH  23  24
ATOM     24  O   UNL     1       4.924   6.962  -8.019  1.00  0.00    -0.458 OA
BRANCH  24  25
ATOM     25  C   UNL     1       5.992   6.552  -7.301  1.00  0.00     0.338 C 
ATOM     26  O   UNL     1       6.419   7.035  -6.263  1.00  0.00    -0.246 OA
BRANCH  25  27
ATOM     27  C   UNL     1       6.603   5.364  -7.930  1.00  0.00     0.060 A 
ATOM     28  C   UNL     1       5.803   4.299  -8.324  1.00  0.00     0.016 A 
ATOM     29  C   UNL     1       7.992   5.240  -7.985  1.00  0.00     0.016 A 
ATOM     30  C   UNL     1       6.386   3.074  -8.642  1.00  0.00     0.010 A 
ATOM     31  C   UNL     1       8.572   4.041  -8.425  1.00  0.00     0.010 A 
ATOM     32  C   UNL     1       7.778   2.916  -8.710  1.00  0.00    -0.014 A 
BRANCH  32  33
ATOM     33  C   UNL     1       8.384   1.583  -9.027  1.00  0.00     0.031 A 
ATOM     34  C   UNL     1       9.462   0.991  -8.147  1.00  0.00     0.074 A 
ATOM     35  C   UNL     1       7.959   0.862 -10.087  1.00  0.00     0.049 A 
ATOM     36  N   UNL     1      10.256  -0.028  -8.377  1.00  0.00    -0.248 NA
ATOM     37  C   UNL     1       9.690   1.634  -6.844  1.00  0.00     0.031 C 
ATOM     38  C   UNL     1       6.893   1.253 -11.010  1.00  0.00     0.029 A 
ATOM     39  N   UNL     1       8.362  -0.367 -10.559  1.00  0.00    -0.354 N 
ATOM     40  C   UNL     1      11.127  -0.090  -7.295  1.00  0.00     0.074 A 
ATOM     41  C   UNL     1      10.754   0.981  -6.396  1.00  0.00     0.031 C 
ATOM     42  C   UNL     1       6.673   0.261 -11.882  1.00  0.00     0.029 A 
ATOM     43  C   UNL     1       7.670  -0.781 -11.672  1.00  0.00     0.049 A 
ATOM     44  H   UNL     1       9.077  -0.898 -10.140  1.00  0.00     0.167 HD
ATOM     45  C   UNL     1      12.148  -0.956  -7.078  1.00  0.00     0.037 A 
ATOM     46  C   UNL     1       7.846  -1.843 -12.482  1.00  0.00     0.037 A 
ATOM     47  C   UNL     1      12.461  -2.080  -7.924  1.00  0.00     0.049 A 
ATOM     48  C   UNL     1       8.992  -2.779 -12.233  1.00  0.00     0.074 A 
ATOM     49  C   UNL     1      13.456  -3.031  -7.763  1.00  0.00     0.029 A 
ATOM     50  N   UNL     1      11.770  -2.421  -9.076  1.00  0.00    -0.354 N 
ATOM     51  N   UNL     1       9.874  -2.764 -11.266  1.00  0.00    -0.248 NA
ATOM     52  C   UNL     1       9.190  -3.854 -13.215  1.00  0.00     0.031 C 
ATOM     53  C   UNL     1      13.387  -3.928  -8.835  1.00  0.00     0.029 A 
ATOM     54  C   UNL     1      12.324  -3.560  -9.642  1.00  0.00     0.049 A 
ATOM     55  H   UNL     1      10.998  -1.929  -9.439  1.00  0.00     0.167 HD
ATOM     56  C   UNL     1      10.740  -3.816 -11.527  1.00  0.00     0.074 A 
ATOM     57  C   UNL     1      10.255  -4.472 -12.724  1.00  0.00     0.031 C 
ATOM     58  C   UNL     1      11.847  -4.192 -10.843  1.00  0.00     0.037 A 
BRANCH  45  59
ATOM     59  C   UNL     1      13.040  -0.712  -5.894  1.00  0.00     0.064 A 
ATOM     60  C   UNL     1      12.631  -0.977  -4.580  1.00  0.00     0.173 A 
ATOM     61  C   UNL     1      14.358  -0.269  -6.093  1.00  0.00     0.173 A 
ATOM     62  F   UNL     1      11.379  -1.392  -4.334  1.00  0.00    -0.203 F 
ATOM     63  C   UNL     1      13.502  -0.792  -3.508  1.00  0.00     0.198 A 
ATOM     64  C   UNL     1      15.235  -0.111  -5.022  1.00  0.00     0.198 A 
ATOM     65  F   UNL     1      14.804  -0.009  -7.332  1.00  0.00    -0.203 F 
ATOM     66  F   UNL     1      13.079  -1.019  -2.256  1.00  0.00    -0.200 F 
ATOM     67  C   UNL     1      14.805  -0.369  -3.730  1.00  0.00     0.200 A 
ATOM     68  F   UNL     1      16.496   0.283  -5.243  1.00  0.00    -0.200 F 
ATOM     69  F   UNL     1      15.644  -0.205  -2.699  1.00  0.00    -0.200 F 
ENDBRANCH  45  59
BRANCH  46  70
ATOM     70  C   UNL     1       6.949  -2.027 -13.653  1.00  0.00     0.064 A 
ATOM     71  C   UNL     1       6.038  -3.091 -13.705  1.00  0.00     0.173 A 
ATOM     72  C   UNL     1       6.966  -1.127 -14.730  1.00  0.00     0.173 A 
ATOM     73  F   UNL     1       6.009  -3.995 -12.716  1.00  0.00    -0.203 F 
ATOM     74  C   UNL     1       5.174  -3.243 -14.788  1.00  0.00     0.198 A 
ATOM     75  C   UNL     1       6.078  -1.261 -15.794  1.00  0.00     0.198 A 
ATOM     76  F   UNL     1       7.824  -0.097 -14.731  1.00  0.00    -0.203 F 
ATOM     77  F   UNL     1       4.335  -4.286 -14.830  1.00  0.00    -0.200 F 
ATOM     78  C   UNL     1       5.185  -2.321 -15.824  1.00  0.00     0.200 A 
ATOM     79  F   UNL     1       6.082  -0.357 -16.784  1.00  0.00    -0.200 F 
ATOM     80  F   UNL     1       4.340  -2.456 -16.854  1.00  0.00    -0.200 F 
ENDBRANCH  46  70
BRANCH  58  81
ATOM     81  C   UNL     1      12.608  -5.368 -11.378  1.00  0.00     0.064 A 
ATOM     82  C   UNL     1      13.401  -5.258 -12.530  1.00  0.00     0.173 A 
ATOM     83  C   UNL     1      12.556  -6.610 -10.730  1.00  0.00     0.173 A 
ATOM     84  F   UNL     1      13.467  -4.095 -13.196  1.00  0.00    -0.203 F 
ATOM     85  C   UNL     1      14.095  -6.357 -13.028  1.00  0.00     0.198 A 
ATOM     86  C   UNL     1      13.270  -7.701 -11.217  1.00  0.00     0.198 A 
ATOM     87  F   UNL     1      11.815  -6.764  -9.623  1.00  0.00    -0.203 F 
ATOM     88  F   UNL     1      14.808  -6.243 -14.157  1.00  0.00    -0.200 F 
ATOM     89  C   UNL     1      14.032  -7.576 -12.369  1.00  0.00     0.200 A 
ATOM     90  F   UNL     1      13.216  -8.876 -10.575  1.00  0.00    -0.200 F 
ATOM     91  F   UNL     1      14.699  -8.634 -12.850  1.00  0.00    -0.200 F 
ENDBRANCH  58  81
ENDBRANCH  32  33
ENDBRANCH  25  27
ENDBRANCH  24  25
ENDBRANCH  23  24
ENDBRANCH   1  23
TORSDOF 14
