REMARK SMILES O=C(OCCOC(=O)c1ccc2c(c1)[C@@H](C1CCOCC1)C(=O)N2)c1ccc(-c2c3nc(c(-c4c(F)c(F)c(F)c(F)c4F)c4ccc([nH]4)c(-c4c(F)c(F)c(F)c(F)c4F)c4nc(c(-c5c(F)c(F)c(F)c(F)c5F)c5ccc2[nH]5)C=C4)C=C3)cc1
REMARK SMILES IDX 4 1 3 2 2 3 1 4 25 5 26 6 87 7 27 8 86 9 28 10 29 11 30 12
REMARK SMILES IDX 80 13 31 14 85 15 79 16 81 17 32 18 84 19 78 20 77 21 33 23
REMARK SMILES IDX 65 24 45 25 64 26 46 27 49 28 63 29 82 30 47 31 48 32 62 34
REMARK SMILES IDX 83 35 50 36 34 37 35 38 43 39 36 40 37 41 41 42 44 43 38 44
REMARK SMILES IDX 39 45 42 46 40 47 66 48 67 49 75 50 68 51 69 52 73 53 76 54
REMARK SMILES IDX 70 55 71 56 74 57 72 58 51 59 52 60 60 61 53 62 54 63 58 64
REMARK SMILES IDX 61 65 55 66 56 67 59 68 57 69 5 70 6 71 7 72 8 73 9 74 10 75
REMARK SMILES IDX 14 76 11 77 13 78 12 79 15 80 24 81 22 82 23 84 16 85 17 86
REMARK SMILES IDX 21 87 18 88 20 89 19 90
REMARK H PARENT 81 22 49 33 24 83
REMARK Flexibility Score: inf
ROOT
ATOM      1  C   UNL     1       3.890   1.500  -0.603  1.00  0.00     0.275 C 
ENDROOT
BRANCH   1   2
ATOM      2  O   UNL     1       2.861   0.609  -1.062  1.00  0.00    -0.458 OA
BRANCH   2   3
ATOM      3  C   UNL     1       2.699  -0.719  -0.867  1.00  0.00     0.338 C 
ATOM      4  O   UNL     1       1.709  -1.264  -1.356  1.00  0.00    -0.246 OA
BRANCH   3   5
ATOM      5  C   UNL     1       3.597  -1.569  -0.016  1.00  0.00     0.060 A 
ATOM      6  C   UNL     1       4.865  -1.229   0.464  1.00  0.00     0.016 A 
ATOM      7  C   UNL     1       3.084  -2.822   0.357  1.00  0.00     0.016 A 
ATOM      8  C   UNL     1       5.556  -2.051   1.355  1.00  0.00     0.010 A 
ATOM      9  C   UNL     1       3.779  -3.650   1.241  1.00  0.00     0.010 A 
ATOM     10  C   UNL     1       5.006  -3.256   1.774  1.00  0.00    -0.014 A 
BRANCH  10  11
ATOM     11  C   UNL     1       5.777  -4.135   2.679  1.00  0.00     0.031 A 
ATOM     12  C   UNL     1       6.347  -5.405   2.130  1.00  0.00     0.074 A 
ATOM     13  C   UNL     1       6.017  -3.755   3.950  1.00  0.00     0.049 A 
ATOM     14  N   UNL     1       7.125  -6.277   2.712  1.00  0.00    -0.248 NA
ATOM     15  C   UNL     1       6.016  -5.729   0.732  1.00  0.00     0.031 C 
ATOM     16  C   UNL     1       5.543  -2.513   4.557  1.00  0.00     0.029 A 
ATOM     17  N   UNL     1       6.725  -4.357   4.958  1.00  0.00    -0.354 N 
ATOM     18  C   UNL     1       7.410  -7.223   1.740  1.00  0.00     0.074 A 
ATOM     19  C   UNL     1       6.646  -6.880   0.564  1.00  0.00     0.031 C 
ATOM     20  C   UNL     1       5.947  -2.452   5.836  1.00  0.00     0.029 A 
ATOM     21  C   UNL     1       6.717  -3.651   6.139  1.00  0.00     0.049 A 
ATOM     22  H   UNL     1       7.196  -5.215   4.847  1.00  0.00     0.167 HD
ATOM     23  C   UNL     1       8.281  -8.254   1.807  1.00  0.00     0.037 A 
ATOM     24  C   UNL     1       7.280  -3.941   7.327  1.00  0.00     0.037 A 
ATOM     25  C   UNL     1       9.021  -8.589   2.991  1.00  0.00     0.049 A 
ATOM     26  C   UNL     1       8.153  -5.165   7.408  1.00  0.00     0.074 A 
ATOM     27  C   UNL     1       9.907  -9.630   3.192  1.00  0.00     0.029 A 
ATOM     28  N   UNL     1       8.949  -7.884   4.186  1.00  0.00    -0.354 N 
ATOM     29  N   UNL     1       8.454  -6.027   6.465  1.00  0.00    -0.248 NA
ATOM     30  C   UNL     1       8.796  -5.438   8.699  1.00  0.00     0.031 C 
ATOM     31  C   UNL     1      10.333  -9.584   4.523  1.00  0.00     0.029 A 
ATOM     32  C   UNL     1       9.760  -8.480   5.136  1.00  0.00     0.049 A 
ATOM     33  H   UNL     1       8.402  -7.079   4.335  1.00  0.00     0.167 HD
ATOM     34  C   UNL     1       9.348  -6.920   7.035  1.00  0.00     0.074 A 
ATOM     35  C   UNL     1       9.559  -6.479   8.399  1.00  0.00     0.031 C 
ATOM     36  C   UNL     1       9.944  -8.008   6.486  1.00  0.00     0.037 A 
BRANCH  23  37
ATOM     37  C   UNL     1       8.463  -9.069   0.563  1.00  0.00     0.064 A 
ATOM     38  C   UNL     1       9.099  -8.537  -0.572  1.00  0.00     0.173 A 
ATOM     39  C   UNL     1       7.976 -10.380   0.488  1.00  0.00     0.173 A 
ATOM     40  F   UNL     1       9.556  -7.275  -0.561  1.00  0.00    -0.203 F 
ATOM     41  C   UNL     1       9.212  -9.279  -1.744  1.00  0.00     0.198 A 
ATOM     42  C   UNL     1       8.118 -11.130  -0.677  1.00  0.00     0.198 A 
ATOM     43  F   UNL     1       7.353 -10.930   1.540  1.00  0.00    -0.203 F 
ATOM     44  F   UNL     1       9.767  -8.729  -2.833  1.00  0.00    -0.200 F 
ATOM     45  C   UNL     1       8.727 -10.577  -1.794  1.00  0.00     0.200 A 
ATOM     46  F   UNL     1       7.652 -12.386  -0.723  1.00  0.00    -0.200 F 
ATOM     47  F   UNL     1       8.834 -11.290  -2.923  1.00  0.00    -0.200 F 
ENDBRANCH  23  37
BRANCH  24  48
ATOM     48  C   UNL     1       7.057  -3.069   8.515  1.00  0.00     0.064 A 
ATOM     49  C   UNL     1       8.107  -2.366   9.124  1.00  0.00     0.173 A 
ATOM     50  C   UNL     1       5.785  -2.961   9.100  1.00  0.00     0.173 A 
ATOM     51  F   UNL     1       9.345  -2.436   8.612  1.00  0.00    -0.203 F 
ATOM     52  C   UNL     1       7.906  -1.633  10.294  1.00  0.00     0.198 A 
ATOM     53  C   UNL     1       5.578  -2.202  10.252  1.00  0.00     0.198 A 
ATOM     54  F   UNL     1       4.736  -3.593   8.552  1.00  0.00    -0.203 F 
ATOM     55  F   UNL     1       8.943  -1.027  10.888  1.00  0.00    -0.200 F 
ATOM     56  C   UNL     1       6.642  -1.552  10.857  1.00  0.00     0.200 A 
ATOM     57  F   UNL     1       4.350  -2.111  10.779  1.00  0.00    -0.200 F 
ATOM     58  F   UNL     1       6.451  -0.856  11.986  1.00  0.00    -0.200 F 
ENDBRANCH  24  48
BRANCH  36  59
ATOM     59  C   UNL     1      10.899  -8.767   7.360  1.00  0.00     0.064 A 
ATOM     60  C   UNL     1      10.454  -9.512   8.462  1.00  0.00     0.173 A 
ATOM     61  C   UNL     1      12.273  -8.763   7.077  1.00  0.00     0.173 A 
ATOM     62  F   UNL     1       9.151  -9.532   8.783  1.00  0.00    -0.203 F 
ATOM     63  C   UNL     1      11.356 -10.193   9.273  1.00  0.00     0.198 A 
ATOM     64  C   UNL     1      13.167  -9.479   7.866  1.00  0.00     0.198 A 
ATOM     65  F   UNL     1      12.747  -8.072   6.029  1.00  0.00    -0.203 F 
ATOM     66  F   UNL     1      10.917 -10.840  10.361  1.00  0.00    -0.200 F 
ATOM     67  C   UNL     1      12.710 -10.182   8.970  1.00  0.00     0.200 A 
ATOM     68  F   UNL     1      14.472  -9.482   7.562  1.00  0.00    -0.200 F 
ATOM     69  F   UNL     1      13.576 -10.842   9.751  1.00  0.00    -0.200 F 
ENDBRANCH  36  59
ENDBRANCH  10  11
ENDBRANCH   3   5
ENDBRANCH   2   3
ENDBRANCH   1   2
BRANCH   1  70
ATOM     70  C   UNL     1       3.748   1.955   0.857  1.00  0.00     0.275 C 
BRANCH  70  71
ATOM     71  O   UNL     1       3.374   0.912   1.778  1.00  0.00    -0.458 OA
BRANCH  71  72
ATOM     72  C   UNL     1       2.038   0.726   1.953  1.00  0.00     0.338 C 
ATOM     73  O   UNL     1       1.143   1.365   1.424  1.00  0.00    -0.246 OA
BRANCH  72  74
ATOM     74  C   UNL     1       1.798  -0.436   2.845  1.00  0.00     0.060 A 
ATOM     75  C   UNL     1       2.513  -0.535   4.055  1.00  0.00     0.018 A 
ATOM     76  C   UNL     1       0.814  -1.393   2.506  1.00  0.00     0.022 A 
ATOM     77  C   UNL     1       2.245  -1.572   4.951  1.00  0.00     0.027 A 
ATOM     78  C   UNL     1       0.573  -2.438   3.393  1.00  0.00    -0.011 A 
ATOM     79  C   UNL     1       1.270  -2.483   4.601  1.00  0.00     0.045 A 
ATOM     80  C   UNL     1      -0.466  -3.551   3.382  1.00  0.00     0.114 C 
ATOM     81  N   UNL     1       0.771  -3.491   5.404  1.00  0.00    -0.325 N 
ATOM     82  C   UNL     1      -0.313  -4.121   4.814  1.00  0.00     0.232 C 
ATOM     83  H   UNL     1       1.140  -3.732   6.284  1.00  0.00     0.169 HD
ATOM     84  O   UNL     1      -0.997  -4.980   5.345  1.00  0.00    -0.274 OA
BRANCH  80  85
ATOM     85  C   UNL     1      -0.287  -4.664   2.317  1.00  0.00     0.010 C 
ATOM     86  C   UNL     1      -1.532  -5.570   2.211  1.00  0.00     0.033 C 
ATOM     87  C   UNL     1       0.919  -5.585   2.571  1.00  0.00     0.033 C 
ATOM     88  C   UNL     1      -1.330  -6.707   1.207  1.00  0.00     0.160 C 
ATOM     89  C   UNL     1       1.026  -6.627   1.465  1.00  0.00     0.160 C 
ATOM     90  O   UNL     1      -0.138  -7.447   1.466  1.00  0.00    -0.381 OA
ENDBRANCH  80  85
ENDBRANCH  72  74
ENDBRANCH  71  72
ENDBRANCH  70  71
ENDBRANCH   1  70
TORSDOF 12
