REMARK SMILES COC(=O)[C@@H]1CN(C(=O)NC(=O)CCCC(=O)OCCOC(=O)c2ccc(-c3c4nc(c(-c5c(F)c(F)c(F)c(F)c5F)c5ccc([nH]5)c(-c5c(F)c(F)c(F)c(F)c5F)c5nc(c(-c6c(F)c(F)c(F)c(F)c6F)c6ccc3[nH]6)C=C5)C=C4)cc2)C[C@H]1C
REMARK SMILES IDX 16 1 17 2 15 3 14 4 13 5 11 6 8 7 9 8 10 9 12 11 7 12 5 13
REMARK SMILES IDX 6 14 88 15 87 16 89 17 3 18 4 19 2 20 1 21 18 22 19 23 20 24
REMARK SMILES IDX 21 25 22 26 23 27 24 28 25 29 86 30 26 31 85 32 27 33 28 34
REMARK SMILES IDX 29 35 79 36 30 37 84 38 78 39 80 40 31 41 83 42 77 43 76 44
REMARK SMILES IDX 32 46 64 47 44 48 63 49 45 50 48 51 62 52 81 53 46 54 47 55
REMARK SMILES IDX 61 57 82 58 49 59 33 60 34 61 42 62 35 63 36 64 40 65 43 66
REMARK SMILES IDX 37 67 38 68 41 69 39 70 65 71 66 72 74 73 67 74 68 75 72 76
REMARK SMILES IDX 75 77 69 78 70 79 73 80 71 81 50 82 51 83 59 84 52 85 53 86
REMARK SMILES IDX 57 87 60 88 54 89 55 90 58 91 56 92
REMARK H PARENT 10 10 80 45 48 56
REMARK Flexibility Score: inf
ROOT
ATOM      1  C   UNL     1       2.828   2.921   1.668  1.00  0.00     0.305 C 
ATOM      2  O   UNL     1       1.574   2.891   1.607  1.00  0.00    -0.252 OA
ENDROOT
BRANCH   1   3
ATOM      3  C   UNL     1       3.221   2.281   3.080  1.00  0.00     0.123 C 
BRANCH   3   4
ATOM      4  C   UNL     1       3.058   0.760   3.234  1.00  0.00     0.022 C 
BRANCH   4   5
ATOM      5  C   UNL     1       4.235  -0.164   2.951  1.00  0.00     0.101 C 
BRANCH   5   6
ATOM      6  C   UNL     1       5.591   0.247   3.449  1.00  0.00     0.228 C 
ATOM      7  C   UNL     1       5.979   2.639   2.567  1.00  0.00     0.324 C 
ATOM      8  O   UNL     1       6.534   3.579   3.145  1.00  0.00    -0.248 OA
ATOM      9  N   UNL     1       6.261   1.373   3.014  1.00  0.00    -0.278 N 
ATOM     10  H   UNL     1       7.234   1.222   3.029  1.00  0.00     0.174 HD
ATOM     11  O   UNL     1       6.162  -0.469   4.280  1.00  0.00    -0.275 OA
BRANCH   7  12
ATOM     12  N   UNL     1       4.974   2.879   1.679  1.00  0.00    -0.323 N 
ATOM     13  C   UNL     1       2.519   2.741  -0.324  1.00  0.00     0.123 C 
ATOM     14  C   UNL     1       4.137   1.768   0.399  1.00  0.00     0.137 C 
ATOM     15  C   UNL     1       2.562   4.648   0.609  1.00  0.00     0.021 C 
ATOM     16  C   UNL     1       4.179   4.587   1.819  1.00  0.00     0.125 C 
ATOM     17  C   UNL     1       2.892   6.184   0.109  1.00  0.00     0.010 C 
BRANCH  13  18
ATOM     18  C   UNL     1       1.445   1.640  -0.524  1.00  0.00     0.310 C 
ATOM     19  O   UNL     1       0.782   1.532  -1.546  1.00  0.00    -0.252 OA
BRANCH  18  20
ATOM     20  O   UNL     1       1.557   0.644   0.389  1.00  0.00    -0.469 OA
ATOM     21  C   UNL     1       0.694  -0.472   0.188  1.00  0.00     0.282 C 
ENDBRANCH  18  20
ENDBRANCH  13  18
ENDBRANCH   7  12
ENDBRANCH   5   6
ENDBRANCH   4   5
ENDBRANCH   3   4
ENDBRANCH   1   3
BRANCH   1  22
ATOM     22  O   UNL     1       3.963   3.595   0.273  1.00  0.00    -0.462 OA
BRANCH  22  23
ATOM     23  C   UNL     1       3.825   4.310  -1.380  1.00  0.00     0.274 C 
BRANCH  23  24
ATOM     24  C   UNL     1       2.218   4.569  -2.129  1.00  0.00     0.275 C 
BRANCH  24  25
ATOM     25  O   UNL     1       1.076   5.079  -1.267  1.00  0.00    -0.458 OA
BRANCH  25  26
ATOM     26  C   UNL     1      -0.155   4.521  -1.080  1.00  0.00     0.338 C 
ATOM     27  O   UNL     1      -0.646   3.633  -1.754  1.00  0.00    -0.246 OA
BRANCH  26  28
ATOM     28  C   UNL     1      -0.940   5.073   0.091  1.00  0.00     0.060 A 
ATOM     29  C   UNL     1      -0.913   4.445   1.347  1.00  0.00     0.016 A 
ATOM     30  C   UNL     1      -1.941   6.026  -0.104  1.00  0.00     0.016 A 
ATOM     31  C   UNL     1      -1.741   4.816   2.415  1.00  0.00     0.010 A 
ATOM     32  C   UNL     1      -2.847   6.348   0.937  1.00  0.00     0.010 A 
ATOM     33  C   UNL     1      -2.747   5.749   2.207  1.00  0.00    -0.014 A 
BRANCH  33  34
ATOM     34  C   UNL     1      -3.755   5.976   3.276  1.00  0.00     0.031 A 
ATOM     35  C   UNL     1      -5.026   5.173   3.275  1.00  0.00     0.074 A 
ATOM     36  C   UNL     1      -3.502   6.841   4.275  1.00  0.00     0.049 A 
ATOM     37  N   UNL     1      -6.120   5.340   3.974  1.00  0.00    -0.248 NA
ATOM     38  C   UNL     1      -5.064   4.013   2.371  1.00  0.00     0.031 C 
ATOM     39  C   UNL     1      -2.235   7.543   4.471  1.00  0.00     0.029 A 
ATOM     40  N   UNL     1      -4.296   7.291   5.301  1.00  0.00    -0.354 N 
ATOM     41  C   UNL     1      -6.992   4.338   3.559  1.00  0.00     0.074 A 
ATOM     42  C   UNL     1      -6.289   3.547   2.574  1.00  0.00     0.031 C 
ATOM     43  C   UNL     1      -2.354   8.379   5.516  1.00  0.00     0.029 A 
ATOM     44  C   UNL     1      -3.724   8.317   6.016  1.00  0.00     0.049 A 
ATOM     45  H   UNL     1      -5.184   6.917   5.504  1.00  0.00     0.167 HD
ATOM     46  C   UNL     1      -8.272   4.131   3.952  1.00  0.00     0.037 A 
ATOM     47  C   UNL     1      -4.273   9.157   6.916  1.00  0.00     0.037 A 
ATOM     48  C   UNL     1      -8.937   4.940   4.942  1.00  0.00     0.049 A 
ATOM     49  C   UNL     1      -5.728   8.975   7.266  1.00  0.00     0.074 A 
ATOM     50  C   UNL     1     -10.237   4.853   5.407  1.00  0.00     0.029 A 
ATOM     51  N   UNL     1      -8.340   5.997   5.619  1.00  0.00    -0.354 N 
ATOM     52  N   UNL     1      -6.579   8.080   6.822  1.00  0.00    -0.248 NA
ATOM     53  C   UNL     1      -6.302   9.920   8.232  1.00  0.00     0.031 C 
ATOM     54  C   UNL     1     -10.443   5.894   6.320  1.00  0.00     0.029 A 
ATOM     55  C   UNL     1      -9.253   6.588   6.476  1.00  0.00     0.049 A 
ATOM     56  H   UNL     1      -7.405   6.283   5.506  1.00  0.00     0.167 HD
ATOM     57  C   UNL     1      -7.780   8.338   7.466  1.00  0.00     0.074 A 
ATOM     58  C   UNL     1      -7.541   9.463   8.348  1.00  0.00     0.031 C 
ATOM     59  C   UNL     1      -8.975   7.707   7.343  1.00  0.00     0.037 A 
BRANCH  46  60
ATOM     60  C   UNL     1      -9.060   3.057   3.254  1.00  0.00     0.064 A 
ATOM     61  C   UNL     1      -8.819   1.690   3.457  1.00  0.00     0.173 A 
ATOM     62  C   UNL     1     -10.099   3.412   2.377  1.00  0.00     0.173 A 
ATOM     63  F   UNL     1      -7.830   1.292   4.271  1.00  0.00    -0.203 F 
ATOM     64  C   UNL     1      -9.572   0.722   2.793  1.00  0.00     0.198 A 
ATOM     65  C   UNL     1     -10.867   2.442   1.737  1.00  0.00     0.198 A 
ATOM     66  F   UNL     1     -10.377   4.704   2.146  1.00  0.00    -0.203 F 
ATOM     67  F   UNL     1      -9.296  -0.578   2.969  1.00  0.00    -0.200 F 
ATOM     68  C   UNL     1     -10.599   1.098   1.939  1.00  0.00     0.200 A 
ATOM     69  F   UNL     1     -11.866   2.810   0.922  1.00  0.00    -0.200 F 
ATOM     70  F   UNL     1     -11.325   0.166   1.307  1.00  0.00    -0.200 F 
ENDBRANCH  46  60
BRANCH  47  71
ATOM     71  C   UNL     1      -3.476  10.286   7.472  1.00  0.00     0.064 A 
ATOM     72  C   UNL     1      -3.161  10.362   8.835  1.00  0.00     0.173 A 
ATOM     73  C   UNL     1      -3.017  11.325   6.644  1.00  0.00     0.173 A 
ATOM     74  F   UNL     1      -3.597   9.413   9.676  1.00  0.00    -0.203 F 
ATOM     75  C   UNL     1      -2.434  11.436   9.350  1.00  0.00     0.198 A 
ATOM     76  C   UNL     1      -2.261  12.379   7.154  1.00  0.00     0.198 A 
ATOM     77  F   UNL     1      -3.293  11.312   5.332  1.00  0.00    -0.203 F 
ATOM     78  F   UNL     1      -2.189  11.506  10.666  1.00  0.00    -0.200 F 
ATOM     79  C   UNL     1      -1.977  12.438   8.508  1.00  0.00     0.200 A 
ATOM     80  F   UNL     1      -1.809  13.336   6.332  1.00  0.00    -0.200 F 
ATOM     81  F   UNL     1      -1.270  13.464   9.003  1.00  0.00    -0.200 F 
ENDBRANCH  47  71
BRANCH  59  82
ATOM     82  C   UNL     1     -10.093   8.199   8.214  1.00  0.00     0.064 A 
ATOM     83  C   UNL     1     -10.721   9.432   7.983  1.00  0.00     0.173 A 
ATOM     84  C   UNL     1     -10.559   7.410   9.276  1.00  0.00     0.173 A 
ATOM     85  F   UNL     1     -10.300  10.229   6.989  1.00  0.00    -0.203 F 
ATOM     86  C   UNL     1     -11.754   9.871   8.806  1.00  0.00     0.198 A 
ATOM     87  C   UNL     1     -11.615   7.837  10.075  1.00  0.00     0.198 A 
ATOM     88  F   UNL     1      -9.996   6.220   9.533  1.00  0.00    -0.203 F 
ATOM     89  F   UNL     1     -12.302  11.077   8.604  1.00  0.00    -0.200 F 
ATOM     90  C   UNL     1     -12.205   9.071   9.845  1.00  0.00     0.200 A 
ATOM     91  F   UNL     1     -12.060   7.055  11.068  1.00  0.00    -0.200 F 
ATOM     92  F   UNL     1     -13.203   9.493  10.633  1.00  0.00    -0.200 F 
ENDBRANCH  59  82
ENDBRANCH  33  34
ENDBRANCH  26  28
ENDBRANCH  25  26
ENDBRANCH  24  25
ENDBRANCH  23  24
ENDBRANCH  22  23
ENDBRANCH   1  22
TORSDOF 17
