REMARK SMILES C[C@@H]1CN(S(=O)(=O)N[C@H](C(=O)OCCOC(=O)c2ccc(-c3c4nc(c(-c5c(F)c(F)c(F)c(F)c5F)c5ccc([nH]5)c(-c5c(F)c(F)c(F)c(F)c5F)c5nc(c(-c6c(F)c(F)c(F)c(F)c6F)c6ccc3[nH]6)C=C5)C=C4)cc2)[C@@H](C)O)C[C@H](C)O1
REMARK SMILES IDX 13 1 12 2 10 3 11 4 9 5 8 6 5 8 6 9 7 10 4 11 1 12 2 13 3 14
REMARK SMILES IDX 87 15 85 16 84 17 86 18 81 19 82 20 83 21 14 23 15 24 16 25
REMARK SMILES IDX 17 26 18 27 19 28 80 29 20 30 79 31 21 32 22 33 23 34 73 35
REMARK SMILES IDX 24 36 78 37 72 38 74 39 25 40 77 41 71 42 70 43 26 45 58 46
REMARK SMILES IDX 38 47 57 48 39 49 42 50 56 51 75 52 40 53 41 54 55 56 76 57
REMARK SMILES IDX 43 58 27 59 28 60 36 61 29 62 30 63 34 64 37 65 31 66 32 67
REMARK SMILES IDX 35 68 33 69 59 70 60 71 68 72 61 73 62 74 66 75 69 76 63 77
REMARK SMILES IDX 64 78 67 79 65 80 44 81 45 82 53 83 46 84 47 85 51 86 54 87
REMARK SMILES IDX 48 88 49 89 52 90 50 91
REMARK H PARENT 8 7 83 22 74 44 42 55
REMARK Flexibility Score: inf
ROOT
ATOM      1  C   UNL     1       6.527  -2.505  -2.385  1.00  0.00     0.274 C 
ENDROOT
BRANCH   1   2
ATOM      2  O   UNL     1       5.266  -3.201  -2.468  1.00  0.00    -0.461 OA
BRANCH   2   3
ATOM      3  C   UNL     1       4.161  -2.424  -2.602  1.00  0.00     0.327 C 
ATOM      4  O   UNL     1       4.193  -1.211  -2.799  1.00  0.00    -0.250 OA
BRANCH   3   5
ATOM      5  C   UNL     1       2.852  -3.172  -2.423  1.00  0.00     0.208 C 
BRANCH   5   6
ATOM      6  N   UNL     1       2.237  -3.766  -3.640  1.00  0.00    -0.185 NA
ATOM      7  H   UNL     1       1.278  -3.996  -3.380  1.00  0.00     0.143 HD
BRANCH   6   8
ATOM      8  S   UNL     1       2.823  -5.106  -4.421  1.00  0.00     0.280 S 
ATOM      9  O   UNL     1       4.062  -5.519  -3.820  1.00  0.00    -0.195 OA
ATOM     10  O   UNL     1       2.686  -4.782  -5.823  1.00  0.00    -0.195 OA
BRANCH   8  11
ATOM     11  N   UNL     1       1.609  -6.234  -4.031  1.00  0.00    -0.184 NA
ATOM     12  C   UNL     1      -0.370  -7.116  -1.802  1.00  0.00     0.040 C 
ATOM     13  C   UNL     1       0.740  -7.944  -2.444  1.00  0.00     0.130 C 
ATOM     14  C   UNL     1       1.950  -7.114  -2.874  1.00  0.00     0.135 C 
ATOM     15  O   UNL     1       0.277  -8.771  -3.516  1.00  0.00    -0.373 OA
ATOM     16  C   UNL     1       0.053  -8.097  -4.763  1.00  0.00     0.130 C 
ATOM     17  C   UNL     1       1.167  -7.100  -5.174  1.00  0.00     0.135 C 
ATOM     18  C   UNL     1      -1.356  -7.516  -4.822  1.00  0.00     0.040 C 
ENDBRANCH   8  11
ENDBRANCH   6   8
ENDBRANCH   5   6
BRANCH   5  19
ATOM     19  C   UNL     1       2.858  -4.113  -1.206  1.00  0.00     0.140 C 
ATOM     20  C   UNL     1       3.422  -3.494   0.070  1.00  0.00     0.040 C 
BRANCH  19  21
ATOM     21  O   UNL     1       1.500  -4.484  -0.916  1.00  0.00    -0.391 OA
ATOM     22  H   UNL     1       0.991  -3.692  -0.683  1.00  0.00     0.211 HD
ENDBRANCH  19  21
ENDBRANCH   5  19
ENDBRANCH   3   5
ENDBRANCH   2   3
ENDBRANCH   1   2
BRANCH   1  23
ATOM     23  C   UNL     1       7.272  -2.474  -3.716  1.00  0.00     0.275 C 
BRANCH  23  24
ATOM     24  O   UNL     1       6.556  -1.687  -4.682  1.00  0.00    -0.458 OA
BRANCH  24  25
ATOM     25  C   UNL     1       5.834  -2.409  -5.568  1.00  0.00     0.338 C 
ATOM     26  O   UNL     1       5.780  -3.619  -5.677  1.00  0.00    -0.246 OA
BRANCH  25  27
ATOM     27  C   UNL     1       5.045  -1.506  -6.410  1.00  0.00     0.060 A 
ATOM     28  C   UNL     1       3.754  -1.163  -6.011  1.00  0.00     0.016 A 
ATOM     29  C   UNL     1       5.537  -1.115  -7.654  1.00  0.00     0.016 A 
ATOM     30  C   UNL     1       2.928  -0.450  -6.870  1.00  0.00     0.010 A 
ATOM     31  C   UNL     1       4.721  -0.366  -8.503  1.00  0.00     0.010 A 
ATOM     32  C   UNL     1       3.405  -0.045  -8.122  1.00  0.00    -0.014 A 
BRANCH  32  33
ATOM     33  C   UNL     1       2.516   0.697  -9.044  1.00  0.00     0.031 A 
ATOM     34  C   UNL     1       2.047   0.052 -10.315  1.00  0.00     0.074 A 
ATOM     35  C   UNL     1       2.135   1.947  -8.729  1.00  0.00     0.049 A 
ATOM     36  N   UNL     1       1.390   0.579 -11.316  1.00  0.00    -0.248 NA
ATOM     37  C   UNL     1       2.366  -1.374 -10.487  1.00  0.00     0.031 C 
ATOM     38  C   UNL     1       2.498   2.654  -7.500  1.00  0.00     0.029 A 
ATOM     39  N   UNL     1       1.361   2.846  -9.415  1.00  0.00    -0.354 N 
ATOM     40  C   UNL     1       1.254  -0.435 -12.254  1.00  0.00     0.074 A 
ATOM     41  C   UNL     1       1.898  -1.610 -11.705  1.00  0.00     0.031 C 
ATOM     42  C   UNL     1       1.937   3.872  -7.513  1.00  0.00     0.029 A 
ATOM     43  C   UNL     1       1.232   4.054  -8.777  1.00  0.00     0.049 A 
ATOM     44  H   UNL     1       0.939   2.645 -10.282  1.00  0.00     0.167 HD
ATOM     45  C   UNL     1       0.649  -0.381 -13.464  1.00  0.00     0.037 A 
ATOM     46  C   UNL     1       0.641   5.192  -9.184  1.00  0.00     0.037 A 
ATOM     47  C   UNL     1      -0.016   0.787 -13.982  1.00  0.00     0.049 A 
ATOM     48  C   UNL     1      -0.008   5.229 -10.537  1.00  0.00     0.074 A 
ATOM     49  C   UNL     1      -0.667   0.948 -15.193  1.00  0.00     0.029 A 
ATOM     50  N   UNL     1      -0.123   1.996 -13.308  1.00  0.00    -0.354 N 
ATOM     51  N   UNL     1      -0.100   4.279 -11.436  1.00  0.00    -0.248 NA
ATOM     52  C   UNL     1      -0.629   6.498 -10.937  1.00  0.00     0.031 C 
ATOM     53  C   UNL     1      -1.140   2.264 -15.265  1.00  0.00     0.029 A 
ATOM     54  C   UNL     1      -0.822   2.910 -14.081  1.00  0.00     0.049 A 
ATOM     55  H   UNL     1       0.244   2.178 -12.413  1.00  0.00     0.167 HD
ATOM     56  C   UNL     1      -0.798   4.828 -12.501  1.00  0.00     0.074 A 
ATOM     57  C   UNL     1      -1.125   6.189 -12.126  1.00  0.00     0.031 C 
ATOM     58  C   UNL     1      -1.135   4.259 -13.685  1.00  0.00     0.037 A 
BRANCH  45  59
ATOM     59  C   UNL     1       0.708  -1.607 -14.327  1.00  0.00     0.064 A 
ATOM     60  C   UNL     1      -0.050  -2.753 -14.041  1.00  0.00     0.173 A 
ATOM     61  C   UNL     1       1.509  -1.622 -15.479  1.00  0.00     0.173 A 
ATOM     62  F   UNL     1      -0.822  -2.796 -12.945  1.00  0.00    -0.203 F 
ATOM     63  C   UNL     1       0.010  -3.874 -14.866  1.00  0.00     0.198 A 
ATOM     64  C   UNL     1       1.546  -2.735 -16.315  1.00  0.00     0.198 A 
ATOM     65  F   UNL     1       2.250  -0.551 -15.800  1.00  0.00    -0.203 F 
ATOM     66  F   UNL     1      -0.693  -4.972 -14.553  1.00  0.00    -0.200 F 
ATOM     67  C   UNL     1       0.801  -3.862 -16.005  1.00  0.00     0.200 A 
ATOM     68  F   UNL     1       2.303  -2.716 -17.421  1.00  0.00    -0.200 F 
ATOM     69  F   UNL     1       0.850  -4.939 -16.801  1.00  0.00    -0.200 F 
ENDBRANCH  45  59
BRANCH  46  70
ATOM     70  C   UNL     1       0.660   6.386  -8.302  1.00  0.00     0.064 A 
ATOM     71  C   UNL     1      -0.512   6.849  -7.690  1.00  0.00     0.173 A 
ATOM     72  C   UNL     1       1.853   7.074  -8.034  1.00  0.00     0.173 A 
ATOM     73  F   UNL     1      -1.680   6.237  -7.934  1.00  0.00    -0.203 F 
ATOM     74  C   UNL     1      -0.493   7.960  -6.850  1.00  0.00     0.198 A 
ATOM     75  C   UNL     1       1.876   8.167  -7.170  1.00  0.00     0.198 A 
ATOM     76  F   UNL     1       3.003   6.669  -8.593  1.00  0.00    -0.203 F 
ATOM     77  F   UNL     1      -1.634   8.403  -6.304  1.00  0.00    -0.200 F 
ATOM     78  C   UNL     1       0.701   8.612  -6.584  1.00  0.00     0.200 A 
ATOM     79  F   UNL     1       3.035   8.784  -6.904  1.00  0.00    -0.200 F 
ATOM     80  F   UNL     1       0.720   9.673  -5.765  1.00  0.00    -0.200 F 
ENDBRANCH  46  70
BRANCH  58  81
ATOM     81  C   UNL     1      -1.922   5.106 -14.640  1.00  0.00     0.064 A 
ATOM     82  C   UNL     1      -1.327   6.161 -15.347  1.00  0.00     0.173 A 
ATOM     83  C   UNL     1      -3.284   4.849 -14.857  1.00  0.00     0.173 A 
ATOM     84  F   UNL     1      -0.032   6.455 -15.157  1.00  0.00    -0.203 F 
ATOM     85  C   UNL     1      -2.077   6.949 -16.215  1.00  0.00     0.198 A 
ATOM     86  C   UNL     1      -4.023   5.622 -15.747  1.00  0.00     0.198 A 
ATOM     87  F   UNL     1      -3.895   3.848 -14.208  1.00  0.00    -0.203 F 
ATOM     88  F   UNL     1      -1.502   7.986 -16.841  1.00  0.00    -0.200 F 
ATOM     89  C   UNL     1      -3.422   6.677 -16.418  1.00  0.00     0.200 A 
ATOM     90  F   UNL     1      -5.320   5.353 -15.948  1.00  0.00    -0.200 F 
ATOM     91  F   UNL     1      -4.142   7.439 -17.252  1.00  0.00    -0.200 F 
ENDBRANCH  58  81
ENDBRANCH  32  33
ENDBRANCH  25  27
ENDBRANCH  24  25
ENDBRANCH  23  24
ENDBRANCH   1  23
TORSDOF 16
