REMARK SMILES O=C(COc1ccccc1/C=N/NC(=O)C1CC1)OCCOC(=O)c1ccc(-c2c3nc(c(-c4c(F)c(F)c(F)c(F)c4F)c4ccc([nH]4)c(-c4c(F)c(F)c(F)c(F)c4F)c4nc(c(-c5c(F)c(F)c(F)c(F)c5F)c5ccc2[nH]5)C=C4)C=C3)cc1
REMARK SMILES IDX 19 1 2 2 1 3 3 4 4 5 5 6 6 7 10 8 7 9 9 10 8 11 11 12 12 13
REMARK SMILES IDX 13 14 14 15 15 17 16 18 17 19 18 20 20 21 21 22 22 23 23 24
REMARK SMILES IDX 24 25 25 26 26 27 87 28 27 29 86 30 28 31 29 32 30 33 80 34
REMARK SMILES IDX 31 35 85 36 79 37 81 38 32 39 84 40 78 41 77 42 33 44 65 45
REMARK SMILES IDX 45 46 64 47 46 48 49 49 63 50 82 51 47 52 48 53 62 55 83 56
REMARK SMILES IDX 50 57 34 58 35 59 43 60 36 61 37 62 41 63 44 64 38 65 39 66
REMARK SMILES IDX 42 67 40 68 66 69 67 70 75 71 68 72 69 73 73 74 76 75 70 76
REMARK SMILES IDX 71 77 74 78 72 79 51 80 52 81 60 82 53 83 54 84 58 85 61 86
REMARK SMILES IDX 55 87 56 88 59 89 57 90
REMARK H PARENT 13 16 81 43 49 54
REMARK Flexibility Score: inf
ROOT
ATOM      1  O   UNL     1       5.088  -0.536  -1.202  1.00  0.00    -0.460 OA
ENDROOT
BRANCH   1   2
ATOM      2  C   UNL     1       3.864  -0.605  -0.629  1.00  0.00     0.344 C 
ATOM      3  O   UNL     1       2.871  -0.779  -1.328  1.00  0.00    -0.248 OA
BRANCH   2   4
ATOM      4  C   UNL     1       3.798  -0.633   0.888  1.00  0.00     0.352 C 
BRANCH   4   5
ATOM      5  O   UNL     1       4.221  -1.923   1.338  1.00  0.00    -0.481 OA
BRANCH   5   6
ATOM      6  C   UNL     1       3.369  -2.480   2.253  1.00  0.00     0.129 A 
ATOM      7  C   UNL     1       3.837  -2.596   3.564  1.00  0.00     0.047 A 
ATOM      8  C   UNL     1       2.108  -2.992   1.931  1.00  0.00     0.037 A 
ATOM      9  C   UNL     1       3.041  -3.197   4.545  1.00  0.00     0.004 A 
ATOM     10  C   UNL     1       1.306  -3.584   2.914  1.00  0.00     0.013 A 
ATOM     11  C   UNL     1       1.778  -3.693   4.220  1.00  0.00     0.001 A 
BRANCH   8  12
ATOM     12  C   UNL     1       1.554  -2.886   0.576  1.00  0.00     0.145 C 
ATOM     13  N   UNL     1       0.474  -2.197   0.413  1.00  0.00    -0.181 NA
BRANCH  13  14
ATOM     14  N   UNL     1       0.001  -2.129  -0.859  1.00  0.00    -0.247 N 
ATOM     15  C   UNL     1      -0.512  -0.956  -1.376  1.00  0.00     0.243 C 
ATOM     16  H   UNL     1       0.025  -2.934  -1.425  1.00  0.00     0.193 HD
ATOM     17  O   UNL     1      -1.109  -0.899  -2.446  1.00  0.00    -0.273 OA
BRANCH  15  18
ATOM     18  C   UNL     1      -0.184   0.281  -0.614  1.00  0.00     0.080 C 
ATOM     19  C   UNL     1      -1.182   1.376  -0.344  1.00  0.00     0.014 C 
ATOM     20  C   UNL     1      -0.744   0.483   0.776  1.00  0.00     0.014 C 
ENDBRANCH  15  18
ENDBRANCH  13  14
ENDBRANCH   8  12
ENDBRANCH   5   6
ENDBRANCH   4   5
ENDBRANCH   2   4
ENDBRANCH   1   2
BRANCH   1  21
ATOM     21  C   UNL     1       6.093   0.388  -0.742  1.00  0.00     0.274 C 
BRANCH  21  22
ATOM     22  C   UNL     1       5.683   1.833  -1.033  1.00  0.00     0.275 C 
BRANCH  22  23
ATOM     23  O   UNL     1       4.968   2.375   0.100  1.00  0.00    -0.458 OA
BRANCH  23  24
ATOM     24  C   UNL     1       3.847   3.067  -0.196  1.00  0.00     0.338 C 
ATOM     25  O   UNL     1       3.338   3.223  -1.297  1.00  0.00    -0.246 OA
BRANCH  24  26
ATOM     26  C   UNL     1       3.222   3.568   1.036  1.00  0.00     0.060 A 
ATOM     27  C   UNL     1       2.015   2.995   1.432  1.00  0.00     0.016 A 
ATOM     28  C   UNL     1       3.728   4.680   1.711  1.00  0.00     0.016 A 
ATOM     29  C   UNL     1       1.280   3.556   2.478  1.00  0.00     0.010 A 
ATOM     30  C   UNL     1       2.998   5.232   2.776  1.00  0.00     0.010 A 
ATOM     31  C   UNL     1       1.751   4.694   3.150  1.00  0.00    -0.014 A 
BRANCH  31  32
ATOM     32  C   UNL     1       0.888   5.372   4.161  1.00  0.00     0.031 A 
ATOM     33  C   UNL     1       0.290   6.723   3.858  1.00  0.00     0.074 A 
ATOM     34  C   UNL     1       0.583   4.770   5.327  1.00  0.00     0.049 A 
ATOM     35  N   UNL     1      -0.407   7.519   4.632  1.00  0.00    -0.248 NA
ATOM     36  C   UNL     1       0.507   7.246   2.501  1.00  0.00     0.031 C 
ATOM     37  C   UNL     1       1.036   3.442   5.736  1.00  0.00     0.029 A 
ATOM     38  N   UNL     1      -0.190   5.198   6.381  1.00  0.00    -0.354 N 
ATOM     39  C   UNL     1      -0.692   8.643   3.866  1.00  0.00     0.074 A 
ATOM     40  C   UNL     1      -0.074   8.436   2.572  1.00  0.00     0.031 C 
ATOM     41  C   UNL     1       0.524   3.157   6.944  1.00  0.00     0.029 A 
ATOM     42  C   UNL     1      -0.249   4.302   7.421  1.00  0.00     0.049 A 
ATOM     43  H   UNL     1      -0.656   6.065   6.390  1.00  0.00     0.167 HD
ATOM     44  C   UNL     1      -1.408   9.744   4.203  1.00  0.00     0.037 A 
ATOM     45  C   UNL     1      -0.834   4.400   8.632  1.00  0.00     0.037 A 
ATOM     46  C   UNL     1      -2.049   9.950   5.477  1.00  0.00     0.049 A 
ATOM     47  C   UNL     1      -1.587   5.653   8.999  1.00  0.00     0.074 A 
ATOM     48  C   UNL     1      -2.769  11.048   5.916  1.00  0.00     0.029 A 
ATOM     49  N   UNL     1      -2.061   9.028   6.512  1.00  0.00    -0.354 N 
ATOM     50  N   UNL     1      -1.798   6.732   8.286  1.00  0.00    -0.248 NA
ATOM     51  C   UNL     1      -2.177   5.701  10.345  1.00  0.00     0.031 C 
ATOM     52  C   UNL     1      -3.192  10.804   7.228  1.00  0.00     0.029 A 
ATOM     53  C   UNL     1      -2.772   9.535   7.590  1.00  0.00     0.049 A 
ATOM     54  H   UNL     1      -1.630   8.144   6.486  1.00  0.00     0.167 HD
ATOM     55  C   UNL     1      -2.552   7.579   9.089  1.00  0.00     0.074 A 
ATOM     56  C   UNL     1      -2.788   6.877  10.333  1.00  0.00     0.031 C 
ATOM     57  C   UNL     1      -3.000   8.830   8.824  1.00  0.00     0.037 A 
BRANCH  44  58
ATOM     58  C   UNL     1      -1.517  10.836   3.178  1.00  0.00     0.064 A 
ATOM     59  C   UNL     1      -2.325  10.701   2.039  1.00  0.00     0.173 A 
ATOM     60  C   UNL     1      -0.831  12.047   3.356  1.00  0.00     0.173 A 
ATOM     61  F   UNL     1      -2.991   9.558   1.817  1.00  0.00    -0.203 F 
ATOM     62  C   UNL     1      -2.422  11.729   1.104  1.00  0.00     0.198 A 
ATOM     63  C   UNL     1      -0.952  13.083   2.433  1.00  0.00     0.198 A 
ATOM     64  F   UNL     1      -0.050  12.230   4.431  1.00  0.00    -0.203 F 
ATOM     65  F   UNL     1      -3.164  11.562   0.001  1.00  0.00    -0.200 F 
ATOM     66  C   UNL     1      -1.741  12.920   1.305  1.00  0.00     0.200 A 
ATOM     67  F   UNL     1      -0.302  14.238   2.635  1.00  0.00    -0.200 F 
ATOM     68  F   UNL     1      -1.839  13.910   0.407  1.00  0.00    -0.200 F 
ENDBRANCH  44  58
BRANCH  45  69
ATOM     69  C   UNL     1      -0.701   3.290   9.613  1.00  0.00     0.064 A 
ATOM     70  C   UNL     1      -1.812   2.532  10.010  1.00  0.00     0.173 A 
ATOM     71  C   UNL     1       0.537   2.986  10.197  1.00  0.00     0.173 A 
ATOM     72  F   UNL     1      -3.024   2.804   9.504  1.00  0.00    -0.203 F 
ATOM     73  C   UNL     1      -1.692   1.527  10.968  1.00  0.00     0.198 A 
ATOM     74  C   UNL     1       0.662   1.960  11.130  1.00  0.00     0.198 A 
ATOM     75  F   UNL     1       1.631   3.684   9.856  1.00  0.00    -0.203 F 
ATOM     76  F   UNL     1      -2.779   0.854  11.370  1.00  0.00    -0.200 F 
ATOM     77  C   UNL     1      -0.454   1.237  11.522  1.00  0.00     0.200 A 
ATOM     78  F   UNL     1       1.863   1.675  11.652  1.00  0.00    -0.200 F 
ATOM     79  F   UNL     1      -0.338   0.268  12.440  1.00  0.00    -0.200 F 
ENDBRANCH  45  69
BRANCH  57  80
ATOM     80  C   UNL     1      -3.807   9.511   9.893  1.00  0.00     0.064 A 
ATOM     81  C   UNL     1      -3.214   9.975  11.078  1.00  0.00     0.173 A 
ATOM     82  C   UNL     1      -5.186   9.710   9.728  1.00  0.00     0.173 A 
ATOM     83  F   UNL     1      -1.902   9.794  11.291  1.00  0.00    -0.203 F 
ATOM     84  C   UNL     1      -3.978  10.582  12.071  1.00  0.00     0.198 A 
ATOM     85  C   UNL     1      -5.942  10.343  10.712  1.00  0.00     0.198 A 
ATOM     86  F   UNL     1      -5.801   9.292   8.612  1.00  0.00    -0.203 F 
ATOM     87  F   UNL     1      -3.400  10.966  13.217  1.00  0.00    -0.200 F 
ATOM     88  C   UNL     1      -5.340  10.769  11.886  1.00  0.00     0.200 A 
ATOM     89  F   UNL     1      -7.256  10.532  10.528  1.00  0.00    -0.200 F 
ATOM     90  F   UNL     1      -6.074  11.350  12.845  1.00  0.00    -0.200 F 
ENDBRANCH  57  80
ENDBRANCH  31  32
ENDBRANCH  24  26
ENDBRANCH  23  24
ENDBRANCH  22  23
ENDBRANCH  21  22
ENDBRANCH   1  21
TORSDOF 16
