REMARK SMILES Cc1ccc([N+](=O)[O-])c(NCc2ccc(C(=O)OCCOC(=O)c3ccc(-c4c5nc(c(-c6c(F)c(F)c(F)c(F)c6F)c6ccc([nH]6)c(-c6c(F)c(F)c(F)c(F)c6F)c6nc(c(-c7c(F)c(F)c(F)c(F)c7F)c7ccc4[nH]7)C=C6)C=C5)cc3)cc2)c1
REMARK SMILES IDX 19 1 18 2 16 3 17 4 15 5 12 6 13 7 88 8 14 9 87 10 11 11
REMARK SMILES IDX 10 12 9 14 1 15 2 16 3 17 89 18 4 19 5 20 6 21 7 22 8 23
REMARK SMILES IDX 20 24 21 25 22 26 23 27 24 28 25 29 86 30 26 31 85 32 27 33
REMARK SMILES IDX 28 34 29 35 79 36 30 37 84 38 78 39 80 40 31 41 83 42 77 43
REMARK SMILES IDX 76 44 32 46 64 47 44 48 63 49 45 50 48 51 62 52 81 53 46 54
REMARK SMILES IDX 47 55 61 57 82 58 49 59 33 60 34 61 42 62 35 63 36 64 40 65
REMARK SMILES IDX 43 66 37 67 38 68 41 69 39 70 65 71 66 72 74 73 67 74 68 75
REMARK SMILES IDX 72 76 75 77 69 78 70 79 73 80 71 81 50 82 51 83 59 84 52 85
REMARK SMILES IDX 53 86 57 87 60 88 54 89 55 90 58 91 56 92
REMARK H PARENT 10 13 80 45 48 56
REMARK Flexibility Score: inf
ROOT
ATOM      1  C   UNL     1      -4.164  10.067  -2.018  1.00  0.00     0.275 C 
ENDROOT
BRANCH   1   2
ATOM      2  O   UNL     1      -4.177   8.633  -1.973  1.00  0.00    -0.458 OA
BRANCH   2   3
ATOM      3  C   UNL     1      -3.362   8.155  -0.998  1.00  0.00     0.338 C 
ATOM      4  O   UNL     1      -2.678   8.839  -0.247  1.00  0.00    -0.246 OA
BRANCH   3   5
ATOM      5  C   UNL     1      -3.318   6.678  -0.932  1.00  0.00     0.060 A 
ATOM      6  C   UNL     1      -3.096   3.897  -0.436  1.00  0.00    -0.029 A 
ATOM      7  C   UNL     1      -4.306   4.463  -0.882  1.00  0.00     0.006 A 
ATOM      8  C   UNL     1      -1.999   4.759  -0.274  1.00  0.00     0.006 A 
ATOM      9  C   UNL     1      -4.409   5.838  -1.162  1.00  0.00     0.016 A 
ATOM     10  C   UNL     1      -2.112   6.128  -0.502  1.00  0.00     0.016 A 
BRANCH   6  11
ATOM     11  C   UNL     1      -3.055   2.405  -0.092  1.00  0.00     0.149 C 
BRANCH  11  12
ATOM     12  N   UNL     1      -1.692   1.931   0.083  1.00  0.00    -0.375 N 
ATOM     13  H   UNL     1      -1.044   2.658   0.228  1.00  0.00     0.161 HD
BRANCH  12  14
ATOM     14  C   UNL     1      -1.118   0.678   0.088  1.00  0.00     0.114 A 
ATOM     15  C   UNL     1       2.618  -0.266  -0.015  1.00  0.00     0.044 C 
ATOM     16  C   UNL     1       1.125  -0.409   0.011  1.00  0.00    -0.049 A 
ATOM     17  C   UNL     1       0.528  -1.663  -0.008  1.00  0.00     0.010 A 
ATOM     18  C   UNL     1       0.302   0.724   0.052  1.00  0.00     0.036 A 
ATOM     19  C   UNL     1      -0.863  -1.763   0.002  1.00  0.00     0.088 A 
ATOM     20  C   UNL     1      -1.682  -0.606   0.037  1.00  0.00     0.292 A 
BRANCH  20  21
ATOM     21  N   UNL     1      -3.120  -0.867   0.085  1.00  0.00     0.064 N 
ATOM     22  O   UNL     1      -3.540  -1.846  -0.553  1.00  0.00    -0.258 OA
ATOM     23  O   UNL     1      -3.833  -0.153   0.801  1.00  0.00    -0.258 OA
ENDBRANCH  20  21
ENDBRANCH  12  14
ENDBRANCH  11  12
ENDBRANCH   6  11
ENDBRANCH   3   5
ENDBRANCH   2   3
ENDBRANCH   1   2
BRANCH   1  24
ATOM     24  C   UNL     1      -5.345  10.671  -2.791  1.00  0.00     0.275 C 
BRANCH  24  25
ATOM     25  O   UNL     1      -6.710  10.199  -2.609  1.00  0.00    -0.458 OA
BRANCH  25  26
ATOM     26  C   UNL     1      -7.052   9.081  -1.931  1.00  0.00     0.338 C 
ATOM     27  O   UNL     1      -7.654   8.141  -2.433  1.00  0.00    -0.246 OA
BRANCH  26  28
ATOM     28  C   UNL     1      -6.728   9.119  -0.495  1.00  0.00     0.060 A 
ATOM     29  C   UNL     1      -6.654   7.915   0.229  1.00  0.00     0.016 A 
ATOM     30  C   UNL     1      -6.358  10.331   0.079  1.00  0.00     0.016 A 
ATOM     31  C   UNL     1      -6.096   7.902   1.499  1.00  0.00     0.010 A 
ATOM     32  C   UNL     1      -5.686  10.304   1.268  1.00  0.00     0.010 A 
ATOM     33  C   UNL     1      -5.615   9.105   1.996  1.00  0.00    -0.014 A 
BRANCH  33  34
ATOM     34  C   UNL     1      -5.308   9.334   3.392  1.00  0.00     0.031 A 
ATOM     35  C   UNL     1      -3.976   9.063   3.940  1.00  0.00     0.074 A 
ATOM     36  C   UNL     1      -6.286  10.076   3.957  1.00  0.00     0.049 A 
ATOM     37  N   UNL     1      -3.685   9.186   5.183  1.00  0.00    -0.248 NA
ATOM     38  C   UNL     1      -2.846   8.591   3.147  1.00  0.00     0.031 C 
ATOM     39  C   UNL     1      -6.295  10.963   5.103  1.00  0.00     0.029 A 
ATOM     40  N   UNL     1      -7.630  10.071   3.530  1.00  0.00    -0.354 N 
ATOM     41  C   UNL     1      -2.310   9.158   5.303  1.00  0.00     0.074 A 
ATOM     42  C   UNL     1      -1.845   8.653   4.036  1.00  0.00     0.031 C 
ATOM     43  C   UNL     1      -7.576  11.143   5.487  1.00  0.00     0.029 A 
ATOM     44  C   UNL     1      -8.392  10.233   4.688  1.00  0.00     0.049 A 
ATOM     45  H   UNL     1      -7.962   9.974   2.608  1.00  0.00     0.167 HD
ATOM     46  C   UNL     1      -1.770   9.736   6.417  1.00  0.00     0.037 A 
ATOM     47  C   UNL     1      -9.044   9.129   5.164  1.00  0.00     0.037 A 
ATOM     48  C   UNL     1      -2.857  10.108   7.325  1.00  0.00     0.049 A 
ATOM     49  C   UNL     1      -8.464   8.733   6.498  1.00  0.00     0.074 A 
ATOM     50  C   UNL     1      -3.543  11.298   7.501  1.00  0.00     0.029 A 
ATOM     51  N   UNL     1      -3.650   9.104   7.873  1.00  0.00    -0.354 N 
ATOM     52  N   UNL     1      -7.194   8.796   6.807  1.00  0.00    -0.248 NA
ATOM     53  C   UNL     1      -9.316   8.383   7.625  1.00  0.00     0.031 C 
ATOM     54  C   UNL     1      -4.807  10.984   8.071  1.00  0.00     0.029 A 
ATOM     55  C   UNL     1      -4.880   9.610   8.247  1.00  0.00     0.049 A 
ATOM     56  H   UNL     1      -3.373   8.165   7.979  1.00  0.00     0.167 HD
ATOM     57  C   UNL     1      -7.064   8.609   8.160  1.00  0.00     0.074 A 
ATOM     58  C   UNL     1      -8.416   8.330   8.618  1.00  0.00     0.031 C 
ATOM     59  C   UNL     1      -5.888   8.749   8.844  1.00  0.00     0.037 A 
BRANCH  46  60
ATOM     60  C   UNL     1      -0.347  10.237   6.605  1.00  0.00     0.064 A 
ATOM     61  C   UNL     1      -0.064  11.176   7.630  1.00  0.00     0.173 A 
ATOM     62  C   UNL     1       0.761   9.910   5.802  1.00  0.00     0.173 A 
ATOM     63  F   UNL     1      -0.995  11.546   8.519  1.00  0.00    -0.203 F 
ATOM     64  C   UNL     1       1.188  11.783   7.784  1.00  0.00     0.198 A 
ATOM     65  C   UNL     1       2.014  10.524   5.952  1.00  0.00     0.198 A 
ATOM     66  F   UNL     1       0.697   8.967   4.859  1.00  0.00    -0.203 F 
ATOM     67  F   UNL     1       1.375  12.684   8.758  1.00  0.00    -0.200 F 
ATOM     68  C   UNL     1       2.225  11.467   6.935  1.00  0.00     0.200 A 
ATOM     69  F   UNL     1       3.019  10.189   5.129  1.00  0.00    -0.200 F 
ATOM     70  F   UNL     1       3.421  12.055   7.072  1.00  0.00    -0.200 F 
ENDBRANCH  46  60
BRANCH  47  71
ATOM     71  C   UNL     1      -9.493   8.192   4.077  1.00  0.00     0.064 A 
ATOM     72  C   UNL     1     -10.303   8.715   3.040  1.00  0.00     0.173 A 
ATOM     73  C   UNL     1      -8.892   6.950   3.837  1.00  0.00     0.173 A 
ATOM     74  F   UNL     1     -10.916   9.900   3.202  1.00  0.00    -0.203 F 
ATOM     75  C   UNL     1     -10.393   8.099   1.790  1.00  0.00     0.198 A 
ATOM     76  C   UNL     1      -9.011   6.319   2.591  1.00  0.00     0.198 A 
ATOM     77  F   UNL     1      -8.112   6.380   4.766  1.00  0.00    -0.203 F 
ATOM     78  F   UNL     1     -11.057   8.702   0.793  1.00  0.00    -0.200 F 
ATOM     79  C   UNL     1      -9.730   6.909   1.561  1.00  0.00     0.200 A 
ATOM     80  F   UNL     1      -8.345   5.179   2.352  1.00  0.00    -0.200 F 
ATOM     81  F   UNL     1      -9.739   6.357   0.338  1.00  0.00    -0.200 F 
ENDBRANCH  47  71
BRANCH  59  82
ATOM     82  C   UNL     1      -5.619   8.179  10.217  1.00  0.00     0.064 A 
ATOM     83  C   UNL     1      -6.338   7.103  10.761  1.00  0.00     0.173 A 
ATOM     84  C   UNL     1      -4.493   8.597  10.971  1.00  0.00     0.173 A 
ATOM     85  F   UNL     1      -7.324   6.501  10.084  1.00  0.00    -0.203 F 
ATOM     86  C   UNL     1      -6.024   6.557  12.005  1.00  0.00     0.198 A 
ATOM     87  C   UNL     1      -4.131   7.991  12.170  1.00  0.00     0.198 A 
ATOM     88  F   UNL     1      -3.682   9.580  10.553  1.00  0.00    -0.203 F 
ATOM     89  F   UNL     1      -6.791   5.581  12.508  1.00  0.00    -0.200 F 
ATOM     90  C   UNL     1      -4.914   6.990  12.703  1.00  0.00     0.200 A 
ATOM     91  F   UNL     1      -3.005   8.368  12.792  1.00  0.00    -0.200 F 
ATOM     92  F   UNL     1      -4.584   6.425  13.870  1.00  0.00    -0.200 F 
ENDBRANCH  59  82
ENDBRANCH  33  34
ENDBRANCH  26  28
ENDBRANCH  25  26
ENDBRANCH  24  25
ENDBRANCH   1  24
TORSDOF 15
