REMARK SMILES O=C1C[C@@H](c2cccc(O)c2)c2c(c(C(=O)OCCOC(=O)c3ccc(-c4c5nc(c(-c6c(F)c(F)c(F)c(F)c6F)c6ccc([nH]6)c(-c6c(F)c(F)c(F)c(F)c6F)c6nc(c(-c7c(F)c(F)c(F)c(F)c7F)c7ccc4[nH]7)C=C6)C=C5)cc3)cn2-c2cccc(C(F)(F)F)c2)N1
REMARK SMILES IDX 18 1 17 2 15 3 16 4 14 5 1 6 2 7 3 8 98 9 4 10 13 11 12 13
REMARK SMILES IDX 87 14 86 15 5 16 6 17 11 18 7 19 9 20 8 21 10 22 88 24 89 25
REMARK SMILES IDX 97 26 90 27 92 28 91 29 93 30 94 31 95 32 96 33 19 34 20 35
REMARK SMILES IDX 21 36 22 37 23 38 24 39 85 40 25 41 84 42 26 43 27 44 28 45
REMARK SMILES IDX 78 46 29 47 83 48 77 49 79 50 30 51 82 52 76 53 75 54 31 56
REMARK SMILES IDX 63 57 43 58 62 59 44 60 47 61 61 62 80 63 45 64 46 65 60 67
REMARK SMILES IDX 81 68 48 69 32 70 33 71 41 72 34 73 35 74 39 75 42 76 36 77
REMARK SMILES IDX 37 78 40 79 38 80 64 81 65 82 73 83 66 84 67 85 71 86 74 87
REMARK SMILES IDX 68 88 69 89 72 90 70 91 49 92 50 93 58 94 51 95 52 96 56 97
REMARK SMILES IDX 59 98 53 99 54 100 57 101 55 102
REMARK H PARENT 98 12 10 23 79 55 47 66
REMARK Flexibility Score: inf
ROOT
ATOM      1  C   UNL     1       6.006  -5.270   2.182  1.00  0.00     0.275 C 
ENDROOT
BRANCH   1   2
ATOM      2  O   UNL     1       6.086  -3.838   2.259  1.00  0.00    -0.458 OA
BRANCH   2   3
ATOM      3  C   UNL     1       5.445  -3.153   1.267  1.00  0.00     0.341 C 
ATOM      4  O   UNL     1       4.964  -3.670   0.261  1.00  0.00    -0.246 OA
BRANCH   3   5
ATOM      5  C   UNL     1       5.296  -1.739   1.564  1.00  0.00     0.102 A 
ATOM      6  O   UNL     1       1.755  -0.243  -1.277  1.00  0.00    -0.275 OA
ATOM      7  C   UNL     1       2.707  -0.017  -0.531  1.00  0.00     0.225 C 
ATOM      8  C   UNL     1       3.247   1.390  -0.310  1.00  0.00     0.115 C 
ATOM      9  N   UNL     1       3.424  -1.045   0.029  1.00  0.00    -0.324 N 
ATOM     10  C   UNL     1       3.824   1.642   1.099  1.00  0.00     0.078 C 
ATOM     11  C   UNL     1       4.378  -0.831   0.994  1.00  0.00     0.078 A 
ATOM     12  H   UNL     1       3.248  -1.966  -0.272  1.00  0.00     0.170 HD
ATOM     13  C   UNL     1       4.538   0.407   1.575  1.00  0.00     0.055 A 
ATOM     14  N   UNL     1       5.537   0.295   2.529  1.00  0.00    -0.317 N 
ATOM     15  C   UNL     1       6.019  -1.002   2.485  1.00  0.00     0.109 A 
BRANCH  10  16
ATOM     16  C   UNL     1       2.739   2.163   2.023  1.00  0.00    -0.035 A 
ATOM     17  C   UNL     1       1.705   1.350   2.513  1.00  0.00     0.005 A 
ATOM     18  C   UNL     1       2.772   3.514   2.412  1.00  0.00     0.050 A 
ATOM     19  C   UNL     1       0.754   1.869   3.397  1.00  0.00     0.004 A 
ATOM     20  C   UNL     1       1.840   4.010   3.315  1.00  0.00     0.115 A 
ATOM     21  C   UNL     1       0.827   3.199   3.810  1.00  0.00     0.046 A 
BRANCH  20  22
ATOM     22  O   UNL     1       1.983   5.304   3.719  1.00  0.00    -0.508 OA
ATOM     23  H   UNL     1       1.374   5.674   4.327  1.00  0.00     0.293 HD
ENDBRANCH  20  22
ENDBRANCH  10  16
BRANCH  14  24
ATOM     24  C   UNL     1       6.048   1.282   3.407  1.00  0.00     0.046 A 
ATOM     25  C   UNL     1       7.434   1.435   3.527  1.00  0.00     0.026 A 
ATOM     26  C   UNL     1       5.189   2.044   4.203  1.00  0.00     0.039 A 
ATOM     27  C   UNL     1       7.953   2.402   4.386  1.00  0.00     0.003 A 
ATOM     28  C   UNL     1       5.703   3.011   5.082  1.00  0.00     0.058 A 
ATOM     29  C   UNL     1       7.093   3.193   5.150  1.00  0.00     0.013 A 
BRANCH  28  30
ATOM     30  C   UNL     1       4.796   3.842   5.958  1.00  0.00     0.416 C 
ATOM     31  F   UNL     1       5.164   3.797   7.270  1.00  0.00    -0.166 F 
ATOM     32  F   UNL     1       4.809   5.161   5.619  1.00  0.00    -0.166 F 
ATOM     33  F   UNL     1       3.490   3.459   5.935  1.00  0.00    -0.166 F 
ENDBRANCH  28  30
ENDBRANCH  14  24
ENDBRANCH   3   5
ENDBRANCH   2   3
ENDBRANCH   1   2
BRANCH   1  34
ATOM     34  C   UNL     1       4.741  -5.803   2.846  1.00  0.00     0.275 C 
BRANCH  34  35
ATOM     35  O   UNL     1       3.566  -5.536   2.078  1.00  0.00    -0.458 OA
BRANCH  35  36
ATOM     36  C   UNL     1       2.882  -4.430   2.446  1.00  0.00     0.338 C 
ATOM     37  O   UNL     1       3.293  -3.495   3.112  1.00  0.00    -0.246 OA
BRANCH  36  38
ATOM     38  C   UNL     1       1.468  -4.592   2.099  1.00  0.00     0.060 A 
ATOM     39  C   UNL     1       0.642  -3.467   2.180  1.00  0.00     0.016 A 
ATOM     40  C   UNL     1       0.942  -5.881   1.935  1.00  0.00     0.016 A 
ATOM     41  C   UNL     1      -0.727  -3.651   2.214  1.00  0.00     0.010 A 
ATOM     42  C   UNL     1      -0.422  -6.064   1.982  1.00  0.00     0.010 A 
ATOM     43  C   UNL     1      -1.242  -4.953   2.174  1.00  0.00    -0.014 A 
BRANCH  43  44
ATOM     44  C   UNL     1      -2.685  -5.121   2.165  1.00  0.00     0.031 A 
ATOM     45  C   UNL     1      -3.311  -4.631   0.909  1.00  0.00     0.074 A 
ATOM     46  C   UNL     1      -3.347  -5.783   3.135  1.00  0.00     0.049 A 
ATOM     47  N   UNL     1      -4.229  -3.732   0.782  1.00  0.00    -0.248 NA
ATOM     48  C   UNL     1      -2.748  -5.099  -0.371  1.00  0.00     0.031 C 
ATOM     49  C   UNL     1      -2.774  -6.530   4.257  1.00  0.00     0.029 A 
ATOM     50  N   UNL     1      -4.682  -6.022   3.264  1.00  0.00    -0.354 N 
ATOM     51  C   UNL     1      -4.489  -3.652  -0.583  1.00  0.00     0.074 A 
ATOM     52  C   UNL     1      -3.448  -4.384  -1.250  1.00  0.00     0.031 C 
ATOM     53  C   UNL     1      -3.727  -7.319   4.802  1.00  0.00     0.029 A 
ATOM     54  C   UNL     1      -4.996  -7.048   4.148  1.00  0.00     0.049 A 
ATOM     55  H   UNL     1      -5.366  -5.511   2.773  1.00  0.00     0.167 HD
ATOM     56  C   UNL     1      -5.698  -3.219  -1.029  1.00  0.00     0.037 A 
ATOM     57  C   UNL     1      -6.195  -7.675   4.272  1.00  0.00     0.037 A 
ATOM     58  C   UNL     1      -6.356  -2.413  -0.032  1.00  0.00     0.049 A 
ATOM     59  C   UNL     1      -7.221  -6.808   3.641  1.00  0.00     0.074 A 
ATOM     60  C   UNL     1      -6.046  -1.237   0.623  1.00  0.00     0.029 A 
ATOM     61  N   UNL     1      -7.357  -2.996   0.701  1.00  0.00    -0.354 N 
ATOM     62  N   UNL     1      -7.610  -5.665   4.127  1.00  0.00    -0.248 NA
ATOM     63  C   UNL     1      -7.500  -7.013   2.228  1.00  0.00     0.031 C 
ATOM     64  C   UNL     1      -6.539  -1.409   1.950  1.00  0.00     0.029 A 
ATOM     65  C   UNL     1      -7.179  -2.646   2.013  1.00  0.00     0.049 A 
ATOM     66  H   UNL     1      -8.078  -3.565   0.346  1.00  0.00     0.167 HD
ATOM     67  C   UNL     1      -7.751  -4.847   3.017  1.00  0.00     0.074 A 
ATOM     68  C   UNL     1      -7.773  -5.755   1.874  1.00  0.00     0.031 C 
ATOM     69  C   UNL     1      -7.542  -3.502   3.116  1.00  0.00     0.037 A 
BRANCH  56  70
ATOM     70  C   UNL     1      -6.449  -3.890  -2.157  1.00  0.00     0.064 A 
ATOM     71  C   UNL     1      -7.678  -3.342  -2.573  1.00  0.00     0.173 A 
ATOM     72  C   UNL     1      -6.187  -5.203  -2.610  1.00  0.00     0.173 A 
ATOM     73  F   UNL     1      -8.042  -2.109  -2.188  1.00  0.00    -0.203 F 
ATOM     74  C   UNL     1      -8.611  -4.088  -3.298  1.00  0.00     0.198 A 
ATOM     75  C   UNL     1      -7.098  -5.924  -3.378  1.00  0.00     0.198 A 
ATOM     76  F   UNL     1      -5.102  -5.891  -2.238  1.00  0.00    -0.203 F 
ATOM     77  F   UNL     1      -9.824  -3.575  -3.544  1.00  0.00    -0.200 F 
ATOM     78  C   UNL     1      -8.324  -5.381  -3.691  1.00  0.00     0.200 A 
ATOM     79  F   UNL     1      -6.808  -7.185  -3.730  1.00  0.00    -0.200 F 
ATOM     80  F   UNL     1      -9.244  -6.123  -4.322  1.00  0.00    -0.200 F 
ENDBRANCH  56  70
BRANCH  57  81
ATOM     81  C   UNL     1      -6.477  -9.094   4.604  1.00  0.00     0.064 A 
ATOM     82  C   UNL     1      -7.774  -9.513   4.952  1.00  0.00     0.173 A 
ATOM     83  C   UNL     1      -5.554 -10.115   4.307  1.00  0.00     0.173 A 
ATOM     84  F   UNL     1      -8.730  -8.607   5.207  1.00  0.00    -0.203 F 
ATOM     85  C   UNL     1      -8.133 -10.866   4.967  1.00  0.00     0.198 A 
ATOM     86  C   UNL     1      -5.910 -11.465   4.331  1.00  0.00     0.198 A 
ATOM     87  F   UNL     1      -4.315  -9.823   3.888  1.00  0.00    -0.203 F 
ATOM     88  F   UNL     1      -9.398 -11.220   5.234  1.00  0.00    -0.200 F 
ATOM     89  C   UNL     1      -7.203 -11.840   4.645  1.00  0.00     0.200 A 
ATOM     90  F   UNL     1      -5.010 -12.395   3.982  1.00  0.00    -0.200 F 
ATOM     91  F   UNL     1      -7.561 -13.130   4.595  1.00  0.00    -0.200 F 
ENDBRANCH  57  81
BRANCH  69  92
ATOM     92  C   UNL     1      -7.479  -2.907   4.494  1.00  0.00     0.064 A 
ATOM     93  C   UNL     1      -6.527  -3.250   5.470  1.00  0.00     0.173 A 
ATOM     94  C   UNL     1      -8.365  -1.863   4.798  1.00  0.00     0.173 A 
ATOM     95  F   UNL     1      -5.579  -4.163   5.223  1.00  0.00    -0.203 F 
ATOM     96  C   UNL     1      -6.506  -2.616   6.712  1.00  0.00     0.198 A 
ATOM     97  C   UNL     1      -8.314  -1.204   6.021  1.00  0.00     0.198 A 
ATOM     98  F   UNL     1      -9.261  -1.456   3.885  1.00  0.00    -0.203 F 
ATOM     99  F   UNL     1      -5.606  -2.979   7.638  1.00  0.00    -0.200 F 
ATOM    100  C   UNL     1      -7.396  -1.590   6.983  1.00  0.00     0.200 A 
ATOM    101  F   UNL     1      -9.143  -0.178   6.258  1.00  0.00    -0.200 F 
ATOM    102  F   UNL     1      -7.354  -0.956   8.164  1.00  0.00    -0.200 F 
ENDBRANCH  69  92
ENDBRANCH  43  44
ENDBRANCH  36  38
ENDBRANCH  35  36
ENDBRANCH  34  35
ENDBRANCH   1  34
TORSDOF 15
