REMARK SMILES C#CCN(CC(=O)OCCOC(=O)c1ccc(-c2c3nc(c(-c4c(F)c(F)c(F)c(F)c4F)c4ccc([nH]4)c(-c4c(F)c(F)c(F)c(F)c4F)c4nc(c(-c5c(F)c(F)c(F)c(F)c5F)c5ccc2[nH]5)C=C4)C=C3)cc1)C(=O)N1CCO[C@@H](C#N)C1
REMARK SMILES IDX 9 1 8 2 6 3 7 4 5 5 4 6 3 7 2 8 1 9 77 10 78 11 79 12 80 13
REMARK SMILES IDX 86 14 81 15 83 16 82 17 84 18 85 19 10 20 11 21 12 22 13 23
REMARK SMILES IDX 14 24 15 25 76 26 16 27 75 28 17 29 18 30 19 31 69 32 20 33
REMARK SMILES IDX 74 34 68 35 70 36 21 37 73 38 67 39 66 40 22 42 54 43 34 44
REMARK SMILES IDX 53 45 35 46 38 47 52 48 71 49 36 50 37 51 51 53 72 54 39 55
REMARK SMILES IDX 23 56 24 57 32 58 25 59 26 60 30 61 33 62 27 63 28 64 31 65
REMARK SMILES IDX 29 66 55 67 56 68 64 69 57 70 58 71 62 72 65 73 59 74 60 75
REMARK SMILES IDX 63 76 61 77 40 78 41 79 49 80 42 81 43 82 47 83 50 84 44 85
REMARK SMILES IDX 45 86 48 87 46 88
REMARK H PARENT 70 41 38 52
REMARK Flexibility Score: inf
ROOT
ATOM      1  C   UNL     1      -5.444   2.804  -1.047  1.00  0.00     0.274 C 
ENDROOT
BRANCH   1   2
ATOM      2  O   UNL     1      -4.356   1.876  -1.070  1.00  0.00    -0.461 OA
BRANCH   2   3
ATOM      3  C   UNL     1      -3.166   2.514  -0.977  1.00  0.00     0.325 C 
ATOM      4  O   UNL     1      -2.848   3.460  -1.690  1.00  0.00    -0.250 OA
BRANCH   3   5
ATOM      5  C   UNL     1      -2.364   2.093   0.273  1.00  0.00     0.245 C 
BRANCH   5   6
ATOM      6  N   UNL     1      -2.500   0.737   1.018  1.00  0.00    -0.302 N 
BRANCH   6   7
ATOM      7  C   UNL     1      -1.794   0.058   0.076  1.00  0.00     0.211 C 
BRANCH   7   8
ATOM      8  C   UNL     1      -0.274   0.058   0.076  1.00  0.00    -0.085 C 
ATOM      9  C   UNL     1       1.030   0.058   0.076  1.00  0.00     0.006 C 
ENDBRANCH   7   8
ENDBRANCH   6   7
BRANCH   6  10
ATOM     10  C   UNL     1      -3.205  -0.230   2.069  1.00  0.00     0.321 C 
ATOM     11  O   UNL     1      -2.896  -1.432   2.091  1.00  0.00    -0.248 OA
BRANCH  10  12
ATOM     12  N   UNL     1      -4.160   0.317   3.367  1.00  0.00    -0.319 N 
ATOM     13  C   UNL     1      -3.240  -0.233   4.534  1.00  0.00     0.150 C 
ATOM     14  C   UNL     1      -5.083   1.985   3.709  1.00  0.00     0.169 C 
ATOM     15  C   UNL     1      -1.881   0.806   4.920  1.00  0.00     0.183 C 
ATOM     16  C   UNL     1      -3.756   3.518   4.001  1.00  0.00     0.240 C 
ATOM     17  O   UNL     1      -2.111   2.585   4.796  1.00  0.00    -0.360 OA
BRANCH  16  18
ATOM     18  C   UNL     1      -3.225   4.123   2.712  1.00  0.00     0.096 C 
ATOM     19  N   UNL     1      -2.784   4.624   1.642  1.00  0.00    -0.195 NA
ENDBRANCH  16  18
ENDBRANCH  10  12
ENDBRANCH   6  10
ENDBRANCH   5   6
ENDBRANCH   3   5
ENDBRANCH   2   3
ENDBRANCH   1   2
BRANCH   1  20
ATOM     20  C   UNL     1      -5.855   3.168   0.391  1.00  0.00     0.275 C 
BRANCH  20  21
ATOM     21  O   UNL     1      -4.755   3.202   1.352  1.00  0.00    -0.458 OA
BRANCH  21  22
ATOM     22  C   UNL     1      -4.241   1.980   1.804  1.00  0.00     0.338 C 
ATOM     23  O   UNL     1      -4.914   1.059   1.313  1.00  0.00    -0.246 OA
BRANCH  22  24
ATOM     24  C   UNL     1      -2.968   1.933   3.320  1.00  0.00     0.060 A 
ATOM     25  C   UNL     1      -1.443   2.842   3.022  1.00  0.00     0.016 A 
ATOM     26  C   UNL     1      -3.698   2.013   5.179  1.00  0.00     0.016 A 
ATOM     27  C   UNL     1      -1.033   4.107   4.140  1.00  0.00     0.010 A 
ATOM     28  C   UNL     1      -3.124   3.336   6.248  1.00  0.00     0.010 A 
ATOM     29  C   UNL     1      -1.872   4.390   5.639  1.00  0.00    -0.014 A 
BRANCH  29  30
ATOM     30  C   UNL     1      -1.423   5.641   6.319  1.00  0.00     0.031 A 
ATOM     31  C   UNL     1      -0.330   5.603   7.342  1.00  0.00     0.074 A 
ATOM     32  C   UNL     1      -1.809   6.842   5.833  1.00  0.00     0.049 A 
ATOM     33  N   UNL     1       0.430   6.580   7.774  1.00  0.00    -0.248 NA
ATOM     34  C   UNL     1      -0.040   4.296   7.943  1.00  0.00     0.031 C 
ATOM     35  C   UNL     1      -2.800   7.059   4.783  1.00  0.00     0.029 A 
ATOM     36  N   UNL     1      -1.355   8.114   6.114  1.00  0.00    -0.354 N 
ATOM     37  C   UNL     1       1.312   6.003   8.674  1.00  0.00     0.074 A 
ATOM     38  C   UNL     1       0.963   4.598   8.760  1.00  0.00     0.031 C 
ATOM     39  C   UNL     1      -2.833   8.360   4.456  1.00  0.00     0.029 A 
ATOM     40  C   UNL     1      -1.871   9.080   5.281  1.00  0.00     0.049 A 
ATOM     41  H   UNL     1      -0.722   8.312   6.842  1.00  0.00     0.167 HD
ATOM     42  C   UNL     1       2.340   6.581   9.342  1.00  0.00     0.037 A 
ATOM     43  C   UNL     1      -1.586  10.391   5.155  1.00  0.00     0.037 A 
ATOM     44  C   UNL     1       2.731   7.964   9.251  1.00  0.00     0.049 A 
ATOM     45  C   UNL     1      -0.539  11.027   6.019  1.00  0.00     0.074 A 
ATOM     46  C   UNL     1       3.824   8.594   9.828  1.00  0.00     0.029 A 
ATOM     47  N   UNL     1       2.041   8.935   8.548  1.00  0.00    -0.354 N 
ATOM     48  N   UNL     1       0.322  10.457   6.820  1.00  0.00    -0.248 NA
ATOM     49  C   UNL     1      -0.431  12.493   5.958  1.00  0.00     0.031 C 
ATOM     50  C   UNL     1       3.777   9.954   9.497  1.00  0.00     0.029 A 
ATOM     51  C   UNL     1       2.659  10.167   8.712  1.00  0.00     0.049 A 
ATOM     52  H   UNL     1       1.231   8.776   8.011  1.00  0.00     0.167 HD
ATOM     53  C   UNL     1       1.105  11.485   7.323  1.00  0.00     0.074 A 
ATOM     54  C   UNL     1       0.598  12.720   6.764  1.00  0.00     0.031 C 
ATOM     55  C   UNL     1       2.165  11.397   8.158  1.00  0.00     0.037 A 
BRANCH  42  56
ATOM     56  C   UNL     1       3.150   5.699  10.233  1.00  0.00     0.064 A 
ATOM     57  C   UNL     1       4.266   5.011   9.738  1.00  0.00     0.173 A 
ATOM     58  C   UNL     1       2.847   5.588  11.596  1.00  0.00     0.173 A 
ATOM     59  F   UNL     1       4.587   5.091   8.439  1.00  0.00    -0.203 F 
ATOM     60  C   UNL     1       5.054   4.235  10.583  1.00  0.00     0.198 A 
ATOM     61  C   UNL     1       3.638   4.812  12.438  1.00  0.00     0.198 A 
ATOM     62  F   UNL     1       1.786   6.229  12.107  1.00  0.00    -0.203 F 
ATOM     63  F   UNL     1       6.116   3.580  10.093  1.00  0.00    -0.200 F 
ATOM     64  C   UNL     1       4.741   4.139  11.931  1.00  0.00     0.200 A 
ATOM     65  F   UNL     1       3.334   4.715  13.739  1.00  0.00    -0.200 F 
ATOM     66  F   UNL     1       5.501   3.391  12.744  1.00  0.00    -0.200 F 
ENDBRANCH  42  56
BRANCH  43  67
ATOM     67  C   UNL     1      -2.273  11.210   4.127  1.00  0.00     0.064 A 
ATOM     68  C   UNL     1      -1.628  11.534   2.925  1.00  0.00     0.173 A 
ATOM     69  C   UNL     1      -3.559  11.718   4.345  1.00  0.00     0.173 A 
ATOM     70  F   UNL     1      -0.385  11.091   2.692  1.00  0.00    -0.203 F 
ATOM     71  C   UNL     1      -2.249  12.344   1.977  1.00  0.00     0.198 A 
ATOM     72  C   UNL     1      -4.180  12.524   3.393  1.00  0.00     0.198 A 
ATOM     73  F   UNL     1      -4.201  11.449   5.491  1.00  0.00    -0.203 F 
ATOM     74  F   UNL     1      -1.605  12.663   0.845  1.00  0.00    -0.200 F 
ATOM     75  C   UNL     1      -3.523  12.837   2.211  1.00  0.00     0.200 A 
ATOM     76  F   UNL     1      -5.407  13.009   3.627  1.00  0.00    -0.200 F 
ATOM     77  F   UNL     1      -4.115  13.628   1.305  1.00  0.00    -0.200 F 
ENDBRANCH  43  67
BRANCH  55  78
ATOM     78  C   UNL     1       2.871  12.670   8.498  1.00  0.00     0.064 A 
ATOM     79  C   UNL     1       2.423  13.492   9.540  1.00  0.00     0.173 A 
ATOM     80  C   UNL     1       4.009  13.069   7.781  1.00  0.00     0.173 A 
ATOM     81  F   UNL     1       1.326  13.158  10.237  1.00  0.00    -0.203 F 
ATOM     82  C   UNL     1       3.087  14.675   9.851  1.00  0.00     0.198 A 
ATOM     83  C   UNL     1       4.674  14.249   8.099  1.00  0.00     0.198 A 
ATOM     84  F   UNL     1       4.465  12.319   6.768  1.00  0.00    -0.203 F 
ATOM     85  F   UNL     1       2.631  15.459  10.837  1.00  0.00    -0.200 F 
ATOM     86  C   UNL     1       4.213  15.052   9.132  1.00  0.00     0.200 A 
ATOM     87  F   UNL     1       5.757  14.617   7.399  1.00  0.00    -0.200 F 
ATOM     88  F   UNL     1       4.847  16.195   9.428  1.00  0.00    -0.200 F 
ENDBRANCH  55  78
ENDBRANCH  29  30
ENDBRANCH  22  24
ENDBRANCH  21  22
ENDBRANCH  20  21
ENDBRANCH   1  20
TORSDOF 17
