REMARK SMILES CC(C)Cc1ccc([C@@H](C)C(=O)OCCOC(=O)c2ccc(-c3c4nc(c(-c5c(F)c(F)c(F)c(F)c5F)c5ccc([nH]5)c(-c5c(F)c(F)c(F)c(F)c5F)c5nc(c(-c6c(F)c(F)c(F)c(F)c6F)c6ccc3[nH]6)C=C5)C=C4)cc2)cc1
REMARK SMILES IDX 14 1 13 2 11 3 12 4 9 5 10 6 8 7 5 8 6 9 83 10 7 11 82 12
REMARK SMILES IDX 4 13 2 14 1 15 3 16 15 17 16 18 17 19 18 20 19 21 20 22
REMARK SMILES IDX 81 23 21 24 80 25 22 26 23 27 24 28 74 29 25 30 79 31 73 32
REMARK SMILES IDX 75 33 26 34 78 35 72 36 71 37 27 39 59 40 39 41 58 42 40 43
REMARK SMILES IDX 43 44 57 45 76 46 41 47 42 48 56 50 77 51 44 52 28 53 29 54
REMARK SMILES IDX 37 55 30 56 31 57 35 58 38 59 32 60 33 61 36 62 34 63 60 64
REMARK SMILES IDX 61 65 69 66 62 67 63 68 67 69 70 70 64 71 65 72 68 73 66 74
REMARK SMILES IDX 45 75 46 76 54 77 47 78 48 79 52 80 55 81 49 82 50 83 53 84
REMARK SMILES IDX 51 85
REMARK H PARENT 75 38 43 49
REMARK Flexibility Score: inf
ROOT
ATOM      1  C   UNL     1      -5.248  -1.704   5.712  1.00  0.00     0.274 C 
ENDROOT
BRANCH   1   2
ATOM      2  O   UNL     1      -3.887  -1.608   5.253  1.00  0.00    -0.462 OA
BRANCH   2   3
ATOM      3  C   UNL     1      -3.153  -2.750   5.291  1.00  0.00     0.313 C 
ATOM      4  O   UNL     1      -3.539  -3.810   5.777  1.00  0.00    -0.252 OA
BRANCH   3   5
ATOM      5  C   UNL     1      -1.760  -2.596   4.701  1.00  0.00     0.126 C 
ATOM      6  C   UNL     1      -0.744  -2.379   5.821  1.00  0.00     0.025 C 
BRANCH   5   7
ATOM      7  C   UNL     1      -1.632  -1.583   3.575  1.00  0.00    -0.034 A 
ATOM      8  C   UNL     1      -1.221   0.243   1.459  1.00  0.00    -0.048 A 
ATOM      9  C   UNL     1      -1.353   0.698   2.775  1.00  0.00     0.004 A 
ATOM     10  C   UNL     1      -1.353  -1.124   1.200  1.00  0.00     0.004 A 
ATOM     11  C   UNL     1      -1.563  -0.205   3.821  1.00  0.00     0.005 A 
ATOM     12  C   UNL     1      -1.547  -2.026   2.246  1.00  0.00     0.005 A 
BRANCH   8  13
ATOM     13  C   UNL     1      -0.860   1.201   0.351  1.00  0.00     0.038 C 
BRANCH  13  14
ATOM     14  C   UNL     1       0.663   1.436   0.256  1.00  0.00    -0.013 C 
ATOM     15  C   UNL     1       1.413   0.195  -0.239  1.00  0.00     0.008 C 
ATOM     16  C   UNL     1       0.957   2.614  -0.674  1.00  0.00     0.008 C 
ENDBRANCH  13  14
ENDBRANCH   8  13
ENDBRANCH   5   7
ENDBRANCH   3   5
ENDBRANCH   2   3
ENDBRANCH   1   2
BRANCH   1  17
ATOM     17  C   UNL     1      -6.200  -1.872   4.529  1.00  0.00     0.275 C 
BRANCH  17  18
ATOM     18  O   UNL     1      -5.973  -3.142   3.893  1.00  0.00    -0.458 OA
BRANCH  18  19
ATOM     19  C   UNL     1      -5.482  -3.094   2.634  1.00  0.00     0.338 C 
ATOM     20  O   UNL     1      -5.266  -2.117   1.944  1.00  0.00    -0.246 OA
BRANCH  19  21
ATOM     21  C   UNL     1      -5.213  -4.467   2.188  1.00  0.00     0.060 A 
ATOM     22  C   UNL     1      -3.968  -5.040   2.451  1.00  0.00     0.016 A 
ATOM     23  C   UNL     1      -6.172  -5.155   1.448  1.00  0.00     0.016 A 
ATOM     24  C   UNL     1      -3.665  -6.306   1.956  1.00  0.00     0.010 A 
ATOM     25  C   UNL     1      -5.882  -6.439   0.982  1.00  0.00     0.010 A 
ATOM     26  C   UNL     1      -4.623  -7.019   1.223  1.00  0.00    -0.014 A 
BRANCH  26  27
ATOM     27  C   UNL     1      -4.316  -8.371   0.700  1.00  0.00     0.031 A 
ATOM     28  C   UNL     1      -4.136  -8.582  -0.774  1.00  0.00     0.074 A 
ATOM     29  C   UNL     1      -4.220  -9.409   1.551  1.00  0.00     0.049 A 
ATOM     30  N   UNL     1      -4.012  -9.702  -1.441  1.00  0.00    -0.248 NA
ATOM     31  C   UNL     1      -4.093  -7.373  -1.611  1.00  0.00     0.031 C 
ATOM     32  C   UNL     1      -4.332  -9.320   3.007  1.00  0.00     0.029 A 
ATOM     33  N   UNL     1      -4.020 -10.745   1.310  1.00  0.00    -0.354 N 
ATOM     34  C   UNL     1      -3.905  -9.336  -2.776  1.00  0.00     0.074 A 
ATOM     35  C   UNL     1      -3.982  -7.891  -2.827  1.00  0.00     0.031 C 
ATOM     36  C   UNL     1      -4.201 -10.549   3.531  1.00  0.00     0.029 A 
ATOM     37  C   UNL     1      -4.054 -11.515   2.446  1.00  0.00     0.049 A 
ATOM     38  H   UNL     1      -3.867 -11.115   0.411  1.00  0.00     0.167 HD
ATOM     39  C   UNL     1      -3.757 -10.138  -3.856  1.00  0.00     0.037 A 
ATOM     40  C   UNL     1      -4.012 -12.853   2.591  1.00  0.00     0.037 A 
ATOM     41  C   UNL     1      -3.657 -11.573  -3.797  1.00  0.00     0.049 A 
ATOM     42  C   UNL     1      -3.914 -13.722   1.369  1.00  0.00     0.074 A 
ATOM     43  C   UNL     1      -3.475 -12.471  -4.835  1.00  0.00     0.029 A 
ATOM     44  N   UNL     1      -3.732 -12.320  -2.631  1.00  0.00    -0.354 N 
ATOM     45  N   UNL     1      -3.824 -13.371   0.109  1.00  0.00    -0.248 NA
ATOM     46  C   UNL     1      -3.927 -15.175   1.588  1.00  0.00     0.031 C 
ATOM     47  C   UNL     1      -3.478 -13.764  -4.301  1.00  0.00     0.029 A 
ATOM     48  C   UNL     1      -3.625 -13.670  -2.926  1.00  0.00     0.049 A 
ATOM     49  H   UNL     1      -3.845 -11.947  -1.727  1.00  0.00     0.167 HD
ATOM     50  C   UNL     1      -3.758 -14.554  -0.613  1.00  0.00     0.074 A 
ATOM     51  C   UNL     1      -3.801 -15.635   0.351  1.00  0.00     0.031 C 
ATOM     52  C   UNL     1      -3.672 -14.730  -1.954  1.00  0.00     0.037 A 
BRANCH  39  53
ATOM     53  C   UNL     1      -3.722  -9.486  -5.205  1.00  0.00     0.064 A 
ATOM     54  C   UNL     1      -2.592  -8.792  -5.660  1.00  0.00     0.173 A 
ATOM     55  C   UNL     1      -4.820  -9.598  -6.071  1.00  0.00     0.173 A 
ATOM     56  F   UNL     1      -1.523  -8.647  -4.863  1.00  0.00    -0.203 F 
ATOM     57  C   UNL     1      -2.568  -8.221  -6.930  1.00  0.00     0.198 A 
ATOM     58  C   UNL     1      -4.785  -9.043  -7.348  1.00  0.00     0.198 A 
ATOM     59  F   UNL     1      -5.924 -10.254  -5.683  1.00  0.00    -0.203 F 
ATOM     60  F   UNL     1      -1.490  -7.535  -7.335  1.00  0.00    -0.200 F 
ATOM     61  C   UNL     1      -3.661  -8.352  -7.775  1.00  0.00     0.200 A 
ATOM     62  F   UNL     1      -5.838  -9.179  -8.165  1.00  0.00    -0.200 F 
ATOM     63  F   UNL     1      -3.633  -7.809  -8.999  1.00  0.00    -0.200 F 
ENDBRANCH  39  53
BRANCH  40  64
ATOM     64  C   UNL     1      -4.101 -13.453   3.946  1.00  0.00     0.064 A 
ATOM     65  C   UNL     1      -2.994 -14.086   4.526  1.00  0.00     0.173 A 
ATOM     66  C   UNL     1      -5.293 -13.410   4.685  1.00  0.00     0.173 A 
ATOM     67  F   UNL     1      -1.842 -14.176   3.845  1.00  0.00    -0.203 F 
ATOM     68  C   UNL     1      -3.078 -14.664   5.791  1.00  0.00     0.198 A 
ATOM     69  C   UNL     1      -5.368 -13.966   5.960  1.00  0.00     0.198 A 
ATOM     70  F   UNL     1      -6.381 -12.820   4.170  1.00  0.00    -0.203 F 
ATOM     71  F   UNL     1      -2.017 -15.298   6.307  1.00  0.00    -0.200 F 
ATOM     72  C   UNL     1      -4.263 -14.597   6.509  1.00  0.00     0.200 A 
ATOM     73  F   UNL     1      -6.512 -13.892   6.654  1.00  0.00    -0.200 F 
ATOM     74  F   UNL     1      -4.343 -15.150   7.727  1.00  0.00    -0.200 F 
ENDBRANCH  40  64
BRANCH  52  75
ATOM     75  C   UNL     1      -3.602 -16.142  -2.452  1.00  0.00     0.064 A 
ATOM     76  C   UNL     1      -4.737 -16.965  -2.476  1.00  0.00     0.173 A 
ATOM     77  C   UNL     1      -2.395 -16.665  -2.939  1.00  0.00     0.173 A 
ATOM     78  F   UNL     1      -5.908 -16.513  -2.004  1.00  0.00    -0.203 F 
ATOM     79  C   UNL     1      -4.661 -18.270  -2.953  1.00  0.00     0.198 A 
ATOM     80  C   UNL     1      -2.329 -17.963  -3.436  1.00  0.00     0.198 A 
ATOM     81  F   UNL     1      -1.284 -15.915  -2.939  1.00  0.00    -0.203 F 
ATOM     82  F   UNL     1      -5.748 -19.054  -2.930  1.00  0.00    -0.200 F 
ATOM     83  C   UNL     1      -3.459 -18.767  -3.437  1.00  0.00     0.200 A 
ATOM     84  F   UNL     1      -1.169 -18.439  -3.911  1.00  0.00    -0.200 F 
ATOM     85  F   UNL     1      -3.389 -20.023  -3.898  1.00  0.00    -0.200 F 
ENDBRANCH  52  75
ENDBRANCH  26  27
ENDBRANCH  19  21
ENDBRANCH  18  19
ENDBRANCH  17  18
ENDBRANCH   1  17
TORSDOF 14
