REMARK SMILES CCCCCCCCNC(=O)Oc1cccc(-c2ccc([C@@H](C)C(=O)OCCOC(=O)c3ccc(-c4c5nc(c(-c6c(F)c(F)c(F)c(F)c6F)c6ccc([nH]6)c(-c6c(F)c(F)c(F)c(F)c6F)c6nc(c(-c7c(F)c(F)c(F)c(F)c7F)c7ccc4[nH]7)C=C6)C=C5)cc3)cc2F)c1
REMARK SMILES IDX 18 1 19 2 20 3 21 4 95 5 96 6 97 7 17 8 13 9 14 10 98 11
REMARK SMILES IDX 15 12 16 13 12 14 10 15 9 16 11 18 8 19 7 20 6 21 5 22 4 23
REMARK SMILES IDX 3 24 2 25 1 26 22 27 23 28 24 29 25 30 26 31 27 32 28 33
REMARK SMILES IDX 29 34 30 35 31 36 32 37 33 38 94 39 34 40 93 41 35 42 36 43
REMARK SMILES IDX 37 44 87 45 38 46 92 47 86 48 88 49 39 50 91 51 85 52 84 53
REMARK SMILES IDX 40 55 72 56 52 57 71 58 53 59 56 60 70 61 89 62 54 63 55 64
REMARK SMILES IDX 69 66 90 67 57 68 41 69 42 70 50 71 43 72 44 73 48 74 51 75
REMARK SMILES IDX 45 76 46 77 49 78 47 79 73 80 74 81 82 82 75 83 76 84 80 85
REMARK SMILES IDX 83 86 77 87 78 88 81 89 79 90 58 91 59 92 67 93 60 94 61 95
REMARK SMILES IDX 65 96 68 97 62 98 63 99 66 100 64 101
REMARK H PARENT 9 17 88 54 56 65
REMARK Flexibility Score: inf
ROOT
ATOM      1  C   UNL     1      -6.542  10.580   4.376  1.00  0.00     0.018 A 
ATOM      2  C   UNL     1      -7.729  11.246   4.029  1.00  0.00     0.012 A 
ATOM      3  C   UNL     1      -8.769  11.410   4.951  1.00  0.00     0.005 A 
ATOM      4  C   UNL     1      -8.661  10.909   6.255  1.00  0.00    -0.031 A 
ATOM      5  C   UNL     1      -7.479  10.238   6.604  1.00  0.00     0.044 A 
ATOM      6  C   UNL     1      -6.450  10.071   5.676  1.00  0.00     0.131 A 
ATOM      7  F   UNL     1      -5.340   9.432   6.080  1.00  0.00    -0.206 F 
ENDROOT
BRANCH   1   8
ATOM      8  C   UNL     1      -5.432  10.468   3.416  1.00  0.00    -0.012 A 
ATOM      9  C   UNL     1      -3.780   9.168   2.209  1.00  0.00     0.133 A 
ATOM     10  C   UNL     1      -3.277  10.314   1.599  1.00  0.00     0.047 A 
ATOM     11  C   UNL     1      -4.836   9.232   3.120  1.00  0.00     0.056 A 
ATOM     12  C   UNL     1      -3.857  11.546   1.883  1.00  0.00     0.004 A 
ATOM     13  C   UNL     1      -4.924  11.620   2.783  1.00  0.00     0.009 A 
BRANCH   9  14
ATOM     14  O   UNL     1      -3.094   7.970   1.963  1.00  0.00    -0.410 OA
BRANCH  14  15
ATOM     15  C   UNL     1      -3.818   6.904   1.453  1.00  0.00     0.412 C 
ATOM     16  N   UNL     1      -3.046   5.796   1.227  1.00  0.00    -0.321 N 
ATOM     17  H   UNL     1      -3.509   4.998   0.884  1.00  0.00     0.167 HD
ATOM     18  O   UNL     1      -5.015   6.897   1.195  1.00  0.00    -0.224 OA
BRANCH  16  19
ATOM     19  C   UNL     1      -1.617   5.676   1.440  1.00  0.00     0.119 C 
BRANCH  19  20
ATOM     20  C   UNL     1      -1.275   4.574   2.443  1.00  0.00     0.021 C 
BRANCH  20  21
ATOM     21  C   UNL     1      -1.678   3.158   2.009  1.00  0.00     0.002 C 
BRANCH  21  22
ATOM     22  C   UNL     1      -1.088   2.686   0.676  1.00  0.00     0.000 C 
BRANCH  22  23
ATOM     23  C   UNL     1       0.443   2.636   0.621  1.00  0.00    -0.000 C 
BRANCH  23  24
ATOM     24  C   UNL     1       1.099   1.652   1.596  1.00  0.00    -0.000 C 
BRANCH  24  25
ATOM     25  C   UNL     1       0.676   0.189   1.436  1.00  0.00    -0.003 C 
ATOM     26  C   UNL     1       0.998  -0.388   0.066  1.00  0.00     0.004 C 
ENDBRANCH  24  25
ENDBRANCH  23  24
ENDBRANCH  22  23
ENDBRANCH  21  22
ENDBRANCH  20  21
ENDBRANCH  19  20
ENDBRANCH  16  19
ENDBRANCH  14  15
ENDBRANCH   9  14
ENDBRANCH   1   8
BRANCH   4  27
ATOM     27  C   UNL     1      -9.769  11.085   7.282  1.00  0.00     0.126 C 
ATOM     28  C   UNL     1     -10.137  12.550   7.504  1.00  0.00     0.025 C 
BRANCH  27  29
ATOM     29  C   UNL     1     -11.030  10.259   7.050  1.00  0.00     0.313 C 
ATOM     30  O   UNL     1     -11.721   9.854   7.980  1.00  0.00    -0.252 OA
BRANCH  29  31
ATOM     31  O   UNL     1     -11.322  10.065   5.738  1.00  0.00    -0.462 OA
BRANCH  31  32
ATOM     32  C   UNL     1     -12.485   9.268   5.440  1.00  0.00     0.274 C 
BRANCH  32  33
ATOM     33  C   UNL     1     -12.105   7.832   5.071  1.00  0.00     0.275 C 
BRANCH  33  34
ATOM     34  O   UNL     1     -11.591   7.116   6.211  1.00  0.00    -0.458 OA
BRANCH  34  35
ATOM     35  C   UNL     1     -10.242   7.087   6.301  1.00  0.00     0.338 C 
ATOM     36  O   UNL     1      -9.436   7.546   5.510  1.00  0.00    -0.246 OA
BRANCH  35  37
ATOM     37  C   UNL     1      -9.838   6.535   7.602  1.00  0.00     0.060 A 
ATOM     38  C   UNL     1      -9.171   7.389   8.480  1.00  0.00     0.016 A 
ATOM     39  C   UNL     1     -10.005   5.186   7.917  1.00  0.00     0.016 A 
ATOM     40  C   UNL     1      -8.635   6.900   9.665  1.00  0.00     0.010 A 
ATOM     41  C   UNL     1      -9.480   4.695   9.120  1.00  0.00     0.010 A 
ATOM     42  C   UNL     1      -8.774   5.545   9.989  1.00  0.00    -0.014 A 
BRANCH  42  43
ATOM     43  C   UNL     1      -8.118   5.037  11.219  1.00  0.00     0.031 A 
ATOM     44  C   UNL     1      -6.861   4.222  11.119  1.00  0.00     0.074 A 
ATOM     45  C   UNL     1      -8.609   5.379  12.425  1.00  0.00     0.049 A 
ATOM     46  N   UNL     1      -6.132   3.703  12.075  1.00  0.00    -0.248 NA
ATOM     47  C   UNL     1      -6.352   3.960   9.765  1.00  0.00     0.031 C 
ATOM     48  C   UNL     1      -9.795   6.206  12.648  1.00  0.00     0.029 A 
ATOM     49  N   UNL     1      -8.159   5.091  13.689  1.00  0.00    -0.354 N 
ATOM     50  C   UNL     1      -5.086   3.046  11.440  1.00  0.00     0.074 A 
ATOM     51  C   UNL     1      -5.287   3.211  10.016  1.00  0.00     0.031 C 
ATOM     52  C   UNL     1      -9.968   6.376  13.969  1.00  0.00     0.029 A 
ATOM     53  C   UNL     1      -8.929   5.639  14.684  1.00  0.00     0.049 A 
ATOM     54  H   UNL     1      -7.360   4.543  13.865  1.00  0.00     0.167 HD
ATOM     55  C   UNL     1      -4.048   2.376  11.996  1.00  0.00     0.037 A 
ATOM     56  C   UNL     1      -8.814   5.548  16.022  1.00  0.00     0.037 A 
ATOM     57  C   UNL     1      -3.842   2.225  13.413  1.00  0.00     0.049 A 
ATOM     58  C   UNL     1      -7.678   4.755  16.610  1.00  0.00     0.074 A 
ATOM     59  C   UNL     1      -2.826   1.554  14.073  1.00  0.00     0.029 A 
ATOM     60  N   UNL     1      -4.668   2.759  14.392  1.00  0.00    -0.354 N 
ATOM     61  N   UNL     1      -6.702   4.128  16.000  1.00  0.00    -0.248 NA
ATOM     62  C   UNL     1      -7.631   4.657  18.076  1.00  0.00     0.031 C 
ATOM     63  C   UNL     1      -3.056   1.654  15.450  1.00  0.00     0.029 A 
ATOM     64  C   UNL     1      -4.191   2.422  15.649  1.00  0.00     0.049 A 
ATOM     65  H   UNL     1      -5.473   3.298  14.219  1.00  0.00     0.167 HD
ATOM     66  C   UNL     1      -5.915   3.581  17.004  1.00  0.00     0.074 A 
ATOM     67  C   UNL     1      -6.515   3.967  18.264  1.00  0.00     0.031 C 
ATOM     68  C   UNL     1      -4.798   2.821  16.892  1.00  0.00     0.037 A 
BRANCH  55  69
ATOM     69  C   UNL     1      -3.061   1.736  11.066  1.00  0.00     0.064 A 
ATOM     70  C   UNL     1      -2.127   2.496  10.348  1.00  0.00     0.173 A 
ATOM     71  C   UNL     1      -3.022   0.341  10.923  1.00  0.00     0.173 A 
ATOM     72  F   UNL     1      -2.131   3.835  10.441  1.00  0.00    -0.203 F 
ATOM     73  C   UNL     1      -1.202   1.884   9.506  1.00  0.00     0.198 A 
ATOM     74  C   UNL     1      -2.081  -0.269  10.099  1.00  0.00     0.198 A 
ATOM     75  F   UNL     1      -3.892  -0.432  11.591  1.00  0.00    -0.203 F 
ATOM     76  F   UNL     1      -0.342   2.632   8.800  1.00  0.00    -0.200 F 
ATOM     77  C   UNL     1      -1.175   0.503   9.387  1.00  0.00     0.200 A 
ATOM     78  F   UNL     1      -2.049  -1.605   9.994  1.00  0.00    -0.200 F 
ATOM     79  F   UNL     1      -0.279  -0.085   8.582  1.00  0.00    -0.200 F 
ENDBRANCH  55  69
BRANCH  56  80
ATOM     80  C   UNL     1      -9.805   6.220  16.902  1.00  0.00     0.064 A 
ATOM     81  C   UNL     1      -9.438   7.308  17.705  1.00  0.00     0.173 A 
ATOM     82  C   UNL     1     -11.132   5.772  16.975  1.00  0.00     0.173 A 
ATOM     83  F   UNL     1      -8.173   7.755  17.689  1.00  0.00    -0.203 F 
ATOM     84  C   UNL     1     -10.356   7.911  18.562  1.00  0.00     0.198 A 
ATOM     85  C   UNL     1     -12.056   6.393  17.812  1.00  0.00     0.198 A 
ATOM     86  F   UNL     1     -11.532   4.731  16.230  1.00  0.00    -0.203 F 
ATOM     87  F   UNL     1      -9.966   8.918  19.356  1.00  0.00    -0.200 F 
ATOM     88  C   UNL     1     -11.665   7.457  18.611  1.00  0.00     0.200 A 
ATOM     89  F   UNL     1     -13.322   5.957  17.849  1.00  0.00    -0.200 F 
ATOM     90  F   UNL     1     -12.547   8.036  19.437  1.00  0.00    -0.200 F 
ENDBRANCH  56  80
BRANCH  68  91
ATOM     91  C   UNL     1      -4.140   2.386  18.169  1.00  0.00     0.064 A 
ATOM     92  C   UNL     1      -4.708   1.399  18.988  1.00  0.00     0.173 A 
ATOM     93  C   UNL     1      -2.921   2.952  18.569  1.00  0.00     0.173 A 
ATOM     94  F   UNL     1      -5.882   0.840  18.655  1.00  0.00    -0.203 F 
ATOM     95  C   UNL     1      -4.095   1.017  20.177  1.00  0.00     0.198 A 
ATOM     96  C   UNL     1      -2.296   2.547  19.746  1.00  0.00     0.198 A 
ATOM     97  F   UNL     1      -2.333   3.895  17.818  1.00  0.00    -0.203 F 
ATOM     98  F   UNL     1      -4.682   0.110  20.971  1.00  0.00    -0.200 F 
ATOM     99  C   UNL     1      -2.888   1.587  20.553  1.00  0.00     0.200 A 
ATOM    100  F   UNL     1      -1.125   3.093  20.103  1.00  0.00    -0.200 F 
ATOM    101  F   UNL     1      -2.300   1.219  21.699  1.00  0.00    -0.200 F 
ENDBRANCH  68  91
ENDBRANCH  42  43
ENDBRANCH  35  37
ENDBRANCH  34  35
ENDBRANCH  33  34
ENDBRANCH  32  33
ENDBRANCH  31  32
ENDBRANCH  29  31
ENDBRANCH  27  29
ENDBRANCH   4  27
TORSDOF 22
