REMARK SMILES O=C(COc1ccccc1C[N@@H+]1C[C@@H]2[C@H]3CC[C@H](C3)[C@@H]2C1)OCCOC(=O)c1ccc(-c2c3nc(c(-c4c(F)c(F)c(F)c(F)c4F)c4ccc([nH]4)c(-c4c(F)c(F)c(F)c(F)c4F)c4nc(c(-c5c(F)c(F)c(F)c(F)c5F)c5ccc2[nH]5)C=C4)C=C3)cc1
REMARK SMILES IDX 23 1 22 2 2 3 1 4 3 5 4 6 5 7 6 8 10 9 7 10 9 11 8 12 11 13
REMARK SMILES IDX 12 14 13 15 21 16 14 18 20 19 15 20 18 21 16 22 19 23 17 24
REMARK SMILES IDX 24 25 25 26 26 27 27 28 28 29 29 30 90 31 30 32 89 33 31 34
REMARK SMILES IDX 32 35 33 36 83 37 34 38 88 39 82 40 84 41 35 42 87 43 81 44
REMARK SMILES IDX 80 45 36 47 68 48 48 49 67 50 49 51 52 52 66 53 85 54 50 55
REMARK SMILES IDX 51 56 65 58 86 59 53 60 37 61 38 62 46 63 39 64 40 65 44 66
REMARK SMILES IDX 47 67 41 68 42 69 45 70 43 71 69 72 70 73 78 74 71 75 72 76
REMARK SMILES IDX 76 77 79 78 73 79 74 80 77 81 75 82 54 83 55 84 63 85 56 86
REMARK SMILES IDX 57 87 61 88 64 89 58 90 59 91 62 92 60 93
REMARK H PARENT 12 17 84 46 52 57
REMARK Flexibility Score: inf
ROOT
ATOM      1  C   UNL     1       4.948  -0.933  -0.598  1.00  0.00     0.274 C 
ENDROOT
BRANCH   1   2
ATOM      2  O   UNL     1       3.608  -1.056  -0.085  1.00  0.00    -0.460 OA
BRANCH   2   3
ATOM      3  C   UNL     1       2.657  -0.139  -0.381  1.00  0.00     0.344 C 
ATOM      4  O   UNL     1       1.502  -0.497  -0.609  1.00  0.00    -0.248 OA
BRANCH   3   5
ATOM      5  C   UNL     1       3.047   1.338  -0.380  1.00  0.00     0.351 C 
BRANCH   5   6
ATOM      6  O   UNL     1       3.693   1.754   0.811  1.00  0.00    -0.481 OA
BRANCH   6   7
ATOM      7  C   UNL     1       3.023   2.751   1.473  1.00  0.00     0.129 A 
ATOM      8  C   UNL     1       3.691   3.981   1.533  1.00  0.00     0.047 A 
ATOM      9  C   UNL     1       1.850   2.535   2.222  1.00  0.00     0.048 A 
ATOM     10  C   UNL     1       3.191   5.020   2.317  1.00  0.00     0.004 A 
ATOM     11  C   UNL     1       1.352   3.609   2.988  1.00  0.00     0.013 A 
ATOM     12  C   UNL     1       2.018   4.835   3.041  1.00  0.00     0.001 A 
BRANCH   9  13
ATOM     13  C   UNL     1       1.141   1.201   2.328  1.00  0.00     0.302 C 
BRANCH  13  14
ATOM     14  N   UNL     1       1.658   0.260   3.300  1.00  0.00    -0.331 N 
ATOM     15  C   UNL     1       1.295   0.420   4.685  1.00  0.00     0.266 C 
ATOM     16  C   UNL     1       2.942  -0.391   3.148  1.00  0.00     0.266 C 
ATOM     17  H   UNL     1       1.036  -0.435   2.887  1.00  0.00     0.348 HD
ATOM     18  C   UNL     1       2.567   0.218   5.490  1.00  0.00     0.056 C 
ATOM     19  C   UNL     1       3.580  -0.448   4.542  1.00  0.00     0.056 C 
ATOM     20  C   UNL     1       3.304   1.509   5.929  1.00  0.00    -0.002 C 
ATOM     21  C   UNL     1       4.834   0.446   4.712  1.00  0.00    -0.002 C 
ATOM     22  C   UNL     1       4.345   1.103   6.983  1.00  0.00     0.004 C 
ATOM     23  C   UNL     1       4.236   1.844   4.769  1.00  0.00     0.008 C 
ATOM     24  C   UNL     1       5.372   0.312   6.151  1.00  0.00     0.004 C 
ENDBRANCH  13  14
ENDBRANCH   9  13
ENDBRANCH   6   7
ENDBRANCH   5   6
ENDBRANCH   3   5
ENDBRANCH   2   3
ENDBRANCH   1   2
BRANCH   1  25
ATOM     25  C   UNL     1       4.993  -1.353  -2.070  1.00  0.00     0.275 C 
BRANCH  25  26
ATOM     26  O   UNL     1       4.442  -0.290  -2.872  1.00  0.00    -0.458 OA
BRANCH  26  27
ATOM     27  C   UNL     1       3.235  -0.505  -3.453  1.00  0.00     0.338 C 
ATOM     28  O   UNL     1       2.611  -1.548  -3.510  1.00  0.00    -0.246 OA
BRANCH  27  29
ATOM     29  C   UNL     1       2.703   0.826  -3.822  1.00  0.00     0.060 A 
ATOM     30  C   UNL     1       1.420   1.192  -3.395  1.00  0.00     0.016 A 
ATOM     31  C   UNL     1       3.513   1.744  -4.495  1.00  0.00     0.016 A 
ATOM     32  C   UNL     1       0.955   2.493  -3.614  1.00  0.00     0.010 A 
ATOM     33  C   UNL     1       3.035   3.029  -4.743  1.00  0.00     0.010 A 
ATOM     34  C   UNL     1       1.755   3.410  -4.307  1.00  0.00    -0.014 A 
BRANCH  34  35
ATOM     35  C   UNL     1       1.226   4.724  -4.737  1.00  0.00     0.031 A 
ATOM     36  C   UNL     1       0.555   4.813  -6.076  1.00  0.00     0.074 A 
ATOM     37  C   UNL     1       1.424   5.831  -3.998  1.00  0.00     0.049 A 
ATOM     38  N   UNL     1       0.178   5.870  -6.747  1.00  0.00    -0.248 NA
ATOM     39  C   UNL     1       0.285   3.536  -6.757  1.00  0.00     0.031 C 
ATOM     40  C   UNL     1       2.035   5.869  -2.671  1.00  0.00     0.029 A 
ATOM     41  N   UNL     1       1.161   7.148  -4.287  1.00  0.00    -0.354 N 
ATOM     42  C   UNL     1      -0.366   5.387  -7.929  1.00  0.00     0.074 A 
ATOM     43  C   UNL     1      -0.261   3.945  -7.892  1.00  0.00     0.031 C 
ATOM     44  C   UNL     1       2.138   7.151  -2.277  1.00  0.00     0.029 A 
ATOM     45  C   UNL     1       1.634   8.022  -3.338  1.00  0.00     0.049 A 
ATOM     46  H   UNL     1       0.679   7.438  -5.095  1.00  0.00     0.167 HD
ATOM     47  C   UNL     1      -0.903   6.086  -8.954  1.00  0.00     0.037 A 
ATOM     48  C   UNL     1       1.691   9.369  -3.352  1.00  0.00     0.037 A 
ATOM     49  C   UNL     1      -1.001   7.519  -8.996  1.00  0.00     0.049 A 
ATOM     50  C   UNL     1       1.165  10.123  -4.549  1.00  0.00     0.074 A 
ATOM     51  C   UNL     1      -1.574   8.315  -9.971  1.00  0.00     0.029 A 
ATOM     52  N   UNL     1      -0.496   8.370  -8.025  1.00  0.00    -0.354 N 
ATOM     53  N   UNL     1       0.603   9.662  -5.640  1.00  0.00    -0.248 NA
ATOM     54  C   UNL     1       1.295  11.589  -4.521  1.00  0.00     0.031 C 
ATOM     55  C   UNL     1      -1.371   9.652  -9.616  1.00  0.00     0.029 A 
ATOM     56  C   UNL     1      -0.710   9.686  -8.399  1.00  0.00     0.049 A 
ATOM     57  H   UNL     1      -0.053   8.082  -7.195  1.00  0.00     0.167 HD
ATOM     58  C   UNL     1       0.293  10.775  -6.412  1.00  0.00     0.074 A 
ATOM     59  C   UNL     1       0.716  11.937  -5.662  1.00  0.00     0.031 C 
ATOM     60  C   UNL     1      -0.286  10.831  -7.636  1.00  0.00     0.037 A 
BRANCH  47  61
ATOM     61  C   UNL     1      -1.405   5.313 -10.132  1.00  0.00     0.064 A 
ATOM     62  C   UNL     1      -2.612   4.601 -10.081  1.00  0.00     0.173 A 
ATOM     63  C   UNL     1      -0.698   5.332 -11.343  1.00  0.00     0.173 A 
ATOM     64  F   UNL     1      -3.313   4.542  -8.939  1.00  0.00    -0.203 F 
ATOM     65  C   UNL     1      -3.090   3.928 -11.201  1.00  0.00     0.198 A 
ATOM     66  C   UNL     1      -1.190   4.675 -12.467  1.00  0.00     0.198 A 
ATOM     67  F   UNL     1       0.463   5.997 -11.438  1.00  0.00    -0.203 F 
ATOM     68  F   UNL     1      -4.233   3.232 -11.126  1.00  0.00    -0.200 F 
ATOM     69  C   UNL     1      -2.384   3.973 -12.395  1.00  0.00     0.200 A 
ATOM     70  F   UNL     1      -0.510   4.725 -13.621  1.00  0.00    -0.200 F 
ATOM     71  F   UNL     1      -2.853   3.336 -13.476  1.00  0.00    -0.200 F 
ENDBRANCH  47  61
BRANCH  48  72
ATOM     72  C   UNL     1       2.315  10.109  -2.223  1.00  0.00     0.064 A 
ATOM     73  C   UNL     1       1.549  10.937  -1.391  1.00  0.00     0.173 A 
ATOM     74  C   UNL     1       3.698  10.057  -1.995  1.00  0.00     0.173 A 
ATOM     75  F   UNL     1       0.227  11.047  -1.590  1.00  0.00    -0.203 F 
ATOM     76  C   UNL     1       2.146  11.706  -0.393  1.00  0.00     0.198 A 
ATOM     77  C   UNL     1       4.290  10.804  -0.979  1.00  0.00     0.198 A 
ATOM     78  F   UNL     1       4.478   9.287  -2.768  1.00  0.00    -0.203 F 
ATOM     79  F   UNL     1       1.398  12.537   0.347  1.00  0.00    -0.200 F 
ATOM     80  C   UNL     1       3.515  11.637  -0.186  1.00  0.00     0.200 A 
ATOM     81  F   UNL     1       5.613  10.730  -0.779  1.00  0.00    -0.200 F 
ATOM     82  F   UNL     1       4.090  12.384   0.766  1.00  0.00    -0.200 F 
ENDBRANCH  48  72
BRANCH  60  83
ATOM     83  C   UNL     1      -0.516  12.187  -8.236  1.00  0.00     0.064 A 
ATOM     84  C   UNL     1       0.542  12.946  -8.754  1.00  0.00     0.173 A 
ATOM     85  C   UNL     1      -1.815  12.705  -8.348  1.00  0.00     0.173 A 
ATOM     86  F   UNL     1       1.804  12.500  -8.656  1.00  0.00    -0.203 F 
ATOM     87  C   UNL     1       0.310  14.182  -9.351  1.00  0.00     0.198 A 
ATOM     88  C   UNL     1      -2.047  13.928  -8.970  1.00  0.00     0.198 A 
ATOM     89  F   UNL     1      -2.863  12.013  -7.875  1.00  0.00    -0.203 F 
ATOM     90  F   UNL     1       1.340  14.908  -9.808  1.00  0.00    -0.200 F 
ATOM     91  C   UNL     1      -0.984  14.668  -9.467  1.00  0.00     0.200 A 
ATOM     92  F   UNL     1      -3.299  14.390  -9.093  1.00  0.00    -0.200 F 
ATOM     93  F   UNL     1      -1.207  15.852 -10.053  1.00  0.00    -0.200 F 
ENDBRANCH  60  83
ENDBRANCH  34  35
ENDBRANCH  27  29
ENDBRANCH  26  27
ENDBRANCH  25  26
ENDBRANCH   1  25
TORSDOF 15
