REMARK SMILES O=C(COc1ccc(Br)cc1/C=C1\C(=O)Nc2ccc(Br)cc21)OCCOC(=O)c1ccc(-c2c3nc(c(-c4c(F)c(F)c(F)c(F)c4F)c4ccc([nH]4)c(-c4c(F)c(F)c(F)c(F)c4F)c4nc(c(-c5c(F)c(F)c(F)c(F)c5F)c5ccc2[nH]5)C=C4)C=C3)cc1
REMARK SMILES IDX 25 1 24 2 2 3 1 4 3 5 4 6 5 7 6 8 11 9 7 10 10 11 8 12 9 13
REMARK SMILES IDX 12 14 13 15 14 16 23 17 15 18 16 19 17 20 22 21 18 23 20 24
REMARK SMILES IDX 19 25 21 26 26 27 27 28 28 29 29 30 30 31 31 32 92 33 32 34
REMARK SMILES IDX 91 35 33 36 34 37 35 38 85 39 36 40 90 41 84 42 86 43 37 44
REMARK SMILES IDX 89 45 83 46 82 47 38 49 70 50 50 51 69 52 51 53 54 54 68 55
REMARK SMILES IDX 87 56 52 57 53 58 67 60 88 61 55 62 39 63 40 64 48 65 41 66
REMARK SMILES IDX 42 67 46 68 49 69 43 70 44 71 47 72 45 73 71 74 72 75 80 76
REMARK SMILES IDX 73 77 74 78 78 79 81 80 75 81 76 82 79 83 77 84 56 85 57 86
REMARK SMILES IDX 65 87 58 88 59 89 63 90 66 91 60 92 61 93 64 94 62 95
REMARK H PARENT 16 22 86 48 54 59
REMARK Flexibility Score: inf
ROOT
ATOM      1  C   UNL     1       4.590   0.546  -0.621  1.00  0.00     0.274 C 
ENDROOT
BRANCH   1   2
ATOM      2  O   UNL     1       3.267  -0.028  -0.660  1.00  0.00    -0.460 OA
BRANCH   2   3
ATOM      3  C   UNL     1       2.760  -0.751   0.369  1.00  0.00     0.344 C 
ATOM      4  O   UNL     1       1.547  -0.782   0.569  1.00  0.00    -0.248 OA
BRANCH   3   5
ATOM      5  C   UNL     1       3.728  -1.594   1.204  1.00  0.00     0.352 C 
BRANCH   5   6
ATOM      6  O   UNL     1       4.476  -2.600   0.507  1.00  0.00    -0.481 OA
BRANCH   6   7
ATOM      7  C   UNL     1       3.670  -3.692   0.248  1.00  0.00     0.127 A 
ATOM      8  C   UNL     1       2.675  -3.543  -0.737  1.00  0.00     0.048 A 
ATOM      9  C   UNL     1       3.804  -4.888   0.987  1.00  0.00     0.018 A 
ATOM     10  C   UNL     1       1.680  -4.498  -0.890  1.00  0.00     0.019 A 
ATOM     11  C   UNL     1       2.759  -5.812   0.820  1.00  0.00     0.027 A 
ATOM     12  C   UNL     1       1.710  -5.617  -0.083  1.00  0.00     0.018 A 
ATOM     13  Br  UNL     1       0.319  -6.895  -0.189  1.00  0.00    -0.051 Br
BRANCH   9  14
ATOM     14  C   UNL     1       4.943  -5.099   1.938  1.00  0.00     0.026 C 
ATOM     15  C   UNL     1       5.192  -6.103   2.807  1.00  0.00     0.050 C 
ATOM     16  C   UNL     1       4.319  -7.294   3.105  1.00  0.00     0.256 C 
ATOM     17  C   UNL     1       6.015  -5.931   4.018  1.00  0.00     0.012 A 
ATOM     18  O   UNL     1       3.891  -8.135   2.355  1.00  0.00    -0.269 OA
ATOM     19  N   UNL     1       4.229  -7.297   4.488  1.00  0.00    -0.321 N 
ATOM     20  C   UNL     1       5.254  -6.530   5.032  1.00  0.00     0.049 A 
ATOM     21  C   UNL     1       7.283  -5.459   4.305  1.00  0.00     0.026 A 
ATOM     22  H   UNL     1       3.542  -7.773   5.009  1.00  0.00     0.170 HD
ATOM     23  C   UNL     1       5.612  -6.493   6.358  1.00  0.00     0.028 A 
ATOM     24  C   UNL     1       7.702  -5.506   5.645  1.00  0.00     0.018 A 
ATOM     25  C   UNL     1       6.853  -5.955   6.671  1.00  0.00     0.018 A 
ATOM     26  Br  UNL     1       9.482  -5.044   6.095  1.00  0.00    -0.051 Br
ENDBRANCH   9  14
ENDBRANCH   6   7
ENDBRANCH   5   6
ENDBRANCH   3   5
ENDBRANCH   2   3
ENDBRANCH   1   2
BRANCH   1  27
ATOM     27  C   UNL     1       4.539   1.927   0.037  1.00  0.00     0.275 C 
BRANCH  27  28
ATOM     28  O   UNL     1       4.159   1.772   1.417  1.00  0.00    -0.458 OA
BRANCH  28  29
ATOM     29  C   UNL     1       2.887   2.128   1.735  1.00  0.00     0.338 C 
ATOM     30  O   UNL     1       2.083   2.699   1.022  1.00  0.00    -0.246 OA
BRANCH  29  31
ATOM     31  C   UNL     1       2.566   1.538   3.055  1.00  0.00     0.060 A 
ATOM     32  C   UNL     1       3.521   1.490   4.075  1.00  0.00     0.016 A 
ATOM     33  C   UNL     1       1.296   0.985   3.257  1.00  0.00     0.016 A 
ATOM     34  C   UNL     1       3.203   0.889   5.293  1.00  0.00     0.010 A 
ATOM     35  C   UNL     1       0.976   0.386   4.480  1.00  0.00     0.010 A 
ATOM     36  C   UNL     1       1.925   0.342   5.510  1.00  0.00    -0.014 A 
BRANCH  36  37
ATOM     37  C   UNL     1       1.562  -0.128   6.869  1.00  0.00     0.031 A 
ATOM     38  C   UNL     1       1.530  -1.582   7.230  1.00  0.00     0.074 A 
ATOM     39  C   UNL     1       1.270   0.801   7.799  1.00  0.00     0.049 A 
ATOM     40  N   UNL     1       1.369  -2.124   8.412  1.00  0.00    -0.248 NA
ATOM     41  C   UNL     1       1.692  -2.555   6.140  1.00  0.00     0.031 C 
ATOM     42  C   UNL     1       1.208   2.242   7.552  1.00  0.00     0.029 A 
ATOM     43  N   UNL     1       0.984   0.676   9.135  1.00  0.00    -0.354 N 
ATOM     44  C   UNL     1       1.403  -3.495   8.212  1.00  0.00     0.074 A 
ATOM     45  C   UNL     1       1.591  -3.710   6.792  1.00  0.00     0.031 C 
ATOM     46  C   UNL     1       0.931   2.871   8.704  1.00  0.00     0.029 A 
ATOM     47  C   UNL     1       0.788   1.879   9.767  1.00  0.00     0.049 A 
ATOM     48  H   UNL     1       0.924  -0.192   9.596  1.00  0.00     0.167 HD
ATOM     49  C   UNL     1       1.305  -4.477   9.139  1.00  0.00     0.037 A 
ATOM     50  C   UNL     1       0.539   2.158  11.060  1.00  0.00     0.037 A 
ATOM     51  C   UNL     1       1.179  -4.264  10.556  1.00  0.00     0.049 A 
ATOM     52  C   UNL     1       0.483   1.045  12.066  1.00  0.00     0.074 A 
ATOM     53  C   UNL     1       1.219  -5.208  11.568  1.00  0.00     0.029 A 
ATOM     54  N   UNL     1       0.985  -3.034  11.159  1.00  0.00    -0.354 N 
ATOM     55  N   UNL     1       0.666  -0.239  11.882  1.00  0.00    -0.248 NA
ATOM     56  C   UNL     1       0.198   1.418  13.459  1.00  0.00     0.031 C 
ATOM     57  C   UNL     1       1.024  -4.551  12.785  1.00  0.00     0.029 A 
ATOM     58  C   UNL     1       0.874  -3.199  12.530  1.00  0.00     0.049 A 
ATOM     59  H   UNL     1       0.934  -2.173  10.685  1.00  0.00     0.167 HD
ATOM     60  C   UNL     1       0.536  -0.824  13.134  1.00  0.00     0.074 A 
ATOM     61  C   UNL     1       0.272   0.244  14.074  1.00  0.00     0.031 C 
ATOM     62  C   UNL     1       0.625  -2.134  13.465  1.00  0.00     0.037 A 
BRANCH  49  63
ATOM     63  C   UNL     1       1.388  -5.897   8.684  1.00  0.00     0.064 A 
ATOM     64  C   UNL     1       2.622  -6.555   8.671  1.00  0.00     0.173 A 
ATOM     65  C   UNL     1       0.234  -6.646   8.419  1.00  0.00     0.173 A 
ATOM     66  F   UNL     1       3.748  -5.881   8.952  1.00  0.00    -0.203 F 
ATOM     67  C   UNL     1       2.702  -7.916   8.392  1.00  0.00     0.198 A 
ATOM     68  C   UNL     1       0.320  -8.008   8.137  1.00  0.00     0.198 A 
ATOM     69  F   UNL     1      -0.973  -6.065   8.464  1.00  0.00    -0.203 F 
ATOM     70  F   UNL     1       3.894  -8.530   8.386  1.00  0.00    -0.200 F 
ATOM     71  C   UNL     1       1.554  -8.640   8.119  1.00  0.00     0.200 A 
ATOM     72  F   UNL     1      -0.793  -8.716   7.899  1.00  0.00    -0.200 F 
ATOM     73  F   UNL     1       1.641  -9.948   7.840  1.00  0.00    -0.200 F 
ENDBRANCH  49  63
BRANCH  50  74
ATOM     74  C   UNL     1       0.380   3.573  11.475  1.00  0.00     0.064 A 
ATOM     75  C   UNL     1       1.393   4.229  12.185  1.00  0.00     0.173 A 
ATOM     76  C   UNL     1      -0.764   4.306  11.130  1.00  0.00     0.173 A 
ATOM     77  F   UNL     1       2.498   3.560  12.548  1.00  0.00    -0.203 F 
ATOM     78  C   UNL     1       1.266   5.570  12.539  1.00  0.00     0.198 A 
ATOM     79  C   UNL     1      -0.880   5.652  11.466  1.00  0.00     0.198 A 
ATOM     80  F   UNL     1      -1.755   3.719  10.444  1.00  0.00    -0.203 F 
ATOM     81  F   UNL     1       2.239   6.171  13.237  1.00  0.00    -0.200 F 
ATOM     82  C   UNL     1       0.134   6.282  12.172  1.00  0.00     0.200 A 
ATOM     83  F   UNL     1      -1.969   6.341  11.098  1.00  0.00    -0.200 F 
ATOM     84  F   UNL     1       0.019   7.576  12.501  1.00  0.00    -0.200 F 
ENDBRANCH  50  74
BRANCH  62  85
ATOM     85  C   UNL     1       0.437  -2.513  14.902  1.00  0.00     0.064 A 
ATOM     86  C   UNL     1      -0.840  -2.546  15.478  1.00  0.00     0.173 A 
ATOM     87  C   UNL     1       1.522  -2.957  15.673  1.00  0.00     0.173 A 
ATOM     88  F   UNL     1      -1.906  -2.124  14.781  1.00  0.00    -0.203 F 
ATOM     89  C   UNL     1      -1.026  -3.013  16.776  1.00  0.00     0.198 A 
ATOM     90  C   UNL     1       1.330  -3.444  16.962  1.00  0.00     0.198 A 
ATOM     91  F   UNL     1       2.761  -2.955  15.159  1.00  0.00    -0.203 F 
ATOM     92  F   UNL     1      -2.254  -3.026  17.312  1.00  0.00    -0.200 F 
ATOM     93  C   UNL     1       0.057  -3.472  17.512  1.00  0.00     0.200 A 
ATOM     94  F   UNL     1       2.374  -3.903  17.666  1.00  0.00    -0.200 F 
ATOM     95  F   UNL     1      -0.128  -3.946  18.752  1.00  0.00    -0.200 F 
ENDBRANCH  62  85
ENDBRANCH  36  37
ENDBRANCH  29  31
ENDBRANCH  28  29
ENDBRANCH  27  28
ENDBRANCH   1  27
TORSDOF 14
