REMARK SMILES O=C(OCCOC(=O)c1cc(-c2cccc(F)c2)nc2c(F)cccc12)c1ccc(-c2c3nc(c(-c4c(F)c(F)c(F)c(F)c4F)c4ccc([nH]4)c(-c4c(F)c(F)c(F)c(F)c4F)c4nc(c(-c5c(F)c(F)c(F)c(F)c5F)c5ccc2[nH]5)C=C4)C=C3)cc1
REMARK SMILES IDX 4 1 3 2 2 3 1 4 27 5 28 6 89 7 29 8 88 9 30 10 31 11 32 12
REMARK SMILES IDX 82 13 33 14 87 15 81 16 83 17 34 18 86 19 80 20 79 21 35 23
REMARK SMILES IDX 67 24 47 25 66 26 48 27 51 28 65 29 84 30 49 31 50 32 64 34
REMARK SMILES IDX 85 35 52 36 36 37 37 38 45 39 38 40 39 41 43 42 46 43 40 44
REMARK SMILES IDX 41 45 44 46 42 47 68 48 69 49 77 50 70 51 71 52 75 53 78 54
REMARK SMILES IDX 72 55 73 56 76 57 74 58 53 59 54 60 62 61 55 62 56 63 60 64
REMARK SMILES IDX 63 65 57 66 58 67 61 68 59 69 5 70 6 71 7 72 8 73 9 74 10 75
REMARK SMILES IDX 26 76 11 77 20 78 25 79 19 80 21 81 24 82 22 83 23 84 12 85
REMARK SMILES IDX 13 86 18 87 14 88 16 89 15 90 17 91
REMARK H PARENT 83 22 51 33
REMARK Flexibility Score: inf
ROOT
ATOM      1  C   UNL     1       4.190  -0.955  -1.291  1.00  0.00     0.275 C 
ENDROOT
BRANCH   1   2
ATOM      2  O   UNL     1       3.222  -1.235  -0.272  1.00  0.00    -0.458 OA
BRANCH   2   3
ATOM      3  C   UNL     1       3.073  -0.685   0.951  1.00  0.00     0.338 C 
ATOM      4  O   UNL     1       2.172  -1.108   1.676  1.00  0.00    -0.246 OA
BRANCH   3   5
ATOM      5  C   UNL     1       3.851   0.499   1.444  1.00  0.00     0.060 A 
ATOM      6  C   UNL     1       5.116   0.925   1.037  1.00  0.00     0.016 A 
ATOM      7  C   UNL     1       3.204   1.262   2.425  1.00  0.00     0.016 A 
ATOM      8  C   UNL     1       5.685   2.099   1.549  1.00  0.00     0.010 A 
ATOM      9  C   UNL     1       3.731   2.466   2.896  1.00  0.00     0.010 A 
ATOM     10  C   UNL     1       4.999   2.876   2.484  1.00  0.00    -0.014 A 
BRANCH  10  11
ATOM     11  C   UNL     1       5.681   3.988   3.184  1.00  0.00     0.031 A 
ATOM     12  C   UNL     1       6.053   3.793   4.625  1.00  0.00     0.074 A 
ATOM     13  C   UNL     1       6.012   5.123   2.544  1.00  0.00     0.049 A 
ATOM     14  N   UNL     1       6.714   4.591   5.423  1.00  0.00    -0.248 NA
ATOM     15  C   UNL     1       5.649   2.521   5.250  1.00  0.00     0.031 C 
ATOM     16  C   UNL     1       5.763   5.395   1.132  1.00  0.00     0.029 A 
ATOM     17  N   UNL     1       6.626   6.264   2.997  1.00  0.00    -0.354 N 
ATOM     18  C   UNL     1       6.848   3.892   6.612  1.00  0.00     0.074 A 
ATOM     19  C   UNL     1       6.097   2.667   6.484  1.00  0.00     0.031 C 
ATOM     20  C   UNL     1       6.178   6.639   0.843  1.00  0.00     0.029 A 
ATOM     21  C   UNL     1       6.714   7.254   2.050  1.00  0.00     0.049 A 
ATOM     22  H   UNL     1       6.971   6.363   3.914  1.00  0.00     0.167 HD
ATOM     23  C   UNL     1       7.599   4.208   7.690  1.00  0.00     0.037 A 
ATOM     24  C   UNL     1       7.176   8.515   2.142  1.00  0.00     0.037 A 
ATOM     25  C   UNL     1       8.327   5.438   7.816  1.00  0.00     0.049 A 
ATOM     26  C   UNL     1       7.862   8.928   3.413  1.00  0.00     0.074 A 
ATOM     27  C   UNL     1       9.116   5.872   8.862  1.00  0.00     0.029 A 
ATOM     28  N   UNL     1       8.334   6.443   6.856  1.00  0.00    -0.354 N 
ATOM     29  N   UNL     1       8.043   8.233   4.510  1.00  0.00    -0.248 NA
ATOM     30  C   UNL     1       8.465  10.267   3.441  1.00  0.00     0.031 C 
ATOM     31  C   UNL     1       9.561   7.162   8.559  1.00  0.00     0.029 A 
ATOM     32  C   UNL     1       9.100   7.508   7.296  1.00  0.00     0.049 A 
ATOM     33  H   UNL     1       7.865   6.403   5.992  1.00  0.00     0.167 HD
ATOM     34  C   UNL     1       8.838   9.016   5.332  1.00  0.00     0.074 A 
ATOM     35  C   UNL     1       9.083  10.253   4.615  1.00  0.00     0.031 C 
ATOM     36  C   UNL     1       9.344   8.721   6.554  1.00  0.00     0.037 A 
BRANCH  23  37
ATOM     37  C   UNL     1       7.669   3.185   8.784  1.00  0.00     0.064 A 
ATOM     38  C   UNL     1       7.051   3.409  10.020  1.00  0.00     0.173 A 
ATOM     39  C   UNL     1       8.323   1.955   8.588  1.00  0.00     0.173 A 
ATOM     40  F   UNL     1       6.410   4.563  10.257  1.00  0.00    -0.203 F 
ATOM     41  C   UNL     1       7.076   2.437  11.017  1.00  0.00     0.198 A 
ATOM     42  C   UNL     1       8.318   0.975   9.575  1.00  0.00     0.198 A 
ATOM     43  F   UNL     1       8.909   1.682   7.412  1.00  0.00    -0.203 F 
ATOM     44  F   UNL     1       6.482   2.673  12.195  1.00  0.00    -0.200 F 
ATOM     45  C   UNL     1       7.698   1.218  10.790  1.00  0.00     0.200 A 
ATOM     46  F   UNL     1       8.887  -0.215   9.338  1.00  0.00    -0.200 F 
ATOM     47  F   UNL     1       7.688   0.271  11.738  1.00  0.00    -0.200 F 
ENDBRANCH  23  37
BRANCH  24  48
ATOM     48  C   UNL     1       7.057   9.431   0.978  1.00  0.00     0.064 A 
ATOM     49  C   UNL     1       5.812   9.961   0.603  1.00  0.00     0.173 A 
ATOM     50  C   UNL     1       8.166   9.757   0.188  1.00  0.00     0.173 A 
ATOM     51  F   UNL     1       4.717   9.674   1.320  1.00  0.00    -0.203 F 
ATOM     52  C   UNL     1       5.681  10.770  -0.525  1.00  0.00     0.198 A 
ATOM     53  C   UNL     1       8.038  10.581  -0.930  1.00  0.00     0.198 A 
ATOM     54  F   UNL     1       9.379   9.283   0.509  1.00  0.00    -0.203 F 
ATOM     55  F   UNL     1       4.476  11.234  -0.881  1.00  0.00    -0.200 F 
ATOM     56  C   UNL     1       6.795  11.081  -1.290  1.00  0.00     0.200 A 
ATOM     57  F   UNL     1       9.118  10.887  -1.662  1.00  0.00    -0.200 F 
ATOM     58  F   UNL     1       6.670  11.856  -2.376  1.00  0.00    -0.200 F 
ENDBRANCH  24  48
BRANCH  36  59
ATOM     59  C   UNL     1      10.273   9.718   7.177  1.00  0.00     0.064 A 
ATOM     60  C   UNL     1      11.634   9.406   7.326  1.00  0.00     0.173 A 
ATOM     61  C   UNL     1       9.812  10.931   7.705  1.00  0.00     0.173 A 
ATOM     62  F   UNL     1      12.121   8.253   6.842  1.00  0.00    -0.203 F 
ATOM     63  C   UNL     1      12.494  10.263   8.002  1.00  0.00     0.198 A 
ATOM     64  C   UNL     1      10.683  11.802   8.351  1.00  0.00     0.198 A 
ATOM     65  F   UNL     1       8.523  11.278   7.574  1.00  0.00    -0.203 F 
ATOM     66  F   UNL     1      13.780   9.924   8.171  1.00  0.00    -0.200 F 
ATOM     67  C   UNL     1      12.019  11.462   8.511  1.00  0.00     0.200 A 
ATOM     68  F   UNL     1      10.230  12.973   8.820  1.00  0.00    -0.200 F 
ATOM     69  F   UNL     1      12.851  12.292   9.155  1.00  0.00    -0.200 F 
ENDBRANCH  36  59
ENDBRANCH  10  11
ENDBRANCH   3   5
ENDBRANCH   2   3
ENDBRANCH   1   2
BRANCH   1  70
ATOM     70  C   UNL     1       3.865   0.267  -2.153  1.00  0.00     0.275 C 
BRANCH  70  71
ATOM     71  O   UNL     1       3.493   1.434  -1.398  1.00  0.00    -0.458 OA
BRANCH  71  72
ATOM     72  C   UNL     1       2.162   1.701  -1.332  1.00  0.00     0.339 C 
ATOM     73  O   UNL     1       1.264   1.033  -1.817  1.00  0.00    -0.246 OA
BRANCH  72  74
ATOM     74  C   UNL     1       1.906   2.898  -0.498  1.00  0.00     0.071 A 
ATOM     75  C   UNL     1       1.006   2.738   0.568  1.00  0.00     0.045 A 
ATOM     76  C   UNL     1       2.482   4.159  -0.786  1.00  0.00     0.018 A 
ATOM     77  C   UNL     1       0.738   3.829   1.376  1.00  0.00     0.072 A 
ATOM     78  C   UNL     1       2.115   5.214   0.071  1.00  0.00     0.107 A 
ATOM     79  C   UNL     1       3.361   4.431  -1.872  1.00  0.00     0.011 A 
ATOM     80  N   UNL     1       1.285   5.038   1.120  1.00  0.00    -0.245 NA
ATOM     81  C   UNL     1       2.623   6.485  -0.195  1.00  0.00     0.149 A 
ATOM     82  C   UNL     1       3.851   5.716  -2.110  1.00  0.00     0.004 A 
ATOM     83  F   UNL     1       2.301   7.515   0.606  1.00  0.00    -0.205 F 
ATOM     84  C   UNL     1       3.467   6.750  -1.272  1.00  0.00     0.041 A 
BRANCH  77  85
ATOM     85  C   UNL     1      -0.119   3.792   2.578  1.00  0.00     0.003 A 
ATOM     86  C   UNL     1      -1.107   4.773   2.779  1.00  0.00     0.010 A 
ATOM     87  C   UNL     1       0.061   2.855   3.606  1.00  0.00     0.049 A 
ATOM     88  C   UNL     1      -1.874   4.815   3.952  1.00  0.00     0.004 A 
ATOM     89  C   UNL     1      -0.681   2.918   4.783  1.00  0.00     0.123 A 
ATOM     90  C   UNL     1      -1.651   3.888   4.965  1.00  0.00     0.039 A 
ATOM     91  F   UNL     1      -0.432   2.036   5.761  1.00  0.00    -0.207 F 
ENDBRANCH  77  85
ENDBRANCH  72  74
ENDBRANCH  71  72
ENDBRANCH  70  71
ENDBRANCH   1  70
TORSDOF 12
