REMARK SMILES COc1c(Cl)cc(C(=O)OCCOC(=O)c2ccc(-c3c4nc(c(-c5c(F)c(F)c(F)c(F)c5F)c5ccc([nH]5)c(-c5c(F)c(F)c(F)c(F)c5F)c5nc(c(-c6c(F)c(F)c(F)c(F)c6F)c6ccc3[nH]6)C=C5)C=C4)cc2)cc1NC(=S)NC(=O)c1ccccc1F
REMARK SMILES IDX 11 1 10 2 8 3 9 4 7 5 3 6 4 7 80 8 5 9 6 10 79 11 2 12 1 13
REMARK SMILES IDX 81 14 82 16 83 17 84 18 85 19 86 21 87 22 88 23 92 24 89 25
REMARK SMILES IDX 91 26 93 27 90 28 12 29 13 30 14 31 15 32 16 33 17 34 78 35
REMARK SMILES IDX 18 36 77 37 19 38 20 39 21 40 71 41 22 42 76 43 70 44 72 45
REMARK SMILES IDX 23 46 75 47 69 48 68 49 24 51 56 52 36 53 55 54 37 55 40 56
REMARK SMILES IDX 54 57 73 58 38 59 39 60 53 62 74 63 41 64 25 65 26 66 34 67
REMARK SMILES IDX 27 68 28 69 32 70 35 71 29 72 30 73 33 74 31 75 57 76 58 77
REMARK SMILES IDX 66 78 59 79 60 80 64 81 67 82 61 83 62 84 65 85 63 86 42 87
REMARK SMILES IDX 43 88 51 89 44 90 45 91 49 92 52 93 46 94 47 95 50 96 48 97
REMARK H PARENT 81 15 84 20 72 50 40 61
REMARK Flexibility Score: inf
ROOT
ATOM      1  C   UNL     1       1.823   0.610   8.491  1.00  0.00     0.275 C 
ENDROOT
BRANCH   1   2
ATOM      2  O   UNL     1       1.227   0.510   7.165  1.00  0.00    -0.458 OA
BRANCH   2   3
ATOM      3  C   UNL     1       1.831   1.044   5.910  1.00  0.00     0.338 C 
ATOM      4  O   UNL     1       2.760   1.744   6.385  1.00  0.00    -0.246 OA
BRANCH   3   5
ATOM      5  C   UNL     1       1.150   0.633   3.900  1.00  0.00     0.063 A 
ATOM      6  C   UNL     1      -0.062   0.420   1.093  1.00  0.00     0.160 A 
ATOM      7  C   UNL     1       1.302   0.300   1.277  1.00  0.00     0.086 A 
ATOM      8  C   UNL     1      -0.783   0.520   2.267  1.00  0.00     0.085 A 
ATOM      9  Cl  UNL     1       2.475  -0.226   0.113  1.00  0.00    -0.080 Cl
ATOM     10  C   UNL     1       1.848   0.577   2.566  1.00  0.00     0.040 A 
ATOM     11  C   UNL     1      -0.149   0.156   3.427  1.00  0.00     0.045 A 
BRANCH   6  12
ATOM     12  O   UNL     1      -0.791   0.427  -0.057  1.00  0.00    -0.493 OA
ATOM     13  C   UNL     1      -0.130   0.102  -1.275  1.00  0.00     0.278 C 
ENDBRANCH   6  12
BRANCH   8  14
ATOM     14  N   UNL     1      -2.120   0.924   2.384  1.00  0.00    -0.329 N 
ATOM     15  H   UNL     1      -2.583   1.001   1.519  1.00  0.00     0.169 HD
BRANCH  14  16
ATOM     16  C   UNL     1      -2.909   1.232   3.449  1.00  0.00     0.177 C 
ATOM     17  S   UNL     1      -4.469   1.752   3.095  1.00  0.00    -0.040 S 
BRANCH  16  18
ATOM     18  N   UNL     1      -2.606   1.146   4.807  1.00  0.00    -0.299 N 
ATOM     19  C   UNL     1      -1.661   0.861   5.833  1.00  0.00     0.260 C 
ATOM     20  H   UNL     1      -3.433   1.401   5.276  1.00  0.00     0.172 HD
ATOM     21  O   UNL     1      -2.037   0.540   6.957  1.00  0.00    -0.269 OA
BRANCH  19  22
ATOM     22  C   UNL     1      -0.223   0.881   5.571  1.00  0.00     0.075 A 
ATOM     23  C   UNL     1       0.758  -0.698   5.507  1.00  0.00     0.017 A 
ATOM     24  C   UNL     1       0.517   2.412   4.992  1.00  0.00     0.135 A 
ATOM     25  C   UNL     1       2.485  -0.644   4.940  1.00  0.00     0.001 A 
ATOM     26  C   UNL     1       2.209   2.459   4.388  1.00  0.00     0.040 A 
ATOM     27  F   UNL     1      -0.215   3.533   4.967  1.00  0.00    -0.206 F 
ATOM     28  C   UNL     1       3.236   0.943   4.425  1.00  0.00     0.003 A 
ENDBRANCH  19  22
ENDBRANCH  16  18
ENDBRANCH  14  16
ENDBRANCH   8  14
ENDBRANCH   3   5
ENDBRANCH   2   3
ENDBRANCH   1   2
BRANCH   1  29
ATOM     29  C   UNL     1       2.306  -0.776   8.928  1.00  0.00     0.275 C 
BRANCH  29  30
ATOM     30  O   UNL     1       3.600  -1.028   8.345  1.00  0.00    -0.458 OA
BRANCH  30  31
ATOM     31  C   UNL     1       3.729  -2.158   7.617  1.00  0.00     0.338 C 
ATOM     32  O   UNL     1       2.917  -3.059   7.482  1.00  0.00    -0.246 OA
BRANCH  31  33
ATOM     33  C   UNL     1       4.977  -2.101   6.827  1.00  0.00     0.060 A 
ATOM     34  C   UNL     1       5.246  -0.944   6.110  1.00  0.00     0.016 A 
ATOM     35  C   UNL     1       5.711  -3.254   6.564  1.00  0.00     0.016 A 
ATOM     36  C   UNL     1       6.051  -1.014   4.980  1.00  0.00     0.010 A 
ATOM     37  C   UNL     1       6.710  -3.232   5.579  1.00  0.00     0.010 A 
ATOM     38  C   UNL     1       6.862  -2.123   4.729  1.00  0.00    -0.014 A 
BRANCH  38  39
ATOM     39  C   UNL     1       7.859  -2.094   3.612  1.00  0.00     0.031 A 
ATOM     40  C   UNL     1       8.026  -3.286   2.699  1.00  0.00     0.074 A 
ATOM     41  C   UNL     1       8.651  -1.011   3.429  1.00  0.00     0.049 A 
ATOM     42  N   UNL     1       9.022  -3.586   1.903  1.00  0.00    -0.248 NA
ATOM     43  C   UNL     1       6.947  -4.287   2.701  1.00  0.00     0.031 C 
ATOM     44  C   UNL     1       8.578   0.247   4.180  1.00  0.00     0.029 A 
ATOM     45  N   UNL     1       9.696  -0.795   2.559  1.00  0.00    -0.354 N 
ATOM     46  C   UNL     1       8.733  -4.844   1.385  1.00  0.00     0.074 A 
ATOM     47  C   UNL     1       7.465  -5.250   1.950  1.00  0.00     0.031 C 
ATOM     48  C   UNL     1       9.489   1.108   3.716  1.00  0.00     0.029 A 
ATOM     49  C   UNL     1      10.326   0.413   2.757  1.00  0.00     0.049 A 
ATOM     50  H   UNL     1       9.965  -1.439   1.865  1.00  0.00     0.167 HD
ATOM     51  C   UNL     1       9.473  -5.591   0.529  1.00  0.00     0.037 A 
ATOM     52  C   UNL     1      11.503   0.888   2.310  1.00  0.00     0.037 A 
ATOM     53  C   UNL     1      10.707  -5.141  -0.068  1.00  0.00     0.049 A 
ATOM     54  C   UNL     1      12.335   0.014   1.421  1.00  0.00     0.074 A 
ATOM     55  C   UNL     1      11.513  -5.800  -0.980  1.00  0.00     0.029 A 
ATOM     56  N   UNL     1      11.310  -3.918   0.187  1.00  0.00    -0.354 N 
ATOM     57  N   UNL     1      12.078  -1.189   0.971  1.00  0.00    -0.248 NA
ATOM     58  C   UNL     1      13.626   0.559   0.987  1.00  0.00     0.031 C 
ATOM     59  C   UNL     1      12.643  -5.012  -1.214  1.00  0.00     0.029 A 
ATOM     60  C   UNL     1      12.498  -3.821  -0.521  1.00  0.00     0.049 A 
ATOM     61  H   UNL     1      10.948  -3.222   0.782  1.00  0.00     0.167 HD
ATOM     62  C   UNL     1      13.159  -1.533   0.174  1.00  0.00     0.074 A 
ATOM     63  C   UNL     1      14.063  -0.403   0.188  1.00  0.00     0.031 C 
ATOM     64  C   UNL     1      13.382  -2.683  -0.507  1.00  0.00     0.037 A 
BRANCH  51  65
ATOM     65  C   UNL     1       9.016  -6.992   0.224  1.00  0.00     0.064 A 
ATOM     66  C   UNL     1       7.866  -7.267  -0.529  1.00  0.00     0.173 A 
ATOM     67  C   UNL     1       9.790  -8.086   0.650  1.00  0.00     0.173 A 
ATOM     68  F   UNL     1       7.084  -6.265  -0.958  1.00  0.00    -0.203 F 
ATOM     69  C   UNL     1       7.494  -8.579  -0.820  1.00  0.00     0.198 A 
ATOM     70  C   UNL     1       9.437  -9.393   0.326  1.00  0.00     0.198 A 
ATOM     71  F   UNL     1      10.907  -7.885   1.367  1.00  0.00    -0.203 F 
ATOM     72  F   UNL     1       6.363  -8.818  -1.498  1.00  0.00    -0.200 F 
ATOM     73  C   UNL     1       8.284  -9.639  -0.401  1.00  0.00     0.200 A 
ATOM     74  F   UNL     1      10.215 -10.412   0.716  1.00  0.00    -0.200 F 
ATOM     75  F   UNL     1       7.931 -10.899  -0.694  1.00  0.00    -0.200 F 
ENDBRANCH  51  65
BRANCH  52  76
ATOM     76  C   UNL     1      11.998   2.217   2.765  1.00  0.00     0.064 A 
ATOM     77  C   UNL     1      12.179   3.268   1.856  1.00  0.00     0.173 A 
ATOM     78  C   UNL     1      12.310   2.465   4.113  1.00  0.00     0.173 A 
ATOM     79  F   UNL     1      11.911   3.080   0.556  1.00  0.00    -0.203 F 
ATOM     80  C   UNL     1      12.685   4.499   2.269  1.00  0.00     0.198 A 
ATOM     81  C   UNL     1      12.770   3.711   4.532  1.00  0.00     0.198 A 
ATOM     82  F   UNL     1      12.147   1.501   5.032  1.00  0.00    -0.203 F 
ATOM     83  F   UNL     1      12.912   5.462   1.366  1.00  0.00    -0.200 F 
ATOM     84  C   UNL     1      12.973   4.722   3.607  1.00  0.00     0.200 A 
ATOM     85  F   UNL     1      13.019   3.929   5.831  1.00  0.00    -0.200 F 
ATOM     86  F   UNL     1      13.454   5.908   4.003  1.00  0.00    -0.200 F 
ENDBRANCH  52  76
BRANCH  64  87
ATOM     87  C   UNL     1      14.623  -2.747  -1.349  1.00  0.00     0.064 A 
ATOM     88  C   UNL     1      15.905  -2.789  -0.783  1.00  0.00     0.173 A 
ATOM     89  C   UNL     1      14.520  -2.787  -2.748  1.00  0.00     0.173 A 
ATOM     90  F   UNL     1      16.059  -2.733   0.549  1.00  0.00    -0.203 F 
ATOM     91  C   UNL     1      17.040  -2.834  -1.588  1.00  0.00     0.198 A 
ATOM     92  C   UNL     1      15.654  -2.877  -3.548  1.00  0.00     0.198 A 
ATOM     93  F   UNL     1      13.316  -2.752  -3.340  1.00  0.00    -0.203 F 
ATOM     94  F   UNL     1      18.257  -2.805  -1.028  1.00  0.00    -0.200 F 
ATOM     95  C   UNL     1      16.913  -2.888  -2.968  1.00  0.00     0.200 A 
ATOM     96  F   UNL     1      15.528  -2.949  -4.880  1.00  0.00    -0.200 F 
ATOM     97  F   UNL     1      18.006  -2.942  -3.741  1.00  0.00    -0.200 F 
ENDBRANCH  64  87
ENDBRANCH  38  39
ENDBRANCH  31  33
ENDBRANCH  30  31
ENDBRANCH  29  30
ENDBRANCH   1  29
TORSDOF 16
