REMARK SMILES O=C(CSCc1nnnn1-c1ccc([N+](=O)[O-])cc1)OCCOC(=O)c1ccc(-c2c3nc(c(-c4c(F)c(F)c(F)c(F)c4F)c4ccc([nH]4)c(-c4c(F)c(F)c(F)c(F)c4F)c4nc(c(-c5c(F)c(F)c(F)c(F)c5F)c5ccc2[nH]5)C=C4)C=C3)cc1
REMARK SMILES IDX 20 1 2 2 1 3 3 4 4 5 5 6 6 7 7 8 10 9 8 10 9 11 11 12 12 13
REMARK SMILES IDX 19 14 13 15 18 16 14 17 15 18 16 19 17 20 21 21 22 22 23 23
REMARK SMILES IDX 24 24 25 25 26 26 27 27 88 28 28 29 87 30 29 31 30 32 31 33
REMARK SMILES IDX 81 34 32 35 86 36 80 37 82 38 33 39 85 40 79 41 78 42 34 44
REMARK SMILES IDX 66 45 46 46 65 47 47 48 50 49 64 50 83 51 48 52 49 53 63 55
REMARK SMILES IDX 84 56 51 57 35 58 36 59 44 60 37 61 38 62 42 63 45 64 39 65
REMARK SMILES IDX 40 66 43 67 41 68 67 69 68 70 76 71 69 72 70 73 74 74 77 75
REMARK SMILES IDX 71 76 72 77 75 78 73 79 52 80 53 81 61 82 54 83 55 84 59 85
REMARK SMILES IDX 62 86 56 87 57 88 60 89 58 90
REMARK H PARENT 82 43 50 54
REMARK Flexibility Score: inf
ROOT
ATOM      1  O   UNL     1       3.085  -1.102   0.740  1.00  0.00    -0.461 OA
ENDROOT
BRANCH   1   2
ATOM      2  C   UNL     1       2.461   0.098   0.668  1.00  0.00     0.316 C 
ATOM      3  O   UNL     1       1.270   0.193   0.959  1.00  0.00    -0.251 OA
BRANCH   2   4
ATOM      4  C   UNL     1       3.267   1.325   0.309  1.00  0.00     0.192 C 
BRANCH   4   5
ATOM      5  S   UNL     1       4.099   2.016   1.765  1.00  0.00    -0.142 SA
BRANCH   5   6
ATOM      6  C   UNL     1       2.663   2.713   2.622  1.00  0.00     0.149 C 
BRANCH   6   7
ATOM      7  C   UNL     1       1.940   3.746   1.840  1.00  0.00     0.166 A 
ATOM      8  N   UNL     1       0.778   3.599   1.234  1.00  0.00    -0.113 NA
ATOM      9  N   UNL     1       2.268   5.086   1.799  1.00  0.00    -0.196 N 
ATOM     10  N   UNL     1       0.350   4.858   0.907  1.00  0.00    -0.023 NA
ATOM     11  N   UNL     1       1.216   5.774   1.316  1.00  0.00    -0.040 NA
BRANCH   9  12
ATOM     12  C   UNL     1       3.446   5.732   2.206  1.00  0.00     0.069 A 
ATOM     13  C   UNL     1       3.365   6.748   3.162  1.00  0.00     0.035 A 
ATOM     14  C   UNL     1       4.677   5.358   1.654  1.00  0.00     0.035 A 
ATOM     15  C   UNL     1       4.541   7.338   3.633  1.00  0.00     0.088 A 
ATOM     16  C   UNL     1       5.850   5.963   2.103  1.00  0.00     0.088 A 
ATOM     17  C   UNL     1       5.780   6.939   3.107  1.00  0.00     0.269 A 
BRANCH  17  18
ATOM     18  N   UNL     1       7.017   7.546   3.613  1.00  0.00     0.062 N 
ATOM     19  O   UNL     1       6.917   8.385   4.519  1.00  0.00    -0.258 OA
ATOM     20  O   UNL     1       8.087   7.177   3.108  1.00  0.00    -0.258 OA
ENDBRANCH  17  18
ENDBRANCH   9  12
ENDBRANCH   6   7
ENDBRANCH   5   6
ENDBRANCH   4   5
ENDBRANCH   2   4
ENDBRANCH   1   2
BRANCH   1  21
ATOM     21  C   UNL     1       4.479  -1.342   0.452  1.00  0.00     0.274 C 
BRANCH  21  22
ATOM     22  C   UNL     1       4.681  -1.791  -0.987  1.00  0.00     0.275 C 
BRANCH  22  23
ATOM     23  O   UNL     1       4.492  -0.692  -1.874  1.00  0.00    -0.458 OA
BRANCH  23  24
ATOM     24  C   UNL     1       3.250  -0.493  -2.377  1.00  0.00     0.338 C 
ATOM     25  O   UNL     1       2.242  -1.106  -2.118  1.00  0.00    -0.246 OA
BRANCH  24  26
ATOM     26  C   UNL     1       3.359   0.593  -3.369  1.00  0.00     0.060 A 
ATOM     27  C   UNL     1       2.237   0.894  -4.143  1.00  0.00     0.016 A 
ATOM     28  C   UNL     1       4.620   1.141  -3.655  1.00  0.00     0.016 A 
ATOM     29  C   UNL     1       2.434   1.539  -5.348  1.00  0.00     0.010 A 
ATOM     30  C   UNL     1       4.816   1.770  -4.855  1.00  0.00     0.010 A 
ATOM     31  C   UNL     1       3.742   1.858  -5.730  1.00  0.00    -0.014 A 
BRANCH  31  32
ATOM     32  C   UNL     1       4.000   2.317  -7.076  1.00  0.00     0.031 A 
ATOM     33  C   UNL     1       3.583   3.718  -7.308  1.00  0.00     0.074 A 
ATOM     34  C   UNL     1       4.678   1.551  -7.956  1.00  0.00     0.049 A 
ATOM     35  N   UNL     1       2.680   4.146  -8.124  1.00  0.00    -0.248 NA
ATOM     36  C   UNL     1       4.123   4.755  -6.411  1.00  0.00     0.031 C 
ATOM     37  C   UNL     1       5.357   0.269  -7.735  1.00  0.00     0.029 A 
ATOM     38  N   UNL     1       4.961   1.815  -9.259  1.00  0.00    -0.354 N 
ATOM     39  C   UNL     1       2.657   5.528  -7.973  1.00  0.00     0.074 A 
ATOM     40  C   UNL     1       3.440   5.830  -6.805  1.00  0.00     0.031 C 
ATOM     41  C   UNL     1       6.146  -0.017  -8.798  1.00  0.00     0.029 A 
ATOM     42  C   UNL     1       5.916   0.977  -9.830  1.00  0.00     0.049 A 
ATOM     43  H   UNL     1       4.525   2.541  -9.761  1.00  0.00     0.167 HD
ATOM     44  C   UNL     1       2.175   6.332  -8.958  1.00  0.00     0.037 A 
ATOM     45  C   UNL     1       6.495   1.156 -11.046  1.00  0.00     0.037 A 
ATOM     46  C   UNL     1       1.324   5.597  -9.857  1.00  0.00     0.049 A 
ATOM     47  C   UNL     1       5.604   2.064 -11.820  1.00  0.00     0.074 A 
ATOM     48  C   UNL     1       0.116   4.944  -9.707  1.00  0.00     0.029 A 
ATOM     49  N   UNL     1       1.879   5.092 -11.008  1.00  0.00    -0.354 N 
ATOM     50  N   UNL     1       4.405   1.727 -12.209  1.00  0.00    -0.248 NA
ATOM     51  C   UNL     1       5.848   3.494 -11.696  1.00  0.00     0.031 C 
ATOM     52  C   UNL     1       0.245   3.749 -10.474  1.00  0.00     0.029 A 
ATOM     53  C   UNL     1       1.482   3.782 -11.120  1.00  0.00     0.049 A 
ATOM     54  H   UNL     1       2.457   5.580 -11.638  1.00  0.00     0.167 HD
ATOM     55  C   UNL     1       3.628   2.852 -11.973  1.00  0.00     0.074 A 
ATOM     56  C   UNL     1       4.582   3.924 -11.693  1.00  0.00     0.031 C 
ATOM     57  C   UNL     1       2.288   2.750 -11.729  1.00  0.00     0.037 A 
BRANCH  44  58
ATOM     58  C   UNL     1       2.745   7.685  -9.283  1.00  0.00     0.064 A 
ATOM     59  C   UNL     1       2.073   8.521 -10.194  1.00  0.00     0.173 A 
ATOM     60  C   UNL     1       4.061   8.076  -8.951  1.00  0.00     0.173 A 
ATOM     61  F   UNL     1       0.829   8.228 -10.600  1.00  0.00    -0.203 F 
ATOM     62  C   UNL     1       2.696   9.632 -10.771  1.00  0.00     0.198 A 
ATOM     63  C   UNL     1       4.660   9.213  -9.487  1.00  0.00     0.198 A 
ATOM     64  F   UNL     1       4.859   7.320  -8.187  1.00  0.00    -0.203 F 
ATOM     65  F   UNL     1       2.060  10.333 -11.718  1.00  0.00    -0.200 F 
ATOM     66  C   UNL     1       3.990   9.975 -10.419  1.00  0.00     0.200 A 
ATOM     67  F   UNL     1       5.922   9.514  -9.149  1.00  0.00    -0.200 F 
ATOM     68  F   UNL     1       4.607  11.005 -11.011  1.00  0.00    -0.200 F 
ENDBRANCH  44  58
BRANCH  45  69
ATOM     69  C   UNL     1       7.915   0.939 -11.422  1.00  0.00     0.064 A 
ATOM     70  C   UNL     1       8.317   0.868 -12.767  1.00  0.00     0.173 A 
ATOM     71  C   UNL     1       8.944   1.096 -10.472  1.00  0.00     0.173 A 
ATOM     72  F   UNL     1       7.398   0.774 -13.739  1.00  0.00    -0.203 F 
ATOM     73  C   UNL     1       9.665   0.963 -13.139  1.00  0.00     0.198 A 
ATOM     74  C   UNL     1      10.287   1.192 -10.844  1.00  0.00     0.198 A 
ATOM     75  F   UNL     1       8.658   1.260  -9.173  1.00  0.00    -0.203 F 
ATOM     76  F   UNL     1      10.005   0.946 -14.435  1.00  0.00    -0.200 F 
ATOM     77  C   UNL     1      10.647   1.136 -12.178  1.00  0.00     0.200 A 
ATOM     78  F   UNL     1      11.222   1.404  -9.907  1.00  0.00    -0.200 F 
ATOM     79  F   UNL     1      11.929   1.292 -12.536  1.00  0.00    -0.200 F 
ENDBRANCH  45  69
BRANCH  57  80
ATOM     80  C   UNL     1       1.644   1.401 -11.916  1.00  0.00     0.064 A 
ATOM     81  C   UNL     1       1.953   0.263 -11.148  1.00  0.00     0.173 A 
ATOM     82  C   UNL     1       0.566   1.298 -12.804  1.00  0.00     0.173 A 
ATOM     83  F   UNL     1       2.902   0.304 -10.206  1.00  0.00    -0.203 F 
ATOM     84  C   UNL     1       1.242  -0.929 -11.295  1.00  0.00     0.198 A 
ATOM     85  C   UNL     1      -0.166   0.119 -12.923  1.00  0.00     0.198 A 
ATOM     86  F   UNL     1       0.187   2.365 -13.523  1.00  0.00    -0.203 F 
ATOM     87  F   UNL     1       1.564  -2.002 -10.555  1.00  0.00    -0.200 F 
ATOM     88  C   UNL     1       0.178  -0.997 -12.178  1.00  0.00     0.200 A 
ATOM     89  F   UNL     1      -1.226   0.075 -13.742  1.00  0.00    -0.200 F 
ATOM     90  F   UNL     1      -0.533  -2.128 -12.292  1.00  0.00    -0.200 F 
ENDBRANCH  57  80
ENDBRANCH  31  32
ENDBRANCH  24  26
ENDBRANCH  23  24
ENDBRANCH  22  23
ENDBRANCH  21  22
ENDBRANCH   1  21
TORSDOF 16
