REMARK SMILES O=C(OCCOC(=O)c1ccn(Cc2c(Cl)cccc2Cl)c1)c1ccc(-c2c3nc(c(-c4c(F)c(F)c(F)c(F)c4F)c4ccc([nH]4)c(-c4c(F)c(F)c(F)c(F)c4F)c4nc(c(-c5c(F)c(F)c(F)c(F)c5F)c5ccc2[nH]5)C=C4)C=C3)cc1
REMARK SMILES IDX 4 1 3 2 2 3 1 4 23 5 24 6 85 7 25 8 84 9 26 10 27 11 28 12
REMARK SMILES IDX 78 13 29 14 83 15 77 16 79 17 30 18 82 19 76 20 75 21 31 23
REMARK SMILES IDX 63 24 43 25 62 26 44 27 47 28 61 29 80 30 45 31 46 32 60 34
REMARK SMILES IDX 81 35 48 36 32 37 33 38 41 39 34 40 35 41 39 42 42 43 36 44
REMARK SMILES IDX 37 45 40 46 38 47 64 48 65 49 73 50 66 51 67 52 71 53 74 54
REMARK SMILES IDX 68 55 69 56 72 57 70 58 49 59 50 60 58 61 51 62 52 63 56 64
REMARK SMILES IDX 59 65 53 66 54 67 57 68 55 69 5 70 6 71 7 72 8 73 9 74 10 75
REMARK SMILES IDX 22 76 11 77 12 78 13 79 14 80 15 81 20 82 16 83 17 84 19 85
REMARK SMILES IDX 21 86 18 87
REMARK H PARENT 79 22 47 33
REMARK Flexibility Score: inf
ROOT
ATOM      1  C   UNL     1       4.368  -0.695   1.288  1.00  0.00     0.275 C 
ENDROOT
BRANCH   1   2
ATOM      2  O   UNL     1       3.047  -0.164   1.530  1.00  0.00    -0.458 OA
BRANCH   2   3
ATOM      3  C   UNL     1       2.269   0.376   0.561  1.00  0.00     0.338 C 
ATOM      4  O   UNL     1       1.157  -0.066   0.299  1.00  0.00    -0.246 OA
BRANCH   3   5
ATOM      5  C   UNL     1       2.652   1.730   0.084  1.00  0.00     0.060 A 
ATOM      6  C   UNL     1       3.957   2.102  -0.240  1.00  0.00     0.016 A 
ATOM      7  C   UNL     1       1.616   2.669  -0.068  1.00  0.00     0.016 A 
ATOM      8  C   UNL     1       4.245   3.413  -0.602  1.00  0.00     0.010 A 
ATOM      9  C   UNL     1       1.891   3.974  -0.475  1.00  0.00     0.010 A 
ATOM     10  C   UNL     1       3.215   4.351  -0.717  1.00  0.00    -0.014 A 
BRANCH  10  11
ATOM     11  C   UNL     1       3.575   5.723  -1.140  1.00  0.00     0.031 A 
ATOM     12  C   UNL     1       3.851   5.882  -2.643  1.00  0.00     0.074 A 
ATOM     13  C   UNL     1       3.702   6.628  -0.132  1.00  0.00     0.049 A 
ATOM     14  N   UNL     1       4.426   6.847  -3.306  1.00  0.00    -0.248 NA
ATOM     15  C   UNL     1       3.450   4.767  -3.541  1.00  0.00     0.031 C 
ATOM     16  C   UNL     1       3.442   6.354   1.294  1.00  0.00     0.029 A 
ATOM     17  N   UNL     1       4.113   7.939  -0.095  1.00  0.00    -0.354 N 
ATOM     18  C   UNL     1       4.323   6.529  -4.673  1.00  0.00     0.074 A 
ATOM     19  C   UNL     1       3.773   5.211  -4.756  1.00  0.00     0.031 C 
ATOM     20  C   UNL     1       3.789   7.412   2.054  1.00  0.00     0.029 A 
ATOM     21  C   UNL     1       4.288   8.473   1.203  1.00  0.00     0.049 A 
ATOM     22  H   UNL     1       4.274   8.466  -0.910  1.00  0.00     0.167 HD
ATOM     23  C   UNL     1       4.608   7.377  -5.697  1.00  0.00     0.037 A 
ATOM     24  C   UNL     1       4.863   9.660   1.564  1.00  0.00     0.037 A 
ATOM     25  C   UNL     1       5.149   8.627  -5.301  1.00  0.00     0.049 A 
ATOM     26  C   UNL     1       5.210  10.314   0.291  1.00  0.00     0.074 A 
ATOM     27  C   UNL     1       6.380   9.232  -5.324  1.00  0.00     0.029 A 
ATOM     28  N   UNL     1       4.257   9.511  -4.768  1.00  0.00    -0.354 N 
ATOM     29  N   UNL     1       4.367  10.924  -0.483  1.00  0.00    -0.248 NA
ATOM     30  C   UNL     1       6.553  10.095  -0.246  1.00  0.00     0.031 C 
ATOM     31  C   UNL     1       6.239  10.432  -4.575  1.00  0.00     0.029 A 
ATOM     32  C   UNL     1       4.961  10.424  -4.030  1.00  0.00     0.049 A 
ATOM     33  H   UNL     1       3.281   9.496  -4.892  1.00  0.00     0.167 HD
ATOM     34  C   UNL     1       5.002  10.943  -1.706  1.00  0.00     0.074 A 
ATOM     35  C   UNL     1       6.383  10.558  -1.480  1.00  0.00     0.031 C 
ATOM     36  C   UNL     1       4.304  10.934  -2.866  1.00  0.00     0.037 A 
BRANCH  23  37
ATOM     37  C   UNL     1       4.183   7.312  -7.133  1.00  0.00     0.064 A 
ATOM     38  C   UNL     1       5.127   7.582  -8.139  1.00  0.00     0.173 A 
ATOM     39  C   UNL     1       2.831   7.526  -7.452  1.00  0.00     0.173 A 
ATOM     40  F   UNL     1       6.437   7.434  -7.888  1.00  0.00    -0.203 F 
ATOM     41  C   UNL     1       4.745   8.118  -9.371  1.00  0.00     0.198 A 
ATOM     42  C   UNL     1       2.449   8.029  -8.699  1.00  0.00     0.198 A 
ATOM     43  F   UNL     1       1.885   7.369  -6.515  1.00  0.00    -0.203 F 
ATOM     44  F   UNL     1       5.679   8.476 -10.262  1.00  0.00    -0.200 F 
ATOM     45  C   UNL     1       3.407   8.355  -9.644  1.00  0.00     0.200 A 
ATOM     46  F   UNL     1       1.154   8.269  -8.952  1.00  0.00    -0.200 F 
ATOM     47  F   UNL     1       3.046   8.934 -10.798  1.00  0.00    -0.200 F 
ENDBRANCH  23  37
BRANCH  24  48
ATOM     48  C   UNL     1       5.314  10.318   2.841  1.00  0.00     0.064 A 
ATOM     49  C   UNL     1       4.912   9.962   4.136  1.00  0.00     0.173 A 
ATOM     50  C   UNL     1       6.262  11.377   2.795  1.00  0.00     0.173 A 
ATOM     51  F   UNL     1       3.922   9.087   4.338  1.00  0.00    -0.203 F 
ATOM     52  C   UNL     1       5.498  10.525   5.283  1.00  0.00     0.198 A 
ATOM     53  C   UNL     1       6.851  11.931   3.933  1.00  0.00     0.198 A 
ATOM     54  F   UNL     1       6.662  11.910   1.632  1.00  0.00    -0.203 F 
ATOM     55  F   UNL     1       5.103  10.118   6.498  1.00  0.00    -0.200 F 
ATOM     56  C   UNL     1       6.486  11.487   5.181  1.00  0.00     0.200 A 
ATOM     57  F   UNL     1       7.788  12.882   3.800  1.00  0.00    -0.200 F 
ATOM     58  F   UNL     1       7.072  11.991   6.276  1.00  0.00    -0.200 F 
ENDBRANCH  24  48
BRANCH  36  59
ATOM     59  C   UNL     1       2.812  10.989  -2.688  1.00  0.00     0.064 A 
ATOM     60  C   UNL     1       2.147  12.209  -2.579  1.00  0.00     0.173 A 
ATOM     61  C   UNL     1       2.039   9.821  -2.538  1.00  0.00     0.173 A 
ATOM     62  F   UNL     1       2.827  13.358  -2.701  1.00  0.00    -0.203 F 
ATOM     63  C   UNL     1       0.769  12.254  -2.353  1.00  0.00     0.198 A 
ATOM     64  C   UNL     1       0.666   9.863  -2.327  1.00  0.00     0.198 A 
ATOM     65  F   UNL     1       2.610   8.616  -2.635  1.00  0.00    -0.203 F 
ATOM     66  F   UNL     1       0.149  13.439  -2.262  1.00  0.00    -0.200 F 
ATOM     67  C   UNL     1       0.030  11.084  -2.232  1.00  0.00     0.200 A 
ATOM     68  F   UNL     1      -0.035   8.722  -2.238  1.00  0.00    -0.200 F 
ATOM     69  F   UNL     1      -1.295  11.135  -2.041  1.00  0.00    -0.200 F 
ENDBRANCH  36  59
ENDBRANCH  10  11
ENDBRANCH   3   5
ENDBRANCH   2   3
ENDBRANCH   1   2
BRANCH   1  70
ATOM     70  C   UNL     1       4.465  -1.758   0.193  1.00  0.00     0.275 C 
BRANCH  70  71
ATOM     71  O   UNL     1       4.110  -1.232  -1.094  1.00  0.00    -0.458 OA
BRANCH  71  72
ATOM     72  C   UNL     1       2.956  -1.710  -1.637  1.00  0.00     0.339 C 
ATOM     73  O   UNL     1       2.239  -2.578  -1.123  1.00  0.00    -0.246 OA
BRANCH  72  74
ATOM     74  C   UNL     1       2.640  -1.065  -2.891  1.00  0.00     0.077 A 
ATOM     75  C   UNL     1       3.432  -1.034  -4.069  1.00  0.00     0.035 A 
ATOM     76  C   UNL     1       1.474  -0.376  -3.183  1.00  0.00     0.101 A 
ATOM     77  C   UNL     1       2.714  -0.366  -5.036  1.00  0.00     0.087 A 
ATOM     78  N   UNL     1       1.517   0.032  -4.495  1.00  0.00    -0.349 N 
BRANCH  78  79
ATOM     79  C   UNL     1       0.381   0.621  -5.211  1.00  0.00     0.160 C 
BRANCH  79  80
ATOM     80  C   UNL     1       0.737   1.827  -6.050  1.00  0.00     0.009 A 
ATOM     81  C   UNL     1       1.185   1.691  -7.381  1.00  0.00     0.047 A 
ATOM     82  C   UNL     1       0.624   3.133  -5.540  1.00  0.00     0.047 A 
ATOM     83  Cl  UNL     1       1.228   0.165  -8.198  1.00  0.00    -0.084 Cl
ATOM     84  C   UNL     1       1.576   2.802  -8.136  1.00  0.00     0.021 A 
ATOM     85  C   UNL     1       0.954   4.246  -6.323  1.00  0.00     0.021 A 
ATOM     86  Cl  UNL     1       0.050   3.456  -3.940  1.00  0.00    -0.084 Cl
ATOM     87  C   UNL     1       1.455   4.081  -7.611  1.00  0.00     0.003 A 
ENDBRANCH  79  80
ENDBRANCH  78  79
ENDBRANCH  72  74
ENDBRANCH  71  72
ENDBRANCH  70  71
ENDBRANCH   1  70
TORSDOF 13
