REMARK SMILES O=C(OCCOC(=O)c1ccc2[nH]c3c(c2c1)CN(C(=O)C1CC1)CC3)c1ccc(-c2c3nc(c(-c4c(F)c(F)c(F)c(F)c4F)c4ccc([nH]4)c(-c4c(F)c(F)c(F)c(F)c4F)c4nc(c(-c5c(F)c(F)c(F)c(F)c5F)c5ccc2[nH]5)C=C4)C=C3)cc1
REMARK SMILES IDX 4 1 3 2 2 3 1 4 27 5 28 6 89 7 29 8 88 9 30 10 31 11 32 12
REMARK SMILES IDX 82 13 33 14 87 15 81 16 83 17 34 18 86 19 80 20 79 21 35 23
REMARK SMILES IDX 67 24 47 25 66 26 48 27 51 28 65 29 84 30 49 31 50 32 64 34
REMARK SMILES IDX 85 35 52 36 36 37 37 38 45 39 38 40 39 41 43 42 46 43 40 44
REMARK SMILES IDX 41 45 44 46 42 47 68 48 69 49 77 50 70 51 71 52 75 53 78 54
REMARK SMILES IDX 72 55 73 56 76 57 74 58 53 59 54 60 62 61 55 62 56 63 60 64
REMARK SMILES IDX 63 65 57 66 58 67 61 68 59 69 5 70 6 71 7 72 8 73 9 74 10 75
REMARK SMILES IDX 17 76 11 77 16 78 12 79 15 80 13 81 14 82 18 83 26 85 19 86
REMARK SMILES IDX 25 87 20 88 21 89 22 90 23 91 24 92
REMARK H PARENT 83 22 51 33 13 84
REMARK Flexibility Score: inf
ROOT
ATOM      1  C   UNL     1       3.323   0.193  -1.796  1.00  0.00     0.275 C 
ENDROOT
BRANCH   1   2
ATOM      2  O   UNL     1       2.991  -0.943  -0.948  1.00  0.00    -0.458 OA
BRANCH   2   3
ATOM      3  C   UNL     1       3.474  -1.214   0.298  1.00  0.00     0.338 C 
ATOM      4  O   UNL     1       2.971  -2.065   1.021  1.00  0.00    -0.246 OA
BRANCH   3   5
ATOM      5  C   UNL     1       4.538  -0.333   0.818  1.00  0.00     0.060 A 
ATOM      6  C   UNL     1       4.238   0.389   1.968  1.00  0.00     0.016 A 
ATOM      7  C   UNL     1       5.663  -0.020   0.053  1.00  0.00     0.016 A 
ATOM      8  C   UNL     1       4.840   1.622   2.130  1.00  0.00     0.010 A 
ATOM      9  C   UNL     1       6.278   1.213   0.230  1.00  0.00     0.010 A 
ATOM     10  C   UNL     1       5.773   2.090   1.187  1.00  0.00    -0.014 A 
BRANCH  10  11
ATOM     11  C   UNL     1       6.323   3.437   1.396  1.00  0.00     0.031 A 
ATOM     12  C   UNL     1       6.835   3.595   2.784  1.00  0.00     0.074 A 
ATOM     13  C   UNL     1       6.442   4.401   0.454  1.00  0.00     0.049 A 
ATOM     14  N   UNL     1       6.462   4.449   3.681  1.00  0.00    -0.248 NA
ATOM     15  C   UNL     1       7.710   2.519   3.294  1.00  0.00     0.031 C 
ATOM     16  C   UNL     1       6.125   4.304  -0.973  1.00  0.00     0.029 A 
ATOM     17  N   UNL     1       6.965   5.665   0.546  1.00  0.00    -0.354 N 
ATOM     18  C   UNL     1       7.207   4.127   4.810  1.00  0.00     0.074 A 
ATOM     19  C   UNL     1       7.787   2.829   4.586  1.00  0.00     0.031 C 
ATOM     20  C   UNL     1       6.691   5.336  -1.637  1.00  0.00     0.029 A 
ATOM     21  C   UNL     1       7.325   6.224  -0.682  1.00  0.00     0.049 A 
ATOM     22  H   UNL     1       7.077   6.137   1.403  1.00  0.00     0.167 HD
ATOM     23  C   UNL     1       7.571   5.077   5.707  1.00  0.00     0.037 A 
ATOM     24  C   UNL     1       8.153   7.281  -0.897  1.00  0.00     0.037 A 
ATOM     25  C   UNL     1       6.709   6.222   5.668  1.00  0.00     0.049 A 
ATOM     26  C   UNL     1       8.241   8.037   0.372  1.00  0.00     0.074 A 
ATOM     27  C   UNL     1       5.373   6.447   5.923  1.00  0.00     0.029 A 
ATOM     28  N   UNL     1       7.155   7.310   4.966  1.00  0.00    -0.354 N 
ATOM     29  N   UNL     1       7.264   8.733   0.877  1.00  0.00    -0.248 NA
ATOM     30  C   UNL     1       9.308   7.686   1.295  1.00  0.00     0.031 C 
ATOM     31  C   UNL     1       4.979   7.469   5.013  1.00  0.00     0.029 A 
ATOM     32  C   UNL     1       6.103   7.853   4.281  1.00  0.00     0.049 A 
ATOM     33  H   UNL     1       8.081   7.646   4.957  1.00  0.00     0.167 HD
ATOM     34  C   UNL     1       7.363   8.521   2.242  1.00  0.00     0.074 A 
ATOM     35  C   UNL     1       8.697   7.967   2.448  1.00  0.00     0.031 C 
ATOM     36  C   UNL     1       6.246   8.546   3.023  1.00  0.00     0.037 A 
BRANCH  23  37
ATOM     37  C   UNL     1       8.967   5.108   6.264  1.00  0.00     0.064 A 
ATOM     38  C   UNL     1       9.258   5.870   7.404  1.00  0.00     0.173 A 
ATOM     39  C   UNL     1      10.085   4.615   5.549  1.00  0.00     0.173 A 
ATOM     40  F   UNL     1       8.270   6.450   8.102  1.00  0.00    -0.203 F 
ATOM     41  C   UNL     1      10.576   6.115   7.799  1.00  0.00     0.198 A 
ATOM     42  C   UNL     1      11.392   4.801   5.983  1.00  0.00     0.198 A 
ATOM     43  F   UNL     1       9.960   4.040   4.346  1.00  0.00    -0.203 F 
ATOM     44  F   UNL     1      10.819   6.931   8.833  1.00  0.00    -0.200 F 
ATOM     45  C   UNL     1      11.640   5.569   7.098  1.00  0.00     0.200 A 
ATOM     46  F   UNL     1      12.403   4.293   5.264  1.00  0.00    -0.200 F 
ATOM     47  F   UNL     1      12.902   5.830   7.459  1.00  0.00    -0.200 F 
ENDBRANCH  23  37
BRANCH  24  48
ATOM     48  C   UNL     1       9.150   7.496  -1.986  1.00  0.00     0.064 A 
ATOM     49  C   UNL     1       9.808   8.734  -2.128  1.00  0.00     0.173 A 
ATOM     50  C   UNL     1       9.708   6.419  -2.701  1.00  0.00     0.173 A 
ATOM     51  F   UNL     1       9.374   9.812  -1.459  1.00  0.00    -0.203 F 
ATOM     52  C   UNL     1      10.975   8.870  -2.892  1.00  0.00     0.198 A 
ATOM     53  C   UNL     1      10.867   6.558  -3.469  1.00  0.00     0.198 A 
ATOM     54  F   UNL     1       9.204   5.183  -2.591  1.00  0.00    -0.203 F 
ATOM     55  F   UNL     1      11.615  10.048  -2.935  1.00  0.00    -0.200 F 
ATOM     56  C   UNL     1      11.512   7.777  -3.549  1.00  0.00     0.200 A 
ATOM     57  F   UNL     1      11.393   5.483  -4.074  1.00  0.00    -0.200 F 
ATOM     58  F   UNL     1      12.668   7.886  -4.219  1.00  0.00    -0.200 F 
ENDBRANCH  24  48
BRANCH  36  59
ATOM     59  C   UNL     1       5.005   9.160   2.439  1.00  0.00     0.064 A 
ATOM     60  C   UNL     1       4.304   8.645   1.334  1.00  0.00     0.173 A 
ATOM     61  C   UNL     1       4.433  10.245   3.119  1.00  0.00     0.173 A 
ATOM     62  F   UNL     1       4.743   7.559   0.683  1.00  0.00    -0.203 F 
ATOM     63  C   UNL     1       3.101   9.215   0.917  1.00  0.00     0.198 A 
ATOM     64  C   UNL     1       3.214  10.785   2.725  1.00  0.00     0.198 A 
ATOM     65  F   UNL     1       5.039  10.748   4.207  1.00  0.00    -0.203 F 
ATOM     66  F   UNL     1       2.454   8.717  -0.147  1.00  0.00    -0.200 F 
ATOM     67  C   UNL     1       2.552  10.276   1.620  1.00  0.00     0.200 A 
ATOM     68  F   UNL     1       2.666  11.779   3.437  1.00  0.00    -0.200 F 
ATOM     69  F   UNL     1       1.372  10.792   1.250  1.00  0.00    -0.200 F 
ENDBRANCH  36  59
ENDBRANCH  10  11
ENDBRANCH   3   5
ENDBRANCH   2   3
ENDBRANCH   1   2
BRANCH   1  70
ATOM     70  C   UNL     1       2.875   1.578  -1.302  1.00  0.00     0.275 C 
BRANCH  70  71
ATOM     71  O   UNL     1       2.459   1.530   0.062  1.00  0.00    -0.458 OA
BRANCH  71  72
ATOM     72  C   UNL     1       1.455   2.329   0.463  1.00  0.00     0.338 C 
ATOM     73  O   UNL     1       0.816   3.120  -0.207  1.00  0.00    -0.246 OA
BRANCH  72  74
ATOM     74  C   UNL     1       1.305   2.116   1.915  1.00  0.00     0.060 A 
ATOM     75  C   UNL     1       1.875   3.040   2.793  1.00  0.00     0.018 A 
ATOM     76  C   UNL     1       0.654   0.962   2.383  1.00  0.00     0.026 A 
ATOM     77  C   UNL     1       1.831   2.826   4.174  1.00  0.00     0.027 A 
ATOM     78  C   UNL     1       0.539   0.766   3.776  1.00  0.00     0.006 A 
ATOM     79  C   UNL     1       1.140   1.698   4.634  1.00  0.00     0.046 A 
ATOM     80  C   UNL     1      -0.141  -0.183   4.600  1.00  0.00     0.000 A 
ATOM     81  N   UNL     1       0.876   1.302   5.929  1.00  0.00    -0.358 N 
ATOM     82  C   UNL     1      -0.004   0.265   5.901  1.00  0.00     0.023 A 
ATOM     83  C   UNL     1      -1.037  -1.337   4.228  1.00  0.00     0.157 C 
ATOM     84  H   UNL     1       1.261   1.704   6.741  1.00  0.00     0.166 HD
ATOM     85  C   UNL     1      -0.841  -0.221   7.030  1.00  0.00     0.075 C 
ATOM     86  N   UNL     1      -1.869  -1.759   5.391  1.00  0.00    -0.338 N 
ATOM     87  C   UNL     1      -2.154  -0.709   6.382  1.00  0.00     0.126 C 
BRANCH  86  88
ATOM     88  C   UNL     1      -2.321  -3.075   5.386  1.00  0.00     0.225 C 
ATOM     89  O   UNL     1      -2.078  -3.811   4.429  1.00  0.00    -0.275 OA
BRANCH  88  90
ATOM     90  C   UNL     1      -3.123  -3.712   6.481  1.00  0.00     0.079 C 
ATOM     91  C   UNL     1      -3.408  -3.305   7.898  1.00  0.00     0.014 C 
ATOM     92  C   UNL     1      -4.478  -3.154   6.851  1.00  0.00     0.014 C 
ENDBRANCH  88  90
ENDBRANCH  86  88
ENDBRANCH  72  74
ENDBRANCH  71  72
ENDBRANCH  70  71
ENDBRANCH   1  70
TORSDOF 13
