REMARK SMILES Cc1ccc(S(=O)(=O)n2cc(C(=O)C(=O)N[C@@H](Cc3c[nH]c4ccccc34)C(=O)OCCOC(=O)c3ccc(-c4c5nc(c(-c6c(F)c(F)c(F)c(F)c6F)c6ccc([nH]6)c(-c6c(F)c(F)c(F)c(F)c6F)c6nc(c(-c7c(F)c(F)c(F)c(F)c7F)c7ccc4[nH]7)C=C6)C=C5)cc3)c3ccccc32)cc1
REMARK SMILES IDX 30 1 28 2 29 3 17 4 16 5 14 6 15 7 12 9 13 10 11 11 9 12
REMARK SMILES IDX 10 13 104 14 99 15 103 16 100 17 102 18 101 19 6 20 7 21
REMARK SMILES IDX 8 22 5 23 1 24 2 25 3 26 106 27 4 28 105 29 18 30 19 31
REMARK SMILES IDX 20 32 27 33 21 34 22 35 26 36 23 38 25 39 24 40 31 41 32 42
REMARK SMILES IDX 33 43 34 44 35 45 36 46 37 47 98 48 38 49 97 50 39 51 40 52
REMARK SMILES IDX 41 53 91 54 42 55 96 56 90 57 92 58 43 59 95 60 89 61 88 62
REMARK SMILES IDX 44 64 76 65 56 66 75 67 57 68 60 69 74 70 93 71 58 72 59 73
REMARK SMILES IDX 73 75 94 76 61 77 45 78 46 79 54 80 47 81 48 82 52 83 55 84
REMARK SMILES IDX 49 85 50 86 53 87 51 88 77 89 78 90 86 91 79 92 80 93 84 94
REMARK SMILES IDX 87 95 81 96 82 97 85 98 83 99 62 100 63 101 71 102 64 103
REMARK SMILES IDX 65 104 69 105 72 106 66 107 67 108 70 109 68 110
REMARK H PARENT 16 8 21 37 92 63 60 74
REMARK Flexibility Score: inf
ROOT
ATOM      1  O   UNL     1     -11.150   3.788  -2.145  1.00  0.00    -0.461 OA
ENDROOT
BRANCH   1   2
ATOM      2  C   UNL     1     -11.749   3.254  -1.042  1.00  0.00     0.329 C 
ATOM      3  O   UNL     1     -12.950   3.020  -0.973  1.00  0.00    -0.250 OA
BRANCH   2   4
ATOM      4  C   UNL     1     -10.728   2.830   0.031  1.00  0.00     0.197 C 
BRANCH   4   5
ATOM      5  N   UNL     1      -9.398   3.480  -0.139  1.00  0.00    -0.335 N 
ATOM      6  C   UNL     1      -8.107   2.952  -0.192  1.00  0.00     0.293 C 
ATOM      7  O   UNL     1      -7.149   3.697  -0.378  1.00  0.00    -0.265 OA
ATOM      8  H   UNL     1      -9.436   4.459  -0.231  1.00  0.00     0.164 HD
BRANCH   6   9
ATOM      9  C   UNL     1      -7.865   1.453   0.018  1.00  0.00     0.252 C 
ATOM     10  O   UNL     1      -8.859   0.794   0.333  1.00  0.00    -0.283 OA
BRANCH   9  11
ATOM     11  C   UNL     1      -6.569   0.742   0.002  1.00  0.00     0.054 A 
ATOM     12  N   UNL     1      -4.553  -0.079   0.568  1.00  0.00    -0.240 N 
ATOM     13  C   UNL     1      -5.220   1.092   0.183  1.00  0.00     0.117 A 
ATOM     14  C   UNL     1      -5.506  -1.110   0.634  1.00  0.00     0.065 A 
ATOM     15  C   UNL     1      -6.551  -0.676  -0.161  1.00  0.00     0.012 A 
ATOM     16  C   UNL     1      -5.401  -2.454   1.041  1.00  0.00     0.028 A 
ATOM     17  C   UNL     1      -7.383  -1.637  -0.772  1.00  0.00     0.011 A 
ATOM     18  C   UNL     1      -6.175  -3.393   0.366  1.00  0.00     0.002 A 
ATOM     19  C   UNL     1      -7.117  -2.994  -0.572  1.00  0.00     0.001 A 
BRANCH  12  20
ATOM     20  S   UNL     1      -3.018  -0.725   0.117  1.00  0.00     0.268 S 
ATOM     21  O   UNL     1      -3.285  -1.274  -1.205  1.00  0.00    -0.201 OA
ATOM     22  O   UNL     1      -2.756  -1.602   1.255  1.00  0.00    -0.201 OA
BRANCH  20  23
ATOM     23  C   UNL     1      -1.440   0.004  -0.053  1.00  0.00     0.088 A 
ATOM     24  C   UNL     1       2.827   0.655  -0.048  1.00  0.00     0.044 C 
ATOM     25  C   UNL     1       1.337   0.482  -0.117  1.00  0.00    -0.051 A 
ATOM     26  C   UNL     1       0.870  -0.808  -0.307  1.00  0.00     0.005 A 
ATOM     27  C   UNL     1       0.405   1.532   0.057  1.00  0.00     0.005 A 
ATOM     28  C   UNL     1      -0.491  -1.029  -0.292  1.00  0.00     0.022 A 
ATOM     29  C   UNL     1      -0.998   1.303   0.097  1.00  0.00     0.022 A 
ENDBRANCH  20  23
ENDBRANCH  12  20
ENDBRANCH   9  11
ENDBRANCH   6   9
ENDBRANCH   4   5
BRANCH   4  30
ATOM     30  C   UNL     1     -11.343   2.983   1.447  1.00  0.00     0.074 C 
BRANCH  30  31
ATOM     31  C   UNL     1     -12.139   4.248   1.588  1.00  0.00    -0.020 A 
ATOM     32  C   UNL     1     -13.507   4.387   1.451  1.00  0.00     0.087 A 
ATOM     33  C   UNL     1     -11.605   5.563   1.633  1.00  0.00     0.003 A 
ATOM     34  N   UNL     1     -13.807   5.713   1.322  1.00  0.00    -0.361 N 
ATOM     35  C   UNL     1     -12.647   6.445   1.347  1.00  0.00     0.046 A 
ATOM     36  C   UNL     1     -10.299   6.062   1.758  1.00  0.00     0.010 A 
ATOM     37  H   UNL     1     -14.713   6.086   1.226  1.00  0.00     0.166 HD
ATOM     38  C   UNL     1     -12.436   7.802   1.102  1.00  0.00     0.026 A 
ATOM     39  C   UNL     1     -10.068   7.414   1.513  1.00  0.00     0.001 A 
ATOM     40  C   UNL     1     -11.118   8.264   1.171  1.00  0.00     0.002 A 
ENDBRANCH  30  31
ENDBRANCH   4  30
ENDBRANCH   2   4
ENDBRANCH   1   2
BRANCH   1  41
ATOM     41  C   UNL     1     -12.038   4.021  -3.243  1.00  0.00     0.274 C 
BRANCH  41  42
ATOM     42  C   UNL     1     -11.401   3.611  -4.576  1.00  0.00     0.275 C 
BRANCH  42  43
ATOM     43  O   UNL     1     -10.819   2.284  -4.771  1.00  0.00    -0.458 OA
BRANCH  43  44
ATOM     44  C   UNL     1     -10.494   1.425  -3.768  1.00  0.00     0.338 C 
ATOM     45  O   UNL     1      -9.354   1.160  -3.447  1.00  0.00    -0.246 OA
BRANCH  44  46
ATOM     46  C   UNL     1     -11.675   0.776  -3.143  1.00  0.00     0.060 A 
ATOM     47  C   UNL     1     -11.554   0.090  -1.917  1.00  0.00     0.016 A 
ATOM     48  C   UNL     1     -12.926   1.046  -3.668  1.00  0.00     0.016 A 
ATOM     49  C   UNL     1     -12.688  -0.154  -1.124  1.00  0.00     0.010 A 
ATOM     50  C   UNL     1     -14.007   0.944  -2.832  1.00  0.00     0.010 A 
ATOM     51  C   UNL     1     -13.917   0.332  -1.562  1.00  0.00    -0.014 A 
BRANCH  51  52
ATOM     52  C   UNL     1     -15.241   0.165  -0.951  1.00  0.00     0.031 A 
ATOM     53  C   UNL     1     -15.755   0.968   0.190  1.00  0.00     0.074 A 
ATOM     54  C   UNL     1     -16.052  -0.547  -1.765  1.00  0.00     0.049 A 
ATOM     55  N   UNL     1     -16.904   1.575   0.192  1.00  0.00    -0.248 NA
ATOM     56  C   UNL     1     -15.015   1.135   1.447  1.00  0.00     0.031 C 
ATOM     57  C   UNL     1     -17.493  -0.654  -1.828  1.00  0.00     0.029 A 
ATOM     58  N   UNL     1     -15.610  -1.455  -2.745  1.00  0.00    -0.354 N 
ATOM     59  C   UNL     1     -17.121   2.094   1.458  1.00  0.00     0.074 A 
ATOM     60  C   UNL     1     -15.878   1.852   2.185  1.00  0.00     0.031 C 
ATOM     61  C   UNL     1     -17.806  -1.780  -2.500  1.00  0.00     0.029 A 
ATOM     62  C   UNL     1     -16.555  -2.482  -2.769  1.00  0.00     0.049 A 
ATOM     63  H   UNL     1     -14.800  -1.382  -3.300  1.00  0.00     0.167 HD
ATOM     64  C   UNL     1     -18.335   1.942   2.066  1.00  0.00     0.037 A 
ATOM     65  C   UNL     1     -16.172  -3.683  -2.241  1.00  0.00     0.037 A 
ATOM     66  C   UNL     1     -19.022   0.780   1.569  1.00  0.00     0.049 A 
ATOM     67  C   UNL     1     -16.972  -3.947  -0.997  1.00  0.00     0.074 A 
ATOM     68  C   UNL     1     -19.896   0.552   0.526  1.00  0.00     0.029 A 
ATOM     69  N   UNL     1     -18.622  -0.450   2.055  1.00  0.00    -0.354 N 
ATOM     70  N   UNL     1     -17.297  -3.035  -0.118  1.00  0.00    -0.248 NA
ATOM     71  C   UNL     1     -17.597  -5.241  -0.756  1.00  0.00     0.031 C 
ATOM     72  C   UNL     1     -19.971  -0.854   0.346  1.00  0.00     0.029 A 
ATOM     73  C   UNL     1     -19.163  -1.460   1.298  1.00  0.00     0.049 A 
ATOM     74  H   UNL     1     -18.033  -0.583   2.833  1.00  0.00     0.167 HD
ATOM     75  C   UNL     1     -18.240  -3.573   0.719  1.00  0.00     0.074 A 
ATOM     76  C   UNL     1     -18.366  -4.958   0.305  1.00  0.00     0.031 C 
ATOM     77  C   UNL     1     -18.938  -2.849   1.641  1.00  0.00     0.037 A 
BRANCH  64  78
ATOM     78  C   UNL     1     -19.007   3.059   2.827  1.00  0.00     0.064 A 
ATOM     79  C   UNL     1     -20.416   3.081   2.967  1.00  0.00     0.173 A 
ATOM     80  C   UNL     1     -18.332   4.173   3.359  1.00  0.00     0.173 A 
ATOM     81  F   UNL     1     -21.176   2.065   2.537  1.00  0.00    -0.203 F 
ATOM     82  C   UNL     1     -21.099   4.163   3.529  1.00  0.00     0.198 A 
ATOM     83  C   UNL     1     -19.020   5.248   3.942  1.00  0.00     0.198 A 
ATOM     84  F   UNL     1     -16.995   4.256   3.316  1.00  0.00    -0.203 F 
ATOM     85  F   UNL     1     -22.439   4.151   3.580  1.00  0.00    -0.200 F 
ATOM     86  C   UNL     1     -20.402   5.251   4.009  1.00  0.00     0.200 A 
ATOM     87  F   UNL     1     -18.335   6.297   4.422  1.00  0.00    -0.200 F 
ATOM     88  F   UNL     1     -21.058   6.299   4.527  1.00  0.00    -0.200 F 
ENDBRANCH  64  78
BRANCH  65  89
ATOM     89  C   UNL     1     -14.705  -3.948  -2.438  1.00  0.00     0.064 A 
ATOM     90  C   UNL     1     -14.216  -3.931  -3.767  1.00  0.00     0.173 A 
ATOM     91  C   UNL     1     -13.757  -3.809  -1.416  1.00  0.00     0.173 A 
ATOM     92  F   UNL     1     -15.073  -4.061  -4.794  1.00  0.00    -0.203 F 
ATOM     93  C   UNL     1     -12.886  -3.630  -4.057  1.00  0.00     0.198 A 
ATOM     94  C   UNL     1     -12.411  -3.547  -1.713  1.00  0.00     0.198 A 
ATOM     95  F   UNL     1     -14.134  -3.823  -0.130  1.00  0.00    -0.203 F 
ATOM     96  F   UNL     1     -12.500  -3.468  -5.332  1.00  0.00    -0.200 F 
ATOM     97  C   UNL     1     -11.988  -3.414  -3.029  1.00  0.00     0.200 A 
ATOM     98  F   UNL     1     -11.536  -3.334  -0.720  1.00  0.00    -0.200 F 
ATOM     99  F   UNL     1     -10.729  -3.040  -3.303  1.00  0.00    -0.200 F 
ENDBRANCH  65  89
BRANCH  77 100
ATOM    100  C   UNL     1     -19.600  -3.434   2.865  1.00  0.00     0.064 A 
ATOM    101  C   UNL     1     -19.266  -4.696   3.386  1.00  0.00     0.173 A 
ATOM    102  C   UNL     1     -20.483  -2.667   3.664  1.00  0.00     0.173 A 
ATOM    103  F   UNL     1     -18.308  -5.452   2.833  1.00  0.00    -0.203 F 
ATOM    104  C   UNL     1     -19.859  -5.204   4.540  1.00  0.00     0.198 A 
ATOM    105  C   UNL     1     -21.019  -3.150   4.857  1.00  0.00     0.198 A 
ATOM    106  F   UNL     1     -20.818  -1.409   3.345  1.00  0.00    -0.203 F 
ATOM    107  F   UNL     1     -19.549  -6.442   4.948  1.00  0.00    -0.200 F 
ATOM    108  C   UNL     1     -20.730  -4.431   5.279  1.00  0.00     0.200 A 
ATOM    109  F   UNL     1     -21.793  -2.355   5.608  1.00  0.00    -0.200 F 
ATOM    110  F   UNL     1     -21.263  -4.906   6.412  1.00  0.00    -0.200 F 
ENDBRANCH  77 100
ENDBRANCH  51  52
ENDBRANCH  44  46
ENDBRANCH  43  44
ENDBRANCH  42  43
ENDBRANCH  41  42
ENDBRANCH   1  41
TORSDOF 18
