REMARK SMILES CC(C)(C)OC(=O)N1CC[N@H+](Cc2ccc(Cl)nc2)[C@H](C(=O)OCCOC(=O)c2ccc(-c3c4nc(c(-c5c(F)c(F)c(F)c(F)c5F)c5ccc([nH]5)c(-c5c(F)c(F)c(F)c(F)c5F)c5nc(c(-c6c(F)c(F)c(F)c(F)c6F)c6ccc3[nH]6)C=C5)C=C4)cc2)C1
REMARK SMILES IDX 24 1 23 2 21 3 22 4 20 5 8 6 9 7 92 8 10 9 11 10 6 12 7 13
REMARK SMILES IDX 5 14 2 15 1 16 3 17 4 18 12 19 13 20 14 21 19 22 15 23 18 24
REMARK SMILES IDX 16 25 17 26 25 27 26 28 27 29 28 30 29 31 30 32 91 33 31 34
REMARK SMILES IDX 90 35 32 36 33 37 34 38 84 39 35 40 89 41 83 42 85 43 36 44
REMARK SMILES IDX 88 45 82 46 81 47 37 49 69 50 49 51 68 52 50 53 53 54 67 55
REMARK SMILES IDX 86 56 51 57 52 58 66 60 87 61 54 62 38 63 39 64 47 65 40 66
REMARK SMILES IDX 41 67 45 68 48 69 42 70 43 71 46 72 44 73 70 74 71 75 79 76
REMARK SMILES IDX 72 77 73 78 77 79 80 80 74 81 75 82 78 83 76 84 55 85 56 86
REMARK SMILES IDX 64 87 57 88 58 89 62 90 65 91 59 92 60 93 63 94 61 95
REMARK H PARENT 11 11 85 48 53 59
REMARK Flexibility Score: inf
ROOT
ATOM      1  C   UNL     1       6.155   5.671  -3.753  1.00  0.00     0.274 C 
ENDROOT
BRANCH   1   2
ATOM      2  O   UNL     1       4.750   5.482  -4.017  1.00  0.00    -0.458 OA
BRANCH   2   3
ATOM      3  C   UNL     1       4.105   4.551  -3.275  1.00  0.00     0.366 C 
ATOM      4  O   UNL     1       4.673   3.827  -2.459  1.00  0.00    -0.245 OA
BRANCH   3   5
ATOM      5  C   UNL     1       2.589   4.490  -3.473  1.00  0.00     0.315 C 
ATOM      6  N   UNL     1       0.658   2.930  -3.580  1.00  0.00    -0.296 N 
ATOM      7  C   UNL     1      -0.109   3.908  -4.338  1.00  0.00     0.184 C 
ATOM      8  C   UNL     1       2.120   3.037  -3.639  1.00  0.00     0.200 C 
ATOM      9  C   UNL     1       0.454   5.343  -4.237  1.00  0.00     0.285 C 
ATOM     10  N   UNL     1       1.920   5.491  -4.352  1.00  0.00    -0.316 N 
ATOM     11  H   UNL     1       2.240   6.379  -3.966  1.00  0.00     0.349 HD
BRANCH   6  12
ATOM     12  C   UNL     1       0.012   1.806  -3.102  1.00  0.00     0.410 C 
ATOM     13  O   UNL     1      -1.122   1.499  -3.441  1.00  0.00    -0.224 OA
BRANCH  12  14
ATOM     14  O   UNL     1       0.761   1.147  -2.187  1.00  0.00    -0.444 OA
BRANCH  14  15
ATOM     15  C   UNL     1       0.310  -0.064  -1.522  1.00  0.00     0.106 C 
ATOM     16  C   UNL     1       1.065  -0.081  -0.185  1.00  0.00     0.056 C 
ATOM     17  C   UNL     1       0.745  -1.258  -2.373  1.00  0.00     0.056 C 
ATOM     18  C   UNL     1      -1.193  -0.119  -1.217  1.00  0.00     0.056 C 
ENDBRANCH  14  15
ENDBRANCH  12  14
ENDBRANCH   6  12
BRANCH  10  19
ATOM     19  C   UNL     1       2.397   5.736  -5.715  1.00  0.00     0.301 C 
BRANCH  19  20
ATOM     20  C   UNL     1       2.468   4.556  -6.641  1.00  0.00     0.025 A 
ATOM     21  C   UNL     1       1.356   4.125  -7.370  1.00  0.00     0.014 A 
ATOM     22  C   UNL     1       3.645   3.827  -6.784  1.00  0.00     0.122 A 
ATOM     23  C   UNL     1       1.426   2.947  -8.107  1.00  0.00     0.041 A 
ATOM     24  N   UNL     1       3.749   2.687  -7.500  1.00  0.00    -0.244 NA
ATOM     25  C   UNL     1       2.630   2.268  -8.123  1.00  0.00     0.129 A 
ATOM     26  Cl  UNL     1       2.786   0.775  -8.948  1.00  0.00    -0.062 Cl
ENDBRANCH  19  20
ENDBRANCH  10  19
ENDBRANCH   3   5
ENDBRANCH   2   3
ENDBRANCH   1   2
BRANCH   1  27
ATOM     27  C   UNL     1       6.397   6.980  -2.998  1.00  0.00     0.275 C 
BRANCH  27  28
ATOM     28  O   UNL     1       5.862   6.928  -1.661  1.00  0.00    -0.458 OA
BRANCH  28  29
ATOM     29  C   UNL     1       4.591   7.378  -1.536  1.00  0.00     0.338 C 
ATOM     30  O   UNL     1       3.878   7.837  -2.412  1.00  0.00    -0.246 OA
BRANCH  29  31
ATOM     31  C   UNL     1       4.107   7.124  -0.170  1.00  0.00     0.060 A 
ATOM     32  C   UNL     1       2.962   6.338  -0.020  1.00  0.00     0.016 A 
ATOM     33  C   UNL     1       4.709   7.712   0.943  1.00  0.00     0.016 A 
ATOM     34  C   UNL     1       2.414   6.122   1.238  1.00  0.00     0.010 A 
ATOM     35  C   UNL     1       4.151   7.508   2.209  1.00  0.00     0.010 A 
ATOM     36  C   UNL     1       2.997   6.718   2.361  1.00  0.00    -0.014 A 
BRANCH  36  37
ATOM     37  C   UNL     1       2.340   6.566   3.678  1.00  0.00     0.031 A 
ATOM     38  C   UNL     1       1.531   7.699   4.236  1.00  0.00     0.074 A 
ATOM     39  C   UNL     1       2.428   5.399   4.340  1.00  0.00     0.049 A 
ATOM     40  N   UNL     1       0.938   7.801   5.397  1.00  0.00    -0.248 NA
ATOM     41  C   UNL     1       1.364   8.874   3.367  1.00  0.00     0.031 C 
ATOM     42  C   UNL     1       3.128   4.208   3.859  1.00  0.00     0.029 A 
ATOM     43  N   UNL     1       1.923   5.024   5.558  1.00  0.00    -0.354 N 
ATOM     44  C   UNL     1       0.343   9.055   5.407  1.00  0.00     0.074 A 
ATOM     45  C   UNL     1       0.657   9.684   4.142  1.00  0.00     0.031 C 
ATOM     46  C   UNL     1       3.007   3.233   4.774  1.00  0.00     0.029 A 
ATOM     47  C   UNL     1       2.265   3.746   5.922  1.00  0.00     0.049 A 
ATOM     48  H   UNL     1       1.368   5.615   6.117  1.00  0.00     0.167 HD
ATOM     49  C   UNL     1      -0.398   9.624   6.387  1.00  0.00     0.037 A 
ATOM     50  C   UNL     1       2.029   3.079   7.067  1.00  0.00     0.037 A 
ATOM     51  C   UNL     1      -0.716   8.986   7.637  1.00  0.00     0.049 A 
ATOM     52  C   UNL     1       1.264   3.762   8.168  1.00  0.00     0.074 A 
ATOM     53  C   UNL     1      -1.451   9.481   8.699  1.00  0.00     0.029 A 
ATOM     54  N   UNL     1      -0.315   7.705   7.990  1.00  0.00    -0.354 N 
ATOM     55  N   UNL     1       0.729   4.959   8.184  1.00  0.00    -0.248 NA
ATOM     56  C   UNL     1       1.076   3.004   9.412  1.00  0.00     0.031 C 
ATOM     57  C   UNL     1      -1.466   8.513   9.710  1.00  0.00     0.029 A 
ATOM     58  C   UNL     1      -0.775   7.399   9.261  1.00  0.00     0.049 A 
ATOM     59  H   UNL     1       0.216   7.102   7.421  1.00  0.00     0.167 HD
ATOM     60  C   UNL     1       0.127   5.092   9.427  1.00  0.00     0.074 A 
ATOM     61  C   UNL     1       0.349   3.846  10.133  1.00  0.00     0.031 C 
ATOM     62  C   UNL     1      -0.547   6.150   9.941  1.00  0.00     0.037 A 
BRANCH  49  63
ATOM     63  C   UNL     1      -0.888  11.023   6.156  1.00  0.00     0.064 A 
ATOM     64  C   UNL     1      -1.935  11.300   5.266  1.00  0.00     0.173 A 
ATOM     65  C   UNL     1      -0.317  12.096   6.856  1.00  0.00     0.173 A 
ATOM     66  F   UNL     1      -2.501  10.310   4.560  1.00  0.00    -0.203 F 
ATOM     67  C   UNL     1      -2.378  12.606   5.069  1.00  0.00     0.198 A 
ATOM     68  C   UNL     1      -0.779  13.396   6.675  1.00  0.00     0.198 A 
ATOM     69  F   UNL     1       0.686  11.883   7.721  1.00  0.00    -0.203 F 
ATOM     70  F   UNL     1      -3.352  12.854   4.182  1.00  0.00    -0.200 F 
ATOM     71  C   UNL     1      -1.805  13.651   5.777  1.00  0.00     0.200 A 
ATOM     72  F   UNL     1      -0.229  14.404   7.366  1.00  0.00    -0.200 F 
ATOM     73  F   UNL     1      -2.235  14.906   5.589  1.00  0.00    -0.200 F 
ENDBRANCH  49  63
BRANCH  50  74
ATOM     74  C   UNL     1       2.548   1.698   7.240  1.00  0.00     0.064 A 
ATOM     75  C   UNL     1       1.678   0.602   7.297  1.00  0.00     0.173 A 
ATOM     76  C   UNL     1       3.923   1.449   7.360  1.00  0.00     0.173 A 
ATOM     77  F   UNL     1       0.353   0.793   7.215  1.00  0.00    -0.203 F 
ATOM     78  C   UNL     1       2.163  -0.692   7.479  1.00  0.00     0.198 A 
ATOM     79  C   UNL     1       4.409   0.153   7.515  1.00  0.00     0.198 A 
ATOM     80  F   UNL     1       4.796   2.466   7.316  1.00  0.00    -0.203 F 
ATOM     81  F   UNL     1       1.308  -1.719   7.572  1.00  0.00    -0.200 F 
ATOM     82  C   UNL     1       3.529  -0.916   7.582  1.00  0.00     0.200 A 
ATOM     83  F   UNL     1       5.729  -0.059   7.603  1.00  0.00    -0.200 F 
ATOM     84  F   UNL     1       3.995  -2.160   7.753  1.00  0.00    -0.200 F 
ENDBRANCH  50  74
BRANCH  62  85
ATOM     85  C   UNL     1      -1.117   5.993  11.319  1.00  0.00     0.064 A 
ATOM     86  C   UNL     1      -0.299   6.023  12.457  1.00  0.00     0.173 A 
ATOM     87  C   UNL     1      -2.500   5.848  11.502  1.00  0.00     0.173 A 
ATOM     88  F   UNL     1       1.031   6.144  12.330  1.00  0.00    -0.203 F 
ATOM     89  C   UNL     1      -0.845   5.891  13.731  1.00  0.00     0.198 A 
ATOM     90  C   UNL     1      -3.044   5.741  12.779  1.00  0.00     0.198 A 
ATOM     91  F   UNL     1      -3.323   5.818  10.444  1.00  0.00    -0.203 F 
ATOM     92  F   UNL     1      -0.042   5.880  14.804  1.00  0.00    -0.200 F 
ATOM     93  C   UNL     1      -2.216   5.757  13.891  1.00  0.00     0.200 A 
ATOM     94  F   UNL     1      -4.370   5.621  12.932  1.00  0.00    -0.200 F 
ATOM     95  F   UNL     1      -2.740   5.635  15.119  1.00  0.00    -0.200 F 
ENDBRANCH  62  85
ENDBRANCH  36  37
ENDBRANCH  29  31
ENDBRANCH  28  29
ENDBRANCH  27  28
ENDBRANCH   1  27
TORSDOF 16
