REMARK SMILES Cc1c(C(=O)OCCOC(=O)c2ccc(-c3c4nc(c(-c5c(F)c(F)c(F)c(F)c5F)c5ccc([nH]5)c(-c5c(F)c(F)c(F)c(F)c5F)c5nc(c(-c6c(F)c(F)c(F)c(F)c6F)c6ccc3[nH]6)C=C5)C=C4)cc2)sc2ncnc(NCc3cn4c(n3)SCC4)c12
REMARK SMILES IDX 7 1 6 2 4 3 5 4 3 5 1 6 2 7 91 8 75 9 76 10 80 11 77 12
REMARK SMILES IDX 79 13 78 14 81 15 82 17 83 18 84 19 87 20 85 21 86 22 90 23
REMARK SMILES IDX 88 24 89 25 8 26 9 27 10 28 11 29 12 30 13 31 74 32 14 33
REMARK SMILES IDX 73 34 15 35 16 36 17 37 67 38 18 39 72 40 66 41 68 42 19 43
REMARK SMILES IDX 71 44 65 45 64 46 20 48 52 49 32 50 51 51 33 52 36 53 50 54
REMARK SMILES IDX 69 55 34 56 35 57 49 59 70 60 37 61 21 62 22 63 30 64 23 65
REMARK SMILES IDX 24 66 28 67 31 68 25 69 26 70 29 71 27 72 53 73 54 74 62 75
REMARK SMILES IDX 55 76 56 77 60 78 63 79 57 80 58 81 61 82 59 83 38 84 39 85
REMARK SMILES IDX 47 86 40 87 41 88 45 89 48 90 42 91 43 92 46 93 44 94
REMARK H PARENT 81 16 68 47 36 58
REMARK Flexibility Score: inf
ROOT
ATOM      1  C   UNL     1      -0.499   3.652  -3.821  1.00  0.00     0.275 C 
ENDROOT
BRANCH   1   2
ATOM      2  O   UNL     1      -0.302   2.226  -3.811  1.00  0.00    -0.458 OA
BRANCH   2   3
ATOM      3  C   UNL     1       0.624   1.746  -2.924  1.00  0.00     0.348 C 
ATOM      4  O   UNL     1       1.361   2.470  -2.259  1.00  0.00    -0.245 OA
BRANCH   3   5
ATOM      5  C   UNL     1       0.570   0.290  -2.811  1.00  0.00     0.118 A 
ATOM      6  C   UNL     1       1.218   0.103  -0.374  1.00  0.00     0.047 C 
ATOM      7  C   UNL     1       0.884  -0.500  -1.698  1.00  0.00    -0.012 A 
ATOM      8  C   UNL     1       0.817  -1.937  -1.990  1.00  0.00     0.058 A 
ATOM      9  S   UNL     1       0.069  -0.654  -4.132  1.00  0.00    -0.108 S 
ATOM     10  C   UNL     1       0.347  -2.101  -3.294  1.00  0.00     0.129 A 
ATOM     11  C   UNL     1       1.091  -3.158  -1.306  1.00  0.00     0.138 A 
ATOM     12  N   UNL     1       0.112  -3.250  -3.946  1.00  0.00    -0.225 NA
ATOM     13  N   UNL     1       0.840  -4.324  -1.958  1.00  0.00    -0.219 NA
ATOM     14  C   UNL     1       0.379  -4.315  -3.209  1.00  0.00     0.225 A 
BRANCH  11  15
ATOM     15  N   UNL     1       1.618  -3.441  -0.081  1.00  0.00    -0.364 N 
ATOM     16  H   UNL     1       1.684  -4.411   0.075  1.00  0.00     0.162 HD
BRANCH  15  17
ATOM     17  C   UNL     1       2.101  -2.681   1.041  1.00  0.00     0.172 C 
BRANCH  17  18
ATOM     18  C   UNL     1       1.146  -2.491   2.184  1.00  0.00     0.079 A 
ATOM     19  C   UNL     1       0.075  -3.297   2.562  1.00  0.00     0.113 A 
ATOM     20  N   UNL     1       1.267  -1.399   3.039  1.00  0.00    -0.226 NA
ATOM     21  N   UNL     1      -0.444  -2.670   3.638  1.00  0.00    -0.325 N 
ATOM     22  C   UNL     1       0.289  -1.558   3.885  1.00  0.00     0.168 A 
ATOM     23  C   UNL     1      -1.590  -2.909   4.484  1.00  0.00     0.135 C 
ATOM     24  S   UNL     1      -0.359  -0.605   5.154  1.00  0.00    -0.086 SA
ATOM     25  C   UNL     1      -1.941  -1.552   5.097  1.00  0.00     0.100 C 
ENDBRANCH  17  18
ENDBRANCH  15  17
ENDBRANCH  11  15
ENDBRANCH   3   5
ENDBRANCH   2   3
ENDBRANCH   1   2
BRANCH   1  26
ATOM     26  C   UNL     1      -1.652   4.085  -2.916  1.00  0.00     0.275 C 
BRANCH  26  27
ATOM     27  O   UNL     1      -1.337   3.998  -1.522  1.00  0.00    -0.458 OA
BRANCH  27  28
ATOM     28  C   UNL     1      -1.617   2.793  -0.986  1.00  0.00     0.338 C 
ATOM     29  O   UNL     1      -1.833   1.748  -1.580  1.00  0.00    -0.246 OA
BRANCH  28  30
ATOM     30  C   UNL     1      -1.859   2.897   0.450  1.00  0.00     0.060 A 
ATOM     31  C   UNL     1      -1.766   1.712   1.182  1.00  0.00     0.016 A 
ATOM     32  C   UNL     1      -2.498   4.034   0.958  1.00  0.00     0.016 A 
ATOM     33  C   UNL     1      -2.454   1.608   2.367  1.00  0.00     0.010 A 
ATOM     34  C   UNL     1      -3.182   3.929   2.152  1.00  0.00     0.010 A 
ATOM     35  C   UNL     1      -3.217   2.691   2.803  1.00  0.00    -0.014 A 
BRANCH  35  36
ATOM     36  C   UNL     1      -4.039   2.487   3.986  1.00  0.00     0.031 A 
ATOM     37  C   UNL     1      -3.274   2.286   5.249  1.00  0.00     0.074 A 
ATOM     38  C   UNL     1      -5.381   2.589   3.903  1.00  0.00     0.049 A 
ATOM     39  N   UNL     1      -3.487   1.431   6.198  1.00  0.00    -0.248 NA
ATOM     40  C   UNL     1      -2.059   3.101   5.441  1.00  0.00     0.031 C 
ATOM     41  C   UNL     1      -6.165   3.000   2.730  1.00  0.00     0.029 A 
ATOM     42  N   UNL     1      -6.325   2.488   4.882  1.00  0.00    -0.354 N 
ATOM     43  C   UNL     1      -2.518   1.693   7.168  1.00  0.00     0.074 A 
ATOM     44  C   UNL     1      -1.610   2.659   6.613  1.00  0.00     0.031 C 
ATOM     45  C   UNL     1      -7.399   3.368   3.131  1.00  0.00     0.029 A 
ATOM     46  C   UNL     1      -7.524   3.106   4.553  1.00  0.00     0.049 A 
ATOM     47  H   UNL     1      -6.172   2.023   5.736  1.00  0.00     0.167 HD
ATOM     48  C   UNL     1      -2.627   1.244   8.447  1.00  0.00     0.037 A 
ATOM     49  C   UNL     1      -8.493   3.481   5.420  1.00  0.00     0.037 A 
ATOM     50  C   UNL     1      -3.576   0.179   8.581  1.00  0.00     0.049 A 
ATOM     51  C   UNL     1      -8.335   2.675   6.655  1.00  0.00     0.074 A 
ATOM     52  C   UNL     1      -3.552  -1.196   8.573  1.00  0.00     0.029 A 
ATOM     53  N   UNL     1      -4.881   0.567   8.484  1.00  0.00    -0.354 N 
ATOM     54  N   UNL     1      -8.503   1.383   6.706  1.00  0.00    -0.248 NA
ATOM     55  C   UNL     1      -7.675   3.265   7.817  1.00  0.00     0.031 C 
ATOM     56  C   UNL     1      -4.883  -1.618   8.277  1.00  0.00     0.029 A 
ATOM     57  C   UNL     1      -5.691  -0.490   8.165  1.00  0.00     0.049 A 
ATOM     58  H   UNL     1      -5.199   1.488   8.624  1.00  0.00     0.167 HD
ATOM     59  C   UNL     1      -7.628   0.962   7.686  1.00  0.00     0.074 A 
ATOM     60  C   UNL     1      -7.295   2.154   8.453  1.00  0.00     0.031 C 
ATOM     61  C   UNL     1      -6.995  -0.242   7.598  1.00  0.00     0.037 A 
BRANCH  48  62
ATOM     62  C   UNL     1      -2.173   2.044   9.639  1.00  0.00     0.064 A 
ATOM     63  C   UNL     1      -2.048   1.432  10.899  1.00  0.00     0.173 A 
ATOM     64  C   UNL     1      -2.160   3.456   9.635  1.00  0.00     0.173 A 
ATOM     65  F   UNL     1      -2.091   0.097  11.017  1.00  0.00    -0.203 F 
ATOM     66  C   UNL     1      -1.948   2.186  12.073  1.00  0.00     0.198 A 
ATOM     67  C   UNL     1      -2.008   4.203  10.801  1.00  0.00     0.198 A 
ATOM     68  F   UNL     1      -2.406   4.158   8.520  1.00  0.00    -0.203 F 
ATOM     69  F   UNL     1      -1.930   1.568  13.262  1.00  0.00    -0.200 F 
ATOM     70  C   UNL     1      -1.927   3.569  12.023  1.00  0.00     0.200 A 
ATOM     71  F   UNL     1      -2.020   5.542  10.733  1.00  0.00    -0.200 F 
ATOM     72  F   UNL     1      -1.877   4.292  13.149  1.00  0.00    -0.200 F 
ENDBRANCH  48  62
BRANCH  49  73
ATOM     73  C   UNL     1      -9.331   4.705   5.367  1.00  0.00     0.064 A 
ATOM     74  C   UNL     1     -10.445   4.842   6.212  1.00  0.00     0.173 A 
ATOM     75  C   UNL     1      -8.906   5.873   4.702  1.00  0.00     0.173 A 
ATOM     76  F   UNL     1     -10.895   3.790   6.911  1.00  0.00    -0.203 F 
ATOM     77  C   UNL     1     -11.066   6.079   6.414  1.00  0.00     0.198 A 
ATOM     78  C   UNL     1      -9.537   7.103   4.891  1.00  0.00     0.198 A 
ATOM     79  F   UNL     1      -7.811   5.874   3.930  1.00  0.00    -0.203 F 
ATOM     80  F   UNL     1     -12.073   6.184   7.291  1.00  0.00    -0.200 F 
ATOM     81  C   UNL     1     -10.603   7.210   5.763  1.00  0.00     0.200 A 
ATOM     82  F   UNL     1      -9.059   8.194   4.276  1.00  0.00    -0.200 F 
ATOM     83  F   UNL     1     -11.154   8.407   6.007  1.00  0.00    -0.200 F 
ENDBRANCH  49  73
BRANCH  61  84
ATOM     84  C   UNL     1      -7.608  -1.279   6.709  1.00  0.00     0.064 A 
ATOM     85  C   UNL     1      -7.722  -1.152   5.316  1.00  0.00     0.173 A 
ATOM     86  C   UNL     1      -8.053  -2.475   7.285  1.00  0.00     0.173 A 
ATOM     87  F   UNL     1      -7.225  -0.085   4.680  1.00  0.00    -0.203 F 
ATOM     88  C   UNL     1      -8.314  -2.150   4.545  1.00  0.00     0.198 A 
ATOM     89  C   UNL     1      -8.604  -3.490   6.509  1.00  0.00     0.198 A 
ATOM     90  F   UNL     1      -7.919  -2.677   8.606  1.00  0.00    -0.203 F 
ATOM     91  F   UNL     1      -8.437  -1.991   3.219  1.00  0.00    -0.200 F 
ATOM     92  C   UNL     1      -8.750  -3.321   5.142  1.00  0.00     0.200 A 
ATOM     93  F   UNL     1      -8.973  -4.642   7.084  1.00  0.00    -0.200 F 
ATOM     94  F   UNL     1      -9.287  -4.297   4.397  1.00  0.00    -0.200 F 
ENDBRANCH  61  84
ENDBRANCH  35  36
ENDBRANCH  28  30
ENDBRANCH  27  28
ENDBRANCH  26  27
ENDBRANCH   1  26
TORSDOF 14
