REMARK SMILES O=C(CSc1nc2[nH]cnc2c(=O)[nH]1)NCCC(=O)OCCOC(=O)c1ccc(-c2c3nc(c(-c4c(F)c(F)c(F)c(F)c4F)c4ccc([nH]4)c(-c4c(F)c(F)c(F)c(F)c4F)c4nc(c(-c5c(F)c(F)c(F)c(F)c5F)c5ccc2[nH]5)C=C4)C=C3)cc1
REMARK SMILES IDX 20 1 18 2 19 3 17 4 16 5 15 6 1 7 2 8 3 10 4 11 5 12 6 13
REMARK SMILES IDX 14 14 7 15 12 16 8 18 11 19 13 20 9 21 10 23 21 24 22 25
REMARK SMILES IDX 23 26 24 27 25 28 26 29 27 30 88 31 28 32 87 33 29 34 30 35
REMARK SMILES IDX 31 36 81 37 32 38 86 39 80 40 82 41 33 42 85 43 79 44 78 45
REMARK SMILES IDX 34 47 66 48 46 49 65 50 47 51 50 52 64 53 83 54 48 55 49 56
REMARK SMILES IDX 63 58 84 59 51 60 35 61 36 62 44 63 37 64 38 65 42 66 45 67
REMARK SMILES IDX 39 68 40 69 43 70 41 71 67 72 68 73 76 74 69 75 70 76 74 77
REMARK SMILES IDX 77 78 71 79 72 80 75 81 73 82 52 83 53 84 61 85 54 86 55 87
REMARK SMILES IDX 59 88 62 89 56 90 57 91 60 92 58 93
REMARK H PARENT 15 9 14 17 8 22 82 46 50 57
REMARK Flexibility Score: inf
ROOT
ATOM      1  O   UNL     1       4.876  -2.672   0.450  1.00  0.00    -0.462 OA
ENDROOT
BRANCH   1   2
ATOM      2  C   UNL     1       3.920  -3.638   0.393  1.00  0.00     0.307 C 
ATOM      3  O   UNL     1       4.134  -4.840   0.498  1.00  0.00    -0.252 OA
BRANCH   2   4
ATOM      4  C   UNL     1       2.545  -3.079   0.122  1.00  0.00     0.144 C 
BRANCH   4   5
ATOM      5  C   UNL     1       2.180  -1.895   1.004  1.00  0.00     0.127 C 
BRANCH   5   6
ATOM      6  N   UNL     1       2.760  -0.662   0.520  1.00  0.00    -0.355 N 
ATOM      7  O   UNL     1       0.880   0.081  -0.547  1.00  0.00    -0.274 OA
ATOM      8  C   UNL     1       2.056   0.250  -0.229  1.00  0.00     0.230 C 
ATOM      9  H   UNL     1       3.701  -0.467   0.737  1.00  0.00     0.163 HD
BRANCH   8  10
ATOM     10  C   UNL     1       2.861   1.409  -0.786  1.00  0.00     0.178 C 
BRANCH  10  11
ATOM     11  S   UNL     1       4.125   2.057   0.342  1.00  0.00    -0.078 SA
BRANCH  11  12
ATOM     12  C   UNL     1       3.088   2.822   1.504  1.00  0.00     0.170 A 
ATOM     13  N   UNL     1       2.256   2.138   2.229  1.00  0.00    -0.204 NA
ATOM     14  N   UNL     1       3.278   4.185   1.563  1.00  0.00    -0.299 N 
ATOM     15  C   UNL     1       1.567   2.925   3.085  1.00  0.00     0.165 A 
ATOM     16  C   UNL     1       2.581   5.020   2.423  1.00  0.00     0.279 A 
ATOM     17  H   UNL     1       3.945   4.589   0.962  1.00  0.00     0.172 HD
ATOM     18  N   UNL     1       0.636   2.505   3.985  1.00  0.00    -0.329 N 
ATOM     19  C   UNL     1       1.647   4.289   3.256  1.00  0.00     0.172 A 
ATOM     20  O   UNL     1       2.767   6.232   2.443  1.00  0.00    -0.267 OA
ATOM     21  C   UNL     1       0.200   3.617   4.660  1.00  0.00     0.199 A 
ATOM     22  H   UNL     1       0.333   1.578   4.125  1.00  0.00     0.169 HD
ATOM     23  N   UNL     1       0.793   4.717   4.239  1.00  0.00    -0.229 NA
ENDBRANCH  11  12
ENDBRANCH  10  11
ENDBRANCH   8  10
ENDBRANCH   5   6
ENDBRANCH   4   5
ENDBRANCH   2   4
ENDBRANCH   1   2
BRANCH   1  24
ATOM     24  C   UNL     1       6.233  -3.124   0.637  1.00  0.00     0.274 C 
BRANCH  24  25
ATOM     25  C   UNL     1       6.671  -3.044   2.102  1.00  0.00     0.275 C 
BRANCH  25  26
ATOM     26  O   UNL     1       5.987  -4.013   2.917  1.00  0.00    -0.458 OA
BRANCH  26  27
ATOM     27  C   UNL     1       4.870  -3.554   3.523  1.00  0.00     0.338 C 
ATOM     28  O   UNL     1       4.427  -2.417   3.490  1.00  0.00    -0.246 OA
BRANCH  27  29
ATOM     29  C   UNL     1       4.149  -4.658   4.173  1.00  0.00     0.060 A 
ATOM     30  C   UNL     1       2.850  -4.941   3.739  1.00  0.00     0.016 A 
ATOM     31  C   UNL     1       4.689  -5.317   5.278  1.00  0.00     0.016 A 
ATOM     32  C   UNL     1       2.067  -5.857   4.435  1.00  0.00     0.010 A 
ATOM     33  C   UNL     1       3.903  -6.243   5.973  1.00  0.00     0.010 A 
ATOM     34  C   UNL     1       2.577  -6.493   5.575  1.00  0.00    -0.014 A 
BRANCH  34  35
ATOM     35  C   UNL     1       1.680  -7.336   6.402  1.00  0.00     0.031 A 
ATOM     36  C   UNL     1       1.145  -6.796   7.699  1.00  0.00     0.074 A 
ATOM     37  C   UNL     1       1.315  -8.559   5.978  1.00  0.00     0.049 A 
ATOM     38  N   UNL     1       0.364  -7.369   8.580  1.00  0.00    -0.248 NA
ATOM     39  C   UNL     1       1.545  -5.425   8.054  1.00  0.00     0.031 C 
ATOM     40  C   UNL     1       1.738  -9.177   4.723  1.00  0.00     0.029 A 
ATOM     41  N   UNL     1       0.499  -9.497   6.559  1.00  0.00    -0.354 N 
ATOM     42  C   UNL     1       0.196  -6.441   9.598  1.00  0.00     0.074 A 
ATOM     43  C   UNL     1       0.972  -5.273   9.239  1.00  0.00     0.031 C 
ATOM     44  C   UNL     1       1.172 -10.392   4.624  1.00  0.00     0.029 A 
ATOM     45  C   UNL     1       0.376 -10.648   5.822  1.00  0.00     0.049 A 
ATOM     46  H   UNL     1       0.047  -9.358   7.422  1.00  0.00     0.167 HD
ATOM     47  C   UNL     1      -0.544  -6.550  10.728  1.00  0.00     0.037 A 
ATOM     48  C   UNL     1      -0.295 -11.784   6.091  1.00  0.00     0.037 A 
ATOM     49  C   UNL     1      -1.333  -7.704  11.074  1.00  0.00     0.049 A 
ATOM     50  C   UNL     1      -1.082 -11.892   7.370  1.00  0.00     0.074 A 
ATOM     51  C   UNL     1      -2.135  -7.900  12.185  1.00  0.00     0.029 A 
ATOM     52  N   UNL     1      -1.418  -8.858  10.311  1.00  0.00    -0.354 N 
ATOM     53  N   UNL     1      -1.250 -11.002   8.318  1.00  0.00    -0.248 NA
ATOM     54  C   UNL     1      -1.777 -13.164   7.613  1.00  0.00     0.031 C 
ATOM     55  C   UNL     1      -2.674  -9.190  12.114  1.00  0.00     0.029 A 
ATOM     56  C   UNL     1      -2.246  -9.778  10.935  1.00  0.00     0.049 A 
ATOM     57  H   UNL     1      -0.959  -9.003   9.452  1.00  0.00     0.167 HD
ATOM     58  C   UNL     1      -2.093 -11.592   9.250  1.00  0.00     0.074 A 
ATOM     59  C   UNL     1      -2.410 -12.913   8.750  1.00  0.00     0.031 C 
ATOM     60  C   UNL     1      -2.566 -11.083  10.415  1.00  0.00     0.037 A 
BRANCH  47  61
ATOM     61  C   UNL     1      -0.514  -5.398  11.688  1.00  0.00     0.064 A 
ATOM     62  C   UNL     1      -1.162  -4.186  11.410  1.00  0.00     0.173 A 
ATOM     63  C   UNL     1       0.151  -5.520  12.918  1.00  0.00     0.173 A 
ATOM     64  F   UNL     1      -1.799  -4.013  10.242  1.00  0.00    -0.203 F 
ATOM     65  C   UNL     1      -1.124  -3.129  12.317  1.00  0.00     0.198 A 
ATOM     66  C   UNL     1       0.165  -4.471  13.833  1.00  0.00     0.198 A 
ATOM     67  F   UNL     1       0.784  -6.660  13.234  1.00  0.00    -0.203 F 
ATOM     68  F   UNL     1      -1.711  -1.964  12.010  1.00  0.00    -0.200 F 
ATOM     69  C   UNL     1      -0.467  -3.275  13.529  1.00  0.00     0.200 A 
ATOM     70  F   UNL     1       0.792  -4.617  15.008  1.00  0.00    -0.200 F 
ATOM     71  F   UNL     1      -0.434  -2.258  14.402  1.00  0.00    -0.200 F 
ENDBRANCH  47  61
BRANCH  48  72
ATOM     72  C   UNL     1      -0.262 -12.911   5.125  1.00  0.00     0.064 A 
ATOM     73  C   UNL     1      -1.405 -13.271   4.398  1.00  0.00     0.173 A 
ATOM     74  C   UNL     1       0.906 -13.659   4.919  1.00  0.00     0.173 A 
ATOM     75  F   UNL     1      -2.553 -12.601   4.580  1.00  0.00    -0.203 F 
ATOM     76  C   UNL     1      -1.386 -14.347   3.513  1.00  0.00     0.198 A 
ATOM     77  C   UNL     1       0.932 -14.718   4.014  1.00  0.00     0.198 A 
ATOM     78  F   UNL     1       2.025 -13.356   5.592  1.00  0.00    -0.203 F 
ATOM     79  F   UNL     1      -2.504 -14.698   2.864  1.00  0.00    -0.200 F 
ATOM     80  C   UNL     1      -0.216 -15.066   3.318  1.00  0.00     0.200 A 
ATOM     81  F   UNL     1       2.066 -15.405   3.821  1.00  0.00    -0.200 F 
ATOM     82  F   UNL     1      -0.198 -16.100   2.466  1.00  0.00    -0.200 F 
ENDBRANCH  48  72
BRANCH  60  83
ATOM     83  C   UNL     1      -3.517 -11.936  11.202  1.00  0.00     0.064 A 
ATOM     84  C   UNL     1      -3.084 -13.069  11.906  1.00  0.00     0.173 A 
ATOM     85  C   UNL     1      -4.876 -11.595  11.276  1.00  0.00     0.173 A 
ATOM     86  F   UNL     1      -1.797 -13.445  11.854  1.00  0.00    -0.203 F 
ATOM     87  C   UNL     1      -3.983 -13.846  12.632  1.00  0.00     0.198 A 
ATOM     88  C   UNL     1      -5.766 -12.358  12.026  1.00  0.00     0.198 A 
ATOM     89  F   UNL     1      -5.339 -10.516  10.627  1.00  0.00    -0.203 F 
ATOM     90  F   UNL     1      -3.556 -14.952  13.257  1.00  0.00    -0.200 F 
ATOM     91  C   UNL     1      -5.321 -13.487  12.696  1.00  0.00     0.200 A 
ATOM     92  F   UNL     1      -7.057 -12.003  12.096  1.00  0.00    -0.200 F 
ATOM     93  F   UNL     1      -6.184 -14.235  13.398  1.00  0.00    -0.200 F 
ENDBRANCH  60  83
ENDBRANCH  34  35
ENDBRANCH  27  29
ENDBRANCH  26  27
ENDBRANCH  25  26
ENDBRANCH  24  25
ENDBRANCH   1  24
TORSDOF 16
