REMARK SMILES N#CCCNC(=O)COc1ccc(C(=O)OCCOC(=O)c2ccc(-c3c4nc(c(-c5c(F)c(F)c(F)c(F)c5F)c5ccc([nH]5)c(-c5c(F)c(F)c(F)c(F)c5F)c5nc(c(-c6c(F)c(F)c(F)c(F)c6F)c6ccc3[nH]6)C=C5)C=C4)cc2)nc1
REMARK SMILES IDX 14 1 15 2 13 3 10 4 11 5 86 6 12 7 85 8 9 9 8 10 6 11 5 12
REMARK SMILES IDX 7 14 4 15 3 16 2 17 1 18 16 19 17 20 18 21 19 22 20 23 21 24
REMARK SMILES IDX 22 25 23 26 84 27 24 28 83 29 25 30 26 31 27 32 77 33 28 34
REMARK SMILES IDX 82 35 76 36 78 37 29 38 81 39 75 40 74 41 30 43 62 44 42 45
REMARK SMILES IDX 61 46 43 47 46 48 60 49 79 50 44 51 45 52 59 54 80 55 47 56
REMARK SMILES IDX 31 57 32 58 40 59 33 60 34 61 38 62 41 63 35 64 36 65 39 66
REMARK SMILES IDX 37 67 63 68 64 69 72 70 65 71 66 72 70 73 73 74 67 75 68 76
REMARK SMILES IDX 71 77 69 78 48 79 49 80 57 81 50 82 51 83 55 84 58 85 52 86
REMARK SMILES IDX 53 87 56 88 54 89
REMARK H PARENT 5 13 78 42 46 53
REMARK Flexibility Score: inf
ROOT
ATOM      1  C   UNL     1       5.447  -4.699   5.094  1.00  0.00     0.357 C 
ATOM      2  O   UNL     1       6.378  -5.324   5.580  1.00  0.00    -0.244 OA
ENDROOT
BRANCH   1   3
ATOM      3  C   UNL     1       5.573  -3.327   4.500  1.00  0.00     0.148 A 
ATOM      4  C   UNL     1       5.935  -0.993   3.104  1.00  0.00     0.138 A 
ATOM      5  C   UNL     1       4.651  -1.355   3.501  1.00  0.00     0.050 A 
ATOM      6  C   UNL     1       6.989  -1.814   3.465  1.00  0.00     0.158 A 
ATOM      7  C   UNL     1       4.461  -2.544   4.207  1.00  0.00     0.040 A 
ATOM      8  N   UNL     1       6.843  -2.952   4.177  1.00  0.00    -0.245 NA
BRANCH   4   9
ATOM      9  O   UNL     1       6.178   0.043   2.250  1.00  0.00    -0.482 OA
BRANCH   9  10
ATOM     10  C   UNL     1       5.961   1.316   2.845  1.00  0.00     0.329 C 
BRANCH  10  11
ATOM     11  C   UNL     1       4.515   1.807   2.825  1.00  0.00     0.257 C 
ATOM     12  N   UNL     1       3.805   1.783   1.658  1.00  0.00    -0.352 N 
ATOM     13  H   UNL     1       2.880   2.112   1.721  1.00  0.00     0.163 HD
ATOM     14  O   UNL     1       3.972   2.246   3.839  1.00  0.00    -0.271 OA
BRANCH  12  15
ATOM     15  C   UNL     1       4.221   1.339   0.331  1.00  0.00     0.131 C 
BRANCH  15  16
ATOM     16  C   UNL     1       3.708  -0.058  -0.038  1.00  0.00     0.141 C 
BRANCH  16  17
ATOM     17  C   UNL     1       2.188  -0.058  -0.038  1.00  0.00     0.064 C 
ATOM     18  N   UNL     1       0.927  -0.058  -0.038  1.00  0.00    -0.198 NA
ENDBRANCH  16  17
ENDBRANCH  15  16
ENDBRANCH  12  15
ENDBRANCH  10  11
ENDBRANCH   9  10
ENDBRANCH   4   9
ENDBRANCH   1   3
BRANCH   1  19
ATOM     19  O   UNL     1       4.187  -5.179   4.907  1.00  0.00    -0.457 OA
BRANCH  19  20
ATOM     20  C   UNL     1       3.983  -6.570   5.221  1.00  0.00     0.275 C 
BRANCH  20  21
ATOM     21  C   UNL     1       3.947  -7.430   3.952  1.00  0.00     0.275 C 
BRANCH  21  22
ATOM     22  O   UNL     1       5.241  -7.523   3.323  1.00  0.00    -0.458 OA
BRANCH  22  23
ATOM     23  C   UNL     1       5.474  -6.613   2.349  1.00  0.00     0.338 C 
ATOM     24  O   UNL     1       4.707  -5.757   1.939  1.00  0.00    -0.246 OA
BRANCH  23  25
ATOM     25  C   UNL     1       6.878  -6.694   1.909  1.00  0.00     0.060 A 
ATOM     26  C   UNL     1       7.662  -5.551   2.068  1.00  0.00     0.016 A 
ATOM     27  C   UNL     1       7.403  -7.821   1.275  1.00  0.00     0.016 A 
ATOM     28  C   UNL     1       8.969  -5.517   1.596  1.00  0.00     0.010 A 
ATOM     29  C   UNL     1       8.724  -7.791   0.802  1.00  0.00     0.010 A 
ATOM     30  C   UNL     1       9.512  -6.634   0.952  1.00  0.00    -0.014 A 
BRANCH  30  31
ATOM     31  C   UNL     1      10.888  -6.550   0.401  1.00  0.00     0.031 A 
ATOM     32  C   UNL     1      11.100  -6.452  -1.083  1.00  0.00     0.074 A 
ATOM     33  C   UNL     1      11.944  -6.499   1.234  1.00  0.00     0.049 A 
ATOM     34  N   UNL     1      12.219  -6.417  -1.761  1.00  0.00    -0.248 NA
ATOM     35  C   UNL     1       9.890  -6.378  -1.916  1.00  0.00     0.031 C 
ATOM     36  C   UNL     1      11.865  -6.526   2.695  1.00  0.00     0.029 A 
ATOM     37  N   UNL     1      13.288  -6.404   0.972  1.00  0.00    -0.354 N 
ATOM     38  C   UNL     1      11.851  -6.343  -3.097  1.00  0.00     0.074 A 
ATOM     39  C   UNL     1      10.403  -6.349  -3.138  1.00  0.00     0.031 C 
ATOM     40  C   UNL     1      13.106  -6.437   3.201  1.00  0.00     0.029 A 
ATOM     41  C   UNL     1      14.068  -6.398   2.102  1.00  0.00     0.049 A 
ATOM     42  H   UNL     1      13.657  -6.346   0.062  1.00  0.00     0.167 HD
ATOM     43  C   UNL     1      12.649  -6.275  -4.190  1.00  0.00     0.037 A 
ATOM     44  C   UNL     1      15.408  -6.388   2.237  1.00  0.00     0.037 A 
ATOM     45  C   UNL     1      14.088  -6.246  -4.147  1.00  0.00     0.049 A 
ATOM     46  C   UNL     1      16.271  -6.367   1.005  1.00  0.00     0.074 A 
ATOM     47  C   UNL     1      14.983  -6.171  -5.200  1.00  0.00     0.029 A 
ATOM     48  N   UNL     1      14.844  -6.287  -2.984  1.00  0.00    -0.354 N 
ATOM     49  N   UNL     1      15.915  -6.318  -0.255  1.00  0.00    -0.248 NA
ATOM     50  C   UNL     1      17.726  -6.409   1.216  1.00  0.00     0.031 C 
ATOM     51  C   UNL     1      16.280  -6.204  -4.678  1.00  0.00     0.029 A 
ATOM     52  C   UNL     1      16.194  -6.256  -3.296  1.00  0.00     0.049 A 
ATOM     53  H   UNL     1      14.476  -6.330  -2.072  1.00  0.00     0.167 HD
ATOM     54  C   UNL     1      17.095  -6.308  -0.986  1.00  0.00     0.074 A 
ATOM     55  C   UNL     1      18.180  -6.337  -0.028  1.00  0.00     0.031 C 
ATOM     56  C   UNL     1      17.263  -6.282  -2.330  1.00  0.00     0.037 A 
BRANCH  43  57
ATOM     57  C   UNL     1      11.983  -6.262  -5.533  1.00  0.00     0.064 A 
ATOM     58  C   UNL     1      11.310  -5.129  -6.014  1.00  0.00     0.173 A 
ATOM     59  C   UNL     1      12.049  -7.390  -6.366  1.00  0.00     0.173 A 
ATOM     60  F   UNL     1      11.207  -4.031  -5.250  1.00  0.00    -0.203 F 
ATOM     61  C   UNL     1      10.709  -5.134  -7.270  1.00  0.00     0.198 A 
ATOM     62  C   UNL     1      11.468  -7.382  -7.631  1.00  0.00     0.198 A 
ATOM     63  F   UNL     1      12.685  -8.497  -5.955  1.00  0.00    -0.203 F 
ATOM     64  F   UNL     1      10.035  -4.055  -7.693  1.00  0.00    -0.200 F 
ATOM     65  C   UNL     1      10.793  -6.257  -8.079  1.00  0.00     0.200 A 
ATOM     66  F   UNL     1      11.559  -8.465  -8.415  1.00  0.00    -0.200 F 
ATOM     67  F   UNL     1      10.218  -6.258  -9.290  1.00  0.00    -0.200 F 
ENDBRANCH  43  57
BRANCH  44  68
ATOM     68  C   UNL     1      16.015  -6.425   3.592  1.00  0.00     0.064 A 
ATOM     69  C   UNL     1      16.703  -5.319   4.108  1.00  0.00     0.173 A 
ATOM     70  C   UNL     1      15.923  -7.571   4.396  1.00  0.00     0.173 A 
ATOM     71  F   UNL     1      16.843  -4.212   3.365  1.00  0.00    -0.203 F 
ATOM     72  C   UNL     1      17.286  -5.362   5.373  1.00  0.00     0.198 A 
ATOM     73  C   UNL     1      16.482  -7.603   5.671  1.00  0.00     0.198 A 
ATOM     74  F   UNL     1      15.281  -8.659   3.945  1.00  0.00    -0.203 F 
ATOM     75  F   UNL     1      17.975  -4.306   5.826  1.00  0.00    -0.200 F 
ATOM     76  C   UNL     1      17.169  -6.500   6.157  1.00  0.00     0.200 A 
ATOM     77  F   UNL     1      16.359  -8.702   6.428  1.00  0.00    -0.200 F 
ATOM     78  F   UNL     1      17.726  -6.538   7.374  1.00  0.00    -0.200 F 
ENDBRANCH  44  68
BRANCH  56  79
ATOM     79  C   UNL     1      18.672  -6.257  -2.844  1.00  0.00     0.064 A 
ATOM     80  C   UNL     1      19.486  -7.398  -2.808  1.00  0.00     0.173 A 
ATOM     81  C   UNL     1      19.201  -5.088  -3.412  1.00  0.00     0.173 A 
ATOM     82  F   UNL     1      19.030  -8.535  -2.260  1.00  0.00    -0.203 F 
ATOM     83  C   UNL     1      20.787  -7.364  -3.301  1.00  0.00     0.198 A 
ATOM     84  C   UNL     1      20.493  -5.065  -3.927  1.00  0.00     0.198 A 
ATOM     85  F   UNL     1      18.460  -3.972  -3.475  1.00  0.00    -0.203 F 
ATOM     86  F   UNL     1      21.562  -8.454  -3.219  1.00  0.00    -0.200 F 
ATOM     87  C   UNL     1      21.287  -6.200  -3.866  1.00  0.00     0.200 A 
ATOM     88  F   UNL     1      20.972  -3.942  -4.482  1.00  0.00    -0.200 F 
ATOM     89  F   UNL     1      22.538  -6.170  -4.345  1.00  0.00    -0.200 F 
ENDBRANCH  56  79
ENDBRANCH  30  31
ENDBRANCH  23  25
ENDBRANCH  22  23
ENDBRANCH  21  22
ENDBRANCH  20  21
ENDBRANCH  19  20
ENDBRANCH   1  19
TORSDOF 17
