REMARK SMILES C[NH2+][C@@H](C)c1ccc(SCc2ccc(C(=O)OCCOC(=O)c3ccc(-c4c5nc(c(-c6c(F)c(F)c(F)c(F)c6F)c6ccc([nH]6)c(-c6c(F)c(F)c(F)c(F)c6F)c6nc(c(-c7c(F)c(F)c(F)c(F)c7F)c7ccc4[nH]7)C=C6)C=C5)cc3)cc2)cc1
REMARK SMILES IDX 17 1 15 2 16 3 14 4 11 5 12 6 87 7 13 8 86 9 10 10 9 11 8 12
REMARK SMILES IDX 5 13 6 14 89 15 7 16 88 17 3 18 4 19 2 20 1 21 18 24 19 25
REMARK SMILES IDX 20 26 21 27 22 28 23 29 24 30 85 31 25 32 84 33 26 34 27 35
REMARK SMILES IDX 28 36 78 37 29 38 83 39 77 40 79 41 30 42 82 43 76 44 75 45
REMARK SMILES IDX 31 47 63 48 43 49 62 50 44 51 47 52 61 53 80 54 45 55 46 56
REMARK SMILES IDX 60 58 81 59 48 60 32 61 33 62 41 63 34 64 35 65 39 66 42 67
REMARK SMILES IDX 36 68 37 69 40 70 38 71 64 72 65 73 73 74 66 75 67 76 71 77
REMARK SMILES IDX 74 78 68 79 69 80 72 81 70 82 49 83 50 84 58 85 51 86 52 87
REMARK SMILES IDX 56 88 59 89 53 90 54 91 57 92 55 93
REMARK H PARENT 2 22 2 23 79 46 47 57
REMARK Flexibility Score: inf
ROOT
ATOM      1  O   UNL     1       3.573  -3.196  -6.677  1.00  0.00    -0.458 OA
ENDROOT
BRANCH   1   2
ATOM      2  C   UNL     1       2.845  -3.994  -7.497  1.00  0.00     0.338 C 
ATOM      3  O   UNL     1       3.246  -4.964  -8.121  1.00  0.00    -0.246 OA
BRANCH   2   4
ATOM      4  C   UNL     1       1.417  -3.603  -7.463  1.00  0.00     0.060 A 
ATOM      5  C   UNL     1      -1.329  -2.958  -7.389  1.00  0.00    -0.038 A 
ATOM      6  C   UNL     1      -0.905  -4.291  -7.516  1.00  0.00     0.005 A 
ATOM      7  C   UNL     1      -0.349  -1.953  -7.346  1.00  0.00     0.005 A 
ATOM      8  C   UNL     1       0.451  -4.607  -7.575  1.00  0.00     0.016 A 
ATOM      9  C   UNL     1       1.015  -2.271  -7.354  1.00  0.00     0.016 A 
BRANCH   5  10
ATOM     10  C   UNL     1      -2.823  -2.709  -7.363  1.00  0.00     0.110 C 
BRANCH  10  11
ATOM     11  S   UNL     1      -3.433  -1.088  -6.816  1.00  0.00    -0.121 SA
BRANCH  11  12
ATOM     12  C   UNL     1      -2.729  -0.883  -5.187  1.00  0.00     0.008 A 
ATOM     13  C   UNL     1      -1.593  -0.331  -2.647  1.00  0.00     0.009 A 
ATOM     14  C   UNL     1      -1.978   0.709  -3.503  1.00  0.00     0.011 A 
ATOM     15  C   UNL     1      -1.773  -1.651  -3.092  1.00  0.00     0.011 A 
ATOM     16  C   UNL     1      -2.547   0.434  -4.750  1.00  0.00     0.015 A 
ATOM     17  C   UNL     1      -2.347  -1.925  -4.340  1.00  0.00     0.015 A 
BRANCH  13  18
ATOM     18  C   UNL     1      -0.953  -0.082  -1.285  1.00  0.00     0.210 C 
ATOM     19  C   UNL     1      -1.454   1.207  -0.616  1.00  0.00     0.081 C 
BRANCH  18  20
ATOM     20  N   UNL     1       0.507  -0.116  -1.436  1.00  0.00    -0.343 N 
ATOM     21  C   UNL     1       1.228  -0.056  -0.175  1.00  0.00     0.331 C 
ATOM     22  H   UNL     1       0.762  -0.981  -1.912  1.00  0.00     0.346 HD
ATOM     23  H   UNL     1       0.770   0.714  -1.969  1.00  0.00     0.346 HD
ENDBRANCH  18  20
ENDBRANCH  13  18
ENDBRANCH  11  12
ENDBRANCH  10  11
ENDBRANCH   5  10
ENDBRANCH   2   4
ENDBRANCH   1   2
BRANCH   1  24
ATOM     24  C   UNL     1       4.955  -3.575  -6.503  1.00  0.00     0.275 C 
BRANCH  24  25
ATOM     25  C   UNL     1       5.126  -4.425  -5.243  1.00  0.00     0.275 C 
BRANCH  25  26
ATOM     26  O   UNL     1       4.410  -5.660  -5.405  1.00  0.00    -0.458 OA
BRANCH  26  27
ATOM     27  C   UNL     1       3.917  -6.209  -4.271  1.00  0.00     0.338 C 
ATOM     28  O   UNL     1       4.085  -5.817  -3.130  1.00  0.00    -0.246 OA
BRANCH  27  29
ATOM     29  C   UNL     1       3.121  -7.409  -4.610  1.00  0.00     0.060 A 
ATOM     30  C   UNL     1       2.253  -7.404  -5.702  1.00  0.00     0.016 A 
ATOM     31  C   UNL     1       3.181  -8.530  -3.782  1.00  0.00     0.016 A 
ATOM     32  C   UNL     1       1.397  -8.482  -5.933  1.00  0.00     0.010 A 
ATOM     33  C   UNL     1       2.382  -9.645  -4.062  1.00  0.00     0.010 A 
ATOM     34  C   UNL     1       1.454  -9.623  -5.120  1.00  0.00    -0.014 A 
BRANCH  34  35
ATOM     35  C   UNL     1       0.513 -10.763  -5.326  1.00  0.00     0.031 A 
ATOM     36  C   UNL     1      -0.406 -11.191  -4.210  1.00  0.00     0.074 A 
ATOM     37  C   UNL     1       0.462 -11.421  -6.502  1.00  0.00     0.049 A 
ATOM     38  N   UNL     1      -1.145 -12.268  -4.107  1.00  0.00    -0.248 NA
ATOM     39  C   UNL     1      -0.494 -10.293  -3.049  1.00  0.00     0.031 C 
ATOM     40  C   UNL     1       1.252 -11.102  -7.690  1.00  0.00     0.029 A 
ATOM     41  N   UNL     1      -0.299 -12.499  -6.890  1.00  0.00    -0.354 N 
ATOM     42  C   UNL     1      -1.722 -12.212  -2.845  1.00  0.00     0.074 A 
ATOM     43  C   UNL     1      -1.260 -10.990  -2.222  1.00  0.00     0.031 C 
ATOM     44  C   UNL     1       0.905 -11.933  -8.686  1.00  0.00     0.029 A 
ATOM     45  C   UNL     1      -0.069 -12.898  -8.184  1.00  0.00     0.049 A 
ATOM     46  H   UNL     1      -0.948 -12.942  -6.297  1.00  0.00     0.167 HD
ATOM     47  C   UNL     1      -2.558 -13.101  -2.257  1.00  0.00     0.037 A 
ATOM     48  C   UNL     1      -0.554 -13.944  -8.881  1.00  0.00     0.037 A 
ATOM     49  C   UNL     1      -3.083 -14.278  -2.899  1.00  0.00     0.049 A 
ATOM     50  C   UNL     1      -1.488 -14.914  -8.212  1.00  0.00     0.074 A 
ATOM     51  C   UNL     1      -3.953 -15.227  -2.388  1.00  0.00     0.029 A 
ATOM     52  N   UNL     1      -2.808 -14.651  -4.205  1.00  0.00    -0.354 N 
ATOM     53  N   UNL     1      -1.964 -14.894  -6.991  1.00  0.00    -0.248 NA
ATOM     54  C   UNL     1      -1.929 -16.067  -9.010  1.00  0.00     0.031 C 
ATOM     55  C   UNL     1      -4.188 -16.186  -3.379  1.00  0.00     0.029 A 
ATOM     56  C   UNL     1      -3.489 -15.817  -4.516  1.00  0.00     0.049 A 
ATOM     57  H   UNL     1      -2.217 -14.161  -4.821  1.00  0.00     0.167 HD
ATOM     58  C   UNL     1      -2.756 -16.028  -6.873  1.00  0.00     0.074 A 
ATOM     59  C   UNL     1      -2.720 -16.701  -8.155  1.00  0.00     0.031 C 
ATOM     60  C   UNL     1      -3.442 -16.477  -5.795  1.00  0.00     0.037 A 
BRANCH  47  61
ATOM     61  C   UNL     1      -2.937 -12.856  -0.826  1.00  0.00     0.064 A 
ATOM     62  C   UNL     1      -3.857 -11.864  -0.461  1.00  0.00     0.173 A 
ATOM     63  C   UNL     1      -2.394 -13.657   0.190  1.00  0.00     0.173 A 
ATOM     64  F   UNL     1      -4.391 -11.063  -1.395  1.00  0.00    -0.203 F 
ATOM     65  C   UNL     1      -4.205 -11.669   0.874  1.00  0.00     0.198 A 
ATOM     66  C   UNL     1      -2.762 -13.476   1.520  1.00  0.00     0.198 A 
ATOM     67  F   UNL     1      -1.513 -14.624  -0.109  1.00  0.00    -0.203 F 
ATOM     68  F   UNL     1      -5.057 -10.690   1.206  1.00  0.00    -0.200 F 
ATOM     69  C   UNL     1      -3.663 -12.479   1.861  1.00  0.00     0.200 A 
ATOM     70  F   UNL     1      -2.246 -14.266   2.472  1.00  0.00    -0.200 F 
ATOM     71  F   UNL     1      -4.005 -12.293   3.144  1.00  0.00    -0.200 F 
ENDBRANCH  47  61
BRANCH  48  72
ATOM     72  C   UNL     1      -0.135 -14.148 -10.291  1.00  0.00     0.064 A 
ATOM     73  C   UNL     1      -1.035 -13.942 -11.345  1.00  0.00     0.173 A 
ATOM     74  C   UNL     1       1.172 -14.540 -10.614  1.00  0.00     0.173 A 
ATOM     75  F   UNL     1      -2.304 -13.596 -11.084  1.00  0.00    -0.203 F 
ATOM     76  C   UNL     1      -0.643 -14.122 -12.670  1.00  0.00     0.198 A 
ATOM     77  C   UNL     1       1.570 -14.694 -11.940  1.00  0.00     0.198 A 
ATOM     78  F   UNL     1       2.068 -14.755  -9.640  1.00  0.00    -0.203 F 
ATOM     79  F   UNL     1      -1.532 -13.951 -13.659  1.00  0.00    -0.200 F 
ATOM     80  C   UNL     1       0.661 -14.489 -12.967  1.00  0.00     0.200 A 
ATOM     81  F   UNL     1       2.834 -15.038 -12.222  1.00  0.00    -0.200 F 
ATOM     82  F   UNL     1       1.040 -14.651 -14.241  1.00  0.00    -0.200 F 
ENDBRANCH  48  72
BRANCH  60  83
ATOM     83  C   UNL     1      -4.216 -17.748  -5.958  1.00  0.00     0.064 A 
ATOM     84  C   UNL     1      -3.575 -18.995  -5.972  1.00  0.00     0.173 A 
ATOM     85  C   UNL     1      -5.614 -17.723  -6.072  1.00  0.00     0.173 A 
ATOM     86  F   UNL     1      -2.238 -19.067  -5.882  1.00  0.00    -0.203 F 
ATOM     87  C   UNL     1      -4.305 -20.172  -6.113  1.00  0.00     0.198 A 
ATOM     88  C   UNL     1      -6.342 -18.903  -6.192  1.00  0.00     0.198 A 
ATOM     89  F   UNL     1      -6.272 -16.554  -6.060  1.00  0.00    -0.203 F 
ATOM     90  F   UNL     1      -3.670 -21.351  -6.160  1.00  0.00    -0.200 F 
ATOM     91  C   UNL     1      -5.687 -20.125  -6.218  1.00  0.00     0.200 A 
ATOM     92  F   UNL     1      -7.678 -18.858  -6.288  1.00  0.00    -0.200 F 
ATOM     93  F   UNL     1      -6.388 -21.259  -6.353  1.00  0.00    -0.200 F 
ENDBRANCH  60  83
ENDBRANCH  34  35
ENDBRANCH  27  29
ENDBRANCH  26  27
ENDBRANCH  25  26
ENDBRANCH  24  25
ENDBRANCH   1  24
TORSDOF 16
