REMARK SMILES O=C(Cn1nc(C(=O)OCCOC(=O)c2ccc(-c3c4nc(c(-c5c(F)c(F)c(F)c(F)c5F)c5ccc([nH]5)c(-c5c(F)c(F)c(F)c(F)c5F)c5nc(c(-c6c(F)c(F)c(F)c(F)c6F)c6ccc3[nH]6)C=C5)C=C4)cc2)c2ccccc2c1=O)Nc1ccc2c(c1)C(=O)c1ccccc1C2=O
REMARK SMILES IDX 10 1 9 2 7 3 8 4 6 5 4 6 5 7 84 8 83 9 85 10 78 11 82 12
REMARK SMILES IDX 79 13 81 14 80 15 3 16 2 17 1 18 86 19 87 21 88 22 92 23
REMARK SMILES IDX 89 24 91 25 90 26 93 27 101 28 94 29 95 30 100 31 102 32
REMARK SMILES IDX 96 33 99 34 97 35 98 36 11 37 12 38 13 39 14 40 15 41 16 42
REMARK SMILES IDX 77 43 17 44 76 45 18 46 19 47 20 48 70 49 21 50 75 51 69 52
REMARK SMILES IDX 71 53 22 54 74 55 68 56 67 57 23 59 55 60 35 61 54 62 36 63
REMARK SMILES IDX 39 64 53 65 72 66 37 67 38 68 52 70 73 71 40 72 24 73 25 74
REMARK SMILES IDX 33 75 26 76 27 77 31 78 34 79 28 80 29 81 32 82 30 83 56 84
REMARK SMILES IDX 57 85 65 86 58 87 59 88 63 89 66 90 60 91 61 92 64 93 62 94
REMARK SMILES IDX 41 95 42 96 50 97 43 98 44 99 48 100 51 101 45 102 46 103
REMARK SMILES IDX 49 104 47 105
REMARK H PARENT 86 20 71 58 39 69
REMARK Flexibility Score: inf
ROOT
ATOM      1  C   UNL     1       1.954  -4.926   2.222  1.00  0.00     0.275 C 
ENDROOT
BRANCH   1   2
ATOM      2  O   UNL     1       2.775  -3.802   1.810  1.00  0.00    -0.457 OA
BRANCH   2   3
ATOM      3  C   UNL     1       3.197  -3.014   2.817  1.00  0.00     0.359 C 
ATOM      4  O   UNL     1       3.155  -3.267   4.011  1.00  0.00    -0.244 OA
BRANCH   3   5
ATOM      5  C   UNL     1       3.733  -1.652   2.357  1.00  0.00     0.176 A 
ATOM      6  N   UNL     1       3.318   0.469   1.494  1.00  0.00    -0.219 N 
ATOM      7  N   UNL     1       2.933  -0.862   1.692  1.00  0.00    -0.161 NA
ATOM      8  C   UNL     1       4.419   1.043   2.142  1.00  0.00     0.275 A 
ATOM      9  C   UNL     1       5.332   0.128   2.845  1.00  0.00     0.051 A 
ATOM     10  O   UNL     1       4.671   2.244   2.135  1.00  0.00    -0.267 OA
ATOM     11  C   UNL     1       5.054  -1.228   2.850  1.00  0.00     0.022 A 
ATOM     12  C   UNL     1       6.490   0.610   3.473  1.00  0.00     0.014 A 
ATOM     13  C   UNL     1       5.993  -2.116   3.373  1.00  0.00     0.011 A 
ATOM     14  C   UNL     1       7.388  -0.277   4.067  1.00  0.00     0.001 A 
ATOM     15  C   UNL     1       7.153  -1.646   3.991  1.00  0.00     0.001 A 
BRANCH   6  16
ATOM     16  C   UNL     1       2.368   1.392   0.820  1.00  0.00     0.248 C 
BRANCH  16  17
ATOM     17  C   UNL     1       1.686   0.907  -0.472  1.00  0.00     0.246 C 
ATOM     18  O   UNL     1       0.834   1.562  -1.062  1.00  0.00    -0.273 OA
ATOM     19  N   UNL     1       2.107  -0.344  -0.822  1.00  0.00    -0.324 N 
ATOM     20  H   UNL     1       2.882  -0.691  -0.323  1.00  0.00     0.169 HD
BRANCH  19  21
ATOM     21  C   UNL     1       1.585  -1.192  -1.792  1.00  0.00     0.042 A 
ATOM     22  C   UNL     1       1.417  -0.863  -3.140  1.00  0.00     0.027 A 
ATOM     23  C   UNL     1       1.450  -2.501  -1.359  1.00  0.00     0.039 A 
ATOM     24  C   UNL     1       1.294  -1.900  -4.087  1.00  0.00     0.015 A 
ATOM     25  C   UNL     1       1.329  -3.509  -2.291  1.00  0.00     0.036 A 
ATOM     26  C   UNL     1       1.341  -3.230  -3.654  1.00  0.00     0.034 A 
ATOM     27  C   UNL     1       1.589  -4.865  -1.820  1.00  0.00     0.194 C 
ATOM     28  C   UNL     1       1.729  -4.339  -4.569  1.00  0.00     0.194 C 
ATOM     29  O   UNL     1       1.112  -5.313  -0.787  1.00  0.00    -0.289 OA
ATOM     30  C   UNL     1       2.609  -5.560  -2.597  1.00  0.00     0.034 A 
ATOM     31  C   UNL     1       2.648  -5.354  -3.974  1.00  0.00     0.034 A 
ATOM     32  O   UNL     1       1.443  -4.337  -5.756  1.00  0.00    -0.289 OA
ATOM     33  C   UNL     1       3.637  -6.219  -1.932  1.00  0.00     0.013 A 
ATOM     34  C   UNL     1       3.683  -5.921  -4.715  1.00  0.00     0.013 A 
ATOM     35  C   UNL     1       4.707  -6.721  -2.658  1.00  0.00     0.001 A 
ATOM     36  C   UNL     1       4.715  -6.598  -4.049  1.00  0.00     0.001 A 
ENDBRANCH  19  21
ENDBRANCH  16  17
ENDBRANCH   6  16
ENDBRANCH   3   5
ENDBRANCH   2   3
ENDBRANCH   1   2
BRANCH   1  37
ATOM     37  C   UNL     1       2.626  -6.285   2.028  1.00  0.00     0.275 C 
BRANCH  37  38
ATOM     38  O   UNL     1       3.799  -6.370   2.849  1.00  0.00    -0.458 OA
BRANCH  38  39
ATOM     39  C   UNL     1       4.995  -6.372   2.218  1.00  0.00     0.338 C 
ATOM     40  O   UNL     1       5.216  -6.395   1.021  1.00  0.00    -0.246 OA
BRANCH  39  41
ATOM     41  C   UNL     1       6.058  -6.271   3.233  1.00  0.00     0.060 A 
ATOM     42  C   UNL     1       7.275  -6.925   3.051  1.00  0.00     0.016 A 
ATOM     43  C   UNL     1       5.880  -5.424   4.324  1.00  0.00     0.016 A 
ATOM     44  C   UNL     1       8.288  -6.769   4.005  1.00  0.00     0.010 A 
ATOM     45  C   UNL     1       6.947  -5.144   5.168  1.00  0.00     0.010 A 
ATOM     46  C   UNL     1       8.146  -5.859   5.070  1.00  0.00    -0.014 A 
BRANCH  46  47
ATOM     47  C   UNL     1       9.189  -5.705   6.130  1.00  0.00     0.031 A 
ATOM     48  C   UNL     1       8.803  -5.782   7.594  1.00  0.00     0.074 A 
ATOM     49  C   UNL     1      10.475  -5.460   5.805  1.00  0.00     0.049 A 
ATOM     50  N   UNL     1       9.537  -5.569   8.659  1.00  0.00    -0.248 NA
ATOM     51  C   UNL     1       7.390  -6.053   7.905  1.00  0.00     0.031 C 
ATOM     52  C   UNL     1      10.990  -5.247   4.452  1.00  0.00     0.029 A 
ATOM     53  N   UNL     1      11.595  -5.377   6.597  1.00  0.00    -0.354 N 
ATOM     54  C   UNL     1       8.655  -5.594   9.734  1.00  0.00     0.074 A 
ATOM     55  C   UNL     1       7.328  -5.748   9.191  1.00  0.00     0.031 C 
ATOM     56  C   UNL     1      12.330  -5.165   4.497  1.00  0.00     0.029 A 
ATOM     57  C   UNL     1      12.766  -5.277   5.885  1.00  0.00     0.049 A 
ATOM     58  H   UNL     1      11.562  -5.387   7.581  1.00  0.00     0.167 HD
ATOM     59  C   UNL     1       8.923  -5.566  11.062  1.00  0.00     0.037 A 
ATOM     60  C   UNL     1      14.046  -5.311   6.304  1.00  0.00     0.037 A 
ATOM     61  C   UNL     1      10.251  -5.592  11.606  1.00  0.00     0.049 A 
ATOM     62  C   UNL     1      14.335  -5.447   7.775  1.00  0.00     0.074 A 
ATOM     63  C   UNL     1      10.640  -5.691  12.930  1.00  0.00     0.029 A 
ATOM     64  N   UNL     1      11.409  -5.574  10.845  1.00  0.00    -0.354 N 
ATOM     65  N   UNL     1      13.494  -5.518   8.777  1.00  0.00    -0.248 NA
ATOM     66  C   UNL     1      15.749  -5.511   8.172  1.00  0.00     0.031 C 
ATOM     67  C   UNL     1      12.037  -5.734  12.970  1.00  0.00     0.029 A 
ATOM     68  C   UNL     1      12.514  -5.682  11.669  1.00  0.00     0.049 A 
ATOM     69  H   UNL     1      11.440  -5.496   9.864  1.00  0.00     0.167 HD
ATOM     70  C   UNL     1      14.272  -5.649   9.919  1.00  0.00     0.074 A 
ATOM     71  C   UNL     1      15.653  -5.673   9.485  1.00  0.00     0.031 C 
ATOM     72  C   UNL     1      13.878  -5.729  11.213  1.00  0.00     0.037 A 
BRANCH  59  73
ATOM     73  C   UNL     1       7.760  -5.584  12.014  1.00  0.00     0.064 A 
ATOM     74  C   UNL     1       6.930  -6.710  12.141  1.00  0.00     0.173 A 
ATOM     75  C   UNL     1       7.484  -4.475  12.827  1.00  0.00     0.173 A 
ATOM     76  F   UNL     1       7.144  -7.795  11.382  1.00  0.00    -0.203 F 
ATOM     77  C   UNL     1       5.840  -6.705  13.006  1.00  0.00     0.198 A 
ATOM     78  C   UNL     1       6.416  -4.489  13.722  1.00  0.00     0.198 A 
ATOM     79  F   UNL     1       8.253  -3.377  12.759  1.00  0.00    -0.203 F 
ATOM     80  F   UNL     1       5.022  -7.766  13.054  1.00  0.00    -0.200 F 
ATOM     81  C   UNL     1       5.588  -5.598  13.801  1.00  0.00     0.200 A 
ATOM     82  F   UNL     1       6.184  -3.425  14.504  1.00  0.00    -0.200 F 
ATOM     83  F   UNL     1       4.542  -5.599  14.639  1.00  0.00    -0.200 F 
ENDBRANCH  59  73
BRANCH  60  84
ATOM     84  C   UNL     1      15.149  -5.317   5.307  1.00  0.00     0.064 A 
ATOM     85  C   UNL     1      15.877  -6.492   5.066  1.00  0.00     0.173 A 
ATOM     86  C   UNL     1      15.483  -4.179   4.561  1.00  0.00     0.173 A 
ATOM     87  F   UNL     1      15.603  -7.604   5.766  1.00  0.00    -0.203 F 
ATOM     88  C   UNL     1      16.907  -6.524   4.128  1.00  0.00     0.198 A 
ATOM     89  C   UNL     1      16.497  -4.219   3.605  1.00  0.00     0.198 A 
ATOM     90  F   UNL     1      14.809  -3.035   4.745  1.00  0.00    -0.203 F 
ATOM     91  F   UNL     1      17.606  -7.652   3.943  1.00  0.00    -0.200 F 
ATOM     92  C   UNL     1      17.211  -5.389   3.394  1.00  0.00     0.200 A 
ATOM     93  F   UNL     1      16.779  -3.125   2.885  1.00  0.00    -0.200 F 
ATOM     94  F   UNL     1      18.194  -5.422   2.483  1.00  0.00    -0.200 F 
ENDBRANCH  60  84
BRANCH  72  95
ATOM     95  C   UNL     1      14.941  -5.868  12.259  1.00  0.00     0.064 A 
ATOM     96  C   UNL     1      15.723  -4.772  12.647  1.00  0.00     0.173 A 
ATOM     97  C   UNL     1      15.107  -7.079  12.947  1.00  0.00     0.173 A 
ATOM     98  F   UNL     1      15.604  -3.598  12.010  1.00  0.00    -0.203 F 
ATOM     99  C   UNL     1      16.640  -4.885  13.688  1.00  0.00     0.198 A 
ATOM    100  C   UNL     1      16.009  -7.181  14.002  1.00  0.00     0.198 A 
ATOM    101  F   UNL     1      14.373  -8.152  12.616  1.00  0.00    -0.203 F 
ATOM    102  F   UNL     1      17.392  -3.831  14.031  1.00  0.00    -0.200 F 
ATOM    103  C   UNL     1      16.774  -6.085  14.371  1.00  0.00     0.200 A 
ATOM    104  F   UNL     1      16.127  -8.337  14.671  1.00  0.00    -0.200 F 
ATOM    105  F   UNL     1      17.643  -6.185  15.387  1.00  0.00    -0.200 F 
ENDBRANCH  72  95
ENDBRANCH  46  47
ENDBRANCH  39  41
ENDBRANCH  38  39
ENDBRANCH  37  38
ENDBRANCH   1  37
TORSDOF 14
