REMARK SMILES CC[N@@H+](C/C(Cl)=C/Cl)C[C@@H](C)C(=O)OCCOC(=O)c1ccc(-c2c3nc(c(-c4c(F)c(F)c(F)c(F)c4F)c4ccc([nH]4)c(-c4c(F)c(F)c(F)c(F)c4F)c4nc(c(-c5c(F)c(F)c(F)c(F)c5F)c5ccc2[nH]5)C=C4)C=C3)cc1
REMARK SMILES IDX 15 1 14 2 12 3 13 4 10 5 11 6 9 7 3 8 2 10 1 11 4 12 5 13
REMARK SMILES IDX 6 14 7 15 8 16 16 17 17 18 18 19 19 20 20 21 21 22 82 23
REMARK SMILES IDX 22 24 81 25 23 26 24 27 25 28 75 29 26 30 80 31 74 32 76 33
REMARK SMILES IDX 27 34 79 35 73 36 72 37 28 39 60 40 40 41 59 42 41 43 44 44
REMARK SMILES IDX 58 45 77 46 42 47 43 48 57 50 78 51 45 52 29 53 30 54 38 55
REMARK SMILES IDX 31 56 32 57 36 58 39 59 33 60 34 61 37 62 35 63 61 64 62 65
REMARK SMILES IDX 70 66 63 67 64 68 68 69 71 70 65 71 66 72 69 73 67 74 46 75
REMARK SMILES IDX 47 76 55 77 48 78 49 79 53 80 56 81 50 82 51 83 54 84 52 85
REMARK H PARENT 3 9 76 38 44 49
REMARK Flexibility Score: inf
ROOT
ATOM      1  C   UNL     1       6.575  -1.137   1.366  1.00  0.00     0.274 C 
ENDROOT
BRANCH   1   2
ATOM      2  O   UNL     1       5.140  -1.080   1.236  1.00  0.00    -0.462 OA
BRANCH   2   3
ATOM      3  C   UNL     1       4.476  -2.244   1.462  1.00  0.00     0.314 C 
ATOM      4  O   UNL     1       5.008  -3.297   1.795  1.00  0.00    -0.252 OA
BRANCH   3   5
ATOM      5  C   UNL     1       2.986  -2.143   1.181  1.00  0.00     0.151 C 
ATOM      6  C   UNL     1       2.777  -2.328  -0.317  1.00  0.00     0.026 C 
BRANCH   5   7
ATOM      7  C   UNL     1       2.372  -0.859   1.763  1.00  0.00     0.277 C 
BRANCH   7   8
ATOM      8  N   UNL     1       0.916  -0.776   1.879  1.00  0.00    -0.330 N 
ATOM      9  H   UNL     1       0.975   0.214   2.118  1.00  0.00     0.348 HD
BRANCH   8  10
ATOM     10  C   UNL     1       0.070  -0.528   0.726  1.00  0.00     0.259 C 
ATOM     11  C   UNL     1       0.562   0.597  -0.179  1.00  0.00     0.071 C 
ENDBRANCH   8  10
BRANCH   8  12
ATOM     12  C   UNL     1       0.287  -1.382   3.051  1.00  0.00     0.312 C 
BRANCH  12  13
ATOM     13  C   UNL     1      -0.054  -2.858   3.081  1.00  0.00     0.083 C 
ATOM     14  Cl  UNL     1      -0.499  -3.409   4.679  1.00  0.00    -0.082 Cl
ATOM     15  C   UNL     1      -0.043  -3.711   2.050  1.00  0.00     0.102 C 
ATOM     16  Cl  UNL     1      -0.400  -5.388   2.118  1.00  0.00    -0.091 Cl
ENDBRANCH  12  13
ENDBRANCH   8  12
ENDBRANCH   7   8
ENDBRANCH   5   7
ENDBRANCH   3   5
ENDBRANCH   2   3
ENDBRANCH   1   2
BRANCH   1  17
ATOM     17  C   UNL     1       7.066  -0.684   2.744  1.00  0.00     0.275 C 
BRANCH  17  18
ATOM     18  O   UNL     1       6.656  -1.587   3.788  1.00  0.00    -0.458 OA
BRANCH  18  19
ATOM     19  C   UNL     1       5.497  -1.249   4.396  1.00  0.00     0.338 C 
ATOM     20  O   UNL     1       4.822  -0.251   4.189  1.00  0.00    -0.246 OA
BRANCH  19  21
ATOM     21  C   UNL     1       5.040  -2.322   5.291  1.00  0.00     0.060 A 
ATOM     22  C   UNL     1       3.764  -2.844   5.067  1.00  0.00     0.016 A 
ATOM     23  C   UNL     1       5.780  -2.715   6.409  1.00  0.00     0.016 A 
ATOM     24  C   UNL     1       3.197  -3.718   5.986  1.00  0.00     0.010 A 
ATOM     25  C   UNL     1       5.207  -3.599   7.333  1.00  0.00     0.010 A 
ATOM     26  C   UNL     1       3.897  -4.074   7.144  1.00  0.00    -0.014 A 
BRANCH  26  27
ATOM     27  C   UNL     1       3.180  -4.833   8.198  1.00  0.00     0.031 A 
ATOM     28  C   UNL     1       2.683  -4.111   9.420  1.00  0.00     0.074 A 
ATOM     29  C   UNL     1       2.879  -6.131   8.016  1.00  0.00     0.049 A 
ATOM     30  N   UNL     1       2.017  -4.577  10.447  1.00  0.00    -0.248 NA
ATOM     31  C   UNL     1       2.970  -2.670   9.495  1.00  0.00     0.031 C 
ATOM     32  C   UNL     1       3.246  -6.926   6.845  1.00  0.00     0.029 A 
ATOM     33  N   UNL     1       2.170  -7.002   8.806  1.00  0.00    -0.354 N 
ATOM     34  C   UNL     1       1.828  -3.496  11.298  1.00  0.00     0.074 A 
ATOM     35  C   UNL     1       2.458  -2.352  10.675  1.00  0.00     0.031 C 
ATOM     36  C   UNL     1       2.735  -8.161   6.979  1.00  0.00     0.029 A 
ATOM     37  C   UNL     1       2.036  -8.253   8.259  1.00  0.00     0.049 A 
ATOM     38  H   UNL     1       1.794  -6.752   9.681  1.00  0.00     0.167 HD
ATOM     39  C   UNL     1       1.184  -3.459  12.488  1.00  0.00     0.037 A 
ATOM     40  C   UNL     1       1.419  -9.350   8.740  1.00  0.00     0.037 A 
ATOM     41  C   UNL     1       0.525  -4.585  13.095  1.00  0.00     0.049 A 
ATOM     42  C   UNL     1       0.729  -9.287  10.075  1.00  0.00     0.074 A 
ATOM     43  C   UNL     1      -0.147  -4.646  14.303  1.00  0.00     0.029 A 
ATOM     44  N   UNL     1       0.443  -5.848  12.527  1.00  0.00    -0.354 N 
ATOM     45  N   UNL     1       0.585  -8.268  10.886  1.00  0.00    -0.248 NA
ATOM     46  C   UNL     1       0.119 -10.532  10.563  1.00  0.00     0.031 C 
ATOM     47  C   UNL     1      -0.615  -5.954  14.479  1.00  0.00     0.029 A 
ATOM     48  C   UNL     1      -0.262  -6.697  13.365  1.00  0.00     0.049 A 
ATOM     49  H   UNL     1       0.828  -6.103  11.658  1.00  0.00     0.167 HD
ATOM     50  C   UNL     1      -0.148  -8.741  11.967  1.00  0.00     0.074 A 
ATOM     51  C   UNL     1      -0.431 -10.136  11.702  1.00  0.00     0.031 C 
ATOM     52  C   UNL     1      -0.546  -8.079  13.080  1.00  0.00     0.037 A 
BRANCH  39  53
ATOM     53  C   UNL     1       1.191  -2.159  13.233  1.00  0.00     0.064 A 
ATOM     54  C   UNL     1       0.376  -1.085  12.849  1.00  0.00     0.173 A 
ATOM     55  C   UNL     1       2.008  -1.998  14.362  1.00  0.00     0.173 A 
ATOM     56  F   UNL     1      -0.409  -1.186  11.766  1.00  0.00    -0.203 F 
ATOM     57  C   UNL     1       0.395   0.114  13.559  1.00  0.00     0.198 A 
ATOM     58  C   UNL     1       2.007  -0.807  15.081  1.00  0.00     0.198 A 
ATOM     59  F   UNL     1       2.804  -2.998  14.769  1.00  0.00    -0.203 F 
ATOM     60  F   UNL     1      -0.362   1.143  13.153  1.00  0.00    -0.200 F 
ATOM     61  C   UNL     1       1.205   0.250  14.676  1.00  0.00     0.200 A 
ATOM     62  F   UNL     1       2.786  -0.679  16.165  1.00  0.00    -0.200 F 
ATOM     63  F   UNL     1       1.220   1.403  15.359  1.00  0.00    -0.200 F 
ENDBRANCH  39  53
BRANCH  40  64
ATOM     64  C   UNL     1       1.423 -10.606   7.950  1.00  0.00     0.064 A 
ATOM     65  C   UNL     1       0.249 -11.089   7.357  1.00  0.00     0.173 A 
ATOM     66  C   UNL     1       2.597 -11.356   7.785  1.00  0.00     0.173 A 
ATOM     67  F   UNL     1      -0.904 -10.421   7.513  1.00  0.00    -0.203 F 
ATOM     68  C   UNL     1       0.245 -12.284   6.640  1.00  0.00     0.198 A 
ATOM     69  C   UNL     1       2.597 -12.537   7.048  1.00  0.00     0.198 A 
ATOM     70  F   UNL     1       3.744 -10.938   8.339  1.00  0.00    -0.203 F 
ATOM     71  F   UNL     1      -0.899 -12.747   6.120  1.00  0.00    -0.200 F 
ATOM     72  C   UNL     1       1.420 -13.004   6.481  1.00  0.00     0.200 A 
ATOM     73  F   UNL     1       3.735 -13.227   6.892  1.00  0.00    -0.200 F 
ATOM     74  F   UNL     1       1.416 -14.153   5.792  1.00  0.00    -0.200 F 
ENDBRANCH  40  64
BRANCH  52  75
ATOM     75  C   UNL     1      -1.356  -8.847  14.081  1.00  0.00     0.064 A 
ATOM     76  C   UNL     1      -0.765  -9.796  14.928  1.00  0.00     0.173 A 
ATOM     77  C   UNL     1      -2.732  -8.609  14.214  1.00  0.00     0.173 A 
ATOM     78  F   UNL     1       0.545 -10.067  14.827  1.00  0.00    -0.203 F 
ATOM     79  C   UNL     1      -1.528 -10.495  15.858  1.00  0.00     0.198 A 
ATOM     80  C   UNL     1      -3.487  -9.295  15.161  1.00  0.00     0.198 A 
ATOM     81  F   UNL     1      -3.341  -7.707  13.430  1.00  0.00    -0.203 F 
ATOM     82  F   UNL     1      -0.951 -11.426  16.631  1.00  0.00    -0.200 F 
ATOM     83  C   UNL     1      -2.886 -10.241  15.977  1.00  0.00     0.200 A 
ATOM     84  F   UNL     1      -4.798  -9.043  15.281  1.00  0.00    -0.200 F 
ATOM     85  F   UNL     1      -3.619 -10.915  16.875  1.00  0.00    -0.200 F 
ENDBRANCH  52  75
ENDBRANCH  26  27
ENDBRANCH  19  21
ENDBRANCH  18  19
ENDBRANCH  17  18
ENDBRANCH   1  17
TORSDOF 16
