REMARK SMILES O=C(OCCOC(=O)c1ccc(-c2c3nc(c(-c4c(F)c(F)c(F)c(F)c4F)c4ccc([nH]4)c(-c4c(F)c(F)c(F)c(F)c4F)c4nc(c(-c5c(F)c(F)c(F)c(F)c5F)c5ccc2[nH]5)C=C4)C=C3)cc1)C1=Cc2cc(S(F)(F)(F)(F)F)cc(Br)c2O[C@@H]1C(F)(F)F
REMARK SMILES IDX 5 1 4 2 3 3 2 4 1 5 72 6 73 7 88 8 74 9 87 10 75 11 86 12
REMARK SMILES IDX 76 13 84 14 83 15 85 16 89 17 90 18 91 19 92 20 77 21 78 22
REMARK SMILES IDX 79 23 80 24 81 25 82 26 6 27 7 28 8 29 9 30 10 31 71 32
REMARK SMILES IDX 11 33 70 34 12 35 13 36 14 37 64 38 15 39 69 40 63 41 65 42
REMARK SMILES IDX 16 43 68 44 62 45 61 46 17 48 49 49 29 50 48 51 30 52 33 53
REMARK SMILES IDX 47 54 66 55 31 56 32 57 46 59 67 60 34 61 18 62 19 63 27 64
REMARK SMILES IDX 20 65 21 66 25 67 28 68 22 69 23 70 26 71 24 72 50 73 51 74
REMARK SMILES IDX 59 75 52 76 53 77 57 78 60 79 54 80 55 81 58 82 56 83 35 84
REMARK SMILES IDX 36 85 44 86 37 87 38 88 42 89 45 90 39 91 40 92 43 93 41 94
REMARK H PARENT 65 47 33 58
REMARK Flexibility Score: inf
ROOT
ATOM      1  C   UNL     1       4.879   1.286  -0.235  1.00  0.00     0.275 C 
ENDROOT
BRANCH   1   2
ATOM      2  C   UNL     1       4.372   0.290  -1.265  1.00  0.00     0.275 C 
BRANCH   2   3
ATOM      3  O   UNL     1       2.952   0.290  -1.265  1.00  0.00    -0.459 OA
BRANCH   3   4
ATOM      4  C   UNL     1       2.242  -0.048  -0.083  1.00  0.00     0.338 C 
ATOM      5  O   UNL     1       0.971  -0.048  -0.083  1.00  0.00    -0.246 OA
BRANCH   4   6
ATOM      6  C   UNL     1       3.002  -0.410   1.183  1.00  0.00     0.087 C 
ATOM      7  C   UNL     1       4.362  -0.410   1.183  1.00  0.00     0.027 C 
ATOM      8  C   UNL     1       2.242  -0.771   2.449  1.00  0.00     0.316 C 
ATOM      9  C   UNL     1       5.122  -0.048  -0.083  1.00  0.00     0.020 A 
ATOM     10  O   UNL     1       3.553   1.708  -0.403  1.00  0.00    -0.474 OA
ATOM     11  C   UNL     1       6.171  -0.845  -0.511  1.00  0.00     0.036 A 
ATOM     12  C   UNL     1       4.729   1.008  -0.784  1.00  0.00     0.142 A 
ATOM     13  C   UNL     1       6.936  -0.273  -1.556  1.00  0.00     0.109 A 
ATOM     14  C   UNL     1       5.449   1.431  -1.875  1.00  0.00     0.062 A 
ATOM     15  C   UNL     1       6.532   0.725  -2.320  1.00  0.00     0.044 A 
ATOM     16  Br  UNL     1       4.915   3.071  -2.808  1.00  0.00    -0.047 Br
BRANCH   8  17
ATOM     17  C   UNL     1       2.609   0.203   3.556  1.00  0.00     0.430 C 
ATOM     18  F   UNL     1       2.288   1.439   3.184  1.00  0.00    -0.167 F 
ATOM     19  F   UNL     1       1.944  -0.113   4.663  1.00  0.00    -0.167 F 
ATOM     20  F   UNL     1       3.917   0.137   3.790  1.00  0.00    -0.167 F 
ENDBRANCH   8  17
BRANCH  13  21
ATOM     21  S   UNL     1       8.582  -0.958  -1.866  1.00  0.00     0.310 S 
ATOM     22  F   UNL     1       8.940  -0.973  -0.320  1.00  0.00    -0.094 F 
ATOM     23  F   UNL     1       9.160   0.507  -1.914  1.00  0.00    -0.094 F 
ATOM     24  F   UNL     1       9.994  -1.552  -2.135  1.00  0.00    -0.094 F 
ATOM     25  F   UNL     1       8.012  -2.418  -1.674  1.00  0.00    -0.094 F 
ATOM     26  F   UNL     1       7.167  -0.370  -1.480  1.00  0.00    -0.094 F 
ENDBRANCH  13  21
ENDBRANCH   4   6
ENDBRANCH   3   4
ENDBRANCH   2   3
ENDBRANCH   1   2
BRANCH   1  27
ATOM     27  O   UNL     1       4.405   0.918   1.052  1.00  0.00    -0.458 OA
BRANCH  27  28
ATOM     28  C   UNL     1       3.009   0.847   1.301  1.00  0.00     0.338 C 
ATOM     29  O   UNL     1       2.183   1.113   0.373  1.00  0.00    -0.246 OA
BRANCH  28  30
ATOM     30  C   UNL     1       2.503   0.454   2.679  1.00  0.00     0.060 A 
ATOM     31  C   UNL     1       1.418  -0.400   2.798  1.00  0.00     0.016 A 
ATOM     32  C   UNL     1       3.066   1.005   3.748  1.00  0.00     0.016 A 
ATOM     33  C   UNL     1       0.814  -0.384   4.078  1.00  0.00     0.010 A 
ATOM     34  C   UNL     1       2.494   0.866   4.990  1.00  0.00     0.010 A 
ATOM     35  C   UNL     1       1.387   0.086   5.171  1.00  0.00    -0.014 A 
BRANCH  35  36
ATOM     36  C   UNL     1       0.844  -0.226   6.556  1.00  0.00     0.031 A 
ATOM     37  C   UNL     1       0.445   0.851   7.350  1.00  0.00     0.074 A 
ATOM     38  C   UNL     1       0.725  -1.552   6.934  1.00  0.00     0.049 A 
ATOM     39  N   UNL     1      -0.133   0.805   8.552  1.00  0.00    -0.248 NA
ATOM     40  C   UNL     1       0.602   2.261   6.966  1.00  0.00     0.031 C 
ATOM     41  C   UNL     1       1.118  -2.644   6.135  1.00  0.00     0.029 A 
ATOM     42  N   UNL     1       0.221  -2.053   8.113  1.00  0.00    -0.354 N 
ATOM     43  C   UNL     1      -0.386   2.040   8.989  1.00  0.00     0.074 A 
ATOM     44  C   UNL     1       0.089   2.995   7.978  1.00  0.00     0.031 C 
ATOM     45  C   UNL     1       0.866  -3.785   6.827  1.00  0.00     0.029 A 
ATOM     46  C   UNL     1       0.310  -3.427   8.070  1.00  0.00     0.049 A 
ATOM     47  H   UNL     1      -0.140  -1.522   8.859  1.00  0.00     0.167 HD
ATOM     48  C   UNL     1      -0.995   2.408  10.190  1.00  0.00     0.037 A 
ATOM     49  C   UNL     1      -0.065  -4.333   9.050  1.00  0.00     0.037 A 
ATOM     50  C   UNL     1      -1.410   1.500  11.151  1.00  0.00     0.049 A 
ATOM     51  C   UNL     1      -0.621  -3.963  10.276  1.00  0.00     0.074 A 
ATOM     52  C   UNL     1      -2.033   1.853  12.363  1.00  0.00     0.029 A 
ATOM     53  N   UNL     1      -1.298   0.127  11.118  1.00  0.00    -0.354 N 
ATOM     54  N   UNL     1      -0.910  -2.730  10.696  1.00  0.00    -0.248 NA
ATOM     55  C   UNL     1      -0.992  -4.912  11.334  1.00  0.00     0.031 C 
ATOM     56  C   UNL     1      -2.285   0.711  13.056  1.00  0.00     0.029 A 
ATOM     57  C   UNL     1      -1.823  -0.375  12.288  1.00  0.00     0.049 A 
ATOM     58  H   UNL     1      -0.911  -0.403  10.385  1.00  0.00     0.167 HD
ATOM     59  C   UNL     1      -1.450  -2.774  11.916  1.00  0.00     0.074 A 
ATOM     60  C   UNL     1      -1.504  -4.178  12.347  1.00  0.00     0.031 C 
ATOM     61  C   UNL     1      -1.903  -1.701  12.685  1.00  0.00     0.037 A 
BRANCH  48  62
ATOM     62  C   UNL     1      -1.217   3.888  10.458  1.00  0.00     0.064 A 
ATOM     63  C   UNL     1      -1.969   4.634   9.566  1.00  0.00     0.173 A 
ATOM     64  C   UNL     1      -0.654   4.448  11.523  1.00  0.00     0.173 A 
ATOM     65  F   UNL     1      -2.751   4.085   8.641  1.00  0.00    -0.203 F 
ATOM     66  C   UNL     1      -1.829   6.032   9.728  1.00  0.00     0.198 A 
ATOM     67  C   UNL     1      -0.674   5.812  11.687  1.00  0.00     0.198 A 
ATOM     68  F   UNL     1      -0.067   3.683  12.438  1.00  0.00    -0.203 F 
ATOM     69  F   UNL     1      -2.210   6.813   8.721  1.00  0.00    -0.200 F 
ATOM     70  C   UNL     1      -1.348   6.617  10.810  1.00  0.00     0.200 A 
ATOM     71  F   UNL     1      -0.027   6.358  12.713  1.00  0.00    -0.200 F 
ATOM     72  F   UNL     1      -1.510   7.917  11.036  1.00  0.00    -0.200 F 
ENDBRANCH  48  62
BRANCH  49  73
ATOM     73  C   UNL     1       0.141  -5.814   8.774  1.00  0.00     0.064 A 
ATOM     74  C   UNL     1      -0.978  -6.629   8.774  1.00  0.00     0.173 A 
ATOM     75  C   UNL     1       1.351  -6.304   8.531  1.00  0.00     0.173 A 
ATOM     76  F   UNL     1      -2.221  -6.156   8.758  1.00  0.00    -0.203 F 
ATOM     77  C   UNL     1      -0.679  -8.012   8.792  1.00  0.00     0.198 A 
ATOM     78  C   UNL     1       1.548  -7.660   8.426  1.00  0.00     0.198 A 
ATOM     79  F   UNL     1       2.382  -5.476   8.390  1.00  0.00    -0.203 F 
ATOM     80  F   UNL     1      -1.648  -8.850   9.152  1.00  0.00    -0.200 F 
ATOM     81  C   UNL     1       0.494  -8.529   8.476  1.00  0.00     0.200 A 
ATOM     82  F   UNL     1       2.781  -8.133   8.273  1.00  0.00    -0.200 F 
ATOM     83  F   UNL     1       0.642  -9.826   8.221  1.00  0.00    -0.200 F 
ENDBRANCH  49  73
BRANCH  61  84
ATOM     84  C   UNL     1      -2.522  -2.005  14.040  1.00  0.00     0.064 A 
ATOM     85  C   UNL     1      -1.788  -2.696  14.990  1.00  0.00     0.173 A 
ATOM     86  C   UNL     1      -3.777  -1.640  14.270  1.00  0.00     0.173 A 
ATOM     87  F   UNL     1      -0.470  -2.858  14.912  1.00  0.00    -0.203 F 
ATOM     88  C   UNL     1      -2.568  -3.212  16.052  1.00  0.00     0.198 A 
ATOM     89  C   UNL     1      -4.435  -2.071  15.397  1.00  0.00     0.198 A 
ATOM     90  F   UNL     1      -4.404  -0.851  13.403  1.00  0.00    -0.203 F 
ATOM     91  F   UNL     1      -2.033  -4.173  16.801  1.00  0.00    -0.200 F 
ATOM     92  C   UNL     1      -3.789  -2.808  16.350  1.00  0.00     0.200 A 
ATOM     93  F   UNL     1      -5.720  -1.768  15.562  1.00  0.00    -0.200 F 
ATOM     94  F   UNL     1      -4.359  -3.101  17.515  1.00  0.00    -0.200 F 
ENDBRANCH  61  84
ENDBRANCH  35  36
ENDBRANCH  28  30
ENDBRANCH  27  28
ENDBRANCH   1  27
TORSDOF 13
