REMARK SMILES Cc1cscc1CNC(=O)CC(C)(C)C(=O)OCCOC(=O)c1ccc(-c2c3nc(c(-c4c(F)c(F)c(F)c(F)c4F)c4ccc([nH]4)c(-c4c(F)c(F)c(F)c(F)c4F)c4nc(c(-c5c(F)c(F)c(F)c(F)c5F)c5ccc2[nH]5)C=C4)C=C3)cc1
REMARK SMILES IDX 18 1 17 2 15 3 16 4 12 5 13 6 14 7 11 8 9 9 8 10 10 12 7 13
REMARK SMILES IDX 6 14 1 15 2 16 3 17 4 18 5 19 19 20 20 21 21 22 22 23 23 24
REMARK SMILES IDX 24 25 85 26 25 27 84 28 26 29 27 30 28 31 78 32 29 33 83 34
REMARK SMILES IDX 77 35 79 36 30 37 82 38 76 39 75 40 31 42 63 43 43 44 62 45
REMARK SMILES IDX 44 46 47 47 61 48 80 49 45 50 46 51 60 53 81 54 48 55 32 56
REMARK SMILES IDX 33 57 41 58 34 59 35 60 39 61 42 62 36 63 37 64 40 65 38 66
REMARK SMILES IDX 64 67 65 68 73 69 66 70 67 71 71 72 74 73 68 74 69 75 72 76
REMARK SMILES IDX 70 77 49 78 50 79 58 80 51 81 52 82 56 83 59 84 53 85 54 86
REMARK SMILES IDX 57 87 55 88
REMARK H PARENT 8 11 79 41 47 52
REMARK Flexibility Score: inf
ROOT
ATOM      1  C   UNL     1      -4.132   3.736   0.245  1.00  0.00     0.274 C 
ENDROOT
BRANCH   1   2
ATOM      2  O   UNL     1      -2.967   3.947   1.069  1.00  0.00    -0.462 OA
BRANCH   2   3
ATOM      3  C   UNL     1      -1.758   3.883   0.441  1.00  0.00     0.312 C 
ATOM      4  O   UNL     1      -1.630   3.643  -0.750  1.00  0.00    -0.252 OA
BRANCH   3   5
ATOM      5  C   UNL     1      -0.597   4.067   1.435  1.00  0.00     0.071 C 
ATOM      6  C   UNL     1      -0.495   2.769   2.254  1.00  0.00     0.024 C 
ATOM      7  C   UNL     1      -0.926   5.215   2.418  1.00  0.00     0.024 C 
BRANCH   5   8
ATOM      8  C   UNL     1       0.777   4.398   0.775  1.00  0.00     0.118 C 
BRANCH   8   9
ATOM      9  C   UNL     1       1.016   4.030  -0.681  1.00  0.00     0.221 C 
ATOM     10  N   UNL     1       1.388   2.778  -1.039  1.00  0.00    -0.352 N 
ATOM     11  H   UNL     1       1.325   2.581  -2.001  1.00  0.00     0.163 HD
ATOM     12  O   UNL     1       0.917   4.880  -1.569  1.00  0.00    -0.275 OA
BRANCH  10  13
ATOM     13  C   UNL     1       1.862   1.692  -0.222  1.00  0.00     0.152 C 
BRANCH  13  14
ATOM     14  C   UNL     1       1.030   0.459  -0.420  1.00  0.00    -0.015 A 
ATOM     15  C   UNL     1       2.918  -1.208   0.240  1.00  0.00     0.045 C 
ATOM     16  C   UNL     1       1.518  -0.881  -0.168  1.00  0.00    -0.035 A 
ATOM     17  C   UNL     1       0.524  -1.825  -0.345  1.00  0.00     0.068 A 
ATOM     18  S   UNL     1      -0.958  -1.144  -0.837  1.00  0.00    -0.152 S 
ATOM     19  C   UNL     1      -0.295   0.427  -0.823  1.00  0.00     0.070 A 
ENDBRANCH  13  14
ENDBRANCH  10  13
ENDBRANCH   8   9
ENDBRANCH   5   8
ENDBRANCH   3   5
ENDBRANCH   2   3
ENDBRANCH   1   2
BRANCH   1  20
ATOM     20  C   UNL     1      -4.835   5.059  -0.046  1.00  0.00     0.275 C 
BRANCH  20  21
ATOM     21  O   UNL     1      -3.994   5.895  -0.860  1.00  0.00    -0.458 OA
BRANCH  21  22
ATOM     22  C   UNL     1      -3.518   7.010  -0.267  1.00  0.00     0.338 C 
ATOM     23  O   UNL     1      -3.764   7.434   0.851  1.00  0.00    -0.246 OA
BRANCH  22  24
ATOM     24  C   UNL     1      -2.545   7.642  -1.163  1.00  0.00     0.060 A 
ATOM     25  C   UNL     1      -1.224   7.203  -1.115  1.00  0.00     0.016 A 
ATOM     26  C   UNL     1      -2.904   8.720  -1.970  1.00  0.00     0.016 A 
ATOM     27  C   UNL     1      -0.240   7.849  -1.856  1.00  0.00     0.010 A 
ATOM     28  C   UNL     1      -1.920   9.355  -2.735  1.00  0.00     0.010 A 
ATOM     29  C   UNL     1      -0.578   8.934  -2.667  1.00  0.00    -0.014 A 
BRANCH  29  30
ATOM     30  C   UNL     1       0.485   9.699  -3.358  1.00  0.00     0.031 A 
ATOM     31  C   UNL     1       0.867  11.048  -2.829  1.00  0.00     0.074 A 
ATOM     32  C   UNL     1       1.128   9.186  -4.421  1.00  0.00     0.049 A 
ATOM     33  N   UNL     1       1.622  11.970  -3.367  1.00  0.00    -0.248 NA
ATOM     34  C   UNL     1       0.330  11.402  -1.506  1.00  0.00     0.031 C 
ATOM     35  C   UNL     1       0.947   7.836  -4.952  1.00  0.00     0.029 A 
ATOM     36  N   UNL     1       2.069   9.749  -5.247  1.00  0.00    -0.354 N 
ATOM     37  C   UNL     1       1.611  13.030  -2.472  1.00  0.00     0.074 A 
ATOM     38  C   UNL     1       0.790  12.634  -1.349  1.00  0.00     0.031 C 
ATOM     39  C   UNL     1       1.749   7.676  -6.018  1.00  0.00     0.029 A 
ATOM     40  C   UNL     1       2.448   8.931  -6.282  1.00  0.00     0.049 A 
ATOM     41  H   UNL     1       2.436  10.653  -5.110  1.00  0.00     0.167 HD
ATOM     42  C   UNL     1       2.223  14.232  -2.590  1.00  0.00     0.037 A 
ATOM     43  C   UNL     1       3.236   9.187  -7.343  1.00  0.00     0.037 A 
ATOM     44  C   UNL     1       3.062  14.606  -3.696  1.00  0.00     0.049 A 
ATOM     45  C   UNL     1       3.823  10.564  -7.507  1.00  0.00     0.074 A 
ATOM     46  C   UNL     1       3.714  15.805  -3.922  1.00  0.00     0.029 A 
ATOM     47  N   UNL     1       3.369  13.774  -4.763  1.00  0.00    -0.354 N 
ATOM     48  N   UNL     1       3.752  11.596  -6.702  1.00  0.00    -0.248 NA
ATOM     49  C   UNL     1       4.578  10.819  -8.742  1.00  0.00     0.031 C 
ATOM     50  C   UNL     1       4.388  15.711  -5.145  1.00  0.00     0.029 A 
ATOM     51  C   UNL     1       4.187  14.440  -5.661  1.00  0.00     0.049 A 
ATOM     52  H   UNL     1       3.053  12.848  -4.867  1.00  0.00     0.167 HD
ATOM     53  C   UNL     1       4.471  12.612  -7.317  1.00  0.00     0.074 A 
ATOM     54  C   UNL     1       4.973  12.073  -8.564  1.00  0.00     0.031 C 
ATOM     55  C   UNL     1       4.694  13.877  -6.886  1.00  0.00     0.037 A 
BRANCH  42  56
ATOM     56  C   UNL     1       1.946  15.246  -1.524  1.00  0.00     0.064 A 
ATOM     57  C   UNL     1       2.517  15.159  -0.247  1.00  0.00     0.173 A 
ATOM     58  C   UNL     1       1.085  16.322  -1.790  1.00  0.00     0.173 A 
ATOM     59  F   UNL     1       3.330  14.138   0.061  1.00  0.00    -0.203 F 
ATOM     60  C   UNL     1       2.215  16.100   0.735  1.00  0.00     0.198 A 
ATOM     61  C   UNL     1       0.804  17.272  -0.814  1.00  0.00     0.198 A 
ATOM     62  F   UNL     1       0.514  16.447  -2.998  1.00  0.00    -0.203 F 
ATOM     63  F   UNL     1       2.733  15.973   1.964  1.00  0.00    -0.200 F 
ATOM     64  C   UNL     1       1.362  17.157   0.449  1.00  0.00     0.200 A 
ATOM     65  F   UNL     1      -0.016  18.295  -1.094  1.00  0.00    -0.200 F 
ATOM     66  F   UNL     1       1.069  18.058   1.397  1.00  0.00    -0.200 F 
ENDBRANCH  42  56
BRANCH  43  67
ATOM     67  C   UNL     1       3.481   8.131  -8.358  1.00  0.00     0.064 A 
ATOM     68  C   UNL     1       4.750   7.553  -8.501  1.00  0.00     0.173 A 
ATOM     69  C   UNL     1       2.459   7.684  -9.209  1.00  0.00     0.173 A 
ATOM     70  F   UNL     1       5.766   7.970  -7.732  1.00  0.00    -0.203 F 
ATOM     71  C   UNL     1       4.988   6.572  -9.461  1.00  0.00     0.198 A 
ATOM     72  C   UNL     1       2.693   6.686 -10.152  1.00  0.00     0.198 A 
ATOM     73  F   UNL     1       1.231   8.215  -9.121  1.00  0.00    -0.203 F 
ATOM     74  F   UNL     1       6.219   6.062  -9.604  1.00  0.00    -0.200 F 
ATOM     75  C   UNL     1       3.958   6.134 -10.281  1.00  0.00     0.200 A 
ATOM     76  F   UNL     1       1.695   6.263 -10.939  1.00  0.00    -0.200 F 
ATOM     77  F   UNL     1       4.189   5.189 -11.203  1.00  0.00    -0.200 F 
ENDBRANCH  43  67
BRANCH  55  78
ATOM     78  C   UNL     1       5.557  14.755  -7.740  1.00  0.00     0.064 A 
ATOM     79  C   UNL     1       5.067  15.350  -8.911  1.00  0.00     0.173 A 
ATOM     80  C   UNL     1       6.869  15.055  -7.344  1.00  0.00     0.173 A 
ATOM     81  F   UNL     1       3.824  15.079  -9.336  1.00  0.00    -0.203 F 
ATOM     82  C   UNL     1       5.865  16.210  -9.660  1.00  0.00     0.198 A 
ATOM     83  C   UNL     1       7.656  15.932  -8.084  1.00  0.00     0.198 A 
ATOM     84  F   UNL     1       7.379  14.513  -6.228  1.00  0.00    -0.203 F 
ATOM     85  F   UNL     1       5.387  16.750 -10.790  1.00  0.00    -0.200 F 
ATOM     86  C   UNL     1       7.154  16.508  -9.242  1.00  0.00     0.200 A 
ATOM     87  F   UNL     1       8.897  16.226  -7.674  1.00  0.00    -0.200 F 
ATOM     88  F   UNL     1       7.915  17.346  -9.958  1.00  0.00    -0.200 F 
ENDBRANCH  55  78
ENDBRANCH  29  30
ENDBRANCH  22  24
ENDBRANCH  21  22
ENDBRANCH  20  21
ENDBRANCH   1  20
TORSDOF 15
