REMARK SMILES COc1cc2c(CC(=O)OCCOC(=O)c3ccc(-c4c5nc(c(-c6c(F)c(F)c(F)c(F)c6F)c6ccc([nH]6)c(-c6c(F)c(F)c(F)c(F)c6F)c6nc(c(-c7c(F)c(F)c(F)c(F)c7F)c7ccc4[nH]7)C=C6)C=C5)cc3)c(C)n(C(=O)c3ccc(Cl)cc3)c2cc1Cl
REMARK SMILES IDX 11 1 10 2 8 3 9 4 7 5 6 6 3 7 4 8 93 9 5 10 92 11 94 12
REMARK SMILES IDX 91 13 79 14 81 15 80 16 2 17 1 18 82 19 83 20 84 21 85 22
REMARK SMILES IDX 90 23 86 24 89 25 87 26 88 27 12 28 13 29 14 30 15 31 16 32
REMARK SMILES IDX 17 33 78 34 18 35 77 36 19 37 20 38 21 39 71 40 22 41 76 42
REMARK SMILES IDX 70 43 72 44 23 45 75 46 69 47 68 48 24 50 56 51 36 52 55 53
REMARK SMILES IDX 37 54 40 55 54 56 73 57 38 58 39 59 53 61 74 62 41 63 25 64
REMARK SMILES IDX 26 65 34 66 27 67 28 68 32 69 35 70 29 71 30 72 33 73 31 74
REMARK SMILES IDX 57 75 58 76 66 77 59 78 60 79 64 80 67 81 61 82 62 83 65 84
REMARK SMILES IDX 63 85 42 86 43 87 51 88 44 89 45 90 49 91 52 92 46 93 47 94
REMARK SMILES IDX 50 95 48 96
REMARK H PARENT 72 49 40 60
REMARK Flexibility Score: inf
ROOT
ATOM      1  C   UNL     1      -1.408   2.945  -6.653  1.00  0.00     0.274 C 
ENDROOT
BRANCH   1   2
ATOM      2  O   UNL     1      -0.827   3.652  -5.532  1.00  0.00    -0.462 OA
BRANCH   2   3
ATOM      3  C   UNL     1      -1.696   4.451  -4.874  1.00  0.00     0.310 C 
ATOM      4  O   UNL     1      -2.883   4.544  -5.175  1.00  0.00    -0.252 OA
BRANCH   3   5
ATOM      5  C   UNL     1      -1.109   5.329  -3.806  1.00  0.00     0.160 C 
BRANCH   5   6
ATOM      6  C   UNL     1       0.291   5.139  -3.295  1.00  0.00    -0.008 A 
ATOM      7  C   UNL     1       1.358   1.847  -1.524  1.00  0.00     0.138 A 
ATOM      8  C   UNL     1       0.553   2.692  -2.315  1.00  0.00     0.058 A 
ATOM      9  C   UNL     1       2.601   2.301  -1.122  1.00  0.00     0.085 A 
ATOM     10  C   UNL     1       0.917   4.026  -2.636  1.00  0.00     0.008 A 
ATOM     11  C   UNL     1       2.992   3.610  -1.417  1.00  0.00     0.051 A 
ATOM     12  Cl  UNL     1       3.803   1.295  -0.390  1.00  0.00    -0.080 Cl
ATOM     13  C   UNL     1       2.176   4.457  -2.204  1.00  0.00     0.058 A 
ATOM     14  C   UNL     1       1.182   6.206  -3.210  1.00  0.00     0.028 A 
ATOM     15  N   UNL     1       2.405   5.733  -2.748  1.00  0.00    -0.280 N 
ATOM     16  C   UNL     1       0.908   7.631  -3.591  1.00  0.00     0.065 C 
BRANCH   7  17
ATOM     17  O   UNL     1       0.860   0.588  -1.300  1.00  0.00    -0.495 OA
ATOM     18  C   UNL     1       0.869   0.160   0.065  1.00  0.00     0.278 C 
ENDBRANCH   7  17
BRANCH  15  19
ATOM     19  C   UNL     1       3.655   6.404  -2.831  1.00  0.00     0.262 C 
ATOM     20  O   UNL     1       3.709   7.543  -3.287  1.00  0.00    -0.268 OA
BRANCH  19  21
ATOM     21  C   UNL     1       4.930   5.803  -2.425  1.00  0.00     0.040 A 
ATOM     22  C   UNL     1       5.448   4.722  -3.147  1.00  0.00     0.015 A 
ATOM     23  C   UNL     1       5.520   6.241  -1.236  1.00  0.00     0.015 A 
ATOM     24  C   UNL     1       6.534   4.021  -2.624  1.00  0.00     0.021 A 
ATOM     25  C   UNL     1       6.608   5.537  -0.725  1.00  0.00     0.021 A 
ATOM     26  C   UNL     1       7.098   4.421  -1.410  1.00  0.00     0.041 A 
ATOM     27  Cl  UNL     1       8.383   3.506  -0.728  1.00  0.00    -0.084 Cl
ENDBRANCH  19  21
ENDBRANCH  15  19
ENDBRANCH   5   6
ENDBRANCH   3   5
ENDBRANCH   2   3
ENDBRANCH   1   2
BRANCH   1  28
ATOM     28  C   UNL     1      -1.768   1.505  -6.274  1.00  0.00     0.275 C 
BRANCH  28  29
ATOM     29  O   UNL     1      -2.930   1.507  -5.418  1.00  0.00    -0.458 OA
BRANCH  29  30
ATOM     30  C   UNL     1      -2.736   1.133  -4.127  1.00  0.00     0.338 C 
ATOM     31  O   UNL     1      -1.823   0.516  -3.664  1.00  0.00    -0.246 OA
BRANCH  30  32
ATOM     32  C   UNL     1      -3.671   1.986  -3.334  1.00  0.00     0.060 A 
ATOM     33  C   UNL     1      -4.973   2.228  -3.764  1.00  0.00     0.016 A 
ATOM     34  C   UNL     1      -3.084   2.780  -2.356  1.00  0.00     0.016 A 
ATOM     35  C   UNL     1      -5.601   3.403  -3.365  1.00  0.00     0.010 A 
ATOM     36  C   UNL     1      -3.678   3.976  -2.014  1.00  0.00     0.010 A 
ATOM     37  C   UNL     1      -4.895   4.327  -2.585  1.00  0.00    -0.014 A 
BRANCH  37  38
ATOM     38  C   UNL     1      -5.482   5.603  -2.218  1.00  0.00     0.031 A 
ATOM     39  C   UNL     1      -6.183   5.569  -0.917  1.00  0.00     0.074 A 
ATOM     40  C   UNL     1      -5.304   6.790  -2.829  1.00  0.00     0.049 A 
ATOM     41  N   UNL     1      -7.458   5.519  -0.728  1.00  0.00    -0.248 NA
ATOM     42  C   UNL     1      -5.380   5.449   0.307  1.00  0.00     0.031 C 
ATOM     43  C   UNL     1      -4.390   7.183  -3.896  1.00  0.00     0.029 A 
ATOM     44  N   UNL     1      -5.940   7.960  -2.533  1.00  0.00    -0.354 N 
ATOM     45  C   UNL     1      -7.631   5.494   0.647  1.00  0.00     0.074 A 
ATOM     46  C   UNL     1      -6.330   5.278   1.225  1.00  0.00     0.031 C 
ATOM     47  C   UNL     1      -4.408   8.530  -4.044  1.00  0.00     0.029 A 
ATOM     48  C   UNL     1      -5.455   9.074  -3.198  1.00  0.00     0.049 A 
ATOM     49  H   UNL     1      -6.688   8.008  -1.895  1.00  0.00     0.167 HD
ATOM     50  C   UNL     1      -8.806   5.854   1.226  1.00  0.00     0.037 A 
ATOM     51  C   UNL     1      -5.896  10.347  -3.046  1.00  0.00     0.037 A 
ATOM     52  C   UNL     1      -9.877   5.929   0.269  1.00  0.00     0.049 A 
ATOM     53  C   UNL     1      -7.264  10.269  -2.471  1.00  0.00     0.074 A 
ATOM     54  C   UNL     1     -10.461   5.015  -0.589  1.00  0.00     0.029 A 
ATOM     55  N   UNL     1     -10.227   7.164  -0.222  1.00  0.00    -0.354 N 
ATOM     56  N   UNL     1      -8.304   9.816  -3.114  1.00  0.00    -0.248 NA
ATOM     57  C   UNL     1      -7.394  10.307  -1.022  1.00  0.00     0.031 C 
ATOM     58  C   UNL     1     -10.691   5.737  -1.800  1.00  0.00     0.029 A 
ATOM     59  C   UNL     1     -10.277   7.053  -1.591  1.00  0.00     0.049 A 
ATOM     60  H   UNL     1     -10.407   7.975   0.307  1.00  0.00     0.167 HD
ATOM     61  C   UNL     1      -9.042   9.133  -2.159  1.00  0.00     0.074 A 
ATOM     62  C   UNL     1      -8.483   9.549  -0.877  1.00  0.00     0.031 C 
ATOM     63  C   UNL     1      -9.854   8.091  -2.503  1.00  0.00     0.037 A 
BRANCH  50  64
ATOM     64  C   UNL     1      -8.897   6.401   2.616  1.00  0.00     0.064 A 
ATOM     65  C   UNL     1     -10.123   6.383   3.300  1.00  0.00     0.173 A 
ATOM     66  C   UNL     1      -7.859   7.142   3.224  1.00  0.00     0.173 A 
ATOM     67  F   UNL     1     -11.185   5.753   2.777  1.00  0.00    -0.203 F 
ATOM     68  C   UNL     1     -10.297   7.067   4.506  1.00  0.00     0.198 A 
ATOM     69  C   UNL     1      -8.016   7.768   4.456  1.00  0.00     0.198 A 
ATOM     70  F   UNL     1      -6.695   7.365   2.599  1.00  0.00    -0.203 F 
ATOM     71  F   UNL     1     -11.506   7.103   5.081  1.00  0.00    -0.200 F 
ATOM     72  C   UNL     1      -9.241   7.749   5.088  1.00  0.00     0.200 A 
ATOM     73  F   UNL     1      -6.988   8.442   4.990  1.00  0.00    -0.200 F 
ATOM     74  F   UNL     1      -9.415   8.427   6.229  1.00  0.00    -0.200 F 
ENDBRANCH  50  64
BRANCH  51  75
ATOM     75  C   UNL     1      -5.141  11.619  -3.097  1.00  0.00     0.064 A 
ATOM     76  C   UNL     1      -5.814  12.850  -3.183  1.00  0.00     0.173 A 
ATOM     77  C   UNL     1      -3.780  11.671  -2.743  1.00  0.00     0.173 A 
ATOM     78  F   UNL     1      -7.119  12.886  -3.487  1.00  0.00    -0.203 F 
ATOM     79  C   UNL     1      -5.177  14.057  -2.877  1.00  0.00     0.198 A 
ATOM     80  C   UNL     1      -3.144  12.877  -2.443  1.00  0.00     0.198 A 
ATOM     81  F   UNL     1      -3.069  10.545  -2.581  1.00  0.00    -0.203 F 
ATOM     82  F   UNL     1      -5.873  15.202  -2.891  1.00  0.00    -0.200 F 
ATOM     83  C   UNL     1      -3.848  14.067  -2.490  1.00  0.00     0.200 A 
ATOM     84  F   UNL     1      -1.866  12.871  -2.038  1.00  0.00    -0.200 F 
ATOM     85  F   UNL     1      -3.259  15.212  -2.119  1.00  0.00    -0.200 F 
ENDBRANCH  51  75
BRANCH  63  86
ATOM     86  C   UNL     1     -10.118   7.864  -3.968  1.00  0.00     0.064 A 
ATOM     87  C   UNL     1      -9.121   7.527  -4.902  1.00  0.00     0.173 A 
ATOM     88  C   UNL     1     -11.446   7.845  -4.414  1.00  0.00     0.173 A 
ATOM     89  F   UNL     1      -7.838   7.428  -4.535  1.00  0.00    -0.203 F 
ATOM     90  C   UNL     1      -9.439   7.226  -6.226  1.00  0.00     0.198 A 
ATOM     91  C   UNL     1     -11.764   7.510  -5.728  1.00  0.00     0.198 A 
ATOM     92  F   UNL     1     -12.446   8.107  -3.558  1.00  0.00    -0.203 F 
ATOM     93  F   UNL     1      -8.468   6.918  -7.099  1.00  0.00    -0.200 F 
ATOM     94  C   UNL     1     -10.761   7.210  -6.636  1.00  0.00     0.200 A 
ATOM     95  F   UNL     1     -13.048   7.449  -6.108  1.00  0.00    -0.200 F 
ATOM     96  F   UNL     1     -11.072   6.877  -7.897  1.00  0.00    -0.200 F 
ENDBRANCH  63  86
ENDBRANCH  37  38
ENDBRANCH  30  32
ENDBRANCH  29  30
ENDBRANCH  28  29
ENDBRANCH   1  28
TORSDOF 15
