REMARK SMILES O=C(N/N=C/c1ccccc1O)C(=O)Nc1cccc(C(=O)OCCOC(=O)c2ccc(-c3c4nc(c(-c5c(F)c(F)c(F)c(F)c5F)c5ccc([nH]5)c(-c5c(F)c(F)c(F)c(F)c5F)c5nc(c(-c6c(F)c(F)c(F)c(F)c6F)c6ccc3[nH]6)C=C5)C=C4)cc2)c1
REMARK SMILES IDX 23 1 21 2 22 3 20 4 16 5 17 6 92 7 18 8 19 9 15 10 13 11
REMARK SMILES IDX 14 12 2 14 1 15 3 16 4 18 5 19 6 20 7 21 11 22 8 23 10 24
REMARK SMILES IDX 9 25 12 26 24 28 25 29 26 30 27 31 28 32 29 33 30 34 91 35
REMARK SMILES IDX 31 36 90 37 32 38 33 39 34 40 84 41 35 42 89 43 83 44 85 45
REMARK SMILES IDX 36 46 88 47 82 48 81 49 37 51 69 52 49 53 68 54 50 55 53 56
REMARK SMILES IDX 67 57 86 58 51 59 52 60 66 62 87 63 54 64 38 65 39 66 47 67
REMARK SMILES IDX 40 68 41 69 45 70 48 71 42 72 43 73 46 74 44 75 70 76 71 77
REMARK SMILES IDX 79 78 72 79 73 80 77 81 80 82 74 83 75 84 78 85 76 86 55 87
REMARK SMILES IDX 56 88 64 89 57 90 58 91 62 92 65 93 59 94 60 95 63 96 61 97
REMARK H PARENT 15 13 3 17 12 27 85 50 53 61
REMARK Flexibility Score: inf
ROOT
ATOM      1  O   UNL     1       4.182   3.698  -1.301  1.00  0.00    -0.458 OA
ENDROOT
BRANCH   1   2
ATOM      2  C   UNL     1       4.609   2.754  -2.172  1.00  0.00     0.338 C 
ATOM      3  O   UNL     1       4.625   2.826  -3.390  1.00  0.00    -0.246 OA
BRANCH   2   4
ATOM      4  C   UNL     1       5.120   1.567  -1.449  1.00  0.00     0.062 A 
ATOM      5  C   UNL     1       4.790  -0.386   1.016  1.00  0.00     0.042 A 
ATOM      6  C   UNL     1       5.479  -1.754   0.037  1.00  0.00     0.026 A 
ATOM      7  C   UNL     1       4.646   1.277   0.313  1.00  0.00     0.041 A 
ATOM      8  C   UNL     1       6.060  -1.435  -1.681  1.00  0.00     0.003 A 
ATOM      9  C   UNL     1       5.859   0.212  -2.413  1.00  0.00     0.016 A 
BRANCH   5  10
ATOM     10  N   UNL     1       3.798  -0.817   1.904  1.00  0.00    -0.318 N 
ATOM     11  C   UNL     1       2.449  -0.971   1.592  1.00  0.00     0.315 C 
ATOM     12  O   UNL     1       1.786  -1.721   2.314  1.00  0.00    -0.263 OA
ATOM     13  H   UNL     1       4.076  -1.028   2.825  1.00  0.00     0.170 HD
BRANCH  11  14
ATOM     14  C   UNL     1       1.709  -0.309   0.406  1.00  0.00     0.329 C 
ATOM     15  O   UNL     1       0.600   0.186   0.607  1.00  0.00    -0.262 OA
ATOM     16  N   UNL     1       2.193  -0.429  -0.902  1.00  0.00    -0.239 N 
ATOM     17  H   UNL     1       1.763  -1.014  -1.567  1.00  0.00     0.194 HD
BRANCH  16  18
ATOM     18  N   UNL     1       3.303   0.318  -1.201  1.00  0.00    -0.180 NA
ATOM     19  C   UNL     1       4.514  -0.307  -0.974  1.00  0.00     0.145 C 
BRANCH  19  20
ATOM     20  C   UNL     1       6.460   0.239  -0.313  1.00  0.00     0.036 A 
ATOM     21  C   UNL     1       7.588  -0.678   0.192  1.00  0.00     0.013 A 
ATOM     22  C   UNL     1       7.238   1.580  -0.234  1.00  0.00     0.124 A 
ATOM     23  C   UNL     1       8.979  -0.451   0.407  1.00  0.00     0.001 A 
ATOM     24  C   UNL     1       8.659   1.792  -0.117  1.00  0.00     0.047 A 
ATOM     25  C   UNL     1       9.531   0.771   0.161  1.00  0.00     0.004 A 
BRANCH  22  26
ATOM     26  O   UNL     1       6.620   2.834  -0.168  1.00  0.00    -0.507 OA
ATOM     27  H   UNL     1       5.687   2.901  -0.226  1.00  0.00     0.293 HD
ENDBRANCH  22  26
ENDBRANCH  19  20
ENDBRANCH  16  18
ENDBRANCH  11  14
ENDBRANCH   5  10
ENDBRANCH   2   4
ENDBRANCH   1   2
BRANCH   1  28
ATOM     28  C   UNL     1       3.695   4.914  -1.892  1.00  0.00     0.275 C 
BRANCH  28  29
ATOM     29  C   UNL     1       4.785   5.987  -1.950  1.00  0.00     0.275 C 
BRANCH  29  30
ATOM     30  O   UNL     1       5.875   5.580  -2.798  1.00  0.00    -0.458 OA
BRANCH  30  31
ATOM     31  C   UNL     1       7.042   5.304  -2.178  1.00  0.00     0.338 C 
ATOM     32  O   UNL     1       7.323   5.407  -0.994  1.00  0.00    -0.246 OA
BRANCH  31  33
ATOM     33  C   UNL     1       7.985   4.720  -3.138  1.00  0.00     0.060 A 
ATOM     34  C   UNL     1       7.867   3.363  -3.433  1.00  0.00     0.016 A 
ATOM     35  C   UNL     1       9.074   5.450  -3.608  1.00  0.00     0.016 A 
ATOM     36  C   UNL     1       8.841   2.712  -4.175  1.00  0.00     0.010 A 
ATOM     37  C   UNL     1      10.032   4.809  -4.401  1.00  0.00     0.010 A 
ATOM     38  C   UNL     1       9.929   3.432  -4.676  1.00  0.00    -0.014 A 
BRANCH  38  39
ATOM     39  C   UNL     1      10.979   2.730  -5.450  1.00  0.00     0.031 A 
ATOM     40  C   UNL     1      12.367   2.618  -4.892  1.00  0.00     0.074 A 
ATOM     41  C   UNL     1      10.683   2.182  -6.643  1.00  0.00     0.049 A 
ATOM     42  N   UNL     1      13.466   2.221  -5.478  1.00  0.00    -0.248 NA
ATOM     43  C   UNL     1      12.542   3.014  -3.486  1.00  0.00     0.031 C 
ATOM     44  C   UNL     1       9.355   2.160  -7.258  1.00  0.00     0.029 A 
ATOM     45  N   UNL     1      11.484   1.542  -7.554  1.00  0.00    -0.354 N 
ATOM     46  C   UNL     1      14.472   2.369  -4.533  1.00  0.00     0.074 A 
ATOM     47  C   UNL     1      13.852   2.886  -3.331  1.00  0.00     0.031 C 
ATOM     48  C   UNL     1       9.431   1.533  -8.441  1.00  0.00     0.029 A 
ATOM     49  C   UNL     1      10.822   1.181  -8.702  1.00  0.00     0.049 A 
ATOM     50  H   UNL     1      12.439   1.360  -7.401  1.00  0.00     0.167 HD
ATOM     51  C   UNL     1      15.793   2.103  -4.667  1.00  0.00     0.037 A 
ATOM     52  C   UNL     1      11.294   0.673  -9.855  1.00  0.00     0.037 A 
ATOM     53  C   UNL     1      16.388   1.550  -5.856  1.00  0.00     0.049 A 
ATOM     54  C   UNL     1      12.771   0.435  -9.998  1.00  0.00     0.074 A 
ATOM     55  C   UNL     1      17.714   1.227  -6.088  1.00  0.00     0.029 A 
ATOM     56  N   UNL     1      15.690   1.230  -7.011  1.00  0.00    -0.354 N 
ATOM     57  N   UNL     1      13.727   0.627  -9.122  1.00  0.00    -0.248 NA
ATOM     58  C   UNL     1      13.236  -0.068 -11.297  1.00  0.00     0.031 C 
ATOM     59  C   UNL     1      17.823   0.747  -7.398  1.00  0.00     0.029 A 
ATOM     60  C   UNL     1      16.559   0.730  -7.967  1.00  0.00     0.049 A 
ATOM     61  H   UNL     1      14.720   1.343  -7.134  1.00  0.00     0.167 HD
ATOM     62  C   UNL     1      14.905   0.261  -9.758  1.00  0.00     0.074 A 
ATOM     63  C   UNL     1      14.541  -0.184 -11.088  1.00  0.00     0.031 C 
ATOM     64  C   UNL     1      16.175   0.295  -9.285  1.00  0.00     0.037 A 
BRANCH  51  65
ATOM     65  C   UNL     1      16.690   2.446  -3.516  1.00  0.00     0.064 A 
ATOM     66  C   UNL     1      16.704   1.694  -2.333  1.00  0.00     0.173 A 
ATOM     67  C   UNL     1      17.574   3.533  -3.614  1.00  0.00     0.173 A 
ATOM     68  F   UNL     1      15.865   0.658  -2.181  1.00  0.00    -0.203 F 
ATOM     69  C   UNL     1      17.555   2.030  -1.282  1.00  0.00     0.198 A 
ATOM     70  C   UNL     1      18.441   3.849  -2.573  1.00  0.00     0.198 A 
ATOM     71  F   UNL     1      17.600   4.284  -4.726  1.00  0.00    -0.203 F 
ATOM     72  F   UNL     1      17.520   1.324  -0.143  1.00  0.00    -0.200 F 
ATOM     73  C   UNL     1      18.426   3.102  -1.405  1.00  0.00     0.200 A 
ATOM     74  F   UNL     1      19.288   4.881  -2.697  1.00  0.00    -0.200 F 
ATOM     75  F   UNL     1      19.247   3.420  -0.394  1.00  0.00    -0.200 F 
ENDBRANCH  51  65
BRANCH  52  76
ATOM     76  C   UNL     1      10.360   0.406 -10.979  1.00  0.00     0.064 A 
ATOM     77  C   UNL     1      10.068  -0.904 -11.377  1.00  0.00     0.173 A 
ATOM     78  C   UNL     1       9.729   1.455 -11.665  1.00  0.00     0.173 A 
ATOM     79  F   UNL     1      10.666  -1.938 -10.768  1.00  0.00    -0.203 F 
ATOM     80  C   UNL     1       9.182  -1.156 -12.424  1.00  0.00     0.198 A 
ATOM     81  C   UNL     1       8.823   1.202 -12.691  1.00  0.00     0.198 A 
ATOM     82  F   UNL     1       9.978   2.728 -11.322  1.00  0.00    -0.203 F 
ATOM     83  F   UNL     1       8.946  -2.417 -12.809  1.00  0.00    -0.200 F 
ATOM     84  C   UNL     1       8.554  -0.103 -13.074  1.00  0.00     0.200 A 
ATOM     85  F   UNL     1       8.209   2.221 -13.307  1.00  0.00    -0.200 F 
ATOM     86  F   UNL     1       7.695  -0.347 -14.072  1.00  0.00    -0.200 F 
ENDBRANCH  52  76
BRANCH  64  87
ATOM     87  C   UNL     1      17.257  -0.182 -10.206  1.00  0.00     0.064 A 
ATOM     88  C   UNL     1      17.691   0.596 -11.289  1.00  0.00     0.173 A 
ATOM     89  C   UNL     1      17.888  -1.414  -9.982  1.00  0.00     0.173 A 
ATOM     90  F   UNL     1      17.105   1.773 -11.553  1.00  0.00    -0.203 F 
ATOM     91  C   UNL     1      18.707   0.146 -12.128  1.00  0.00     0.198 A 
ATOM     92  C   UNL     1      18.920  -1.849 -10.809  1.00  0.00     0.198 A 
ATOM     93  F   UNL     1      17.509  -2.191  -8.956  1.00  0.00    -0.203 F 
ATOM     94  F   UNL     1      19.079   0.885 -13.183  1.00  0.00    -0.200 F 
ATOM     95  C   UNL     1      19.324  -1.073 -11.884  1.00  0.00     0.200 A 
ATOM     96  F   UNL     1      19.521  -3.022 -10.565  1.00  0.00    -0.200 F 
ATOM     97  F   UNL     1      20.304  -1.502 -12.690  1.00  0.00    -0.200 F 
ENDBRANCH  64  87
ENDBRANCH  38  39
ENDBRANCH  31  33
ENDBRANCH  30  31
ENDBRANCH  29  30
ENDBRANCH  28  29
ENDBRANCH   1  28
TORSDOF 16
