REMARK SMILES CC(C)c1ccc(C[N@@H+](CC(=O)OCCOC(=O)c2ccc(-c3c4nc(c(-c5c(F)c(F)c(F)c(F)c5F)c5ccc([nH]5)c(-c5c(F)c(F)c(F)c(F)c5F)c5nc(c(-c6c(F)c(F)c(F)c(F)c6F)c6ccc3[nH]6)C=C5)C=C4)cc2)CC(F)(F)F)cc1
REMARK SMILES IDX 14 1 13 2 11 3 12 4 10 5 9 6 8 8 7 9 4 10 5 11 88 12 6 13
REMARK SMILES IDX 87 14 2 15 1 16 3 17 82 18 83 19 84 20 85 21 86 22 15 23
REMARK SMILES IDX 16 24 17 25 18 26 19 27 20 28 81 29 21 30 80 31 22 32 23 33
REMARK SMILES IDX 24 34 74 35 25 36 79 37 73 38 75 39 26 40 78 41 72 42 71 43
REMARK SMILES IDX 27 45 59 46 39 47 58 48 40 49 43 50 57 51 76 52 41 53 42 54
REMARK SMILES IDX 56 56 77 57 44 58 28 59 29 60 37 61 30 62 31 63 35 64 38 65
REMARK SMILES IDX 32 66 33 67 36 68 34 69 60 70 61 71 69 72 62 73 63 74 67 75
REMARK SMILES IDX 70 76 64 77 65 78 68 79 66 80 45 81 46 82 54 83 47 84 48 85
REMARK SMILES IDX 52 86 55 87 49 88 50 89 53 90 51 91
REMARK H PARENT 9 7 75 44 43 55
REMARK Flexibility Score: inf
ROOT
ATOM      1  C   UNL     1      -8.590  -2.390  -0.974  1.00  0.00     0.274 C 
ENDROOT
BRANCH   1   2
ATOM      2  O   UNL     1      -7.605  -1.335  -0.940  1.00  0.00    -0.458 OA
BRANCH   2   3
ATOM      3  C   UNL     1      -8.046  -0.112  -0.554  1.00  0.00     0.361 C 
ATOM      4  O   UNL     1      -9.196   0.117  -0.185  1.00  0.00    -0.245 OA
BRANCH   3   5
ATOM      5  C   UNL     1      -7.021   1.012  -0.693  1.00  0.00     0.387 C 
BRANCH   5   6
ATOM      6  N   UNL     1      -5.594   0.681  -0.551  1.00  0.00    -0.314 N 
ATOM      7  H   UNL     1      -5.106   1.573  -0.638  1.00  0.00     0.349 HD
BRANCH   6   8
ATOM      8  C   UNL     1      -5.014  -0.033  -1.683  1.00  0.00     0.299 C 
BRANCH   8   9
ATOM      9  C   UNL     1      -3.513   0.124  -1.772  1.00  0.00     0.006 A 
ATOM     10  C   UNL     1      -0.700   0.338  -1.689  1.00  0.00    -0.045 A 
ATOM     11  C   UNL     1      -1.507   1.478  -1.568  1.00  0.00     0.004 A 
ATOM     12  C   UNL     1      -1.318  -0.901  -1.904  1.00  0.00     0.004 A 
ATOM     13  C   UNL     1      -2.899   1.375  -1.620  1.00  0.00     0.010 A 
ATOM     14  C   UNL     1      -2.708  -1.005  -1.960  1.00  0.00     0.010 A 
BRANCH  10  15
ATOM     15  C   UNL     1       0.801   0.460  -1.502  1.00  0.00     0.013 C 
ATOM     16  C   UNL     1       1.187   0.049  -0.077  1.00  0.00     0.012 C 
ATOM     17  C   UNL     1       1.602  -0.341  -2.531  1.00  0.00     0.012 C 
ENDBRANCH  10  15
ENDBRANCH   8   9
ENDBRANCH   6   8
BRANCH   6  18
ATOM     18  C   UNL     1      -5.164   0.307   0.820  1.00  0.00     0.380 C 
BRANCH  18  19
ATOM     19  C   UNL     1      -4.235  -0.887   1.169  1.00  0.00     0.438 C 
ATOM     20  F   UNL     1      -2.932  -0.583   0.980  1.00  0.00    -0.165 F 
ATOM     21  F   UNL     1      -4.348  -1.196   2.487  1.00  0.00    -0.165 F 
ATOM     22  F   UNL     1      -4.513  -1.999   0.455  1.00  0.00    -0.165 F 
ENDBRANCH  18  19
ENDBRANCH   6  18
ENDBRANCH   5   6
ENDBRANCH   3   5
ENDBRANCH   2   3
ENDBRANCH   1   2
BRANCH   1  23
ATOM     23  C   UNL     1      -8.566  -3.272   0.277  1.00  0.00     0.275 C 
BRANCH  23  24
ATOM     24  O   UNL     1      -9.004  -2.557   1.449  1.00  0.00    -0.458 OA
BRANCH  24  25
ATOM     25  C   UNL     1      -7.994  -2.016   2.162  1.00  0.00     0.338 C 
ATOM     26  O   UNL     1      -6.803  -2.092   1.921  1.00  0.00    -0.246 OA
BRANCH  25  27
ATOM     27  C   UNL     1      -8.488  -1.198   3.272  1.00  0.00     0.060 A 
ATOM     28  C   UNL     1      -8.437   0.192   3.140  1.00  0.00     0.016 A 
ATOM     29  C   UNL     1      -8.804  -1.790   4.495  1.00  0.00     0.016 A 
ATOM     30  C   UNL     1      -8.676   1.000   4.244  1.00  0.00     0.010 A 
ATOM     31  C   UNL     1      -9.075  -0.975   5.598  1.00  0.00     0.010 A 
ATOM     32  C   UNL     1      -8.995   0.422   5.481  1.00  0.00    -0.014 A 
BRANCH  32  33
ATOM     33  C   UNL     1      -9.283   1.310   6.630  1.00  0.00     0.031 A 
ATOM     34  C   UNL     1      -8.280   1.503   7.727  1.00  0.00     0.074 A 
ATOM     35  C   UNL     1     -10.447   1.984   6.638  1.00  0.00     0.049 A 
ATOM     36  N   UNL     1      -8.365   2.255   8.795  1.00  0.00    -0.248 NA
ATOM     37  C   UNL     1      -7.019   0.757   7.612  1.00  0.00     0.031 C 
ATOM     38  C   UNL     1     -11.479   1.883   5.606  1.00  0.00     0.029 A 
ATOM     39  N   UNL     1     -10.946   2.898   7.527  1.00  0.00    -0.354 N 
ATOM     40  C   UNL     1      -7.179   2.060   9.490  1.00  0.00     0.074 A 
ATOM     41  C   UNL     1      -6.391   1.116   8.725  1.00  0.00     0.031 C 
ATOM     42  C   UNL     1     -12.477   2.729   5.902  1.00  0.00     0.029 A 
ATOM     43  C   UNL     1     -12.169   3.401   7.161  1.00  0.00     0.049 A 
ATOM     44  H   UNL     1     -10.474   3.169   8.347  1.00  0.00     0.167 HD
ATOM     45  C   UNL     1      -6.792   2.619  10.662  1.00  0.00     0.037 A 
ATOM     46  C   UNL     1     -12.956   4.301   7.776  1.00  0.00     0.037 A 
ATOM     47  C   UNL     1      -7.578   3.566  11.411  1.00  0.00     0.049 A 
ATOM     48  C   UNL     1     -12.495   4.914   9.065  1.00  0.00     0.074 A 
ATOM     49  C   UNL     1      -7.282   4.177  12.618  1.00  0.00     0.029 A 
ATOM     50  N   UNL     1      -8.820   4.045  11.018  1.00  0.00    -0.354 N 
ATOM     51  N   UNL     1     -11.382   4.706   9.724  1.00  0.00    -0.248 NA
ATOM     52  C   UNL     1     -13.399   5.884   9.695  1.00  0.00     0.031 C 
ATOM     53  C   UNL     1      -8.354   5.008  12.965  1.00  0.00     0.029 A 
ATOM     54  C   UNL     1      -9.305   4.939  11.960  1.00  0.00     0.049 A 
ATOM     55  H   UNL     1      -9.288   3.787  10.191  1.00  0.00     0.167 HD
ATOM     56  C   UNL     1     -11.448   5.516  10.847  1.00  0.00     0.074 A 
ATOM     57  C   UNL     1     -12.700   6.242  10.764  1.00  0.00     0.031 C 
ATOM     58  C   UNL     1     -10.558   5.640  11.861  1.00  0.00     0.037 A 
BRANCH  45  59
ATOM     59  C   UNL     1      -5.467   2.200  11.224  1.00  0.00     0.064 A 
ATOM     60  C   UNL     1      -4.260   2.687  10.703  1.00  0.00     0.173 A 
ATOM     61  C   UNL     1      -5.407   1.335  12.327  1.00  0.00     0.173 A 
ATOM     62  F   UNL     1      -4.265   3.507   9.642  1.00  0.00    -0.203 F 
ATOM     63  C   UNL     1      -3.039   2.313  11.260  1.00  0.00     0.198 A 
ATOM     64  C   UNL     1      -4.186   0.978  12.892  1.00  0.00     0.198 A 
ATOM     65  F   UNL     1      -6.535   0.845  12.863  1.00  0.00    -0.203 F 
ATOM     66  F   UNL     1      -1.895   2.769  10.730  1.00  0.00    -0.200 F 
ATOM     67  C   UNL     1      -3.003   1.464  12.356  1.00  0.00     0.200 A 
ATOM     68  F   UNL     1      -4.154   0.164  13.956  1.00  0.00    -0.200 F 
ATOM     69  F   UNL     1      -1.827   1.111  12.895  1.00  0.00    -0.200 F 
ENDBRANCH  45  59
BRANCH  46  70
ATOM     70  C   UNL     1     -14.250   4.678   7.157  1.00  0.00     0.064 A 
ATOM     71  C   UNL     1     -14.417   5.928   6.548  1.00  0.00     0.173 A 
ATOM     72  C   UNL     1     -15.326   3.780   7.122  1.00  0.00     0.173 A 
ATOM     73  F   UNL     1     -13.420   6.824   6.573  1.00  0.00    -0.203 F 
ATOM     74  C   UNL     1     -15.616   6.266   5.925  1.00  0.00     0.198 A 
ATOM     75  C   UNL     1     -16.516   4.111   6.480  1.00  0.00     0.198 A 
ATOM     76  F   UNL     1     -15.209   2.570   7.689  1.00  0.00    -0.203 F 
ATOM     77  F   UNL     1     -15.761   7.476   5.367  1.00  0.00    -0.200 F 
ATOM     78  C   UNL     1     -16.661   5.354   5.884  1.00  0.00     0.200 A 
ATOM     79  F   UNL     1     -17.517   3.222   6.430  1.00  0.00    -0.200 F 
ATOM     80  F   UNL     1     -17.809   5.675   5.272  1.00  0.00    -0.200 F 
ENDBRANCH  46  70
BRANCH  58  81
ATOM     81  C   UNL     1     -10.918   6.597  12.955  1.00  0.00     0.064 A 
ATOM     82  C   UNL     1     -11.880   6.267  13.921  1.00  0.00     0.173 A 
ATOM     83  C   UNL     1     -10.297   7.851  13.040  1.00  0.00     0.173 A 
ATOM     84  F   UNL     1     -12.512   5.084  13.867  1.00  0.00    -0.203 F 
ATOM     85  C   UNL     1     -12.228   7.172  14.919  1.00  0.00     0.198 A 
ATOM     86  C   UNL     1     -10.634   8.746  14.051  1.00  0.00     0.198 A 
ATOM     87  F   UNL     1      -9.371   8.209  12.139  1.00  0.00    -0.203 F 
ATOM     88  F   UNL     1     -13.183   6.855  15.804  1.00  0.00    -0.200 F 
ATOM     89  C   UNL     1     -11.604   8.409  14.984  1.00  0.00     0.200 A 
ATOM     90  F   UNL     1     -10.030   9.940  14.116  1.00  0.00    -0.200 F 
ATOM     91  F   UNL     1     -11.946   9.283  15.941  1.00  0.00    -0.200 F 
ENDBRANCH  58  81
ENDBRANCH  32  33
ENDBRANCH  25  27
ENDBRANCH  24  25
ENDBRANCH  23  24
ENDBRANCH   1  23
TORSDOF 17
