REMARK SMILES Cc1ccc(-c2csc(NC(=O)[C@H]3[C@@H](C(=O)OCCOC(=O)c4ccc(-c5c6nc(c(-c7c(F)c(F)c(F)c(F)c7F)c7ccc([nH]7)c(-c7c(F)c(F)c(F)c(F)c7F)c7nc(c(-c8c(F)c(F)c(F)c(F)c8F)c8ccc5[nH]8)C=C7)C=C6)cc4)[C@H]4C=C[C@@H]3C4)c2C(=O)NC2CC2)cc1
REMARK SMILES IDX 18 1 17 2 15 3 16 4 14 5 13 6 89 7 86 8 88 9 90 10 87 11
REMARK SMILES IDX 11 12 10 13 12 15 9 16 6 17 7 18 91 19 8 20 5 21 1 22 2 23
REMARK SMILES IDX 3 24 99 25 4 26 98 27 92 28 93 29 94 30 95 32 96 33 97 34
REMARK SMILES IDX 19 35 20 36 21 37 22 38 23 39 24 40 85 41 25 42 84 43 26 44
REMARK SMILES IDX 27 45 28 46 78 47 29 48 83 49 77 50 79 51 30 52 82 53 76 54
REMARK SMILES IDX 75 55 31 57 63 58 43 59 62 60 44 61 47 62 61 63 80 64 45 65
REMARK SMILES IDX 46 66 60 68 81 69 48 70 32 71 33 72 41 73 34 74 35 75 39 76
REMARK SMILES IDX 42 77 36 78 37 79 40 80 38 81 64 82 65 83 73 84 66 85 67 86
REMARK SMILES IDX 71 87 74 88 68 89 69 90 72 91 70 92 49 93 50 94 58 95 51 96
REMARK SMILES IDX 52 97 56 98 59 99 53 100 54 101 57 102 55 103
REMARK H PARENT 10 14 94 31 79 56 47 67
REMARK Flexibility Score: inf
ROOT
ATOM      1  C   UNL     1      -4.203   0.235  -1.226  1.00  0.00     0.274 C 
ENDROOT
BRANCH   1   2
ATOM      2  O   UNL     1      -5.346   0.653  -0.433  1.00  0.00    -0.462 OA
BRANCH   2   3
ATOM      3  C   UNL     1      -6.407  -0.175  -0.281  1.00  0.00     0.310 C 
ATOM      4  O   UNL     1      -6.532  -1.190  -0.941  1.00  0.00    -0.252 OA
BRANCH   3   5
ATOM      5  C   UNL     1      -7.291   0.214   0.893  1.00  0.00     0.119 C 
ATOM      6  C   UNL     1      -8.490  -0.751   1.228  1.00  0.00     0.100 C 
ATOM      7  C   UNL     1      -9.625   0.253   1.533  1.00  0.00     0.025 C 
ATOM      8  C   UNL     1      -7.944   1.633   0.989  1.00  0.00     0.027 C 
ATOM      9  C   UNL     1     -10.063   1.004   0.311  1.00  0.00    -0.027 C 
ATOM     10  C   UNL     1      -8.844   1.399   2.209  1.00  0.00     0.017 C 
ATOM     11  C   UNL     1      -9.086   1.870   0.033  1.00  0.00    -0.027 C 
BRANCH   6  12
ATOM     12  C   UNL     1      -8.695  -1.975   0.304  1.00  0.00     0.229 C 
ATOM     13  N   UNL     1      -9.678  -1.969  -0.647  1.00  0.00    -0.317 N 
ATOM     14  H   UNL     1      -9.418  -1.875  -1.592  1.00  0.00     0.170 HD
ATOM     15  O   UNL     1      -7.932  -2.942   0.398  1.00  0.00    -0.274 OA
BRANCH  13  16
ATOM     16  C   UNL     1     -11.026  -2.089  -0.338  1.00  0.00     0.108 A 
ATOM     17  C   UNL     1     -13.333  -1.965  -0.345  1.00  0.00     0.007 A 
ATOM     18  C   UNL     1     -12.992  -1.728   0.980  1.00  0.00     0.076 A 
ATOM     19  C   UNL     1     -12.143  -2.220  -1.176  1.00  0.00     0.082 A 
ATOM     20  S   UNL     1     -11.448  -2.328   1.296  1.00  0.00    -0.125 S 
BRANCH  17  21
ATOM     21  C   UNL     1     -14.770  -2.099  -0.536  1.00  0.00    -0.017 A 
ATOM     22  C   UNL     1     -18.787  -3.287  -1.407  1.00  0.00     0.044 C 
ATOM     23  C   UNL     1     -17.462  -2.750  -0.955  1.00  0.00    -0.051 A 
ATOM     24  C   UNL     1     -16.689  -3.537  -0.106  1.00  0.00     0.004 A 
ATOM     25  C   UNL     1     -16.921  -1.561  -1.478  1.00  0.00     0.004 A 
ATOM     26  C   UNL     1     -15.366  -3.197   0.118  1.00  0.00     0.009 A 
ATOM     27  C   UNL     1     -15.572  -1.224  -1.264  1.00  0.00     0.009 A 
ENDBRANCH  17  21
BRANCH  19  28
ATOM     28  C   UNL     1     -11.890  -2.437  -2.614  1.00  0.00     0.255 C 
ATOM     29  O   UNL     1     -10.952  -1.834  -3.151  1.00  0.00    -0.269 OA
ATOM     30  N   UNL     1     -12.476  -3.356  -3.455  1.00  0.00    -0.349 N 
ATOM     31  H   UNL     1     -12.156  -3.243  -4.379  1.00  0.00     0.164 HD
BRANCH  30  32
ATOM     32  C   UNL     1     -13.411  -4.420  -3.367  1.00  0.00     0.082 C 
ATOM     33  C   UNL     1     -13.998  -4.962  -2.117  1.00  0.00     0.027 C 
ATOM     34  C   UNL     1     -14.836  -4.122  -3.053  1.00  0.00     0.027 C 
ENDBRANCH  30  32
ENDBRANCH  19  28
ENDBRANCH  13  16
ENDBRANCH   6  12
ENDBRANCH   3   5
ENDBRANCH   2   3
ENDBRANCH   1   2
BRANCH   1  35
ATOM     35  C   UNL     1      -4.150  -1.027  -2.148  1.00  0.00     0.275 C 
BRANCH  35  36
ATOM     36  O   UNL     1      -4.979  -1.342  -3.314  1.00  0.00    -0.458 OA
BRANCH  36  37
ATOM     37  C   UNL     1      -6.168  -0.831  -3.687  1.00  0.00     0.338 C 
ATOM     38  O   UNL     1      -7.067  -1.445  -4.245  1.00  0.00    -0.246 OA
BRANCH  37  39
ATOM     39  C   UNL     1      -6.229   0.605  -3.528  1.00  0.00     0.060 A 
ATOM     40  C   UNL     1      -7.317   1.171  -2.859  1.00  0.00     0.016 A 
ATOM     41  C   UNL     1      -5.113   1.334  -3.948  1.00  0.00     0.016 A 
ATOM     42  C   UNL     1      -7.226   2.491  -2.494  1.00  0.00     0.010 A 
ATOM     43  C   UNL     1      -4.986   2.615  -3.500  1.00  0.00     0.010 A 
ATOM     44  C   UNL     1      -6.059   3.175  -2.792  1.00  0.00    -0.014 A 
BRANCH  44  45
ATOM     45  C   UNL     1      -6.071   4.612  -2.803  1.00  0.00     0.031 A 
ATOM     46  C   UNL     1      -5.516   5.346  -1.667  1.00  0.00     0.074 A 
ATOM     47  C   UNL     1      -6.345   4.977  -4.072  1.00  0.00     0.049 A 
ATOM     48  N   UNL     1      -5.695   6.603  -1.474  1.00  0.00    -0.248 NA
ATOM     49  C   UNL     1      -4.820   4.705  -0.541  1.00  0.00     0.031 C 
ATOM     50  C   UNL     1      -5.846   6.040  -4.910  1.00  0.00     0.029 A 
ATOM     51  N   UNL     1      -7.229   4.279  -4.912  1.00  0.00    -0.354 N 
ATOM     52  C   UNL     1      -4.719   6.970  -0.571  1.00  0.00     0.074 A 
ATOM     53  C   UNL     1      -4.446   5.772   0.178  1.00  0.00     0.031 C 
ATOM     54  C   UNL     1      -6.600   6.084  -6.031  1.00  0.00     0.029 A 
ATOM     55  C   UNL     1      -7.721   5.162  -5.867  1.00  0.00     0.049 A 
ATOM     56  H   UNL     1      -7.461   3.325  -4.837  1.00  0.00     0.167 HD
ATOM     57  C   UNL     1      -4.042   8.133  -0.811  1.00  0.00     0.037 A 
ATOM     58  C   UNL     1      -9.037   5.517  -5.715  1.00  0.00     0.037 A 
ATOM     59  C   UNL     1      -4.593   8.764  -2.020  1.00  0.00     0.049 A 
ATOM     60  C   UNL     1      -9.172   6.888  -5.078  1.00  0.00     0.074 A 
ATOM     61  C   UNL     1      -4.192   8.797  -3.345  1.00  0.00     0.029 A 
ATOM     62  N   UNL     1      -5.920   9.143  -2.019  1.00  0.00    -0.354 N 
ATOM     63  N   UNL     1      -8.188   7.543  -4.527  1.00  0.00    -0.248 NA
ATOM     64  C   UNL     1     -10.450   7.578  -4.936  1.00  0.00     0.031 C 
ATOM     65  C   UNL     1      -5.326   9.171  -4.136  1.00  0.00     0.029 A 
ATOM     66  C   UNL     1      -6.409   9.345  -3.293  1.00  0.00     0.049 A 
ATOM     67  H   UNL     1      -6.456   9.257  -1.201  1.00  0.00     0.167 HD
ATOM     68  C   UNL     1      -8.645   8.713  -4.009  1.00  0.00     0.074 A 
ATOM     69  C   UNL     1     -10.081   8.666  -4.241  1.00  0.00     0.031 C 
ATOM     70  C   UNL     1      -7.826   9.643  -3.436  1.00  0.00     0.037 A 
BRANCH  57  71
ATOM     71  C   UNL     1      -2.723   8.580  -0.210  1.00  0.00     0.064 A 
ATOM     72  C   UNL     1      -2.060   9.702  -0.762  1.00  0.00     0.173 A 
ATOM     73  C   UNL     1      -2.034   7.969   0.857  1.00  0.00     0.173 A 
ATOM     74  F   UNL     1      -2.627  10.446  -1.722  1.00  0.00    -0.203 F 
ATOM     75  C   UNL     1      -0.793  10.117  -0.346  1.00  0.00     0.198 A 
ATOM     76  C   UNL     1      -0.764   8.387   1.275  1.00  0.00     0.198 A 
ATOM     77  F   UNL     1      -2.557   6.965   1.564  1.00  0.00    -0.203 F 
ATOM     78  F   UNL     1      -0.213  11.170  -0.940  1.00  0.00    -0.200 F 
ATOM     79  C   UNL     1      -0.137   9.451   0.665  1.00  0.00     0.200 A 
ATOM     80  F   UNL     1      -0.152   7.743   2.281  1.00  0.00    -0.200 F 
ATOM     81  F   UNL     1       1.081   9.844   1.061  1.00  0.00    -0.200 F 
ENDBRANCH  57  71
BRANCH  58  82
ATOM     82  C   UNL     1      -9.899   4.342  -5.331  1.00  0.00     0.064 A 
ATOM     83  C   UNL     1      -9.878   3.188  -6.147  1.00  0.00     0.173 A 
ATOM     84  C   UNL     1     -10.409   4.195  -4.034  1.00  0.00     0.173 A 
ATOM     85  F   UNL     1      -9.435   3.266  -7.412  1.00  0.00    -0.203 F 
ATOM     86  C   UNL     1     -10.184   1.929  -5.633  1.00  0.00     0.198 A 
ATOM     87  C   UNL     1     -10.747   2.939  -3.535  1.00  0.00     0.198 A 
ATOM     88  F   UNL     1     -10.488   5.242  -3.202  1.00  0.00    -0.203 F 
ATOM     89  F   UNL     1     -10.018   0.835  -6.390  1.00  0.00    -0.200 F 
ATOM     90  C   UNL     1     -10.584   1.808  -4.315  1.00  0.00     0.200 A 
ATOM     91  F   UNL     1     -11.153   2.816  -2.264  1.00  0.00    -0.200 F 
ATOM     92  F   UNL     1     -10.774   0.603  -3.773  1.00  0.00    -0.200 F 
ENDBRANCH  58  82
BRANCH  70  93
ATOM     93  C   UNL     1      -8.345  10.962  -2.960  1.00  0.00     0.064 A 
ATOM     94  C   UNL     1      -9.227  11.721  -3.741  1.00  0.00     0.173 A 
ATOM     95  C   UNL     1      -7.886  11.563  -1.770  1.00  0.00     0.173 A 
ATOM     96  F   UNL     1      -9.647  11.278  -4.936  1.00  0.00    -0.203 F 
ATOM     97  C   UNL     1      -9.688  12.963  -3.315  1.00  0.00     0.198 A 
ATOM     98  C   UNL     1      -8.283  12.838  -1.389  1.00  0.00     0.198 A 
ATOM     99  F   UNL     1      -7.066  10.928  -0.921  1.00  0.00    -0.203 F 
ATOM    100  F   UNL     1     -10.603  13.614  -4.046  1.00  0.00    -0.200 F 
ATOM    101  C   UNL     1      -9.206  13.527  -2.147  1.00  0.00     0.200 A 
ATOM    102  F   UNL     1      -7.774  13.384  -0.277  1.00  0.00    -0.200 F 
ATOM    103  F   UNL     1      -9.633  14.732  -1.751  1.00  0.00    -0.200 F 
ENDBRANCH  70  93
ENDBRANCH  44  45
ENDBRANCH  37  39
ENDBRANCH  36  37
ENDBRANCH  35  36
ENDBRANCH   1  35
TORSDOF 16
