REMARK SMILES CC[NH+](CC)CCS[C@H](F)C(=O)OCCOC(=O)c1ccc(-c2c3nc(c(-c4c(F)c(F)c(F)c(F)c4F)c4ccc([nH]4)c(-c4c(F)c(F)c(F)c(F)c4F)c4nc(c(-c5c(F)c(F)c(F)c(F)c5F)c5ccc2[nH]5)C=C4)C=C3)cc1
REMARK SMILES IDX 13 1 11 2 12 3 9 4 10 5 8 6 7 7 6 8 3 9 2 11 1 12 4 13 5 14
REMARK SMILES IDX 14 15 15 16 16 17 17 18 18 19 19 20 20 21 81 22 21 23 80 24
REMARK SMILES IDX 22 25 23 26 24 27 74 28 25 29 79 30 73 31 75 32 26 33 78 34
REMARK SMILES IDX 72 35 71 36 27 38 59 39 39 40 58 41 40 42 43 43 57 44 76 45
REMARK SMILES IDX 41 46 42 47 56 49 77 50 44 51 28 52 29 53 37 54 30 55 31 56
REMARK SMILES IDX 35 57 38 58 32 59 33 60 36 61 34 62 60 63 61 64 69 65 62 66
REMARK SMILES IDX 63 67 67 68 70 69 64 70 65 71 68 72 66 73 45 74 46 75 54 76
REMARK SMILES IDX 47 77 48 78 52 79 55 80 49 81 50 82 53 83 51 84
REMARK H PARENT 3 10 75 37 43 48
REMARK Flexibility Score: inf
ROOT
ATOM      1  O   UNL     1       1.272   1.567  -0.773  1.00  0.00    -0.459 OA
ENDROOT
BRANCH   1   2
ATOM      2  C   UNL     1       0.681   1.493   0.456  1.00  0.00     0.351 C 
ATOM      3  O   UNL     1      -0.399   0.952   0.673  1.00  0.00    -0.248 OA
BRANCH   2   4
ATOM      4  C   UNL     1       1.516   2.185   1.521  1.00  0.00     0.333 C 
ATOM      5  F   UNL     1       2.705   2.668   1.058  1.00  0.00    -0.223 F 
BRANCH   4   6
ATOM      6  S   UNL     1       0.588   3.563   2.279  1.00  0.00    -0.108 SA
BRANCH   6   7
ATOM      7  C   UNL     1       0.593   4.738   0.881  1.00  0.00     0.134 C 
BRANCH   7   8
ATOM      8  C   UNL     1      -0.495   4.577  -0.204  1.00  0.00     0.273 C 
BRANCH   8   9
ATOM      9  N   UNL     1      -1.909   4.854   0.065  1.00  0.00    -0.335 N 
ATOM     10  H   UNL     1      -2.286   4.717  -0.873  1.00  0.00     0.348 HD
BRANCH   9  11
ATOM     11  C   UNL     1      -2.655   3.859   0.831  1.00  0.00     0.258 C 
ATOM     12  C   UNL     1      -3.043   2.655  -0.020  1.00  0.00     0.071 C 
ENDBRANCH   9  11
BRANCH   9  13
ATOM     13  C   UNL     1      -2.250   6.241   0.368  1.00  0.00     0.258 C 
ATOM     14  C   UNL     1      -2.051   6.711   1.803  1.00  0.00     0.071 C 
ENDBRANCH   9  13
ENDBRANCH   8   9
ENDBRANCH   7   8
ENDBRANCH   6   7
ENDBRANCH   4   6
ENDBRANCH   2   4
ENDBRANCH   1   2
BRANCH   1  15
ATOM     15  C   UNL     1       0.534   1.026  -1.885  1.00  0.00     0.274 C 
BRANCH  15  16
ATOM     16  C   UNL     1       0.926  -0.419  -2.204  1.00  0.00     0.275 C 
BRANCH  16  17
ATOM     17  O   UNL     1       0.356  -1.349  -1.264  1.00  0.00    -0.458 OA
BRANCH  17  18
ATOM     18  C   UNL     1       1.087  -1.537  -0.144  1.00  0.00     0.338 C 
ATOM     19  O   UNL     1       2.184  -1.056   0.109  1.00  0.00    -0.246 OA
BRANCH  18  20
ATOM     20  C   UNL     1       0.325  -2.304   0.854  1.00  0.00     0.060 A 
ATOM     21  C   UNL     1       0.336  -1.826   2.169  1.00  0.00     0.016 A 
ATOM     22  C   UNL     1      -0.291  -3.519   0.542  1.00  0.00     0.016 A 
ATOM     23  C   UNL     1      -0.212  -2.587   3.191  1.00  0.00     0.010 A 
ATOM     24  C   UNL     1      -0.835  -4.291   1.574  1.00  0.00     0.010 A 
ATOM     25  C   UNL     1      -0.754  -3.845   2.905  1.00  0.00    -0.014 A 
BRANCH  25  26
ATOM     26  C   UNL     1      -1.044  -4.750   4.037  1.00  0.00     0.031 A 
ATOM     27  C   UNL     1       0.003  -5.748   4.441  1.00  0.00     0.074 A 
ATOM     28  C   UNL     1      -2.172  -4.607   4.752  1.00  0.00     0.049 A 
ATOM     29  N   UNL     1      -0.006  -6.611   5.425  1.00  0.00    -0.248 NA
ATOM     30  C   UNL     1       1.233  -5.771   3.631  1.00  0.00     0.031 C 
ATOM     31  C   UNL     1      -3.222  -3.627   4.483  1.00  0.00     0.029 A 
ATOM     32  N   UNL     1      -2.610  -5.280   5.862  1.00  0.00    -0.354 N 
ATOM     33  C   UNL     1       1.210  -7.278   5.349  1.00  0.00     0.074 A 
ATOM     34  C   UNL     1       1.923  -6.741   4.211  1.00  0.00     0.031 C 
ATOM     35  C   UNL     1      -4.186  -3.759   5.410  1.00  0.00     0.029 A 
ATOM     36  C   UNL     1      -3.829  -4.847   6.319  1.00  0.00     0.049 A 
ATOM     37  H   UNL     1      -2.099  -6.004   6.292  1.00  0.00     0.167 HD
ATOM     38  C   UNL     1       1.691  -8.246   6.164  1.00  0.00     0.037 A 
ATOM     39  C   UNL     1      -4.571  -5.291   7.350  1.00  0.00     0.037 A 
ATOM     40  C   UNL     1       0.978  -8.774   7.295  1.00  0.00     0.049 A 
ATOM     41  C   UNL     1      -4.037  -6.409   8.207  1.00  0.00     0.074 A 
ATOM     42  C   UNL     1       1.364  -9.769   8.175  1.00  0.00     0.029 A 
ATOM     43  N   UNL     1      -0.278  -8.344   7.700  1.00  0.00    -0.354 N 
ATOM     44  N   UNL     1      -2.892  -7.041   8.125  1.00  0.00    -0.248 NA
ATOM     45  C   UNL     1      -4.900  -6.871   9.303  1.00  0.00     0.031 C 
ATOM     46  C   UNL     1       0.326  -9.964   9.094  1.00  0.00     0.029 A 
ATOM     47  C   UNL     1      -0.688  -9.063   8.810  1.00  0.00     0.049 A 
ATOM     48  H   UNL     1      -0.799  -7.632   7.264  1.00  0.00     0.167 HD
ATOM     49  C   UNL     1      -2.888  -7.962   9.164  1.00  0.00     0.074 A 
ATOM     50  C   UNL     1      -4.138  -7.791   9.876  1.00  0.00     0.031 C 
ATOM     51  C   UNL     1      -1.939  -8.871   9.498  1.00  0.00     0.037 A 
BRANCH  38  52
ATOM     52  C   UNL     1       3.038  -8.813   5.832  1.00  0.00     0.064 A 
ATOM     53  C   UNL     1       4.218  -8.089   6.057  1.00  0.00     0.173 A 
ATOM     54  C   UNL     1       3.150 -10.099   5.282  1.00  0.00     0.173 A 
ATOM     55  F   UNL     1       4.162  -6.847   6.560  1.00  0.00    -0.203 F 
ATOM     56  C   UNL     1       5.460  -8.623   5.721  1.00  0.00     0.198 A 
ATOM     57  C   UNL     1       4.394 -10.639   4.970  1.00  0.00     0.198 A 
ATOM     58  F   UNL     1       2.051 -10.831   5.045  1.00  0.00    -0.203 F 
ATOM     59  F   UNL     1       6.571  -7.895   5.901  1.00  0.00    -0.200 F 
ATOM     60  C   UNL     1       5.547  -9.898   5.183  1.00  0.00     0.200 A 
ATOM     61  F   UNL     1       4.478 -11.873   4.454  1.00  0.00    -0.200 F 
ATOM     62  F   UNL     1       6.743 -10.410   4.859  1.00  0.00    -0.200 F 
ENDBRANCH  38  52
BRANCH  39  63
ATOM     63  C   UNL     1      -5.898  -4.684   7.625  1.00  0.00     0.064 A 
ATOM     64  C   UNL     1      -6.117  -3.906   8.769  1.00  0.00     0.173 A 
ATOM     65  C   UNL     1      -6.979  -4.883   6.753  1.00  0.00     0.173 A 
ATOM     66  F   UNL     1      -5.122  -3.709   9.646  1.00  0.00    -0.203 F 
ATOM     67  C   UNL     1      -7.372  -3.362   9.039  1.00  0.00     0.198 A 
ATOM     68  C   UNL     1      -8.225  -4.318   7.010  1.00  0.00     0.198 A 
ATOM     69  F   UNL     1      -6.821  -5.624   5.646  1.00  0.00    -0.203 F 
ATOM     70  F   UNL     1      -7.567  -2.658  10.162  1.00  0.00    -0.200 F 
ATOM     71  C   UNL     1      -8.423  -3.564   8.156  1.00  0.00     0.200 A 
ATOM     72  F   UNL     1      -9.235  -4.509   6.151  1.00  0.00    -0.200 F 
ATOM     73  F   UNL     1      -9.629  -3.040   8.416  1.00  0.00    -0.200 F 
ENDBRANCH  39  63
BRANCH  51  74
ATOM     74  C   UNL     1      -2.214  -9.732  10.695  1.00  0.00     0.064 A 
ATOM     75  C   UNL     1      -3.152 -10.773  10.646  1.00  0.00     0.173 A 
ATOM     76  C   UNL     1      -1.513  -9.530  11.893  1.00  0.00     0.173 A 
ATOM     77  F   UNL     1      -3.857 -10.995   9.527  1.00  0.00    -0.203 F 
ATOM     78  C   UNL     1      -3.399 -11.564  11.765  1.00  0.00     0.198 A 
ATOM     79  C   UNL     1      -1.744 -10.339  13.001  1.00  0.00     0.198 A 
ATOM     80  F   UNL     1      -0.601  -8.551  11.986  1.00  0.00    -0.203 F 
ATOM     81  F   UNL     1      -4.334 -12.523  11.712  1.00  0.00    -0.200 F 
ATOM     82  C   UNL     1      -2.692 -11.350  12.939  1.00  0.00     0.200 A 
ATOM     83  F   UNL     1      -1.053 -10.139  14.132  1.00  0.00    -0.200 F 
ATOM     84  F   UNL     1      -2.930 -12.113  14.014  1.00  0.00    -0.200 F 
ENDBRANCH  51  74
ENDBRANCH  25  26
ENDBRANCH  18  20
ENDBRANCH  17  18
ENDBRANCH  16  17
ENDBRANCH  15  16
ENDBRANCH   1  15
TORSDOF 17
