REMARK SMILES O=C(OCCOC(=O)c1c(C(F)(F)F)nn(-c2ccccc2)c1C(F)(F)Cl)c1ccc(-c2c3nc(c(-c4c(F)c(F)c(F)c(F)c4F)c4ccc([nH]4)c(-c4c(F)c(F)c(F)c(F)c4F)c4nc(c(-c5c(F)c(F)c(F)c(F)c5F)c5ccc2[nH]5)C=C4)C=C3)cc1
REMARK SMILES IDX 4 1 3 2 2 3 1 4 28 5 29 6 90 7 30 8 89 9 31 10 32 11 33 12
REMARK SMILES IDX 83 13 34 14 88 15 82 16 84 17 35 18 87 19 81 20 80 21 36 23
REMARK SMILES IDX 68 24 48 25 67 26 49 27 52 28 66 29 85 30 50 31 51 32 65 34
REMARK SMILES IDX 86 35 53 36 37 37 38 38 46 39 39 40 40 41 44 42 47 43 41 44
REMARK SMILES IDX 42 45 45 46 43 47 69 48 70 49 78 50 71 51 72 52 76 53 79 54
REMARK SMILES IDX 73 55 74 56 77 57 75 58 54 59 55 60 63 61 56 62 57 63 61 64
REMARK SMILES IDX 64 65 58 66 59 67 62 68 60 69 5 70 6 71 7 72 8 73 9 74 10 75
REMARK SMILES IDX 23 76 15 77 16 78 11 79 12 80 13 81 14 82 24 83 25 84 26 85
REMARK SMILES IDX 27 86 17 87 18 88 22 89 19 90 21 91 20 92
REMARK H PARENT 84 22 52 33
REMARK Flexibility Score: inf
ROOT
ATOM      1  C   UNL     1       4.784   0.738  -1.278  1.00  0.00     0.275 C 
ENDROOT
BRANCH   1   2
ATOM      2  O   UNL     1       3.996  -0.356  -1.784  1.00  0.00    -0.458 OA
BRANCH   2   3
ATOM      3  C   UNL     1       2.722  -0.438  -1.357  1.00  0.00     0.338 C 
ATOM      4  O   UNL     1       1.798   0.231  -1.788  1.00  0.00    -0.246 OA
BRANCH   3   5
ATOM      5  C   UNL     1       2.595  -1.457  -0.293  1.00  0.00     0.060 A 
ATOM      6  C   UNL     1       3.713  -2.043   0.322  1.00  0.00     0.016 A 
ATOM      7  C   UNL     1       1.309  -1.794   0.122  1.00  0.00     0.016 A 
ATOM      8  C   UNL     1       3.546  -3.012   1.301  1.00  0.00     0.010 A 
ATOM      9  C   UNL     1       1.143  -2.733   1.126  1.00  0.00     0.010 A 
ATOM     10  C   UNL     1       2.256  -3.390   1.666  1.00  0.00    -0.014 A 
BRANCH  10  11
ATOM     11  C   UNL     1       2.075  -4.577   2.499  1.00  0.00     0.031 A 
ATOM     12  C   UNL     1       2.508  -4.561   3.929  1.00  0.00     0.074 A 
ATOM     13  C   UNL     1       1.365  -5.613   2.004  1.00  0.00     0.049 A 
ATOM     14  N   UNL     1       3.176  -5.467   4.580  1.00  0.00    -0.248 NA
ATOM     15  C   UNL     1       2.138  -3.399   4.750  1.00  0.00     0.031 C 
ATOM     16  C   UNL     1       0.657  -5.688   0.718  1.00  0.00     0.029 A 
ATOM     17  N   UNL     1       1.004  -6.770   2.621  1.00  0.00    -0.354 N 
ATOM     18  C   UNL     1       3.186  -5.069   5.918  1.00  0.00     0.074 A 
ATOM     19  C   UNL     1       2.586  -3.758   5.955  1.00  0.00     0.031 C 
ATOM     20  C   UNL     1      -0.244  -6.688   0.765  1.00  0.00     0.029 A 
ATOM     21  C   UNL     1      -0.055  -7.413   2.006  1.00  0.00     0.049 A 
ATOM     22  H   UNL     1       1.452  -7.116   3.426  1.00  0.00     0.167 HD
ATOM     23  C   UNL     1       3.546  -5.899   6.939  1.00  0.00     0.037 A 
ATOM     24  C   UNL     1      -0.791  -8.424   2.514  1.00  0.00     0.037 A 
ATOM     25  C   UNL     1       4.344  -7.006   6.494  1.00  0.00     0.049 A 
ATOM     26  C   UNL     1       0.014  -9.085   3.565  1.00  0.00     0.074 A 
ATOM     27  C   UNL     1       5.580  -7.139   5.892  1.00  0.00     0.029 A 
ATOM     28  N   UNL     1       3.778  -8.253   6.418  1.00  0.00    -0.354 N 
ATOM     29  N   UNL     1       1.117  -9.744   3.332  1.00  0.00    -0.248 NA
ATOM     30  C   UNL     1      -0.189  -8.675   4.945  1.00  0.00     0.031 C 
ATOM     31  C   UNL     1       5.464  -8.286   5.052  1.00  0.00     0.029 A 
ATOM     32  C   UNL     1       4.167  -8.774   5.211  1.00  0.00     0.049 A 
ATOM     33  H   UNL     1       3.208  -8.686   7.093  1.00  0.00     0.167 HD
ATOM     34  C   UNL     1       1.923  -9.488   4.431  1.00  0.00     0.074 A 
ATOM     35  C   UNL     1       1.027  -8.925   5.436  1.00  0.00     0.031 C 
ATOM     36  C   UNL     1       3.285  -9.497   4.329  1.00  0.00     0.037 A 
BRANCH  23  37
ATOM     37  C   UNL     1       2.962  -5.850   8.329  1.00  0.00     0.064 A 
ATOM     38  C   UNL     1       3.579  -6.552   9.385  1.00  0.00     0.173 A 
ATOM     39  C   UNL     1       1.661  -5.372   8.592  1.00  0.00     0.173 A 
ATOM     40  F   UNL     1       4.802  -7.082   9.232  1.00  0.00    -0.203 F 
ATOM     41  C   UNL     1       2.921  -6.797  10.595  1.00  0.00     0.198 A 
ATOM     42  C   UNL     1       1.026  -5.575   9.818  1.00  0.00     0.198 A 
ATOM     43  F   UNL     1       0.925  -4.786   7.639  1.00  0.00    -0.203 F 
ATOM     44  F   UNL     1       3.504  -7.559  11.530  1.00  0.00    -0.200 F 
ATOM     45  C   UNL     1       1.644  -6.309  10.809  1.00  0.00     0.200 A 
ATOM     46  F   UNL     1      -0.219  -5.114  10.001  1.00  0.00    -0.200 F 
ATOM     47  F   UNL     1       0.993  -6.585  11.947  1.00  0.00    -0.200 F 
ENDBRANCH  23  37
BRANCH  24  48
ATOM     48  C   UNL     1      -2.246  -8.597   2.339  1.00  0.00     0.064 A 
ATOM     49  C   UNL     1      -2.861  -9.844   2.494  1.00  0.00     0.173 A 
ATOM     50  C   UNL     1      -3.101  -7.480   2.216  1.00  0.00     0.173 A 
ATOM     51  F   UNL     1      -2.115 -10.943   2.673  1.00  0.00    -0.203 F 
ATOM     52  C   UNL     1      -4.253  -9.969   2.517  1.00  0.00     0.198 A 
ATOM     53  C   UNL     1      -4.488  -7.607   2.226  1.00  0.00     0.198 A 
ATOM     54  F   UNL     1      -2.604  -6.234   2.165  1.00  0.00    -0.203 F 
ATOM     55  F   UNL     1      -4.811 -11.172   2.709  1.00  0.00    -0.200 F 
ATOM     56  C   UNL     1      -5.064  -8.852   2.383  1.00  0.00     0.200 A 
ATOM     57  F   UNL     1      -5.257  -6.513   2.131  1.00  0.00    -0.200 F 
ATOM     58  F   UNL     1      -6.398  -8.970   2.445  1.00  0.00    -0.200 F 
ENDBRANCH  24  48
BRANCH  36  59
ATOM     59  C   UNL     1       3.887 -10.011   3.053  1.00  0.00     0.064 A 
ATOM     60  C   UNL     1       3.758  -9.338   1.825  1.00  0.00     0.173 A 
ATOM     61  C   UNL     1       4.757 -11.107   3.096  1.00  0.00     0.173 A 
ATOM     62  F   UNL     1       3.049  -8.210   1.735  1.00  0.00    -0.203 F 
ATOM     63  C   UNL     1       4.426  -9.773   0.683  1.00  0.00     0.198 A 
ATOM     64  C   UNL     1       5.452 -11.519   1.960  1.00  0.00     0.198 A 
ATOM     65  F   UNL     1       4.981 -11.742   4.257  1.00  0.00    -0.203 F 
ATOM     66  F   UNL     1       4.280  -9.110  -0.474  1.00  0.00    -0.200 F 
ATOM     67  C   UNL     1       5.278 -10.860   0.753  1.00  0.00     0.200 A 
ATOM     68  F   UNL     1       6.323 -12.535   2.044  1.00  0.00    -0.200 F 
ATOM     69  F   UNL     1       5.960 -11.250  -0.333  1.00  0.00    -0.200 F 
ENDBRANCH  36  59
ENDBRANCH  10  11
ENDBRANCH   3   5
ENDBRANCH   2   3
ENDBRANCH   1   2
BRANCH   1  70
ATOM     70  C   UNL     1       4.059   1.809  -0.451  1.00  0.00     0.275 C 
BRANCH  70  71
ATOM     71  O   UNL     1       3.644   1.285   0.833  1.00  0.00    -0.458 OA
BRANCH  71  72
ATOM     72  C   UNL     1       2.558   1.885   1.400  1.00  0.00     0.342 C 
ATOM     73  O   UNL     1       1.832   2.708   0.858  1.00  0.00    -0.246 OA
BRANCH  72  74
ATOM     74  C   UNL     1       2.380   1.512   2.790  1.00  0.00     0.121 A 
ATOM     75  C   UNL     1       1.319   0.755   3.366  1.00  0.00     0.181 A 
ATOM     76  C   UNL     1       3.120   1.969   3.883  1.00  0.00     0.145 A 
ATOM     77  N   UNL     1       1.568   0.527   4.670  1.00  0.00    -0.162 NA
ATOM     78  N   UNL     1       2.487   1.459   4.999  1.00  0.00    -0.229 N 
BRANCH  75  79
ATOM     79  C   UNL     1       0.051   0.262   2.719  1.00  0.00     0.436 C 
ATOM     80  F   UNL     1      -0.198  -1.044   3.005  1.00  0.00    -0.164 F 
ATOM     81  F   UNL     1      -1.032   0.962   3.149  1.00  0.00    -0.164 F 
ATOM     82  F   UNL     1       0.072   0.377   1.371  1.00  0.00    -0.164 F 
ENDBRANCH  75  79
BRANCH  76  83
ATOM     83  C   UNL     1       4.289   2.872   4.047  1.00  0.00     0.365 C 
ATOM     84  F   UNL     1       3.865   4.134   4.316  1.00  0.00    -0.181 F 
ATOM     85  F   UNL     1       5.045   2.487   5.110  1.00  0.00    -0.181 F 
ATOM     86  Cl  UNL     1       5.371   2.957   2.654  1.00  0.00    -0.040 Cl
ENDBRANCH  76  83
BRANCH  78  87
ATOM     87  C   UNL     1       2.577   1.861   6.352  1.00  0.00     0.065 A 
ATOM     88  C   UNL     1       2.688   0.886   7.349  1.00  0.00     0.028 A 
ATOM     89  C   UNL     1       2.490   3.216   6.691  1.00  0.00     0.028 A 
ATOM     90  C   UNL     1       2.797   1.281   8.683  1.00  0.00     0.002 A 
ATOM     91  C   UNL     1       2.569   3.599   8.030  1.00  0.00     0.002 A 
ATOM     92  C   UNL     1       2.741   2.635   9.021  1.00  0.00     0.000 A 
ENDBRANCH  78  87
ENDBRANCH  72  74
ENDBRANCH  71  72
ENDBRANCH  70  71
ENDBRANCH   1  70
TORSDOF 14
