REMARK SMILES O=C(OCCOC(=O)c1cc(Cl)cn(Cc2ccc(Cl)cc2)c1=O)c1ccc(-c2c3nc(c(-c4c(F)c(F)c(F)c(F)c4F)c4ccc([nH]4)c(-c4c(F)c(F)c(F)c(F)c4F)c4nc(c(-c5c(F)c(F)c(F)c(F)c5F)c5ccc2[nH]5)C=C4)C=C3)cc1
REMARK SMILES IDX 4 1 3 2 2 3 1 4 25 5 26 6 87 7 27 8 86 9 28 10 29 11 30 12
REMARK SMILES IDX 80 13 31 14 85 15 79 16 81 17 32 18 84 19 78 20 77 21 33 23
REMARK SMILES IDX 65 24 45 25 64 26 46 27 49 28 63 29 82 30 47 31 48 32 62 34
REMARK SMILES IDX 83 35 50 36 34 37 35 38 43 39 36 40 37 41 41 42 44 43 38 44
REMARK SMILES IDX 39 45 42 46 40 47 66 48 67 49 75 50 68 51 69 52 73 53 76 54
REMARK SMILES IDX 70 55 71 56 74 57 72 58 51 59 52 60 60 61 53 62 54 63 58 64
REMARK SMILES IDX 61 65 55 66 56 67 59 68 57 69 5 70 6 71 7 72 8 73 9 74 10 75
REMARK SMILES IDX 23 76 11 77 14 78 24 79 12 80 13 81 15 82 16 83 17 84 22 85
REMARK SMILES IDX 18 86 21 87 19 88 20 89
REMARK H PARENT 81 22 49 33
REMARK Flexibility Score: inf
ROOT
ATOM      1  C   UNL     1       4.011   1.462  -0.550  1.00  0.00     0.275 C 
ENDROOT
BRANCH   1   2
ATOM      2  O   UNL     1       2.927   0.537  -0.744  1.00  0.00    -0.458 OA
BRANCH   2   3
ATOM      3  C   UNL     1       3.056  -0.814  -0.690  1.00  0.00     0.338 C 
ATOM      4  O   UNL     1       2.370  -1.543  -1.400  1.00  0.00    -0.246 OA
BRANCH   3   5
ATOM      5  C   UNL     1       3.773  -1.411   0.469  1.00  0.00     0.060 A 
ATOM      6  C   UNL     1       3.052  -2.337   1.232  1.00  0.00     0.016 A 
ATOM      7  C   UNL     1       5.092  -1.126   0.832  1.00  0.00     0.016 A 
ATOM      8  C   UNL     1       3.588  -2.850   2.414  1.00  0.00     0.010 A 
ATOM      9  C   UNL     1       5.638  -1.652   2.009  1.00  0.00     0.010 A 
ATOM     10  C   UNL     1       4.881  -2.494   2.828  1.00  0.00    -0.014 A 
BRANCH  10  11
ATOM     11  C   UNL     1       5.484  -3.160   4.007  1.00  0.00     0.031 A 
ATOM     12  C   UNL     1       5.793  -2.433   5.284  1.00  0.00     0.074 A 
ATOM     13  C   UNL     1       5.751  -4.475   3.903  1.00  0.00     0.049 A 
ATOM     14  N   UNL     1       6.087  -2.942   6.455  1.00  0.00    -0.248 NA
ATOM     15  C   UNL     1       5.744  -0.965   5.271  1.00  0.00     0.031 C 
ATOM     16  C   UNL     1       5.562  -5.271   2.688  1.00  0.00     0.029 A 
ATOM     17  N   UNL     1       6.243  -5.369   4.816  1.00  0.00    -0.354 N 
ATOM     18  C   UNL     1       6.165  -1.868   7.332  1.00  0.00     0.074 A 
ATOM     19  C   UNL     1       5.969  -0.670   6.548  1.00  0.00     0.031 C 
ATOM     20  C   UNL     1       5.930  -6.535   2.931  1.00  0.00     0.029 A 
ATOM     21  C   UNL     1       6.410  -6.631   4.305  1.00  0.00     0.049 A 
ATOM     22  H   UNL     1       6.455  -5.129   5.747  1.00  0.00     0.167 HD
ATOM     23  C   UNL     1       6.333  -1.903   8.674  1.00  0.00     0.037 A 
ATOM     24  C   UNL     1       6.913  -7.742   4.873  1.00  0.00     0.037 A 
ATOM     25  C   UNL     1       6.644  -3.094   9.419  1.00  0.00     0.049 A 
ATOM     26  C   UNL     1       7.302  -7.705   6.320  1.00  0.00     0.074 A 
ATOM     27  C   UNL     1       6.806  -3.237  10.786  1.00  0.00     0.029 A 
ATOM     28  N   UNL     1       6.901  -4.331   8.852  1.00  0.00    -0.354 N 
ATOM     29  N   UNL     1       7.168  -6.725   7.180  1.00  0.00    -0.248 NA
ATOM     30  C   UNL     1       7.904  -8.921   6.881  1.00  0.00     0.031 C 
ATOM     31  C   UNL     1       7.237  -4.543  11.037  1.00  0.00     0.029 A 
ATOM     32  C   UNL     1       7.298  -5.224   9.832  1.00  0.00     0.049 A 
ATOM     33  H   UNL     1       6.815  -4.543   7.894  1.00  0.00     0.167 HD
ATOM     34  C   UNL     1       7.645  -7.210   8.388  1.00  0.00     0.074 A 
ATOM     35  C   UNL     1       8.067  -8.576   8.152  1.00  0.00     0.031 C 
ATOM     36  C   UNL     1       7.721  -6.579   9.584  1.00  0.00     0.037 A 
BRANCH  23  37
ATOM     37  C   UNL     1       6.134  -0.644   9.461  1.00  0.00     0.064 A 
ATOM     38  C   UNL     1       4.840  -0.276   9.858  1.00  0.00     0.173 A 
ATOM     39  C   UNL     1       7.213   0.080   9.982  1.00  0.00     0.173 A 
ATOM     40  F   UNL     1       3.783  -0.971   9.416  1.00  0.00    -0.203 F 
ATOM     41  C   UNL     1       4.631   0.774  10.748  1.00  0.00     0.198 A 
ATOM     42  C   UNL     1       7.003   1.122  10.883  1.00  0.00     0.198 A 
ATOM     43  F   UNL     1       8.470  -0.256   9.656  1.00  0.00    -0.203 F 
ATOM     44  F   UNL     1       3.385   1.098  11.123  1.00  0.00    -0.200 F 
ATOM     45  C   UNL     1       5.714   1.466  11.268  1.00  0.00     0.200 A 
ATOM     46  F   UNL     1       8.050   1.776  11.405  1.00  0.00    -0.200 F 
ATOM     47  F   UNL     1       5.517   2.453  12.154  1.00  0.00    -0.200 F 
ENDBRANCH  23  37
BRANCH  24  48
ATOM     48  C   UNL     1       7.063  -8.964   4.044  1.00  0.00     0.064 A 
ATOM     49  C   UNL     1       6.258 -10.088   4.255  1.00  0.00     0.173 A 
ATOM     50  C   UNL     1       7.968  -8.997   2.971  1.00  0.00     0.173 A 
ATOM     51  F   UNL     1       5.387 -10.107   5.275  1.00  0.00    -0.203 F 
ATOM     52  C   UNL     1       6.349 -11.200   3.421  1.00  0.00     0.198 A 
ATOM     53  C   UNL     1       8.037 -10.096   2.120  1.00  0.00     0.198 A 
ATOM     54  F   UNL     1       8.755  -7.938   2.723  1.00  0.00    -0.203 F 
ATOM     55  F   UNL     1       5.580 -12.273   3.653  1.00  0.00    -0.200 F 
ATOM     56  C   UNL     1       7.228 -11.198   2.347  1.00  0.00     0.200 A 
ATOM     57  F   UNL     1       8.870 -10.077   1.071  1.00  0.00    -0.200 F 
ATOM     58  F   UNL     1       7.294 -12.258   1.530  1.00  0.00    -0.200 F 
ENDBRANCH  24  48
BRANCH  36  59
ATOM     59  C   UNL     1       8.287  -7.343  10.741  1.00  0.00     0.064 A 
ATOM     60  C   UNL     1       9.663  -7.585  10.844  1.00  0.00     0.173 A 
ATOM     61  C   UNL     1       7.462  -7.747  11.802  1.00  0.00     0.173 A 
ATOM     62  F   UNL     1      10.488  -7.228   9.848  1.00  0.00    -0.203 F 
ATOM     63  C   UNL     1      10.195  -8.207  11.969  1.00  0.00     0.198 A 
ATOM     64  C   UNL     1       8.001  -8.343  12.937  1.00  0.00     0.198 A 
ATOM     65  F   UNL     1       6.140  -7.529  11.751  1.00  0.00    -0.203 F 
ATOM     66  F   UNL     1      11.511  -8.449  12.039  1.00  0.00    -0.200 F 
ATOM     67  C   UNL     1       9.366  -8.574  13.020  1.00  0.00     0.200 A 
ATOM     68  F   UNL     1       7.201  -8.681  13.958  1.00  0.00    -0.200 F 
ATOM     69  F   UNL     1       9.884  -9.149  14.113  1.00  0.00    -0.200 F 
ENDBRANCH  36  59
ENDBRANCH  10  11
ENDBRANCH   3   5
ENDBRANCH   2   3
ENDBRANCH   1   2
BRANCH   1  70
ATOM     70  C   UNL     1       4.008   2.151   0.820  1.00  0.00     0.275 C 
BRANCH  70  71
ATOM     71  O   UNL     1       3.509   1.313   1.874  1.00  0.00    -0.458 OA
BRANCH  71  72
ATOM     72  C   UNL     1       2.186   1.463   2.153  1.00  0.00     0.343 C 
ATOM     73  O   UNL     1       1.429   2.267   1.627  1.00  0.00    -0.246 OA
BRANCH  72  74
ATOM     74  C   UNL     1       1.731   0.382   3.039  1.00  0.00     0.126 A 
ATOM     75  C   UNL     1       0.759  -0.410   2.553  1.00  0.00     0.043 A 
ATOM     76  C   UNL     1       2.339   0.104   4.373  1.00  0.00     0.265 A 
ATOM     77  C   UNL     1       0.358  -1.592   3.267  1.00  0.00     0.058 A 
ATOM     78  N   UNL     1       1.886  -1.060   5.015  1.00  0.00    -0.309 N 
ATOM     79  O   UNL     1       3.174   0.869   4.849  1.00  0.00    -0.268 OA
ATOM     80  Cl  UNL     1      -0.782  -2.656   2.545  1.00  0.00    -0.083 Cl
ATOM     81  C   UNL     1       0.937  -1.892   4.434  1.00  0.00     0.110 A 
BRANCH  78  82
ATOM     82  C   UNL     1       2.400  -1.402   6.348  1.00  0.00     0.161 C 
BRANCH  82  83
ATOM     83  C   UNL     1       1.345  -1.275   7.426  1.00  0.00    -0.028 A 
ATOM     84  C   UNL     1       0.483  -2.343   7.719  1.00  0.00     0.007 A 
ATOM     85  C   UNL     1       1.197  -0.069   8.126  1.00  0.00     0.007 A 
ATOM     86  C   UNL     1      -0.533  -2.195   8.663  1.00  0.00     0.021 A 
ATOM     87  C   UNL     1       0.202   0.067   9.095  1.00  0.00     0.021 A 
ATOM     88  C   UNL     1      -0.668  -0.991   9.347  1.00  0.00     0.041 A 
ATOM     89  Cl  UNL     1      -1.924  -0.809  10.509  1.00  0.00    -0.084 Cl
ENDBRANCH  82  83
ENDBRANCH  78  82
ENDBRANCH  72  74
ENDBRANCH  71  72
ENDBRANCH  70  71
ENDBRANCH   1  70
TORSDOF 13
