REMARK SMILES Cc1ccccc1OC1(C(=O)OCCOC(=O)c2ccc(-c3c4nc(c(-c5c(F)c(F)c(F)c(F)c5F)c5ccc([nH]5)c(-c5c(F)c(F)c(F)c(F)c5F)c5nc(c(-c6c(F)c(F)c(F)c(F)c6F)c6ccc3[nH]6)C=C5)C=C4)cc2)CCN(C(=O)[C@H]2CCCCO2)CC1
REMARK SMILES IDX 13 1 12 2 10 3 11 4 9 5 81 6 93 7 82 8 92 9 83 10 84 11
REMARK SMILES IDX 85 12 8 13 7 14 1 15 2 16 3 17 4 18 6 19 5 20 86 21 87 22
REMARK SMILES IDX 91 23 88 24 90 25 89 26 14 27 15 28 16 29 17 30 18 31 19 32
REMARK SMILES IDX 80 33 20 34 79 35 21 36 22 37 23 38 73 39 24 40 78 41 72 42
REMARK SMILES IDX 74 43 25 44 77 45 71 46 70 47 26 49 58 50 38 51 57 52 39 53
REMARK SMILES IDX 42 54 56 55 75 56 40 57 41 58 55 60 76 61 43 62 27 63 28 64
REMARK SMILES IDX 36 65 29 66 30 67 34 68 37 69 31 70 32 71 35 72 33 73 59 74
REMARK SMILES IDX 60 75 68 76 61 77 62 78 66 79 69 80 63 81 64 82 67 83 65 84
REMARK SMILES IDX 44 85 45 86 53 87 46 88 47 89 51 90 54 91 48 92 49 93 52 94
REMARK SMILES IDX 50 95
REMARK H PARENT 74 48 42 59
REMARK Flexibility Score: inf
ROOT
ATOM      1  C   UNL     1       9.182  -6.423  -3.102  1.00  0.00     0.274 C 
ENDROOT
BRANCH   1   2
ATOM      2  O   UNL     1       8.112  -6.627  -2.163  1.00  0.00    -0.459 OA
BRANCH   2   3
ATOM      3  C   UNL     1       7.321  -5.512  -2.038  1.00  0.00     0.350 C 
ATOM      4  O   UNL     1       7.516  -4.504  -2.718  1.00  0.00    -0.247 OA
BRANCH   3   5
ATOM      5  C   UNL     1       6.310  -5.559  -0.831  1.00  0.00     0.209 C 
ATOM      6  C   UNL     1       7.276  -5.384   0.339  1.00  0.00     0.082 C 
ATOM      7  C   UNL     1       5.307  -4.424  -1.128  1.00  0.00     0.082 C 
ATOM      8  C   UNL     1       7.349  -3.984   0.909  1.00  0.00     0.124 C 
ATOM      9  C   UNL     1       5.029  -3.474   0.011  1.00  0.00     0.124 C 
ATOM     10  N   UNL     1       6.130  -3.181   0.917  1.00  0.00    -0.340 N 
ATOM     11  C   UNL     1       6.101  -2.143   1.859  1.00  0.00     0.251 C 
ATOM     12  O   UNL     1       7.048  -1.989   2.639  1.00  0.00    -0.272 OA
BRANCH   5  13
ATOM     13  O   UNL     1       5.653  -6.840  -0.709  1.00  0.00    -0.475 OA
BRANCH  13  14
ATOM     14  C   UNL     1       4.497  -7.121  -0.011  1.00  0.00     0.123 A 
ATOM     15  C   UNL     1       4.644  -5.822   2.277  1.00  0.00     0.048 C 
ATOM     16  C   UNL     1       3.997  -6.676   1.229  1.00  0.00    -0.009 A 
ATOM     17  C   UNL     1       2.747  -7.176   1.700  1.00  0.00     0.007 A 
ATOM     18  C   UNL     1       2.027  -8.145   1.021  1.00  0.00     0.001 A 
ATOM     19  C   UNL     1       3.750  -8.130  -0.658  1.00  0.00     0.047 A 
ATOM     20  C   UNL     1       2.542  -8.639  -0.159  1.00  0.00     0.004 A 
ENDBRANCH  13  14
ENDBRANCH   5  13
BRANCH  11  21
ATOM     21  C   UNL     1       4.879  -1.190   1.897  1.00  0.00     0.207 C 
ATOM     22  C   UNL     1       3.668  -1.874   2.543  1.00  0.00     0.042 C 
ATOM     23  O   UNL     1       5.265  -0.033   2.654  1.00  0.00    -0.368 OA
ATOM     24  C   UNL     1       2.540  -0.891   2.833  1.00  0.00     0.006 C 
ATOM     25  C   UNL     1       4.231   0.927   2.811  1.00  0.00     0.161 C 
ATOM     26  C   UNL     1       3.070   0.322   3.579  1.00  0.00     0.029 C 
ENDBRANCH  11  21
ENDBRANCH   3   5
ENDBRANCH   2   3
ENDBRANCH   1   2
BRANCH   1  27
ATOM     27  C   UNL     1       9.846  -7.704  -3.617  1.00  0.00     0.275 C 
BRANCH  27  28
ATOM     28  O   UNL     1       9.074  -8.921  -3.790  1.00  0.00    -0.458 OA
BRANCH  28  29
ATOM     29  C   UNL     1       7.738  -9.057  -3.901  1.00  0.00     0.338 C 
ATOM     30  O   UNL     1       7.143 -10.056  -3.500  1.00  0.00    -0.246 OA
BRANCH  29  31
ATOM     31  C   UNL     1       7.000  -7.967  -4.549  1.00  0.00     0.060 A 
ATOM     32  C   UNL     1       5.767  -7.577  -4.006  1.00  0.00     0.016 A 
ATOM     33  C   UNL     1       7.563  -7.279  -5.620  1.00  0.00     0.016 A 
ATOM     34  C   UNL     1       5.127  -6.434  -4.468  1.00  0.00     0.010 A 
ATOM     35  C   UNL     1       6.973  -6.102  -6.029  1.00  0.00     0.010 A 
ATOM     36  C   UNL     1       5.750  -5.689  -5.471  1.00  0.00    -0.014 A 
BRANCH  36  37
ATOM     37  C   UNL     1       5.049  -4.668  -6.235  1.00  0.00     0.031 A 
ATOM     38  C   UNL     1       4.856  -3.278  -5.787  1.00  0.00     0.074 A 
ATOM     39  C   UNL     1       4.621  -5.127  -7.428  1.00  0.00     0.049 A 
ATOM     40  N   UNL     1       3.842  -2.549  -6.116  1.00  0.00    -0.248 NA
ATOM     41  C   UNL     1       5.784  -2.591  -4.898  1.00  0.00     0.031 C 
ATOM     42  C   UNL     1       4.081  -4.417  -8.571  1.00  0.00     0.029 A 
ATOM     43  N   UNL     1       4.458  -6.487  -7.747  1.00  0.00    -0.354 N 
ATOM     44  C   UNL     1       4.115  -1.250  -5.730  1.00  0.00     0.074 A 
ATOM     45  C   UNL     1       5.275  -1.351  -4.875  1.00  0.00     0.031 C 
ATOM     46  C   UNL     1       3.401  -5.301  -9.327  1.00  0.00     0.029 A 
ATOM     47  C   UNL     1       3.344  -6.556  -8.582  1.00  0.00     0.049 A 
ATOM     48  H   UNL     1       5.017  -7.237  -7.441  1.00  0.00     0.167 HD
ATOM     49  C   UNL     1       3.449  -0.214  -6.326  1.00  0.00     0.037 A 
ATOM     50  C   UNL     1       2.206  -7.155  -8.125  1.00  0.00     0.037 A 
ATOM     51  C   UNL     1       2.553  -0.730  -7.353  1.00  0.00     0.049 A 
ATOM     52  C   UNL     1       1.051  -6.194  -8.144  1.00  0.00     0.074 A 
ATOM     53  C   UNL     1       2.776  -0.949  -8.703  1.00  0.00     0.029 A 
ATOM     54  N   UNL     1       1.408  -1.435  -7.012  1.00  0.00    -0.354 N 
ATOM     55  N   UNL     1       1.157  -4.924  -7.862  1.00  0.00    -0.248 NA
ATOM     56  C   UNL     1      -0.294  -6.593  -8.536  1.00  0.00     0.031 C 
ATOM     57  C   UNL     1       1.802  -1.863  -9.160  1.00  0.00     0.029 A 
ATOM     58  C   UNL     1       0.966  -2.166  -8.098  1.00  0.00     0.049 A 
ATOM     59  H   UNL     1       0.975  -1.418  -6.128  1.00  0.00     0.167 HD
ATOM     60  C   UNL     1      -0.048  -4.324  -8.113  1.00  0.00     0.074 A 
ATOM     61  C   UNL     1      -0.930  -5.410  -8.504  1.00  0.00     0.031 C 
ATOM     62  C   UNL     1      -0.234  -2.976  -8.030  1.00  0.00     0.037 A 
BRANCH  49  63
ATOM     63  C   UNL     1       3.868   1.244  -6.270  1.00  0.00     0.064 A 
ATOM     64  C   UNL     1       3.624   2.109  -7.365  1.00  0.00     0.173 A 
ATOM     65  C   UNL     1       4.545   1.842  -5.193  1.00  0.00     0.173 A 
ATOM     66  F   UNL     1       2.877   1.726  -8.409  1.00  0.00    -0.203 F 
ATOM     67  C   UNL     1       4.135   3.408  -7.432  1.00  0.00     0.198 A 
ATOM     68  C   UNL     1       5.088   3.133  -5.274  1.00  0.00     0.198 A 
ATOM     69  F   UNL     1       4.662   1.214  -4.016  1.00  0.00    -0.203 F 
ATOM     70  F   UNL     1       3.889   4.164  -8.512  1.00  0.00    -0.200 F 
ATOM     71  C   UNL     1       4.900   3.908  -6.402  1.00  0.00     0.200 A 
ATOM     72  F   UNL     1       5.799   3.622  -4.247  1.00  0.00    -0.200 F 
ATOM     73  F   UNL     1       5.428   5.137  -6.483  1.00  0.00    -0.200 F 
ENDBRANCH  49  63
BRANCH  50  74
ATOM     74  C   UNL     1       2.398  -8.221  -7.090  1.00  0.00     0.064 A 
ATOM     75  C   UNL     1       3.295  -9.283  -7.342  1.00  0.00     0.173 A 
ATOM     76  C   UNL     1       1.904  -8.115  -5.783  1.00  0.00     0.173 A 
ATOM     77  F   UNL     1       3.801  -9.456  -8.575  1.00  0.00    -0.203 F 
ATOM     78  C   UNL     1       3.739 -10.134  -6.328  1.00  0.00     0.198 A 
ATOM     79  C   UNL     1       2.337  -8.981  -4.771  1.00  0.00     0.198 A 
ATOM     80  F   UNL     1       1.042  -7.143  -5.457  1.00  0.00    -0.203 F 
ATOM     81  F   UNL     1       4.652 -11.078  -6.599  1.00  0.00    -0.200 F 
ATOM     82  C   UNL     1       3.268  -9.973  -5.038  1.00  0.00     0.200 A 
ATOM     83  F   UNL     1       1.885  -8.823  -3.518  1.00  0.00    -0.200 F 
ATOM     84  F   UNL     1       3.720 -10.757  -4.049  1.00  0.00    -0.200 F 
ENDBRANCH  50  74
BRANCH  62  85
ATOM     85  C   UNL     1      -1.569  -2.286  -8.031  1.00  0.00     0.064 A 
ATOM     86  C   UNL     1      -2.732  -2.872  -7.509  1.00  0.00     0.173 A 
ATOM     87  C   UNL     1      -1.681  -0.927  -8.412  1.00  0.00     0.173 A 
ATOM     88  F   UNL     1      -2.719  -4.113  -7.002  1.00  0.00    -0.203 F 
ATOM     89  C   UNL     1      -3.937  -2.175  -7.435  1.00  0.00     0.198 A 
ATOM     90  C   UNL     1      -2.870  -0.216  -8.279  1.00  0.00     0.198 A 
ATOM     91  F   UNL     1      -0.634  -0.241  -8.893  1.00  0.00    -0.203 F 
ATOM     92  F   UNL     1      -5.031  -2.793  -6.970  1.00  0.00    -0.200 F 
ATOM     93  C   UNL     1      -4.003  -0.845  -7.807  1.00  0.00     0.200 A 
ATOM     94  F   UNL     1      -2.904   1.088  -8.588  1.00  0.00    -0.200 F 
ATOM     95  F   UNL     1      -5.150  -0.165  -7.686  1.00  0.00    -0.200 F 
ENDBRANCH  62  85
ENDBRANCH  36  37
ENDBRANCH  29  31
ENDBRANCH  28  29
ENDBRANCH  27  28
ENDBRANCH   1  27
TORSDOF 14
