REMARK SMILES CC(C)(C)[N@H+](CC(=O)OCCOC(=O)c1ccc(-c2c3nc(c(-c4c(F)c(F)c(F)c(F)c4F)c4ccc([nH]4)c(-c4c(F)c(F)c(F)c(F)c4F)c4nc(c(-c5c(F)c(F)c(F)c(F)c5F)c5ccc2[nH]5)C=C4)C=C3)cc1)C[C@H]1Cc2cc(F)ccc2O1
REMARK SMILES IDX 10 1 9 2 7 3 8 4 6 5 5 6 2 8 1 9 3 10 4 11 78 12 79 13 80 14
REMARK SMILES IDX 88 15 81 16 87 17 82 18 86 19 83 20 85 21 84 22 11 23 12 24
REMARK SMILES IDX 13 25 14 26 15 27 16 28 77 29 17 30 76 31 18 32 19 33 20 34
REMARK SMILES IDX 70 35 21 36 75 37 69 38 71 39 22 40 74 41 68 42 67 43 23 45
REMARK SMILES IDX 55 46 35 47 54 48 36 49 39 50 53 51 72 52 37 53 38 54 52 56
REMARK SMILES IDX 73 57 40 58 24 59 25 60 33 61 26 62 27 63 31 64 34 65 28 66
REMARK SMILES IDX 29 67 32 68 30 69 56 70 57 71 65 72 58 73 59 74 63 75 66 76
REMARK SMILES IDX 60 77 61 78 64 79 62 80 41 81 42 82 50 83 43 84 44 85 48 86
REMARK SMILES IDX 51 87 45 88 46 89 49 90 47 91
REMARK H PARENT 5 7 71 44 39 55
REMARK Flexibility Score: inf
ROOT
ATOM      1  C   UNL     1       4.044  -1.688  -3.352  1.00  0.00     0.274 C 
ENDROOT
BRANCH   1   2
ATOM      2  O   UNL     1       3.108  -0.927  -2.558  1.00  0.00    -0.458 OA
BRANCH   2   3
ATOM      3  C   UNL     1       3.521   0.281  -2.099  1.00  0.00     0.361 C 
ATOM      4  O   UNL     1       4.670   0.702  -2.222  1.00  0.00    -0.245 OA
BRANCH   3   5
ATOM      5  C   UNL     1       2.452   1.092  -1.355  1.00  0.00     0.387 C 
BRANCH   5   6
ATOM      6  N   UNL     1       1.056   0.812  -1.752  1.00  0.00    -0.318 N 
ATOM      7  H   UNL     1       1.132   0.108  -2.486  1.00  0.00     0.349 HD
BRANCH   6   8
ATOM      8  C   UNL     1       0.246  -0.108  -0.913  1.00  0.00     0.090 C 
ATOM      9  C   UNL     1       0.841  -0.397   0.489  1.00  0.00     0.078 C 
ATOM     10  C   UNL     1       0.170  -1.464  -1.651  1.00  0.00     0.078 C 
ATOM     11  C   UNL     1      -1.199   0.380  -0.636  1.00  0.00     0.078 C 
ENDBRANCH   6   8
BRANCH   6  12
ATOM     12  C   UNL     1       0.412   1.927  -2.496  1.00  0.00     0.309 C 
BRANCH  12  13
ATOM     13  C   UNL     1      -0.661   1.536  -3.543  1.00  0.00     0.232 C 
ATOM     14  C   UNL     1      -1.907   2.438  -3.551  1.00  0.00     0.090 C 
ATOM     15  O   UNL     1      -0.171   1.596  -4.914  1.00  0.00    -0.484 OA
ATOM     16  C   UNL     1      -2.422   2.009  -4.880  1.00  0.00     0.001 A 
ATOM     17  C   UNL     1      -1.344   1.540  -5.624  1.00  0.00     0.123 A 
ATOM     18  C   UNL     1      -3.699   1.972  -5.397  1.00  0.00     0.047 A 
ATOM     19  C   UNL     1      -1.480   1.010  -6.889  1.00  0.00     0.050 A 
ATOM     20  C   UNL     1      -3.860   1.413  -6.667  1.00  0.00     0.123 A 
ATOM     21  C   UNL     1      -2.771   0.932  -7.410  1.00  0.00     0.043 A 
ATOM     22  F   UNL     1      -5.093   1.310  -7.181  1.00  0.00    -0.207 F 
ENDBRANCH  12  13
ENDBRANCH   6  12
ENDBRANCH   5   6
ENDBRANCH   3   5
ENDBRANCH   2   3
ENDBRANCH   1   2
BRANCH   1  23
ATOM     23  C   UNL     1       3.767  -1.565  -4.857  1.00  0.00     0.275 C 
BRANCH  23  24
ATOM     24  O   UNL     1       4.149  -0.273  -5.372  1.00  0.00    -0.458 OA
BRANCH  24  25
ATOM     25  C   UNL     1       3.172   0.650  -5.234  1.00  0.00     0.338 C 
ATOM     26  O   UNL     1       2.069   0.446  -4.769  1.00  0.00    -0.246 OA
BRANCH  25  27
ATOM     27  C   UNL     1       3.618   1.994  -5.616  1.00  0.00     0.060 A 
ATOM     28  C   UNL     1       3.771   2.959  -4.615  1.00  0.00     0.016 A 
ATOM     29  C   UNL     1       3.750   2.339  -6.960  1.00  0.00     0.016 A 
ATOM     30  C   UNL     1       4.069   4.276  -4.951  1.00  0.00     0.010 A 
ATOM     31  C   UNL     1       4.067   3.657  -7.296  1.00  0.00     0.010 A 
ATOM     32  C   UNL     1       4.231   4.631  -6.295  1.00  0.00    -0.014 A 
BRANCH  32  33
ATOM     33  C   UNL     1       4.619   6.011  -6.664  1.00  0.00     0.031 A 
ATOM     34  C   UNL     1       3.632   6.926  -7.320  1.00  0.00     0.074 A 
ATOM     35  C   UNL     1       5.883   6.414  -6.441  1.00  0.00     0.049 A 
ATOM     36  N   UNL     1       3.833   8.087  -7.889  1.00  0.00    -0.248 NA
ATOM     37  C   UNL     1       2.232   6.477  -7.340  1.00  0.00     0.031 C 
ATOM     38  C   UNL     1       6.910   5.625  -5.760  1.00  0.00     0.029 A 
ATOM     39  N   UNL     1       6.525   7.576  -6.785  1.00  0.00    -0.354 N 
ATOM     40  C   UNL     1       2.594   8.496  -8.360  1.00  0.00     0.074 A 
ATOM     41  C   UNL     1       1.644   7.461  -8.009  1.00  0.00     0.031 C 
ATOM     42  C   UNL     1       8.059   6.317  -5.752  1.00  0.00     0.029 A 
ATOM     43  C   UNL     1       7.864   7.566  -6.481  1.00  0.00     0.049 A 
ATOM     44  H   UNL     1       6.072   8.341  -7.208  1.00  0.00     0.167 HD
ATOM     45  C   UNL     1       2.288   9.632  -9.032  1.00  0.00     0.037 A 
ATOM     46  C   UNL     1       8.834   8.443  -6.798  1.00  0.00     0.037 A 
ATOM     47  C   UNL     1       3.245  10.655  -9.370  1.00  0.00     0.049 A 
ATOM     48  C   UNL     1       8.481   9.663  -7.601  1.00  0.00     0.074 A 
ATOM     49  C   UNL     1       3.039  11.841 -10.053  1.00  0.00     0.029 A 
ATOM     50  N   UNL     1       4.594  10.610  -9.045  1.00  0.00    -0.354 N 
ATOM     51  N   UNL     1       7.314  10.034  -8.067  1.00  0.00    -0.248 NA
ATOM     52  C   UNL     1       9.579  10.581  -7.930  1.00  0.00     0.031 C 
ATOM     53  C   UNL     1       4.270  12.495 -10.174  1.00  0.00     0.029 A 
ATOM     54  C   UNL     1       5.234  11.740  -9.526  1.00  0.00     0.049 A 
ATOM     55  H   UNL     1       5.030   9.882  -8.546  1.00  0.00     0.167 HD
ATOM     56  C   UNL     1       7.529  11.240  -8.717  1.00  0.00     0.074 A 
ATOM     57  C   UNL     1       8.940  11.540  -8.585  1.00  0.00     0.031 C 
ATOM     58  C   UNL     1       6.636  12.028  -9.364  1.00  0.00     0.037 A 
BRANCH  45  59
ATOM     59  C   UNL     1       0.869   9.814  -9.482  1.00  0.00     0.064 A 
ATOM     60  C   UNL     1      -0.156  10.135  -8.582  1.00  0.00     0.173 A 
ATOM     61  C   UNL     1       0.540   9.709 -10.843  1.00  0.00     0.173 A 
ATOM     62  F   UNL     1       0.105  10.236  -7.270  1.00  0.00    -0.203 F 
ATOM     63  C   UNL     1      -1.463  10.327  -9.024  1.00  0.00     0.198 A 
ATOM     64  C   UNL     1      -0.763   9.924 -11.285  1.00  0.00     0.198 A 
ATOM     65  F   UNL     1       1.486   9.410 -11.746  1.00  0.00    -0.203 F 
ATOM     66  F   UNL     1      -2.434  10.600  -8.142  1.00  0.00    -0.200 F 
ATOM     67  C   UNL     1      -1.764  10.228 -10.375  1.00  0.00     0.200 A 
ATOM     68  F   UNL     1      -1.048   9.840 -12.591  1.00  0.00    -0.200 F 
ATOM     69  F   UNL     1      -3.020  10.421 -10.800  1.00  0.00    -0.200 F 
ENDBRANCH  45  59
BRANCH  46  70
ATOM     70  C   UNL     1      10.232   8.174  -6.378  1.00  0.00     0.064 A 
ATOM     71  C   UNL     1      10.848   8.948  -5.386  1.00  0.00     0.173 A 
ATOM     72  C   UNL     1      10.974   7.127  -6.946  1.00  0.00     0.173 A 
ATOM     73  F   UNL     1      10.185   9.974  -4.832  1.00  0.00    -0.203 F 
ATOM     74  C   UNL     1      12.155   8.690  -4.982  1.00  0.00     0.198 A 
ATOM     75  C   UNL     1      12.272   6.853  -6.522  1.00  0.00     0.198 A 
ATOM     76  F   UNL     1      10.429   6.356  -7.899  1.00  0.00    -0.203 F 
ATOM     77  F   UNL     1      12.733   9.466  -4.056  1.00  0.00    -0.200 F 
ATOM     78  C   UNL     1      12.864   7.638  -5.544  1.00  0.00     0.200 A 
ATOM     79  F   UNL     1      12.948   5.827  -7.058  1.00  0.00    -0.200 F 
ATOM     80  F   UNL     1      14.118   7.384  -5.148  1.00  0.00    -0.200 F 
ENDBRANCH  46  70
BRANCH  58  81
ATOM     81  C   UNL     1       7.146  13.319  -9.929  1.00  0.00     0.064 A 
ATOM     82  C   UNL     1       7.907  13.359 -11.105  1.00  0.00     0.173 A 
ATOM     83  C   UNL     1       6.821  14.536  -9.310  1.00  0.00     0.173 A 
ATOM     84  F   UNL     1       8.256  12.220 -11.721  1.00  0.00    -0.203 F 
ATOM     85  C   UNL     1       8.337  14.572 -11.635  1.00  0.00     0.198 A 
ATOM     86  C   UNL     1       7.233  15.748  -9.855  1.00  0.00     0.198 A 
ATOM     87  F   UNL     1       6.092  14.548  -8.184  1.00  0.00    -0.203 F 
ATOM     88  F   UNL     1       9.091  14.588 -12.743  1.00  0.00    -0.200 F 
ATOM     89  C   UNL     1       7.993  15.765 -11.015  1.00  0.00     0.200 A 
ATOM     90  F   UNL     1       6.893  16.899  -9.260  1.00  0.00    -0.200 F 
ATOM     91  F   UNL     1       8.399  16.932 -11.533  1.00  0.00    -0.200 F 
ENDBRANCH  58  81
ENDBRANCH  32  33
ENDBRANCH  25  27
ENDBRANCH  24  25
ENDBRANCH  23  24
ENDBRANCH   1  23
TORSDOF 15
