REMARK SMILES C[C@@](NC(=O)c1ccc[nH]c1=O)(C(=O)OCCOC(=O)c1ccc(-c2c3nc(c(-c4c(F)c(F)c(F)c(F)c4F)c4ccc([nH]4)c(-c4c(F)c(F)c(F)c(F)c4F)c4nc(c(-c5c(F)c(F)c(F)c(F)c5F)c5ccc2[nH]5)C=C4)C=C3)cc1)C(F)(F)F
REMARK SMILES IDX 16 1 15 2 13 3 14 4 2 5 1 6 3 7 4 8 5 10 6 11 7 12 11 13
REMARK SMILES IDX 8 14 10 15 12 16 9 17 84 19 85 20 86 21 87 22 17 23 18 24
REMARK SMILES IDX 19 25 20 26 21 27 22 28 83 29 23 30 82 31 24 32 25 33 26 34
REMARK SMILES IDX 76 35 27 36 81 37 75 38 77 39 28 40 80 41 74 42 73 43 29 45
REMARK SMILES IDX 61 46 41 47 60 48 42 49 45 50 59 51 78 52 43 53 44 54 58 56
REMARK SMILES IDX 79 57 46 58 30 59 31 60 39 61 32 62 33 63 37 64 40 65 34 66
REMARK SMILES IDX 35 67 38 68 36 69 62 70 63 71 71 72 64 73 65 74 69 75 72 76
REMARK SMILES IDX 66 77 67 78 70 79 68 80 47 81 48 82 56 83 49 84 50 85 54 86
REMARK SMILES IDX 57 87 51 88 52 89 55 90 53 91
REMARK H PARENT 3 9 10 18 77 44 45 55
REMARK Flexibility Score: inf
ROOT
ATOM      1  C   UNL     1      -2.832  -0.615  -0.042  1.00  0.00     0.274 C 
ENDROOT
BRANCH   1   2
ATOM      2  O   UNL     1      -1.392  -0.739  -0.098  1.00  0.00    -0.460 OA
BRANCH   2   3
ATOM      3  C   UNL     1      -0.780  -0.076  -1.122  1.00  0.00     0.341 C 
ATOM      4  O   UNL     1      -1.391   0.682  -1.865  1.00  0.00    -0.249 OA
BRANCH   3   5
ATOM      5  C   UNL     1       0.667  -0.523  -1.365  1.00  0.00     0.231 C 
ATOM      6  C   UNL     1       1.303  -1.016  -0.051  1.00  0.00     0.058 C 
BRANCH   5   7
ATOM      7  N   UNL     1       0.802  -1.634  -2.377  1.00  0.00    -0.329 N 
ATOM      8  C   UNL     1       0.251  -1.721  -3.631  1.00  0.00     0.258 C 
ATOM      9  H   UNL     1       1.360  -2.397  -2.102  1.00  0.00     0.165 HD
ATOM     10  O   UNL     1       0.914  -2.211  -4.540  1.00  0.00    -0.269 OA
BRANCH   8  11
ATOM     11  C   UNL     1      -1.197  -1.492  -3.781  1.00  0.00     0.104 A 
ATOM     12  C   UNL     1      -2.022  -2.444  -3.302  1.00  0.00     0.021 A 
ATOM     13  C   UNL     1      -1.772  -0.310  -4.481  1.00  0.00     0.260 A 
ATOM     14  C   UNL     1      -3.457  -2.301  -3.399  1.00  0.00     0.019 A 
ATOM     15  N   UNL     1      -3.153  -0.238  -4.481  1.00  0.00    -0.328 N 
ATOM     16  O   UNL     1      -1.081   0.559  -4.999  1.00  0.00    -0.269 OA
ATOM     17  C   UNL     1      -3.977  -1.203  -3.960  1.00  0.00     0.086 A 
ATOM     18  H   UNL     1      -3.572   0.559  -4.880  1.00  0.00     0.169 HD
ENDBRANCH   8  11
ENDBRANCH   5   7
BRANCH   5  19
ATOM     19  C   UNL     1       1.456   0.730  -1.797  1.00  0.00     0.422 C 
ATOM     20  F   UNL     1       1.492   1.668  -0.824  1.00  0.00    -0.168 F 
ATOM     21  F   UNL     1       2.751   0.398  -2.048  1.00  0.00    -0.168 F 
ATOM     22  F   UNL     1       0.986   1.309  -2.918  1.00  0.00    -0.168 F 
ENDBRANCH   5  19
ENDBRANCH   3   5
ENDBRANCH   2   3
ENDBRANCH   1   2
BRANCH   1  23
ATOM     23  C   UNL     1      -3.342   0.526   0.845  1.00  0.00     0.275 C 
BRANCH  23  24
ATOM     24  O   UNL     1      -3.142   1.827   0.259  1.00  0.00    -0.458 OA
BRANCH  24  25
ATOM     25  C   UNL     1      -1.960   2.400   0.576  1.00  0.00     0.338 C 
ATOM     26  O   UNL     1      -1.087   1.928   1.287  1.00  0.00    -0.246 OA
BRANCH  25  27
ATOM     27  C   UNL     1      -1.769   3.663  -0.152  1.00  0.00     0.060 A 
ATOM     28  C   UNL     1      -0.772   3.688  -1.125  1.00  0.00     0.016 A 
ATOM     29  C   UNL     1      -2.386   4.846   0.249  1.00  0.00     0.016 A 
ATOM     30  C   UNL     1      -0.299   4.888  -1.630  1.00  0.00     0.010 A 
ATOM     31  C   UNL     1      -1.944   6.059  -0.296  1.00  0.00     0.010 A 
ATOM     32  C   UNL     1      -0.863   6.089  -1.200  1.00  0.00    -0.014 A 
BRANCH  32  33
ATOM     33  C   UNL     1      -0.223   7.369  -1.588  1.00  0.00     0.031 A 
ATOM     34  C   UNL     1       0.444   8.197  -0.528  1.00  0.00     0.074 A 
ATOM     35  C   UNL     1      -0.170   7.754  -2.875  1.00  0.00     0.049 A 
ATOM     36  N   UNL     1       0.873   9.431  -0.583  1.00  0.00    -0.248 NA
ATOM     37  C   UNL     1       0.651   7.546   0.776  1.00  0.00     0.031 C 
ATOM     38  C   UNL     1      -0.664   6.979  -4.013  1.00  0.00     0.029 A 
ATOM     39  N   UNL     1       0.332   8.899  -3.441  1.00  0.00    -0.354 N 
ATOM     40  C   UNL     1       1.336   9.725   0.693  1.00  0.00     0.074 A 
ATOM     41  C   UNL     1       1.151   8.537   1.498  1.00  0.00     0.031 C 
ATOM     42  C   UNL     1      -0.435   7.668  -5.143  1.00  0.00     0.029 A 
ATOM     43  C   UNL     1       0.141   8.963  -4.799  1.00  0.00     0.049 A 
ATOM     44  H   UNL     1       0.784   9.604  -2.924  1.00  0.00     0.167 HD
ATOM     45  C   UNL     1       1.858  10.889   1.146  1.00  0.00     0.037 A 
ATOM     46  C   UNL     1       0.355   9.977  -5.658  1.00  0.00     0.037 A 
ATOM     47  C   UNL     1       2.090  12.040   0.314  1.00  0.00     0.049 A 
ATOM     48  C   UNL     1       0.886  11.280  -5.127  1.00  0.00     0.074 A 
ATOM     49  C   UNL     1       2.598  13.277   0.667  1.00  0.00     0.029 A 
ATOM     50  N   UNL     1       1.847  12.081  -1.052  1.00  0.00    -0.354 N 
ATOM     51  N   UNL     1       1.221  11.598  -3.899  1.00  0.00    -0.248 NA
ATOM     52  C   UNL     1       1.048  12.373  -6.095  1.00  0.00     0.031 C 
ATOM     53  C   UNL     1       2.633  14.078  -0.480  1.00  0.00     0.029 A 
ATOM     54  C   UNL     1       2.187  13.325  -1.556  1.00  0.00     0.049 A 
ATOM     55  H   UNL     1       1.487  11.335  -1.585  1.00  0.00     0.167 HD
ATOM     56  C   UNL     1       1.646  12.918  -3.948  1.00  0.00     0.074 A 
ATOM     57  C   UNL     1       1.540  13.338  -5.330  1.00  0.00     0.031 C 
ATOM     58  C   UNL     1       2.080  13.713  -2.939  1.00  0.00     0.037 A 
BRANCH  45  59
ATOM     59  C   UNL     1       2.153  10.991   2.613  1.00  0.00     0.064 A 
ATOM     60  C   UNL     1       3.232  10.324   3.209  1.00  0.00     0.173 A 
ATOM     61  C   UNL     1       1.335  11.782   3.436  1.00  0.00     0.173 A 
ATOM     62  F   UNL     1       4.032   9.540   2.471  1.00  0.00    -0.203 F 
ATOM     63  C   UNL     1       3.467  10.424   4.579  1.00  0.00     0.198 A 
ATOM     64  C   UNL     1       1.588  11.901   4.800  1.00  0.00     0.198 A 
ATOM     65  F   UNL     1       0.288  12.441   2.917  1.00  0.00    -0.203 F 
ATOM     66  F   UNL     1       4.474   9.737   5.137  1.00  0.00    -0.200 F 
ATOM     67  C   UNL     1       2.648  11.215   5.372  1.00  0.00     0.200 A 
ATOM     68  F   UNL     1       0.801  12.673   5.561  1.00  0.00    -0.200 F 
ATOM     69  F   UNL     1       2.876  11.310   6.689  1.00  0.00    -0.200 F 
ENDBRANCH  45  59
BRANCH  46  70
ATOM     70  C   UNL     1       0.007   9.813  -7.093  1.00  0.00     0.064 A 
ATOM     71  C   UNL     1       1.001   9.767  -8.079  1.00  0.00     0.173 A 
ATOM     72  C   UNL     1      -1.329   9.684  -7.505  1.00  0.00     0.173 A 
ATOM     73  F   UNL     1       2.289   9.916  -7.738  1.00  0.00    -0.203 F 
ATOM     74  C   UNL     1       0.672   9.603  -9.423  1.00  0.00     0.198 A 
ATOM     75  C   UNL     1      -1.654   9.491  -8.845  1.00  0.00     0.198 A 
ATOM     76  F   UNL     1      -2.318   9.728  -6.600  1.00  0.00    -0.203 F 
ATOM     77  F   UNL     1       1.638   9.600 -10.352  1.00  0.00    -0.200 F 
ATOM     78  C   UNL     1      -0.654   9.455  -9.804  1.00  0.00     0.200 A 
ATOM     79  F   UNL     1      -2.936   9.338  -9.205  1.00  0.00    -0.200 F 
ATOM     80  F   UNL     1      -0.969   9.288 -11.095  1.00  0.00    -0.200 F 
ENDBRANCH  46  70
BRANCH  58  81
ATOM     81  C   UNL     1       2.506  15.103  -3.303  1.00  0.00     0.064 A 
ATOM     82  C   UNL     1       1.569  16.101  -3.604  1.00  0.00     0.173 A 
ATOM     83  C   UNL     1       3.865  15.447  -3.307  1.00  0.00     0.173 A 
ATOM     84  F   UNL     1       0.259  15.814  -3.628  1.00  0.00    -0.203 F 
ATOM     85  C   UNL     1       1.982  17.394  -3.917  1.00  0.00     0.198 A 
ATOM     86  C   UNL     1       4.272  16.746  -3.595  1.00  0.00     0.198 A 
ATOM     87  F   UNL     1       4.797  14.527  -3.018  1.00  0.00    -0.203 F 
ATOM     88  F   UNL     1       1.074  18.325  -4.240  1.00  0.00    -0.200 F 
ATOM     89  C   UNL     1       3.331  17.716  -3.905  1.00  0.00     0.200 A 
ATOM     90  F   UNL     1       5.575  17.059  -3.573  1.00  0.00    -0.200 F 
ATOM     91  F   UNL     1       3.725  18.963  -4.200  1.00  0.00    -0.200 F 
ENDBRANCH  58  81
ENDBRANCH  32  33
ENDBRANCH  25  27
ENDBRANCH  24  25
ENDBRANCH  23  24
ENDBRANCH   1  23
TORSDOF 14
