REMARK SMILES Nc1c(Nc2ccc(I)cc2)ncnc1Nc1ccc(C(=O)OCCOC(=O)c2ccc(-c3c4nc(c(-c5c(F)c(F)c(F)c(F)c5F)c5ccc([nH]5)c(-c5c(F)c(F)c(F)c(F)c5F)c5nc(c(-c6c(F)c(F)c(F)c(F)c6F)c6ccc3[nH]6)C=C5)C=C4)cc2)cc1
REMARK SMILES IDX 24 1 23 2 21 3 22 4 20 5 17 6 18 7 93 8 19 9 92 10 16 11
REMARK SMILES IDX 15 13 2 14 3 15 12 16 14 17 13 18 1 19 4 22 5 24 6 25 11 26
REMARK SMILES IDX 7 27 10 28 8 29 9 30 25 31 26 32 27 33 28 34 29 35 30 36
REMARK SMILES IDX 91 37 31 38 90 39 32 40 33 41 34 42 84 43 35 44 89 45 83 46
REMARK SMILES IDX 85 47 36 48 88 49 82 50 81 51 37 53 69 54 49 55 68 56 50 57
REMARK SMILES IDX 53 58 67 59 86 60 51 61 52 62 66 64 87 65 54 66 38 67 39 68
REMARK SMILES IDX 47 69 40 70 41 71 45 72 48 73 42 74 43 75 46 76 44 77 70 78
REMARK SMILES IDX 71 79 79 80 72 81 73 82 77 83 80 84 74 85 75 86 78 87 76 88
REMARK SMILES IDX 55 89 56 90 64 91 57 92 58 93 62 94 65 95 59 96 60 97 63 98
REMARK SMILES IDX 61 99
REMARK H PARENT 16 12 1 20 1 21 4 23 85 52 53 63
REMARK Flexibility Score: inf
ROOT
ATOM      1  C   UNL     1       3.102  -6.307   8.307  1.00  0.00     0.275 C 
ENDROOT
BRANCH   1   2
ATOM      2  O   UNL     1       3.108  -5.573   7.067  1.00  0.00    -0.458 OA
BRANCH   2   3
ATOM      3  C   UNL     1       2.071  -4.715   6.900  1.00  0.00     0.338 C 
ATOM      4  O   UNL     1       1.143  -4.537   7.666  1.00  0.00    -0.246 OA
BRANCH   3   5
ATOM      5  C   UNL     1       2.246  -3.918   5.665  1.00  0.00     0.060 A 
ATOM      6  C   UNL     1       2.226  -2.398   3.312  1.00  0.00     0.040 A 
ATOM      7  C   UNL     1       1.873  -1.810   4.526  1.00  0.00     0.027 A 
ATOM      8  C   UNL     1       2.639  -3.740   3.294  1.00  0.00     0.027 A 
ATOM      9  C   UNL     1       1.850  -2.576   5.685  1.00  0.00     0.018 A 
ATOM     10  C   UNL     1       2.674  -4.497   4.471  1.00  0.00     0.018 A 
BRANCH   6  11
ATOM     11  N   UNL     1       1.889  -1.723   2.119  1.00  0.00    -0.338 N 
ATOM     12  H   UNL     1       2.468  -0.994   1.799  1.00  0.00     0.168 HD
BRANCH  11  13
ATOM     13  C   UNL     1       0.732  -2.074   1.368  1.00  0.00     0.159 A 
ATOM     14  C   UNL     1       0.384  -1.308   0.252  1.00  0.00     0.118 A 
ATOM     15  C   UNL     1      -0.757  -1.751  -0.434  1.00  0.00     0.159 A 
ATOM     16  N   UNL     1      -1.519  -2.773  -0.001  1.00  0.00    -0.217 NA
ATOM     17  N   UNL     1       0.001  -3.130   1.779  1.00  0.00    -0.217 NA
ATOM     18  C   UNL     1      -1.098  -3.416   1.085  1.00  0.00     0.226 A 
BRANCH  14  19
ATOM     19  N   UNL     1       1.149  -0.226  -0.205  1.00  0.00    -0.393 N 
ATOM     20  H   UNL     1       0.860   0.282  -0.997  1.00  0.00     0.156 HD
ATOM     21  H   UNL     1       1.976   0.025   0.266  1.00  0.00     0.156 HD
ENDBRANCH  14  19
BRANCH  15  22
ATOM     22  N   UNL     1      -1.091  -1.111  -1.655  1.00  0.00    -0.338 N 
ATOM     23  H   UNL     1      -0.505  -0.376  -1.947  1.00  0.00     0.168 HD
BRANCH  22  24
ATOM     24  C   UNL     1      -2.178  -1.425  -2.490  1.00  0.00     0.040 A 
ATOM     25  C   UNL     1      -1.948  -1.671  -3.850  1.00  0.00     0.027 A 
ATOM     26  C   UNL     1      -3.470  -1.614  -1.985  1.00  0.00     0.027 A 
ATOM     27  C   UNL     1      -2.979  -2.119  -4.680  1.00  0.00     0.017 A 
ATOM     28  C   UNL     1      -4.509  -2.050  -2.811  1.00  0.00     0.017 A 
ATOM     29  C   UNL     1      -4.256  -2.311  -4.155  1.00  0.00     0.013 A 
ATOM     30  I   UNL     1      -5.779  -3.020  -5.377  1.00  0.00    -0.044 I 
ENDBRANCH  22  24
ENDBRANCH  15  22
ENDBRANCH  11  13
ENDBRANCH   6  11
ENDBRANCH   3   5
ENDBRANCH   2   3
ENDBRANCH   1   2
BRANCH   1  31
ATOM     31  C   UNL     1       4.037  -5.656   9.327  1.00  0.00     0.275 C 
BRANCH  31  32
ATOM     32  O   UNL     1       3.520  -4.372   9.725  1.00  0.00    -0.458 OA
BRANCH  32  33
ATOM     33  C   UNL     1       4.290  -3.304   9.424  1.00  0.00     0.338 C 
ATOM     34  O   UNL     1       5.393  -3.301   8.900  1.00  0.00    -0.246 OA
BRANCH  33  35
ATOM     35  C   UNL     1       3.596  -2.062   9.804  1.00  0.00     0.060 A 
ATOM     36  C   UNL     1       2.400  -1.734   9.177  1.00  0.00     0.016 A 
ATOM     37  C   UNL     1       4.197  -1.152  10.670  1.00  0.00     0.016 A 
ATOM     38  C   UNL     1       1.863  -0.457   9.309  1.00  0.00     0.010 A 
ATOM     39  C   UNL     1       3.584   0.086  10.907  1.00  0.00     0.010 A 
ATOM     40  C   UNL     1       2.431   0.469  10.196  1.00  0.00    -0.014 A 
BRANCH  40  41
ATOM     41  C   UNL     1       1.828   1.825  10.358  1.00  0.00     0.031 A 
ATOM     42  C   UNL     1       2.650   3.066  10.113  1.00  0.00     0.074 A 
ATOM     43  C   UNL     1       0.527   1.956  10.694  1.00  0.00     0.049 A 
ATOM     44  N   UNL     1       2.342   4.321  10.331  1.00  0.00    -0.248 NA
ATOM     45  C   UNL     1       3.999   2.874   9.559  1.00  0.00     0.031 C 
ATOM     46  C   UNL     1      -0.403   0.848  10.919  1.00  0.00     0.029 A 
ATOM     47  N   UNL     1      -0.247   3.076  10.882  1.00  0.00    -0.354 N 
ATOM     48  C   UNL     1       3.470   5.057   9.991  1.00  0.00     0.074 A 
ATOM     49  C   UNL     1       4.476   4.111   9.560  1.00  0.00     0.031 C 
ATOM     50  C   UNL     1      -1.630   1.339  11.143  1.00  0.00     0.029 A 
ATOM     51  C   UNL     1      -1.560   2.795  11.180  1.00  0.00     0.049 A 
ATOM     52  H   UNL     1       0.104   3.992  10.809  1.00  0.00     0.167 HD
ATOM     53  C   UNL     1       3.648   6.400  10.030  1.00  0.00     0.037 A 
ATOM     54  C   UNL     1      -2.589   3.610  11.483  1.00  0.00     0.037 A 
ATOM     55  C   UNL     1       2.630   7.346  10.405  1.00  0.00     0.049 A 
ATOM     56  C   UNL     1      -2.355   5.091  11.559  1.00  0.00     0.074 A 
ATOM     57  C   UNL     1       2.718   8.726  10.475  1.00  0.00     0.029 A 
ATOM     58  N   UNL     1       1.330   7.012  10.754  1.00  0.00    -0.354 N 
ATOM     59  N   UNL     1      -1.263   5.768  11.303  1.00  0.00    -0.248 NA
ATOM     60  C   UNL     1      -3.488   5.920  11.995  1.00  0.00     0.031 C 
ATOM     61  C   UNL     1       1.482   9.225  10.897  1.00  0.00     0.029 A 
ATOM     62  C   UNL     1       0.610   8.160  11.049  1.00  0.00     0.049 A 
ATOM     63  H   UNL     1       0.971   6.096  10.788  1.00  0.00     0.167 HD
ATOM     64  C   UNL     1      -1.576   7.098  11.537  1.00  0.00     0.074 A 
ATOM     65  C   UNL     1      -2.967   7.139  11.937  1.00  0.00     0.031 C 
ATOM     66  C   UNL     1      -0.776   8.187  11.438  1.00  0.00     0.037 A 
BRANCH  53  67
ATOM     67  C   UNL     1       5.003   6.940   9.673  1.00  0.00     0.064 A 
ATOM     68  C   UNL     1       5.461   6.970   8.348  1.00  0.00     0.173 A 
ATOM     69  C   UNL     1       5.826   7.499  10.665  1.00  0.00     0.173 A 
ATOM     70  F   UNL     1       4.718   6.440   7.365  1.00  0.00    -0.203 F 
ATOM     71  C   UNL     1       6.699   7.526   8.031  1.00  0.00     0.198 A 
ATOM     72  C   UNL     1       7.050   8.078  10.340  1.00  0.00     0.198 A 
ATOM     73  F   UNL     1       5.431   7.504  11.947  1.00  0.00    -0.203 F 
ATOM     74  F   UNL     1       7.131   7.514   6.762  1.00  0.00    -0.200 F 
ATOM     75  C   UNL     1       7.487   8.087   9.025  1.00  0.00     0.200 A 
ATOM     76  F   UNL     1       7.803   8.633  11.300  1.00  0.00    -0.200 F 
ATOM     77  F   UNL     1       8.670   8.635   8.715  1.00  0.00    -0.200 F 
ENDBRANCH  53  67
BRANCH  54  78
ATOM     78  C   UNL     1      -3.931   3.030  11.754  1.00  0.00     0.064 A 
ATOM     79  C   UNL     1      -4.992   3.228  10.860  1.00  0.00     0.173 A 
ATOM     80  C   UNL     1      -4.172   2.239  12.888  1.00  0.00     0.173 A 
ATOM     81  F   UNL     1      -4.819   3.999   9.777  1.00  0.00    -0.203 F 
ATOM     82  C   UNL     1      -6.241   2.654  11.088  1.00  0.00     0.198 A 
ATOM     83  C   UNL     1      -5.412   1.640  13.098  1.00  0.00     0.198 A 
ATOM     84  F   UNL     1      -3.191   2.021  13.776  1.00  0.00    -0.203 F 
ATOM     85  F   UNL     1      -7.246   2.882  10.232  1.00  0.00    -0.200 F 
ATOM     86  C   UNL     1      -6.447   1.851  12.200  1.00  0.00     0.200 A 
ATOM     87  F   UNL     1      -5.601   0.852  14.165  1.00  0.00    -0.200 F 
ATOM     88  F   UNL     1      -7.642   1.283  12.407  1.00  0.00    -0.200 F 
ENDBRANCH  54  78
BRANCH  66  89
ATOM     89  C   UNL     1      -1.383   9.522  11.745  1.00  0.00     0.064 A 
ATOM     90  C   UNL     1      -1.645   9.920  13.064  1.00  0.00     0.173 A 
ATOM     91  C   UNL     1      -1.638  10.441  10.716  1.00  0.00     0.173 A 
ATOM     92  F   UNL     1      -1.430   9.071  14.080  1.00  0.00    -0.203 F 
ATOM     93  C   UNL     1      -2.150  11.187  13.340  1.00  0.00     0.198 A 
ATOM     94  C   UNL     1      -2.120  11.715  10.998  1.00  0.00     0.198 A 
ATOM     95  F   UNL     1      -1.398  10.108   9.438  1.00  0.00    -0.203 F 
ATOM     96  F   UNL     1      -2.419  11.538  14.605  1.00  0.00    -0.200 F 
ATOM     97  C   UNL     1      -2.378  12.087  12.309  1.00  0.00     0.200 A 
ATOM     98  F   UNL     1      -2.329  12.587  10.001  1.00  0.00    -0.200 F 
ATOM     99  F   UNL     1      -2.849  13.312  12.578  1.00  0.00    -0.200 F 
ENDBRANCH  66  89
ENDBRANCH  40  41
ENDBRANCH  33  35
ENDBRANCH  32  33
ENDBRANCH  31  32
ENDBRANCH   1  31
TORSDOF 16
