REMARK SMILES COC(=O)c1ccc2oc(=O)c([C@H]3N=c4ccc(C(=O)OCCOC(=O)c5ccc(-c6c7nc(c(-c8c(F)c(F)c(F)c(F)c8F)c8ccc([nH]8)c(-c8c(F)c(F)c(F)c(F)c8F)c8nc(c(-c9c(F)c(F)c(F)c(F)c9F)c9ccc6[nH]9)C=C8)C=C7)cc5)cc4=N3)cc2c1
REMARK SMILES IDX 22 1 21 2 19 3 20 4 18 5 13 6 14 7 92 8 15 9 91 10 16 11
REMARK SMILES IDX 90 12 17 13 12 14 5 15 6 16 95 17 7 18 94 19 8 20 93 21 9 22
REMARK SMILES IDX 10 23 11 24 3 25 4 26 2 27 1 28 23 29 24 30 25 31 26 32
REMARK SMILES IDX 27 33 28 34 89 35 29 36 88 37 30 38 31 39 32 40 82 41 33 42
REMARK SMILES IDX 87 43 81 44 83 45 34 46 86 47 80 48 79 49 35 51 67 52 47 53
REMARK SMILES IDX 66 54 48 55 51 56 65 57 84 58 49 59 50 60 64 62 85 63 52 64
REMARK SMILES IDX 36 65 37 66 45 67 38 68 39 69 43 70 46 71 40 72 41 73 44 74
REMARK SMILES IDX 42 75 68 76 69 77 77 78 70 79 71 80 75 81 78 82 72 83 73 84
REMARK SMILES IDX 76 85 74 86 53 87 54 88 62 89 55 90 56 91 60 92 63 93 57 94
REMARK SMILES IDX 58 95 61 96 59 97
REMARK H PARENT 83 50 51 61
REMARK Flexibility Score: inf
ROOT
ATOM      1  C   UNL     1      -0.153  12.233  12.517  1.00  0.00     0.275 C 
ENDROOT
BRANCH   1   2
ATOM      2  O   UNL     1       0.265  11.580  11.300  1.00  0.00    -0.458 OA
BRANCH   2   3
ATOM      3  C   UNL     1       1.048  10.480  11.441  1.00  0.00     0.338 C 
ATOM      4  O   UNL     1       1.418   9.997  12.501  1.00  0.00    -0.246 OA
BRANCH   3   5
ATOM      5  C   UNL     1       1.346   9.864  10.111  1.00  0.00     0.062 A 
ATOM      6  C   UNL     1       2.155   6.549   7.172  1.00  0.00     0.260 C 
ATOM      7  N   UNL     1       2.144   7.919   6.587  1.00  0.00    -0.251 NA
ATOM      8  N   UNL     1       1.896   6.589   8.634  1.00  0.00    -0.251 NA
ATOM      9  C   UNL     1       1.877   8.652   7.611  1.00  0.00     0.086 A 
ATOM     10  C   UNL     1       1.772   7.854   8.849  1.00  0.00     0.087 A 
ATOM     11  C   UNL     1       1.683  10.104   7.681  1.00  0.00     0.031 A 
ATOM     12  C   UNL     1       1.564   8.536  10.125  1.00  0.00     0.046 A 
ATOM     13  C   UNL     1       1.411  10.644   8.881  1.00  0.00     0.018 A 
BRANCH   6  14
ATOM     14  C   UNL     1       1.208   5.644   6.436  1.00  0.00     0.085 A 
ATOM     15  C   UNL     1       0.386   2.042   3.284  1.00  0.00     0.060 A 
ATOM     16  C   UNL     1      -0.958   2.432   3.185  1.00  0.00     0.019 A 
ATOM     17  C   UNL     1       1.243   2.696   4.182  1.00  0.00     0.027 A 
ATOM     18  C   UNL     1      -1.436   3.484   3.970  1.00  0.00     0.049 A 
ATOM     19  C   UNL     1       0.772   3.766   4.944  1.00  0.00     0.019 A 
ATOM     20  C   UNL     1      -0.559   4.145   4.829  1.00  0.00     0.138 A 
ATOM     21  C   UNL     1       1.653   4.551   5.791  1.00  0.00     0.027 A 
ATOM     22  O   UNL     1      -1.052   5.237   5.566  1.00  0.00    -0.422 OA
ATOM     23  C   UNL     1      -0.227   6.023   6.376  1.00  0.00     0.343 A 
ATOM     24  O   UNL     1      -0.694   6.974   6.996  1.00  0.00    -0.246 OA
BRANCH  15  25
ATOM     25  C   UNL     1       0.964   0.969   2.436  1.00  0.00     0.337 C 
ATOM     26  O   UNL     1       1.937   0.312   2.752  1.00  0.00    -0.246 OA
BRANCH  25  27
ATOM     27  O   UNL     1       0.309   0.922   1.248  1.00  0.00    -0.465 OA
ATOM     28  C   UNL     1       0.899   0.039   0.292  1.00  0.00     0.282 C 
ENDBRANCH  25  27
ENDBRANCH  15  25
ENDBRANCH   6  14
ENDBRANCH   3   5
ENDBRANCH   2   3
ENDBRANCH   1   2
BRANCH   1  29
ATOM     29  C   UNL     1      -1.629  11.964  12.824  1.00  0.00     0.275 C 
BRANCH  29  30
ATOM     30  O   UNL     1      -1.828  10.600  13.241  1.00  0.00    -0.458 OA
BRANCH  30  31
ATOM     31  C   UNL     1      -2.333   9.773  12.297  1.00  0.00     0.338 C 
ATOM     32  O   UNL     1      -2.666  10.056  11.160  1.00  0.00    -0.246 OA
BRANCH  31  33
ATOM     33  C   UNL     1      -2.275   8.392  12.797  1.00  0.00     0.060 A 
ATOM     34  C   UNL     1      -3.285   7.839  13.579  1.00  0.00     0.016 A 
ATOM     35  C   UNL     1      -1.199   7.611  12.386  1.00  0.00     0.016 A 
ATOM     36  C   UNL     1      -3.185   6.496  13.968  1.00  0.00     0.010 A 
ATOM     37  C   UNL     1      -1.117   6.268  12.737  1.00  0.00     0.010 A 
ATOM     38  C   UNL     1      -2.102   5.696  13.547  1.00  0.00    -0.014 A 
BRANCH  38  39
ATOM     39  C   UNL     1      -2.012   4.257  13.913  1.00  0.00     0.031 A 
ATOM     40  C   UNL     1      -0.889   3.744  14.774  1.00  0.00     0.074 A 
ATOM     41  C   UNL     1      -2.921   3.395  13.419  1.00  0.00     0.049 A 
ATOM     42  N   UNL     1      -0.680   2.529  15.223  1.00  0.00    -0.248 NA
ATOM     43  C   UNL     1       0.153   4.707  15.160  1.00  0.00     0.031 C 
ATOM     44  C   UNL     1      -3.996   3.745  12.491  1.00  0.00     0.029 A 
ATOM     45  N   UNL     1      -3.093   2.050  13.635  1.00  0.00    -0.354 N 
ATOM     46  C   UNL     1       0.511   2.585  15.934  1.00  0.00     0.074 A 
ATOM     47  C   UNL     1       1.015   3.935  15.808  1.00  0.00     0.031 C 
ATOM     48  C   UNL     1      -4.751   2.659  12.264  1.00  0.00     0.029 A 
ATOM     49  C   UNL     1      -4.201   1.532  13.011  1.00  0.00     0.049 A 
ATOM     50  H   UNL     1      -2.481   1.509  14.184  1.00  0.00     0.167 HD
ATOM     51  C   UNL     1       1.113   1.609  16.656  1.00  0.00     0.037 A 
ATOM     52  C   UNL     1      -4.729   0.293  13.054  1.00  0.00     0.037 A 
ATOM     53  C   UNL     1       0.595   0.275  16.808  1.00  0.00     0.049 A 
ATOM     54  C   UNL     1      -4.069  -0.761  13.899  1.00  0.00     0.074 A 
ATOM     55  C   UNL     1       1.090  -0.761  17.581  1.00  0.00     0.029 A 
ATOM     56  N   UNL     1      -0.541  -0.206  16.175  1.00  0.00    -0.354 N 
ATOM     57  N   UNL     1      -2.995  -0.670  14.645  1.00  0.00    -0.248 NA
ATOM     58  C   UNL     1      -4.697  -2.090  13.912  1.00  0.00     0.031 C 
ATOM     59  C   UNL     1       0.273  -1.879  17.391  1.00  0.00     0.029 A 
ATOM     60  C   UNL     1      -0.755  -1.528  16.531  1.00  0.00     0.049 A 
ATOM     61  H   UNL     1      -1.111   0.314  15.563  1.00  0.00     0.167 HD
ATOM     62  C   UNL     1      -2.828  -1.918  15.228  1.00  0.00     0.074 A 
ATOM     63  C   UNL     1      -3.923  -2.746  14.766  1.00  0.00     0.031 C 
ATOM     64  C   UNL     1      -1.851  -2.340  16.066  1.00  0.00     0.037 A 
BRANCH  51  65
ATOM     65  C   UNL     1       2.385   1.954  17.378  1.00  0.00     0.064 A 
ATOM     66  C   UNL     1       2.378   2.800  18.497  1.00  0.00     0.173 A 
ATOM     67  C   UNL     1       3.607   1.379  16.998  1.00  0.00     0.173 A 
ATOM     68  F   UNL     1       1.236   3.378  18.900  1.00  0.00    -0.203 F 
ATOM     69  C   UNL     1       3.550   3.076  19.196  1.00  0.00     0.198 A 
ATOM     70  C   UNL     1       4.773   1.635  17.717  1.00  0.00     0.198 A 
ATOM     71  F   UNL     1       3.669   0.552  15.943  1.00  0.00    -0.203 F 
ATOM     72  F   UNL     1       3.524   3.915  20.241  1.00  0.00    -0.200 F 
ATOM     73  C   UNL     1       4.745   2.486  18.811  1.00  0.00     0.200 A 
ATOM     74  F   UNL     1       5.924   1.051  17.355  1.00  0.00    -0.200 F 
ATOM     75  F   UNL     1       5.869   2.740  19.495  1.00  0.00    -0.200 F 
ENDBRANCH  51  65
BRANCH  52  76
ATOM     76  C   UNL     1      -5.997   0.013  12.334  1.00  0.00     0.064 A 
ATOM     77  C   UNL     1      -7.194  -0.159  13.043  1.00  0.00     0.173 A 
ATOM     78  C   UNL     1      -6.050  -0.054  10.935  1.00  0.00     0.173 A 
ATOM     79  F   UNL     1      -7.189  -0.122  14.384  1.00  0.00    -0.203 F 
ATOM     80  C   UNL     1      -8.396  -0.396  12.380  1.00  0.00     0.198 A 
ATOM     81  C   UNL     1      -7.257  -0.267  10.272  1.00  0.00     0.198 A 
ATOM     82  F   UNL     1      -4.932   0.110  10.212  1.00  0.00    -0.203 F 
ATOM     83  F   UNL     1      -9.520  -0.586  13.084  1.00  0.00    -0.200 F 
ATOM     84  C   UNL     1      -8.428  -0.441  10.995  1.00  0.00     0.200 A 
ATOM     85  F   UNL     1      -7.287  -0.297   8.932  1.00  0.00    -0.200 F 
ATOM     86  F   UNL     1      -9.586  -0.657  10.357  1.00  0.00    -0.200 F 
ENDBRANCH  52  76
BRANCH  64  87
ATOM     87  C   UNL     1      -1.915  -3.757  16.551  1.00  0.00     0.064 A 
ATOM     88  C   UNL     1      -1.592  -4.831  15.709  1.00  0.00     0.173 A 
ATOM     89  C   UNL     1      -2.230  -4.040  17.888  1.00  0.00     0.173 A 
ATOM     90  F   UNL     1      -1.296  -4.612  14.419  1.00  0.00    -0.203 F 
ATOM     91  C   UNL     1      -1.592  -6.138  16.187  1.00  0.00     0.198 A 
ATOM     92  C   UNL     1      -2.204  -5.346  18.369  1.00  0.00     0.198 A 
ATOM     93  F   UNL     1      -2.539  -3.046  18.735  1.00  0.00    -0.203 F 
ATOM     94  F   UNL     1      -1.308  -7.153  15.358  1.00  0.00    -0.200 F 
ATOM     95  C   UNL     1      -1.889  -6.394  17.517  1.00  0.00     0.200 A 
ATOM     96  F   UNL     1      -2.478  -5.590  19.658  1.00  0.00    -0.200 F 
ATOM     97  F   UNL     1      -1.872  -7.652  17.979  1.00  0.00    -0.200 F 
ENDBRANCH  64  87
ENDBRANCH  38  39
ENDBRANCH  31  33
ENDBRANCH  30  31
ENDBRANCH  29  30
ENDBRANCH   1  29
TORSDOF 14
