REMARK SMILES CC[NH+]1CC[NH+]([C@@H]2CC(=O)N(c3ccc(C(=O)OCCOC(=O)c4ccc(-c5c6nc(c(-c7c(F)c(F)c(F)c(F)c7F)c7ccc([nH]7)c(-c7c(F)c(F)c(F)c(F)c7F)c7nc(c(-c8c(F)c(F)c(F)c(F)c8F)c8ccc5[nH]8)C=C7)C=C6)cc4)cc3)C2=O)CC1
REMARK SMILES IDX 19 1 18 2 16 3 17 4 15 5 12 6 13 7 88 8 14 9 87 10 11 11
REMARK SMILES IDX 7 12 8 13 89 14 9 15 90 16 10 17 6 18 3 19 4 20 92 21 5 23
REMARK SMILES IDX 91 24 2 26 1 27 20 28 21 29 22 30 23 31 24 32 25 33 86 34
REMARK SMILES IDX 26 35 85 36 27 37 28 38 29 39 79 40 30 41 84 42 78 43 80 44
REMARK SMILES IDX 31 45 83 46 77 47 76 48 32 50 64 51 44 52 63 53 45 54 48 55
REMARK SMILES IDX 62 56 81 57 46 58 47 59 61 61 82 62 49 63 33 64 34 65 42 66
REMARK SMILES IDX 35 67 36 68 40 69 43 70 37 71 38 72 41 73 39 74 65 75 66 76
REMARK SMILES IDX 74 77 67 78 68 79 72 80 75 81 69 82 70 83 73 84 71 85 50 86
REMARK SMILES IDX 51 87 59 88 52 89 53 90 57 91 60 92 54 93 55 94 58 95 56 96
REMARK H PARENT 3 22 6 25 80 49 48 60
REMARK Flexibility Score: inf
ROOT
ATOM      1  C   UNL     1       2.282  -9.540  -7.675  1.00  0.00     0.275 C 
ENDROOT
BRANCH   1   2
ATOM      2  O   UNL     1       2.692  -8.200  -7.334  1.00  0.00    -0.458 OA
BRANCH   2   3
ATOM      3  C   UNL     1       1.941  -7.591  -6.387  1.00  0.00     0.338 C 
ATOM      4  O   UNL     1       0.956  -8.040  -5.824  1.00  0.00    -0.246 OA
BRANCH   3   5
ATOM      5  C   UNL     1       2.532  -6.288  -6.024  1.00  0.00     0.060 A 
ATOM      6  C   UNL     1       3.426  -3.740  -5.217  1.00  0.00     0.052 A 
ATOM      7  C   UNL     1       3.156  -4.738  -4.274  1.00  0.00     0.028 A 
ATOM      8  C   UNL     1       3.271  -4.054  -6.578  1.00  0.00     0.028 A 
ATOM      9  C   UNL     1       2.682  -5.984  -4.672  1.00  0.00     0.018 A 
ATOM     10  C   UNL     1       2.849  -5.330  -6.985  1.00  0.00     0.018 A 
BRANCH   6  11
ATOM     11  N   UNL     1       3.739  -2.431  -4.765  1.00  0.00    -0.245 N 
ATOM     12  C   UNL     1       4.233  -0.685  -3.262  1.00  0.00     0.285 C 
ATOM     13  C   UNL     1       3.658  -0.100  -4.541  1.00  0.00     0.176 C 
ATOM     14  C   UNL     1       4.374  -2.167  -3.570  1.00  0.00     0.292 C 
ATOM     15  C   UNL     1       3.374  -1.282  -5.418  1.00  0.00     0.240 C 
ATOM     16  O   UNL     1       4.966  -2.962  -2.848  1.00  0.00    -0.267 OA
ATOM     17  O   UNL     1       2.849  -1.161  -6.518  1.00  0.00    -0.274 OA
BRANCH  12  18
ATOM     18  N   UNL     1       3.533  -0.477  -1.982  1.00  0.00    -0.315 N 
ATOM     19  N   UNL     1       0.913   0.992  -1.800  1.00  0.00    -0.326 N 
ATOM     20  C   UNL     1       2.194   1.701  -1.908  1.00  0.00     0.324 C 
ATOM     21  C   UNL     1       0.995  -0.409  -2.221  1.00  0.00     0.324 C 
ATOM     22  H   UNL     1       0.307   1.436  -2.490  1.00  0.00     0.348 HD
ATOM     23  C   UNL     1       3.467   0.913  -1.519  1.00  0.00     0.325 C 
ATOM     24  C   UNL     1       2.258  -1.171  -1.768  1.00  0.00     0.325 C 
ATOM     25  H   UNL     1       4.187  -0.974  -1.376  1.00  0.00     0.349 HD
BRANCH  19  26
ATOM     26  C   UNL     1       0.185   1.222  -0.550  1.00  0.00     0.259 C 
ATOM     27  C   UNL     1       0.659   0.488   0.697  1.00  0.00     0.071 C 
ENDBRANCH  19  26
ENDBRANCH  12  18
ENDBRANCH   6  11
ENDBRANCH   3   5
ENDBRANCH   2   3
ENDBRANCH   1   2
BRANCH   1  28
ATOM     28  C   UNL     1       3.090 -10.574  -6.890  1.00  0.00     0.275 C 
BRANCH  28  29
ATOM     29  O   UNL     1       2.751 -10.503  -5.492  1.00  0.00    -0.458 OA
BRANCH  29  30
ATOM     30  C   UNL     1       3.793 -10.395  -4.637  1.00  0.00     0.338 C 
ATOM     31  O   UNL     1       4.981 -10.396  -4.910  1.00  0.00    -0.246 OA
BRANCH  30  32
ATOM     32  C   UNL     1       3.300 -10.268  -3.252  1.00  0.00     0.060 A 
ATOM     33  C   UNL     1       2.404  -9.257  -2.920  1.00  0.00     0.016 A 
ATOM     34  C   UNL     1       3.841 -11.069  -2.248  1.00  0.00     0.016 A 
ATOM     35  C   UNL     1       2.151  -8.953  -1.583  1.00  0.00     0.010 A 
ATOM     36  C   UNL     1       3.482 -10.846  -0.913  1.00  0.00     0.010 A 
ATOM     37  C   UNL     1       2.672  -9.753  -0.555  1.00  0.00    -0.014 A 
BRANCH  37  38
ATOM     38  C   UNL     1       2.405  -9.431   0.880  1.00  0.00     0.031 A 
ATOM     39  C   UNL     1       3.551  -9.246   1.844  1.00  0.00     0.074 A 
ATOM     40  C   UNL     1       1.143  -9.292   1.336  1.00  0.00     0.049 A 
ATOM     41  N   UNL     1       3.534  -9.177   3.153  1.00  0.00    -0.248 NA
ATOM     42  C   UNL     1       4.899  -9.144   1.262  1.00  0.00     0.031 C 
ATOM     43  C   UNL     1      -0.071  -9.398   0.526  1.00  0.00     0.029 A 
ATOM     44  N   UNL     1       0.672  -9.021   2.599  1.00  0.00    -0.354 N 
ATOM     45  C   UNL     1       4.864  -9.101   3.549  1.00  0.00     0.074 A 
ATOM     46  C   UNL     1       5.664  -9.122   2.344  1.00  0.00     0.031 C 
ATOM     47  C   UNL     1      -1.139  -9.142   1.295  1.00  0.00     0.029 A 
ATOM     48  C   UNL     1      -0.698  -8.951   2.672  1.00  0.00     0.049 A 
ATOM     49  H   UNL     1       1.260  -8.889   3.377  1.00  0.00     0.167 HD
ATOM     50  C   UNL     1       5.370  -9.025   4.804  1.00  0.00     0.037 A 
ATOM     51  C   UNL     1      -1.518  -8.797   3.730  1.00  0.00     0.037 A 
ATOM     52  C   UNL     1       4.576  -8.920   6.001  1.00  0.00     0.049 A 
ATOM     53  C   UNL     1      -0.934  -8.705   5.110  1.00  0.00     0.074 A 
ATOM     54  C   UNL     1       5.001  -8.821   7.315  1.00  0.00     0.029 A 
ATOM     55  N   UNL     1       3.191  -8.868   6.025  1.00  0.00    -0.354 N 
ATOM     56  N   UNL     1       0.323  -8.721   5.478  1.00  0.00    -0.248 NA
ATOM     57  C   UNL     1      -1.886  -8.601   6.226  1.00  0.00     0.031 C 
ATOM     58  C   UNL     1       3.872  -8.732   8.137  1.00  0.00     0.029 A 
ATOM     59  C   UNL     1       2.745  -8.741   7.332  1.00  0.00     0.049 A 
ATOM     60  H   UNL     1       2.609  -8.914   5.232  1.00  0.00     0.167 HD
ATOM     61  C   UNL     1       0.315  -8.631   6.862  1.00  0.00     0.074 A 
ATOM     62  C   UNL     1      -1.071  -8.532   7.269  1.00  0.00     0.031 C 
ATOM     63  C   UNL     1       1.363  -8.642   7.720  1.00  0.00     0.037 A 
BRANCH  50  64
ATOM     64  C   UNL     1       6.862  -9.088   4.958  1.00  0.00     0.064 A 
ATOM     65  C   UNL     1       7.689  -8.003   4.638  1.00  0.00     0.173 A 
ATOM     66  C   UNL     1       7.465 -10.244   5.480  1.00  0.00     0.173 A 
ATOM     67  F   UNL     1       7.163  -6.881   4.127  1.00  0.00    -0.203 F 
ATOM     68  C   UNL     1       9.069  -8.080   4.815  1.00  0.00     0.198 A 
ATOM     69  C   UNL     1       8.841 -10.308   5.679  1.00  0.00     0.198 A 
ATOM     70  F   UNL     1       6.716 -11.307   5.809  1.00  0.00    -0.203 F 
ATOM     71  F   UNL     1       9.847  -7.045   4.469  1.00  0.00    -0.200 F 
ATOM     72  C   UNL     1       9.643  -9.229   5.341  1.00  0.00     0.200 A 
ATOM     73  F   UNL     1       9.391 -11.414   6.199  1.00  0.00    -0.200 F 
ATOM     74  F   UNL     1      10.969  -9.297   5.519  1.00  0.00    -0.200 F 
ENDBRANCH  50  64
BRANCH  51  75
ATOM     75  C   UNL     1      -2.989  -8.761   3.522  1.00  0.00     0.064 A 
ATOM     76  C   UNL     1      -3.712  -7.576   3.709  1.00  0.00     0.173 A 
ATOM     77  C   UNL     1      -3.696  -9.904   3.121  1.00  0.00     0.173 A 
ATOM     78  F   UNL     1      -3.083  -6.465   4.120  1.00  0.00    -0.203 F 
ATOM     79  C   UNL     1      -5.090  -7.536   3.504  1.00  0.00     0.198 A 
ATOM     80  C   UNL     1      -5.069  -9.855   2.889  1.00  0.00     0.198 A 
ATOM     81  F   UNL     1      -3.049 -11.063   2.932  1.00  0.00    -0.203 F 
ATOM     82  F   UNL     1      -5.764  -6.399   3.722  1.00  0.00    -0.200 F 
ATOM     83  C   UNL     1      -5.765  -8.673   3.085  1.00  0.00     0.200 A 
ATOM     84  F   UNL     1      -5.714 -10.952   2.470  1.00  0.00    -0.200 F 
ATOM     85  F   UNL     1      -7.088  -8.630   2.876  1.00  0.00    -0.200 F 
ENDBRANCH  51  75
BRANCH  63  86
ATOM     86  C   UNL     1       1.050  -8.525   9.181  1.00  0.00     0.064 A 
ATOM     87  C   UNL     1       0.532  -9.608   9.905  1.00  0.00     0.173 A 
ATOM     88  C   UNL     1       1.293  -7.327   9.867  1.00  0.00     0.173 A 
ATOM     89  F   UNL     1       0.267 -10.768   9.286  1.00  0.00    -0.203 F 
ATOM     90  C   UNL     1       0.248  -9.489  11.262  1.00  0.00     0.198 A 
ATOM     91  C   UNL     1       1.028  -7.218  11.229  1.00  0.00     0.198 A 
ATOM     92  F   UNL     1       1.791  -6.264   9.218  1.00  0.00    -0.203 F 
ATOM     93  F   UNL     1      -0.285 -10.523  11.927  1.00  0.00    -0.200 F 
ATOM     94  C   UNL     1       0.501  -8.296  11.924  1.00  0.00     0.200 A 
ATOM     95  F   UNL     1       1.278  -6.067  11.869  1.00  0.00    -0.200 F 
ATOM     96  F   UNL     1       0.227  -8.183  13.231  1.00  0.00    -0.200 F 
ENDBRANCH  63  86
ENDBRANCH  37  38
ENDBRANCH  30  32
ENDBRANCH  29  30
ENDBRANCH  28  29
ENDBRANCH   1  28
TORSDOF 14
