REMARK SMILES CC(C)(C(=O)OCCOC(=O)c1ccc(-c2c3nc(c(-c4c(F)c(F)c(F)c(F)c4F)c4ccc([nH]4)c(-c4c(F)c(F)c(F)c(F)c4F)c4nc(c(-c5c(F)c(F)c(F)c(F)c5F)c5ccc2[nH]5)C=C4)C=C3)cc1)n1cccc1
REMARK SMILES IDX 8 1 7 2 6 3 4 4 5 5 2 6 1 7 3 8 75 9 76 10 79 11 77 12 78 13
REMARK SMILES IDX 9 14 10 15 11 16 12 17 13 18 74 19 14 20 73 21 15 22 16 23
REMARK SMILES IDX 17 24 67 25 18 26 72 27 66 28 68 29 19 30 71 31 65 32 64 33
REMARK SMILES IDX 20 35 52 36 32 37 51 38 33 39 36 40 50 41 69 42 34 43 35 44
REMARK SMILES IDX 49 46 70 47 37 48 21 49 22 50 30 51 23 52 24 53 28 54 31 55
REMARK SMILES IDX 25 56 26 57 29 58 27 59 53 60 54 61 62 62 55 63 56 64 60 65
REMARK SMILES IDX 63 66 57 67 58 68 61 69 59 70 38 71 39 72 47 73 40 74 41 75
REMARK SMILES IDX 45 76 48 77 42 78 43 79 46 80 44 81
REMARK H PARENT 68 34 36 45
REMARK Flexibility Score: inf
ROOT
ATOM      1  C   UNL     1      -3.529   0.054  -0.328  1.00  0.00     0.275 C 
ENDROOT
BRANCH   1   2
ATOM      2  C   UNL     1      -2.791  -1.280  -0.371  1.00  0.00     0.274 C 
BRANCH   2   3
ATOM      3  O   UNL     1      -1.373  -1.077  -0.200  1.00  0.00    -0.460 OA
BRANCH   3   4
ATOM      4  C   UNL     1      -0.595  -1.159  -1.318  1.00  0.00     0.331 C 
ATOM      5  O   UNL     1      -1.033  -1.436  -2.429  1.00  0.00    -0.249 OA
BRANCH   4   6
ATOM      6  C   UNL     1       0.900  -0.955  -1.006  1.00  0.00     0.136 C 
ATOM      7  C   UNL     1       1.124  -0.388   0.414  1.00  0.00     0.047 C 
ATOM      8  C   UNL     1       1.550  -2.356  -1.038  1.00  0.00     0.047 C 
BRANCH   6   9
ATOM      9  N   UNL     1       1.508  -0.071  -2.032  1.00  0.00    -0.338 N 
ATOM     10  C   UNL     1       1.784   1.273  -1.894  1.00  0.00     0.087 A 
ATOM     11  C   UNL     1       1.886  -0.450  -3.303  1.00  0.00     0.087 A 
ATOM     12  C   UNL     1       2.386   1.722  -3.049  1.00  0.00     0.019 A 
ATOM     13  C   UNL     1       2.449   0.632  -3.941  1.00  0.00     0.019 A 
ENDBRANCH   6   9
ENDBRANCH   4   6
ENDBRANCH   3   4
ENDBRANCH   2   3
ENDBRANCH   1   2
BRANCH   1  14
ATOM     14  O   UNL     1      -3.175   0.837  -1.480  1.00  0.00    -0.458 OA
BRANCH  14  15
ATOM     15  C   UNL     1      -2.455   1.954  -1.235  1.00  0.00     0.338 C 
ATOM     16  O   UNL     1      -2.111   2.404  -0.156  1.00  0.00    -0.246 OA
BRANCH  15  17
ATOM     17  C   UNL     1      -2.119   2.591  -2.516  1.00  0.00     0.060 A 
ATOM     18  C   UNL     1      -1.263   1.941  -3.403  1.00  0.00     0.016 A 
ATOM     19  C   UNL     1      -2.570   3.882  -2.786  1.00  0.00     0.016 A 
ATOM     20  C   UNL     1      -0.792   2.610  -4.530  1.00  0.00     0.010 A 
ATOM     21  C   UNL     1      -2.161   4.519  -3.961  1.00  0.00     0.010 A 
ATOM     22  C   UNL     1      -1.243   3.901  -4.830  1.00  0.00    -0.014 A 
BRANCH  22  23
ATOM     23  C   UNL     1      -0.733   4.631  -6.020  1.00  0.00     0.031 A 
ATOM     24  C   UNL     1      -0.032   5.948  -5.843  1.00  0.00     0.074 A 
ATOM     25  C   UNL     1      -0.907   4.136  -7.260  1.00  0.00     0.049 A 
ATOM     26  N   UNL     1       0.230   6.875  -6.729  1.00  0.00    -0.248 NA
ATOM     27  C   UNL     1       0.418   6.272  -4.481  1.00  0.00     0.031 C 
ATOM     28  C   UNL     1      -1.509   2.844  -7.582  1.00  0.00     0.029 A 
ATOM     29  N   UNL     1      -0.602   4.677  -8.486  1.00  0.00    -0.354 N 
ATOM     30  C   UNL     1       0.798   7.923  -6.019  1.00  0.00     0.074 A 
ATOM     31  C   UNL     1       0.870   7.509  -4.634  1.00  0.00     0.031 C 
ATOM     32  C   UNL     1      -1.517   2.682  -8.913  1.00  0.00     0.029 A 
ATOM     33  C   UNL     1      -1.006   3.897  -9.540  1.00  0.00     0.049 A 
ATOM     34  H   UNL     1      -0.139   5.539  -8.597  1.00  0.00     0.167 HD
ATOM     35  C   UNL     1       1.202   9.129  -6.486  1.00  0.00     0.037 A 
ATOM     36  C   UNL     1      -1.023   4.152 -10.862  1.00  0.00     0.037 A 
ATOM     37  C   UNL     1       1.198   9.504  -7.875  1.00  0.00     0.049 A 
ATOM     38  C   UNL     1      -0.560   5.488 -11.363  1.00  0.00     0.074 A 
ATOM     39  C   UNL     1       1.610  10.693  -8.452  1.00  0.00     0.029 A 
ATOM     40  N   UNL     1       0.780   8.680  -8.910  1.00  0.00    -0.354 N 
ATOM     41  N   UNL     1      -0.115   6.514 -10.680  1.00  0.00    -0.248 NA
ATOM     42  C   UNL     1      -0.626   5.713 -12.813  1.00  0.00     0.031 C 
ATOM     43  C   UNL     1       1.421  10.595  -9.836  1.00  0.00     0.029 A 
ATOM     44  C   UNL     1       0.919   9.336 -10.122  1.00  0.00     0.049 A 
ATOM     45  H   UNL     1       0.435   7.765  -8.799  1.00  0.00     0.167 HD
ATOM     46  C   UNL     1       0.143   7.509 -11.612  1.00  0.00     0.074 A 
ATOM     47  C   UNL     1      -0.173   6.955 -12.913  1.00  0.00     0.031 C 
ATOM     48  C   UNL     1       0.591   8.771 -11.405  1.00  0.00     0.037 A 
BRANCH  35  49
ATOM     49  C   UNL     1       1.633  10.150  -5.477  1.00  0.00     0.064 A 
ATOM     50  C   UNL     1       2.872  10.081  -4.826  1.00  0.00     0.173 A 
ATOM     51  C   UNL     1       0.790  11.232  -5.177  1.00  0.00     0.173 A 
ATOM     52  F   UNL     1       3.705   9.058  -5.067  1.00  0.00    -0.203 F 
ATOM     53  C   UNL     1       3.243  11.047  -3.893  1.00  0.00     0.198 A 
ATOM     54  C   UNL     1       1.173  12.208  -4.261  1.00  0.00     0.198 A 
ATOM     55  F   UNL     1      -0.405  11.344  -5.776  1.00  0.00    -0.203 F 
ATOM     56  F   UNL     1       4.414  10.941  -3.251  1.00  0.00    -0.200 F 
ATOM     57  C   UNL     1       2.396  12.111  -3.616  1.00  0.00     0.200 A 
ATOM     58  F   UNL     1       0.357  13.238  -4.001  1.00  0.00    -0.200 F 
ATOM     59  F   UNL     1       2.756  13.040  -2.719  1.00  0.00    -0.200 F 
ENDBRANCH  35  49
BRANCH  36  60
ATOM     60  C   UNL     1      -1.563   3.124 -11.786  1.00  0.00     0.064 A 
ATOM     61  C   UNL     1      -0.712   2.374 -12.606  1.00  0.00     0.173 A 
ATOM     62  C   UNL     1      -2.935   2.831 -11.820  1.00  0.00     0.173 A 
ATOM     63  F   UNL     1       0.603   2.636 -12.625  1.00  0.00    -0.203 F 
ATOM     64  C   UNL     1      -1.212   1.360 -13.420  1.00  0.00     0.198 A 
ATOM     65  C   UNL     1      -3.430   1.802 -12.615  1.00  0.00     0.198 A 
ATOM     66  F   UNL     1      -3.788   3.524 -11.051  1.00  0.00    -0.203 F 
ATOM     67  F   UNL     1      -0.381   0.665 -14.209  1.00  0.00    -0.200 F 
ATOM     68  C   UNL     1      -2.569   1.067 -13.415  1.00  0.00     0.200 A 
ATOM     69  F   UNL     1      -4.739   1.514 -12.596  1.00  0.00    -0.200 F 
ATOM     70  F   UNL     1      -3.045   0.077 -14.181  1.00  0.00    -0.200 F 
ENDBRANCH  36  60
BRANCH  48  71
ATOM     71  C   UNL     1       0.770   9.637 -12.613  1.00  0.00     0.064 A 
ATOM     72  C   UNL     1      -0.326  10.252 -13.233  1.00  0.00     0.173 A 
ATOM     73  C   UNL     1       2.051   9.891 -13.124  1.00  0.00     0.173 A 
ATOM     74  F   UNL     1      -1.570  10.025 -12.786  1.00  0.00    -0.203 F 
ATOM     75  C   UNL     1      -0.146  11.085 -14.334  1.00  0.00     0.198 A 
ATOM     76  C   UNL     1       2.228  10.737 -14.214  1.00  0.00     0.198 A 
ATOM     77  F   UNL     1       3.128   9.324 -12.560  1.00  0.00    -0.203 F 
ATOM     78  F   UNL     1      -1.208  11.644 -14.930  1.00  0.00    -0.200 F 
ATOM     79  C   UNL     1       1.130  11.332 -14.819  1.00  0.00     0.200 A 
ATOM     80  F   UNL     1       3.461  10.979 -14.680  1.00  0.00    -0.200 F 
ATOM     81  F   UNL     1       1.302  12.138 -15.876  1.00  0.00    -0.200 F 
ENDBRANCH  48  71
ENDBRANCH  22  23
ENDBRANCH  15  17
ENDBRANCH  14  15
ENDBRANCH   1  14
TORSDOF 12
