REMARK SMILES O=C(OCCOC(=O)[C@@H]1CCCCN1c1ccccc1[N+](=O)[O-])c1ccc(-c2c3nc(c(-c4c(F)c(F)c(F)c(F)c4F)c4ccc([nH]4)c(-c4c(F)c(F)c(F)c(F)c4F)c4nc(c(-c5c(F)c(F)c(F)c(F)c5F)c5ccc2[nH]5)C=C4)C=C3)cc1
REMARK SMILES IDX 4 1 3 2 2 3 1 4 24 5 25 6 86 7 26 8 85 9 27 10 28 11 29 12
REMARK SMILES IDX 79 13 30 14 84 15 78 16 80 17 31 18 83 19 77 20 76 21 32 23
REMARK SMILES IDX 64 24 44 25 63 26 45 27 48 28 62 29 81 30 46 31 47 32 61 34
REMARK SMILES IDX 82 35 49 36 33 37 34 38 42 39 35 40 36 41 40 42 43 43 37 44
REMARK SMILES IDX 38 45 41 46 39 47 65 48 66 49 74 50 67 51 68 52 72 53 75 54
REMARK SMILES IDX 69 55 70 56 73 57 71 58 50 59 51 60 59 61 52 62 53 63 57 64
REMARK SMILES IDX 60 65 54 66 55 67 58 68 56 69 5 70 6 71 7 72 8 73 9 74 10 75
REMARK SMILES IDX 14 76 11 77 13 78 12 79 15 80 16 81 20 82 17 83 19 84 18 85
REMARK SMILES IDX 21 86 22 87 23 88
REMARK H PARENT 80 22 48 33
REMARK Flexibility Score: inf
ROOT
ATOM      1  C   UNL     1       4.378  -1.499   0.032  1.00  0.00     0.275 C 
ENDROOT
BRANCH   1   2
ATOM      2  O   UNL     1       3.570  -0.769   0.967  1.00  0.00    -0.458 OA
BRANCH   2   3
ATOM      3  C   UNL     1       3.470   0.565   1.173  1.00  0.00     0.338 C 
ATOM      4  O   UNL     1       2.709   0.966   2.046  1.00  0.00    -0.246 OA
BRANCH   3   5
ATOM      5  C   UNL     1       4.149   1.591   0.316  1.00  0.00     0.060 A 
ATOM      6  C   UNL     1       5.322   1.424  -0.433  1.00  0.00     0.016 A 
ATOM      7  C   UNL     1       3.503   2.835   0.245  1.00  0.00     0.016 A 
ATOM      8  C   UNL     1       5.764   2.401  -1.340  1.00  0.00     0.010 A 
ATOM      9  C   UNL     1       3.934   3.808  -0.660  1.00  0.00     0.010 A 
ATOM     10  C   UNL     1       5.056   3.589  -1.485  1.00  0.00    -0.014 A 
BRANCH  10  11
ATOM     11  C   UNL     1       5.548   4.711  -2.326  1.00  0.00     0.031 A 
ATOM     12  C   UNL     1       5.960   5.947  -1.586  1.00  0.00     0.074 A 
ATOM     13  C   UNL     1       5.523   4.702  -3.675  1.00  0.00     0.049 A 
ATOM     14  N   UNL     1       6.218   7.144  -2.034  1.00  0.00    -0.248 NA
ATOM     15  C   UNL     1       6.044   5.815  -0.119  1.00  0.00     0.031 C 
ATOM     16  C   UNL     1       5.185   3.566  -4.528  1.00  0.00     0.029 A 
ATOM     17  N   UNL     1       5.720   5.726  -4.574  1.00  0.00    -0.354 N 
ATOM     18  C   UNL     1       6.495   7.893  -0.902  1.00  0.00     0.074 A 
ATOM     19  C   UNL     1       6.203   7.072   0.248  1.00  0.00     0.031 C 
ATOM     20  C   UNL     1       5.067   3.977  -5.804  1.00  0.00     0.029 A 
ATOM     21  C   UNL     1       5.390   5.397  -5.870  1.00  0.00     0.049 A 
ATOM     22  H   UNL     1       6.065   6.611  -4.314  1.00  0.00     0.167 HD
ATOM     23  C   UNL     1       7.046   9.124  -0.823  1.00  0.00     0.037 A 
ATOM     24  C   UNL     1       5.367   6.159  -6.982  1.00  0.00     0.037 A 
ATOM     25  C   UNL     1       7.358   9.916  -1.973  1.00  0.00     0.049 A 
ATOM     26  C   UNL     1       5.884   7.572  -6.888  1.00  0.00     0.074 A 
ATOM     27  C   UNL     1       7.963  11.154  -2.035  1.00  0.00     0.029 A 
ATOM     28  N   UNL     1       7.073   9.532  -3.277  1.00  0.00    -0.354 N 
ATOM     29  N   UNL     1       6.266   8.239  -5.824  1.00  0.00    -0.248 NA
ATOM     30  C   UNL     1       6.034   8.315  -8.146  1.00  0.00     0.031 C 
ATOM     31  C   UNL     1       8.002  11.542  -3.379  1.00  0.00     0.029 A 
ATOM     32  C   UNL     1       7.474  10.519  -4.155  1.00  0.00     0.049 A 
ATOM     33  H   UNL     1       6.649   8.682  -3.537  1.00  0.00     0.167 HD
ATOM     34  C   UNL     1       6.775   9.443  -6.290  1.00  0.00     0.074 A 
ATOM     35  C   UNL     1       6.622   9.429  -7.731  1.00  0.00     0.031 C 
ATOM     36  C   UNL     1       7.345  10.455  -5.590  1.00  0.00     0.037 A 
BRANCH  23  37
ATOM     37  C   UNL     1       7.348   9.619   0.559  1.00  0.00     0.064 A 
ATOM     38  C   UNL     1       8.295   8.969   1.373  1.00  0.00     0.173 A 
ATOM     39  C   UNL     1       6.603  10.662   1.122  1.00  0.00     0.173 A 
ATOM     40  F   UNL     1       9.014   7.945   0.887  1.00  0.00    -0.203 F 
ATOM     41  C   UNL     1       8.418   9.287   2.721  1.00  0.00     0.198 A 
ATOM     42  C   UNL     1       6.763  11.007   2.462  1.00  0.00     0.198 A 
ATOM     43  F   UNL     1       5.689  11.314   0.390  1.00  0.00    -0.203 F 
ATOM     44  F   UNL     1       9.235   8.569   3.505  1.00  0.00    -0.200 F 
ATOM     45  C   UNL     1       7.651  10.304   3.265  1.00  0.00     0.200 A 
ATOM     46  F   UNL     1       6.026  11.994   2.988  1.00  0.00    -0.200 F 
ATOM     47  F   UNL     1       7.746  10.590   4.571  1.00  0.00    -0.200 F 
ENDBRANCH  23  37
BRANCH  24  48
ATOM     48  C   UNL     1       4.934   5.589  -8.289  1.00  0.00     0.064 A 
ATOM     49  C   UNL     1       5.871   5.272  -9.283  1.00  0.00     0.173 A 
ATOM     50  C   UNL     1       3.580   5.373  -8.583  1.00  0.00     0.173 A 
ATOM     51  F   UNL     1       7.177   5.476  -9.058  1.00  0.00    -0.203 F 
ATOM     52  C   UNL     1       5.471   4.787 -10.528  1.00  0.00     0.198 A 
ATOM     53  C   UNL     1       3.181   4.873  -9.824  1.00  0.00     0.198 A 
ATOM     54  F   UNL     1       2.641   5.657  -7.669  1.00  0.00    -0.203 F 
ATOM     55  F   UNL     1       6.388   4.534 -11.472  1.00  0.00    -0.200 F 
ATOM     56  C   UNL     1       4.126   4.587 -10.798  1.00  0.00     0.200 A 
ATOM     57  F   UNL     1       1.880   4.677 -10.081  1.00  0.00    -0.200 F 
ATOM     58  F   UNL     1       3.742   4.128 -11.998  1.00  0.00    -0.200 F 
ENDBRANCH  24  48
BRANCH  36  59
ATOM     59  C   UNL     1       7.930  11.597  -6.362  1.00  0.00     0.064 A 
ATOM     60  C   UNL     1       7.126  12.570  -6.968  1.00  0.00     0.173 A 
ATOM     61  C   UNL     1       9.322  11.780  -6.382  1.00  0.00     0.173 A 
ATOM     62  F   UNL     1       5.792  12.429  -6.987  1.00  0.00    -0.203 F 
ATOM     63  C   UNL     1       7.696  13.691  -7.564  1.00  0.00     0.198 A 
ATOM     64  C   UNL     1       9.885  12.916  -6.949  1.00  0.00     0.198 A 
ATOM     65  F   UNL     1      10.130  10.875  -5.809  1.00  0.00    -0.203 F 
ATOM     66  F   UNL     1       6.912  14.604  -8.155  1.00  0.00    -0.200 F 
ATOM     67  C   UNL     1       9.072  13.871  -7.539  1.00  0.00     0.200 A 
ATOM     68  F   UNL     1      11.212  13.098  -6.905  1.00  0.00    -0.200 F 
ATOM     69  F   UNL     1       9.615  14.970  -8.082  1.00  0.00    -0.200 F 
ENDBRANCH  36  59
ENDBRANCH  10  11
ENDBRANCH   3   5
ENDBRANCH   2   3
ENDBRANCH   1   2
BRANCH   1  70
ATOM     70  C   UNL     1       3.806  -1.582  -1.386  1.00  0.00     0.274 C 
BRANCH  70  71
ATOM     71  O   UNL     1       3.227  -0.353  -1.869  1.00  0.00    -0.461 OA
BRANCH  71  72
ATOM     72  C   UNL     1       1.992  -0.464  -2.462  1.00  0.00     0.328 C 
ATOM     73  O   UNL     1       1.382  -1.526  -2.531  1.00  0.00    -0.250 OA
BRANCH  72  74
ATOM     74  C   UNL     1       1.475   0.867  -3.105  1.00  0.00     0.192 C 
ATOM     75  C   UNL     1       2.452   2.017  -2.937  1.00  0.00     0.037 C 
ATOM     76  N   UNL     1       0.180   1.364  -2.576  1.00  0.00    -0.353 N 
ATOM     77  C   UNL     1       1.967   3.347  -3.518  1.00  0.00     0.005 C 
ATOM     78  C   UNL     1      -0.381   2.572  -3.178  1.00  0.00     0.118 C 
ATOM     79  C   UNL     1       0.598   3.718  -2.959  1.00  0.00     0.022 C 
BRANCH  76  80
ATOM     80  C   UNL     1      -0.656   0.513  -1.886  1.00  0.00     0.116 A 
ATOM     81  C   UNL     1      -0.542   0.520  -0.484  1.00  0.00     0.033 A 
ATOM     82  C   UNL     1      -1.568  -0.387  -2.460  1.00  0.00     0.292 A 
ATOM     83  C   UNL     1      -1.279  -0.356   0.312  1.00  0.00     0.003 A 
ATOM     84  C   UNL     1      -2.312  -1.273  -1.665  1.00  0.00     0.088 A 
ATOM     85  C   UNL     1      -2.156  -1.260  -0.279  1.00  0.00     0.007 A 
BRANCH  82  86
ATOM     86  N   UNL     1      -1.794  -0.434  -3.902  1.00  0.00     0.064 N 
ATOM     87  O   UNL     1      -2.973  -0.530  -4.279  1.00  0.00    -0.258 OA
ATOM     88  O   UNL     1      -0.821  -0.391  -4.669  1.00  0.00    -0.258 OA
ENDBRANCH  82  86
ENDBRANCH  76  80
ENDBRANCH  72  74
ENDBRANCH  71  72
ENDBRANCH  70  71
ENDBRANCH   1  70
TORSDOF 13
