REMARK SMILES O=C(OCCOC(=O)c1cc2c(c(S(=O)(=O)Nc3cc(C(F)(F)F)ccc3-n3cccn3)c1)CCC2)c1ccc(-c2c3nc(c(-c4c(F)c(F)c(F)c(F)c4F)c4ccc([nH]4)c(-c4c(F)c(F)c(F)c(F)c4F)c4nc(c(-c5c(F)c(F)c(F)c(F)c5F)c5ccc2[nH]5)C=C4)C=C3)cc1
REMARK SMILES IDX 5 1 4 2 3 3 2 4 1 5 37 6 38 7 99 8 39 9 98 10 40 11 41 12
REMARK SMILES IDX 42 13 92 14 43 15 97 16 91 17 93 18 44 19 96 20 90 21 89 22
REMARK SMILES IDX 45 24 77 25 57 26 76 27 58 28 61 29 75 30 94 31 59 32 60 33
REMARK SMILES IDX 74 35 95 36 62 37 46 38 47 39 55 40 48 41 49 42 53 43 56 44
REMARK SMILES IDX 50 45 51 46 54 47 52 48 78 49 79 50 87 51 80 52 81 53 85 54
REMARK SMILES IDX 88 55 82 56 83 57 86 58 84 59 63 60 64 61 72 62 65 63 66 64
REMARK SMILES IDX 70 65 73 66 67 67 68 68 71 69 69 70 6 71 7 72 8 73 9 74
REMARK SMILES IDX 10 75 33 76 11 77 13 78 12 79 36 80 34 81 35 82 14 83 15 84
REMARK SMILES IDX 16 85 17 86 18 88 19 89 27 90 20 91 26 92 25 93 28 94 29 95
REMARK SMILES IDX 32 96 30 97 31 98 21 99 22 100 23 101 24 102
REMARK H PARENT 93 23 61 34 17 87
REMARK Flexibility Score: inf
ROOT
ATOM      1  C   UNL     1       4.371   0.266  -1.550  1.00  0.00     0.275 C 
ENDROOT
BRANCH   1   2
ATOM      2  C   UNL     1       4.693  -1.021  -0.789  1.00  0.00     0.275 C 
BRANCH   2   3
ATOM      3  O   UNL     1       3.591  -1.733  -0.193  1.00  0.00    -0.458 OA
BRANCH   3   4
ATOM      4  C   UNL     1       2.450  -1.058   0.060  1.00  0.00     0.338 C 
ATOM      5  O   UNL     1       1.530  -0.939  -0.730  1.00  0.00    -0.246 OA
BRANCH   4   6
ATOM      6  C   UNL     1       2.366  -0.643   1.480  1.00  0.00     0.060 A 
ATOM      7  C   UNL     1       3.498  -0.539   2.298  1.00  0.00     0.016 A 
ATOM      8  C   UNL     1       1.099  -0.358   1.997  1.00  0.00     0.016 A 
ATOM      9  C   UNL     1       3.358  -0.262   3.648  1.00  0.00     0.010 A 
ATOM     10  C   UNL     1       0.964  -0.035   3.339  1.00  0.00     0.010 A 
ATOM     11  C   UNL     1       2.084  -0.054   4.179  1.00  0.00    -0.014 A 
BRANCH  11  12
ATOM     12  C   UNL     1       1.952   0.170   5.622  1.00  0.00     0.031 A 
ATOM     13  C   UNL     1       2.661   1.365   6.205  1.00  0.00     0.074 A 
ATOM     14  C   UNL     1       1.108  -0.604   6.344  1.00  0.00     0.049 A 
ATOM     15  N   UNL     1       3.092   1.535   7.416  1.00  0.00    -0.248 NA
ATOM     16  C   UNL     1       2.927   2.535   5.345  1.00  0.00     0.031 C 
ATOM     17  C   UNL     1       0.217  -1.667   5.857  1.00  0.00     0.029 A 
ATOM     18  N   UNL     1       0.785  -0.535   7.668  1.00  0.00    -0.354 N 
ATOM     19  C   UNL     1       3.536   2.856   7.495  1.00  0.00     0.074 A 
ATOM     20  C   UNL     1       3.359   3.455   6.206  1.00  0.00     0.031 C 
ATOM     21  C   UNL     1      -0.694  -1.968   6.807  1.00  0.00     0.029 A 
ATOM     22  C   UNL     1      -0.371  -1.228   8.012  1.00  0.00     0.049 A 
ATOM     23  H   UNL     1       1.325  -0.037   8.324  1.00  0.00     0.167 HD
ATOM     24  C   UNL     1       4.012   3.401   8.643  1.00  0.00     0.037 A 
ATOM     25  C   UNL     1      -1.052  -1.168   9.184  1.00  0.00     0.037 A 
ATOM     26  C   UNL     1       4.692   2.402   9.419  1.00  0.00     0.049 A 
ATOM     27  C   UNL     1      -0.136  -0.598  10.199  1.00  0.00     0.074 A 
ATOM     28  C   UNL     1       5.800   1.614   9.173  1.00  0.00     0.029 A 
ATOM     29  N   UNL     1       4.043   1.807  10.470  1.00  0.00    -0.354 N 
ATOM     30  N   UNL     1       0.912  -1.214  10.666  1.00  0.00    -0.248 NA
ATOM     31  C   UNL     1      -0.149   0.846  10.379  1.00  0.00     0.031 C 
ATOM     32  C   UNL     1       5.461   0.339   9.709  1.00  0.00     0.029 A 
ATOM     33  C   UNL     1       4.211   0.456  10.316  1.00  0.00     0.049 A 
ATOM     34  H   UNL     1       3.552   2.261  11.192  1.00  0.00     0.167 HD
ATOM     35  C   UNL     1       1.872  -0.222  10.780  1.00  0.00     0.074 A 
ATOM     36  C   UNL     1       1.136   1.037  10.683  1.00  0.00     0.031 C 
ATOM     37  C   UNL     1       3.200  -0.511  10.659  1.00  0.00     0.037 A 
BRANCH  24  38
ATOM     38  C   UNL     1       3.394   4.641   9.244  1.00  0.00     0.064 A 
ATOM     39  C   UNL     1       3.800   5.033  10.536  1.00  0.00     0.173 A 
ATOM     40  C   UNL     1       2.203   5.227   8.769  1.00  0.00     0.173 A 
ATOM     41  F   UNL     1       4.949   4.579  11.059  1.00  0.00    -0.203 F 
ATOM     42  C   UNL     1       2.980   5.801  11.362  1.00  0.00     0.198 A 
ATOM     43  C   UNL     1       1.399   6.020   9.589  1.00  0.00     0.198 A 
ATOM     44  F   UNL     1       1.734   4.991   7.536  1.00  0.00    -0.203 F 
ATOM     45  F   UNL     1       3.335   6.014  12.636  1.00  0.00    -0.200 F 
ATOM     46  C   UNL     1       1.764   6.266  10.899  1.00  0.00     0.200 A 
ATOM     47  F   UNL     1       0.229   6.477   9.122  1.00  0.00    -0.200 F 
ATOM     48  F   UNL     1       0.931   6.919  11.719  1.00  0.00    -0.200 F 
ENDBRANCH  24  38
BRANCH  25  49
ATOM     49  C   UNL     1      -2.504  -1.334   9.438  1.00  0.00     0.064 A 
ATOM     50  C   UNL     1      -2.992  -1.564  10.736  1.00  0.00     0.173 A 
ATOM     51  C   UNL     1      -3.463  -1.000   8.463  1.00  0.00     0.173 A 
ATOM     52  F   UNL     1      -2.144  -1.848  11.736  1.00  0.00    -0.203 F 
ATOM     53  C   UNL     1      -4.351  -1.437  11.044  1.00  0.00     0.198 A 
ATOM     54  C   UNL     1      -4.820  -0.883   8.769  1.00  0.00     0.198 A 
ATOM     55  F   UNL     1      -3.093  -0.686   7.213  1.00  0.00    -0.203 F 
ATOM     56  F   UNL     1      -4.768  -1.599  12.308  1.00  0.00    -0.200 F 
ATOM     57  C   UNL     1      -5.262  -1.086  10.063  1.00  0.00     0.200 A 
ATOM     58  F   UNL     1      -5.687  -0.509   7.817  1.00  0.00    -0.200 F 
ATOM     59  F   UNL     1      -6.554  -0.902  10.370  1.00  0.00    -0.200 F 
ENDBRANCH  25  49
BRANCH  37  60
ATOM     60  C   UNL     1       3.616  -1.954  10.643  1.00  0.00     0.064 A 
ATOM     61  C   UNL     1       3.206  -2.885   9.673  1.00  0.00     0.173 A 
ATOM     62  C   UNL     1       4.597  -2.365  11.555  1.00  0.00     0.173 A 
ATOM     63  F   UNL     1       2.357  -2.542   8.697  1.00  0.00    -0.203 F 
ATOM     64  C   UNL     1       3.720  -4.179   9.650  1.00  0.00     0.198 A 
ATOM     65  C   UNL     1       5.140  -3.645  11.504  1.00  0.00     0.198 A 
ATOM     66  F   UNL     1       5.074  -1.501  12.466  1.00  0.00    -0.203 F 
ATOM     67  F   UNL     1       3.305  -5.052   8.720  1.00  0.00    -0.200 F 
ATOM     68  C   UNL     1       4.693  -4.555  10.560  1.00  0.00     0.200 A 
ATOM     69  F   UNL     1       6.122  -3.985  12.350  1.00  0.00    -0.200 F 
ATOM     70  F   UNL     1       5.223  -5.785  10.509  1.00  0.00    -0.200 F 
ENDBRANCH  37  60
ENDBRANCH  11  12
ENDBRANCH   4   6
ENDBRANCH   3   4
ENDBRANCH   2   3
ENDBRANCH   1   2
BRANCH   1  71
ATOM     71  O   UNL     1       3.898   1.281  -0.645  1.00  0.00    -0.458 OA
BRANCH  71  72
ATOM     72  C   UNL     1       2.785   1.964  -1.028  1.00  0.00     0.338 C 
ATOM     73  O   UNL     1       2.105   1.813  -2.020  1.00  0.00    -0.246 OA
BRANCH  72  74
ATOM     74  C   UNL     1       2.623   3.066  -0.070  1.00  0.00     0.061 A 
ATOM     75  C   UNL     1       3.524   4.111  -0.199  1.00  0.00     0.019 A 
ATOM     76  C   UNL     1       1.613   3.088   0.912  1.00  0.00     0.038 A 
ATOM     77  C   UNL     1       3.459   5.116   0.736  1.00  0.00    -0.043 A 
ATOM     78  C   UNL     1       1.554   4.120   1.885  1.00  0.00     0.092 A 
ATOM     79  C   UNL     1       2.552   5.090   1.829  1.00  0.00    -0.024 A 
ATOM     80  C   UNL     1       4.321   6.344   0.732  1.00  0.00     0.036 C 
ATOM     81  C   UNL     1       3.005   6.178   2.748  1.00  0.00     0.037 C 
ATOM     82  C   UNL     1       3.558   7.194   1.741  1.00  0.00     0.010 C 
BRANCH  78  83
ATOM     83  S   UNL     1       0.141   4.031   2.989  1.00  0.00     0.262 S 
ATOM     84  O   UNL     1      -0.981   3.553   2.215  1.00  0.00    -0.201 OA
ATOM     85  O   UNL     1       0.551   3.226   4.118  1.00  0.00    -0.201 OA
BRANCH  83  86
ATOM     86  N   UNL     1      -0.308   5.474   3.720  1.00  0.00    -0.277 N 
ATOM     87  H   UNL     1      -0.709   5.386   4.614  1.00  0.00     0.180 HD
BRANCH  86  88
ATOM     88  C   UNL     1      -0.195   6.810   3.234  1.00  0.00     0.075 A 
ATOM     89  C   UNL     1       0.318   7.717   4.188  1.00  0.00     0.042 A 
ATOM     90  C   UNL     1      -0.368   7.258   1.923  1.00  0.00     0.089 A 
ATOM     91  C   UNL     1       0.850   8.963   3.809  1.00  0.00     0.058 A 
ATOM     92  C   UNL     1       0.104   8.528   1.544  1.00  0.00     0.031 A 
ATOM     93  C   UNL     1       0.721   9.367   2.477  1.00  0.00     0.015 A 
BRANCH  90  94
ATOM     94  N   UNL     1      -0.954   6.463   0.926  1.00  0.00    -0.239 N 
ATOM     95  C   UNL     1      -2.147   5.790   0.986  1.00  0.00     0.115 A 
ATOM     96  N   UNL     1      -0.300   6.243  -0.238  1.00  0.00    -0.177 NA
ATOM     97  C   UNL     1      -2.176   4.959  -0.110  1.00  0.00     0.042 A 
ATOM     98  C   UNL     1      -0.988   5.245  -0.802  1.00  0.00     0.135 A 
ENDBRANCH  90  94
BRANCH  91  99
ATOM     99  C   UNL     1       1.666   9.760   4.801  1.00  0.00     0.416 C 
ATOM    100  F   UNL     1       0.910  10.334   5.772  1.00  0.00    -0.166 F 
ATOM    101  F   UNL     1       2.576   8.975   5.451  1.00  0.00    -0.166 F 
ATOM    102  F   UNL     1       2.391  10.761   4.232  1.00  0.00    -0.166 F 
ENDBRANCH  91  99
ENDBRANCH  86  88
ENDBRANCH  83  86
ENDBRANCH  78  83
ENDBRANCH  72  74
ENDBRANCH  71  72
ENDBRANCH   1  71
TORSDOF 16
