REMARK SMILES CC(C)C[C@H](NC(=O)[C@H](Cc1ccccc1)NC(=O)CNC(=O)CNC(=O)OCc1ccccc1)C(=O)OCCOC(=O)c1ccc(-c2c3nc(c(-c4c(F)c(F)c(F)c(F)c4F)c4ccc([nH]4)c(-c4c(F)c(F)c(F)c(F)c4F)c4nc(c(-c5c(F)c(F)c(F)c(F)c5F)c5ccc2[nH]5)C=C4)C=C3)cc1
REMARK SMILES IDX 6 1 7 2 8 3 5 5 4 6 2 7 1 8 3 9 36 10 37 11 38 12 39 13
REMARK SMILES IDX 40 14 41 15 42 16 43 17 44 18 45 19 106 20 46 21 105 22
REMARK SMILES IDX 47 23 48 24 49 25 99 26 50 27 104 28 98 29 100 30 51 31
REMARK SMILES IDX 103 32 97 33 96 34 52 36 84 37 64 38 83 39 65 40 68 41 82 42
REMARK SMILES IDX 101 43 66 44 67 45 81 47 102 48 69 49 53 50 54 51 62 52
REMARK SMILES IDX 55 53 56 54 60 55 63 56 57 57 58 58 61 59 59 60 85 61 86 62
REMARK SMILES IDX 94 63 87 64 88 65 92 66 95 67 89 68 90 69 93 70 91 71 70 72
REMARK SMILES IDX 71 73 79 74 72 75 73 76 77 77 80 78 74 79 75 80 78 81 76 82
REMARK SMILES IDX 9 83 17 84 18 85 19 87 20 88 21 89 22 90 23 92 24 93 25 94
REMARK SMILES IDX 26 95 27 97 28 98 29 99 30 100 31 101 35 102 32 103 34 104
REMARK SMILES IDX 33 105 10 106 11 107 12 108 16 109 13 110 15 111 14 112
REMARK H PARENT 6 4 100 35 68 46 17 86 21 91 25 96
REMARK Flexibility Score: inf
ROOT
ATOM      1  N   UNL     1      -1.663  -4.112  -0.112  1.00  0.00    -0.341 N 
ATOM      2  C   UNL     1      -2.004  -4.084   1.207  1.00  0.00     0.243 C 
ATOM      3  O   UNL     1      -3.219  -4.025   1.431  1.00  0.00    -0.273 OA
ATOM      4  H   UNL     1      -2.470  -4.081  -0.675  1.00  0.00     0.164 HD
ENDROOT
BRANCH   1   5
ATOM      5  C   UNL     1      -0.450  -4.174  -0.955  1.00  0.00     0.192 C 
BRANCH   5   6
ATOM      6  C   UNL     1       0.449  -2.896  -1.179  1.00  0.00     0.040 C 
BRANCH   6   7
ATOM      7  C   UNL     1       0.873  -1.836  -0.117  1.00  0.00    -0.015 C 
ATOM      8  C   UNL     1       2.079  -2.159   0.788  1.00  0.00     0.007 C 
ATOM      9  C   UNL     1       1.268  -0.537  -0.840  1.00  0.00     0.007 C 
ENDBRANCH   6   7
ENDBRANCH   5   6
BRANCH   5  10
ATOM     10  C   UNL     1       0.327  -5.523  -1.081  1.00  0.00     0.328 C 
ATOM     11  O   UNL     1       1.162  -5.708  -1.962  1.00  0.00    -0.250 OA
BRANCH  10  12
ATOM     12  O   UNL     1      -0.043  -6.463  -0.167  1.00  0.00    -0.461 OA
BRANCH  12  13
ATOM     13  C   UNL     1       0.665  -7.723  -0.214  1.00  0.00     0.274 C 
BRANCH  13  14
ATOM     14  C   UNL     1      -0.246  -8.906  -0.549  1.00  0.00     0.275 C 
BRANCH  14  15
ATOM     15  O   UNL     1      -0.988  -8.696  -1.749  1.00  0.00    -0.458 OA
BRANCH  15  16
ATOM     16  C   UNL     1      -2.076  -7.909  -1.615  1.00  0.00     0.338 C 
ATOM     17  O   UNL     1      -2.530  -7.370  -0.621  1.00  0.00    -0.246 OA
BRANCH  16  18
ATOM     18  C   UNL     1      -2.574  -7.666  -2.950  1.00  0.00     0.060 A 
ATOM     19  C   UNL     1      -2.198  -6.476  -3.572  1.00  0.00     0.016 A 
ATOM     20  C   UNL     1      -3.335  -8.638  -3.589  1.00  0.00     0.016 A 
ATOM     21  C   UNL     1      -2.571  -6.243  -4.876  1.00  0.00     0.010 A 
ATOM     22  C   UNL     1      -3.662  -8.431  -4.916  1.00  0.00     0.010 A 
ATOM     23  C   UNL     1      -3.264  -7.243  -5.559  1.00  0.00    -0.014 A 
BRANCH  23  24
ATOM     24  C   UNL     1      -3.553  -7.082  -6.986  1.00  0.00     0.031 A 
ATOM     25  C   UNL     1      -4.971  -6.950  -7.412  1.00  0.00     0.074 A 
ATOM     26  C   UNL     1      -2.531  -7.166  -7.853  1.00  0.00     0.049 A 
ATOM     27  N   UNL     1      -5.484  -7.042  -8.605  1.00  0.00    -0.248 NA
ATOM     28  C   UNL     1      -5.951  -6.723  -6.337  1.00  0.00     0.031 C 
ATOM     29  C   UNL     1      -1.118  -7.285  -7.484  1.00  0.00     0.029 A 
ATOM     30  N   UNL     1      -2.526  -7.205  -9.219  1.00  0.00    -0.354 N 
ATOM     31  C   UNL     1      -6.853  -6.927  -8.425  1.00  0.00     0.074 A 
ATOM     32  C   UNL     1      -7.092  -6.788  -7.005  1.00  0.00     0.031 C 
ATOM     33  C   UNL     1      -0.383  -7.405  -8.598  1.00  0.00     0.029 A 
ATOM     34  C   UNL     1      -1.282  -7.443  -9.744  1.00  0.00     0.049 A 
ATOM     35  H   UNL     1      -3.333  -7.076  -9.769  1.00  0.00     0.167 HD
ATOM     36  C   UNL     1      -7.811  -6.947  -9.378  1.00  0.00     0.037 A 
ATOM     37  C   UNL     1      -0.925  -7.720 -11.010  1.00  0.00     0.037 A 
ATOM     38  C   UNL     1      -7.513  -7.098 -10.778  1.00  0.00     0.049 A 
ATOM     39  C   UNL     1      -2.007  -7.764 -12.048  1.00  0.00     0.074 A 
ATOM     40  C   UNL     1      -8.379  -7.095 -11.852  1.00  0.00     0.029 A 
ATOM     41  N   UNL     1      -6.233  -7.295 -11.290  1.00  0.00    -0.354 N 
ATOM     42  N   UNL     1      -3.304  -7.627 -11.892  1.00  0.00    -0.248 NA
ATOM     43  C   UNL     1      -1.586  -7.997 -13.432  1.00  0.00     0.031 C 
ATOM     44  C   UNL     1      -7.633  -7.359 -13.006  1.00  0.00     0.029 A 
ATOM     45  C   UNL     1      -6.290  -7.446 -12.664  1.00  0.00     0.049 A 
ATOM     46  H   UNL     1      -5.408  -7.322 -10.753  1.00  0.00     0.167 HD
ATOM     47  C   UNL     1      -3.856  -7.727 -13.159  1.00  0.00     0.074 A 
ATOM     48  C   UNL     1      -2.747  -7.935 -14.073  1.00  0.00     0.031 C 
ATOM     49  C   UNL     1      -5.156  -7.646 -13.537  1.00  0.00     0.037 A 
BRANCH  36  50
ATOM     50  C   UNL     1      -9.238  -6.867  -8.918  1.00  0.00     0.064 A 
ATOM     51  C   UNL     1      -9.755  -5.729  -8.278  1.00  0.00     0.173 A 
ATOM     52  C   UNL     1     -10.092  -7.968  -9.079  1.00  0.00     0.173 A 
ATOM     53  F   UNL     1      -8.978  -4.653  -8.079  1.00  0.00    -0.203 F 
ATOM     54  C   UNL     1     -11.052  -5.718  -7.768  1.00  0.00     0.198 A 
ATOM     55  C   UNL     1     -11.402  -7.938  -8.606  1.00  0.00     0.198 A 
ATOM     56  F   UNL     1      -9.654  -9.083  -9.682  1.00  0.00    -0.203 F 
ATOM     57  F   UNL     1     -11.492  -4.652  -7.085  1.00  0.00    -0.200 F 
ATOM     58  C   UNL     1     -11.875  -6.820  -7.936  1.00  0.00     0.200 A 
ATOM     59  F   UNL     1     -12.199  -9.001  -8.779  1.00  0.00    -0.200 F 
ATOM     60  F   UNL     1     -13.119  -6.812  -7.438  1.00  0.00    -0.200 F 
ENDBRANCH  36  50
BRANCH  37  61
ATOM     61  C   UNL     1       0.502  -7.978 -11.324  1.00  0.00     0.064 A 
ATOM     62  C   UNL     1       1.262  -7.044 -12.038  1.00  0.00     0.173 A 
ATOM     63  C   UNL     1       1.157  -9.125 -10.848  1.00  0.00     0.173 A 
ATOM     64  F   UNL     1       0.680  -5.935 -12.518  1.00  0.00    -0.203 F 
ATOM     65  C   UNL     1       2.621  -7.249 -12.270  1.00  0.00     0.198 A 
ATOM     66  C   UNL     1       2.522  -9.316 -11.056  1.00  0.00     0.198 A 
ATOM     67  F   UNL     1       0.479 -10.042 -10.142  1.00  0.00    -0.203 F 
ATOM     68  F   UNL     1       3.321  -6.349 -12.975  1.00  0.00    -0.200 F 
ATOM     69  C   UNL     1       3.252  -8.379 -11.771  1.00  0.00     0.200 A 
ATOM     70  F   UNL     1       3.131 -10.397 -10.550  1.00  0.00    -0.200 F 
ATOM     71  F   UNL     1       4.563  -8.564 -11.976  1.00  0.00    -0.200 F 
ENDBRANCH  37  61
BRANCH  49  72
ATOM     72  C   UNL     1      -5.444  -7.731 -15.006  1.00  0.00     0.064 A 
ATOM     73  C   UNL     1      -5.337  -8.935 -15.714  1.00  0.00     0.173 A 
ATOM     74  C   UNL     1      -5.906  -6.597 -15.693  1.00  0.00     0.173 A 
ATOM     75  F   UNL     1      -4.883 -10.040 -15.104  1.00  0.00    -0.203 F 
ATOM     76  C   UNL     1      -5.672  -8.999 -17.064  1.00  0.00     0.198 A 
ATOM     77  C   UNL     1      -6.274  -6.674 -17.032  1.00  0.00     0.198 A 
ATOM     78  F   UNL     1      -6.030  -5.423 -15.056  1.00  0.00    -0.203 F 
ATOM     79  F   UNL     1      -5.525 -10.150 -17.734  1.00  0.00    -0.200 F 
ATOM     80  C   UNL     1      -6.151  -7.873 -17.717  1.00  0.00     0.200 A 
ATOM     81  F   UNL     1      -6.755  -5.590 -17.655  1.00  0.00    -0.200 F 
ATOM     82  F   UNL     1      -6.494  -7.942 -19.011  1.00  0.00    -0.200 F 
ENDBRANCH  49  72
ENDBRANCH  23  24
ENDBRANCH  16  18
ENDBRANCH  15  16
ENDBRANCH  14  15
ENDBRANCH  13  14
ENDBRANCH  12  13
ENDBRANCH  10  12
ENDBRANCH   5  10
ENDBRANCH   1   5
BRANCH   2  83
ATOM     83  C   UNL     1      -0.984  -3.856   2.337  1.00  0.00     0.175 C 
BRANCH  83  84
ATOM     84  N   UNL     1       0.326  -4.311   1.855  1.00  0.00    -0.342 N 
ATOM     85  C   UNL     1       1.301  -5.194   2.138  1.00  0.00     0.240 C 
ATOM     86  H   UNL     1       0.574  -3.797   1.053  1.00  0.00     0.164 HD
ATOM     87  O   UNL     1       2.170  -5.344   1.270  1.00  0.00    -0.273 OA
BRANCH  85  88
ATOM     88  C   UNL     1       1.394  -5.971   3.420  1.00  0.00     0.216 C 
BRANCH  88  89
ATOM     89  N   UNL     1       1.509  -5.024   4.500  1.00  0.00    -0.346 N 
ATOM     90  C   UNL     1       0.730  -4.917   5.606  1.00  0.00     0.239 C 
ATOM     91  H   UNL     1       2.245  -4.374   4.426  1.00  0.00     0.164 HD
ATOM     92  O   UNL     1       0.869  -3.921   6.315  1.00  0.00    -0.273 OA
BRANCH  90  93
ATOM     93  C   UNL     1      -0.301  -6.008   5.923  1.00  0.00     0.219 C 
BRANCH  93  94
ATOM     94  N   UNL     1      -1.506  -5.855   5.137  1.00  0.00    -0.312 N 
ATOM     95  C   UNL     1      -1.986  -6.684   4.168  1.00  0.00     0.407 C 
ATOM     96  H   UNL     1      -2.045  -5.053   5.325  1.00  0.00     0.167 HD
ATOM     97  O   UNL     1      -2.837  -6.285   3.389  1.00  0.00    -0.225 OA
BRANCH  95  98
ATOM     98  O   UNL     1      -1.394  -7.905   4.129  1.00  0.00    -0.445 OA
BRANCH  98  99
ATOM     99  C   UNL     1      -1.725  -8.698   2.968  1.00  0.00     0.270 C 
BRANCH  99 100
ATOM    100  C   UNL     1      -3.178  -9.095   2.839  1.00  0.00    -0.011 A 
ATOM    101  C   UNL     1      -3.739  -9.285   1.568  1.00  0.00     0.007 A 
ATOM    102  C   UNL     1      -4.009  -9.197   3.957  1.00  0.00     0.007 A 
ATOM    103  C   UNL     1      -5.114  -9.437   1.404  1.00  0.00     0.000 A 
ATOM    104  C   UNL     1      -5.386  -9.354   3.797  1.00  0.00     0.000 A 
ATOM    105  C   UNL     1      -5.941  -9.449   2.521  1.00  0.00     0.000 A 
ENDBRANCH  99 100
ENDBRANCH  98  99
ENDBRANCH  95  98
ENDBRANCH  93  94
ENDBRANCH  90  93
ENDBRANCH  88  89
ENDBRANCH  85  88
ENDBRANCH  83  84
BRANCH  83 106
ATOM    106  C   UNL     1      -1.044  -2.338   2.634  1.00  0.00     0.070 C 
BRANCH 106 107
ATOM    107  C   UNL     1      -1.823  -1.889   3.847  1.00  0.00    -0.045 A 
ATOM    108  C   UNL     1      -3.183  -1.556   3.760  1.00  0.00     0.004 A 
ATOM    109  C   UNL     1      -1.153  -1.683   5.057  1.00  0.00     0.004 A 
ATOM    110  C   UNL     1      -3.849  -1.011   4.862  1.00  0.00     0.000 A 
ATOM    111  C   UNL     1      -1.822  -1.154   6.160  1.00  0.00     0.000 A 
ATOM    112  C   UNL     1      -3.168  -0.811   6.061  1.00  0.00     0.000 A 
ENDBRANCH 106 107
ENDBRANCH  83 106
ENDBRANCH   2  83
TORSDOF 25
