REMARK SMILES O=C(CN1C(=O)/C(=C/c2cccs2)SC1=S)Nc1ccc(O)cc1C(=O)OCCOC(=O)c1ccc(-c2c3nc(c(-c4c(F)c(F)c(F)c(F)c4F)c4ccc([nH]4)c(-c4c(F)c(F)c(F)c(F)c4F)c4nc(c(-c5c(F)c(F)c(F)c(F)c5F)c5ccc2[nH]5)C=C4)C=C3)cc1
REMARK SMILES IDX 28 1 27 2 25 3 26 4 24 5 18 6 19 7 20 8 23 9 21 10 17 11
REMARK SMILES IDX 1 12 2 13 3 15 4 16 5 17 15 18 6 19 7 20 14 21 16 22 8 23
REMARK SMILES IDX 9 24 10 25 13 26 11 27 12 28 22 29 29 31 30 32 31 33 32 34
REMARK SMILES IDX 33 35 34 36 95 37 35 38 94 39 36 40 37 41 38 42 88 43 39 44
REMARK SMILES IDX 93 45 87 46 89 47 40 48 92 49 86 50 85 51 41 53 73 54 53 55
REMARK SMILES IDX 72 56 54 57 57 58 71 59 90 60 55 61 56 62 70 64 91 65 58 66
REMARK SMILES IDX 42 67 43 68 51 69 44 70 45 71 49 72 52 73 46 74 47 75 50 76
REMARK SMILES IDX 48 77 74 78 75 79 83 80 76 81 77 82 81 83 84 84 78 85 79 86
REMARK SMILES IDX 82 87 80 88 59 89 60 90 68 91 61 92 62 93 66 94 69 95 63 96
REMARK SMILES IDX 64 97 67 98 65 99
REMARK H PARENT 17 14 22 30 89 52 57 63
REMARK Flexibility Score: inf
ROOT
ATOM      1  C   UNL     1       5.592  -1.040   3.266  1.00  0.00     0.275 C 
ENDROOT
BRANCH   1   2
ATOM      2  O   UNL     1       4.409  -1.313   2.475  1.00  0.00    -0.458 OA
BRANCH   2   3
ATOM      3  C   UNL     1       4.127  -2.629   2.282  1.00  0.00     0.340 C 
ATOM      4  O   UNL     1       4.830  -3.557   2.650  1.00  0.00    -0.246 OA
BRANCH   3   5
ATOM      5  C   UNL     1       2.782  -2.853   1.673  1.00  0.00     0.087 A 
ATOM      6  C   UNL     1       2.060  -1.939   0.873  1.00  0.00     0.056 A 
ATOM      7  C   UNL     1       0.779  -2.329   0.436  1.00  0.00     0.031 A 
ATOM      8  C   UNL     1       0.213  -3.561   0.787  1.00  0.00     0.048 A 
ATOM      9  C   UNL     1       2.218  -4.112   1.977  1.00  0.00     0.064 A 
ATOM     10  C   UNL     1       0.937  -4.441   1.564  1.00  0.00     0.116 A 
BRANCH   6  11
ATOM     11  N   UNL     1       2.630  -0.693   0.481  1.00  0.00    -0.324 N 
ATOM     12  O   UNL     1       0.905   0.243  -0.769  1.00  0.00    -0.273 OA
ATOM     13  C   UNL     1       2.048   0.285  -0.315  1.00  0.00     0.244 C 
ATOM     14  H   UNL     1       3.538  -0.505   0.812  1.00  0.00     0.170 HD
BRANCH  13  15
ATOM     15  C   UNL     1       3.002   1.362  -0.849  1.00  0.00     0.227 C 
BRANCH  15  16
ATOM     16  N   UNL     1       3.974   1.887   0.105  1.00  0.00    -0.283 N 
ATOM     17  C   UNL     1       3.607   2.987   0.863  1.00  0.00     0.266 C 
ATOM     18  C   UNL     1       5.269   1.448   0.244  1.00  0.00     0.148 C 
ATOM     19  O   UNL     1       2.523   3.550   0.827  1.00  0.00    -0.268 OA
ATOM     20  C   UNL     1       4.738   3.426   1.726  1.00  0.00     0.081 C 
ATOM     21  S   UNL     1       6.088   2.399   1.471  1.00  0.00    -0.054 SA
ATOM     22  S   UNL     1       6.020   0.200  -0.566  1.00  0.00    -0.052 S 
ATOM     23  C   UNL     1       4.587   4.463   2.562  1.00  0.00     0.040 C 
BRANCH  23  24
ATOM     24  C   UNL     1       5.555   4.945   3.494  1.00  0.00     0.028 A 
ATOM     25  C   UNL     1       6.941   4.967   3.472  1.00  0.00     0.020 A 
ATOM     26  S   UNL     1       4.982   5.684   4.950  1.00  0.00    -0.144 S 
ATOM     27  C   UNL     1       7.518   5.514   4.656  1.00  0.00     0.012 A 
ATOM     28  C   UNL     1       6.560   5.941   5.543  1.00  0.00     0.065 A 
ENDBRANCH  23  24
ENDBRANCH  15  16
ENDBRANCH  13  15
ENDBRANCH   6  11
BRANCH  10  29
ATOM     29  O   UNL     1       0.423  -5.636   1.964  1.00  0.00    -0.508 OA
ATOM     30  H   UNL     1      -0.440  -5.886   1.700  1.00  0.00     0.293 HD
ENDBRANCH  10  29
ENDBRANCH   3   5
ENDBRANCH   2   3
ENDBRANCH   1   2
BRANCH   1  31
ATOM     31  C   UNL     1       5.240  -0.252   4.531  1.00  0.00     0.275 C 
BRANCH  31  32
ATOM     32  O   UNL     1       4.659  -1.123   5.521  1.00  0.00    -0.458 OA
BRANCH  32  33
ATOM     33  C   UNL     1       3.315  -1.232   5.457  1.00  0.00     0.338 C 
ATOM     34  O   UNL     1       2.557  -0.607   4.730  1.00  0.00    -0.246 OA
BRANCH  33  35
ATOM     35  C   UNL     1       2.874  -2.375   6.269  1.00  0.00     0.060 A 
ATOM     36  C   UNL     1       2.301  -3.445   5.584  1.00  0.00     0.016 A 
ATOM     37  C   UNL     1       2.915  -2.369   7.663  1.00  0.00     0.016 A 
ATOM     38  C   UNL     1       1.718  -4.497   6.278  1.00  0.00     0.010 A 
ATOM     39  C   UNL     1       2.336  -3.436   8.366  1.00  0.00     0.010 A 
ATOM     40  C   UNL     1       1.702  -4.489   7.677  1.00  0.00    -0.014 A 
BRANCH  40  41
ATOM     41  C   UNL     1       0.889  -5.508   8.390  1.00  0.00     0.031 A 
ATOM     42  C   UNL     1      -0.397  -5.091   9.050  1.00  0.00     0.074 A 
ATOM     43  C   UNL     1       1.238  -6.808   8.368  1.00  0.00     0.049 A 
ATOM     44  N   UNL     1      -1.228  -5.794   9.777  1.00  0.00    -0.248 NA
ATOM     45  C   UNL     1      -0.801  -3.688   8.866  1.00  0.00     0.031 C 
ATOM     46  C   UNL     1       2.415  -7.355   7.697  1.00  0.00     0.029 A 
ATOM     47  N   UNL     1       0.618  -7.908   8.908  1.00  0.00    -0.354 N 
ATOM     48  C   UNL     1      -2.225  -4.911  10.173  1.00  0.00     0.074 A 
ATOM     49  C   UNL     1      -1.894  -3.619   9.612  1.00  0.00     0.031 C 
ATOM     50  C   UNL     1       2.417  -8.691   7.837  1.00  0.00     0.029 A 
ATOM     51  C   UNL     1       1.271  -9.088   8.651  1.00  0.00     0.049 A 
ATOM     52  H   UNL     1      -0.216  -7.856   9.428  1.00  0.00     0.167 HD
ATOM     53  C   UNL     1      -3.318  -5.157  10.934  1.00  0.00     0.037 A 
ATOM     54  C   UNL     1       0.984 -10.345   9.044  1.00  0.00     0.037 A 
ATOM     55  C   UNL     1      -3.673  -6.452  11.449  1.00  0.00     0.049 A 
ATOM     56  C   UNL     1      -0.228 -10.590   9.901  1.00  0.00     0.074 A 
ATOM     57  C   UNL     1      -4.746  -6.802  12.250  1.00  0.00     0.029 A 
ATOM     58  N   UNL     1      -2.970  -7.620  11.189  1.00  0.00    -0.354 N 
ATOM     59  N   UNL     1      -1.126  -9.737  10.331  1.00  0.00    -0.248 NA
ATOM     60  C   UNL     1      -0.462 -11.975  10.336  1.00  0.00     0.031 C 
ATOM     61  C   UNL     1      -4.680  -8.179  12.494  1.00  0.00     0.029 A 
ATOM     62  C   UNL     1      -3.589  -8.692  11.812  1.00  0.00     0.049 A 
ATOM     63  H   UNL     1      -2.153  -7.678  10.644  1.00  0.00     0.167 HD
ATOM     64  C   UNL     1      -2.040 -10.480  11.065  1.00  0.00     0.074 A 
ATOM     65  C   UNL     1      -1.598 -11.858  11.011  1.00  0.00     0.031 C 
ATOM     66  C   UNL     1      -3.144 -10.059  11.729  1.00  0.00     0.037 A 
BRANCH  53  67
ATOM     67  C   UNL     1      -4.188  -3.986  11.285  1.00  0.00     0.064 A 
ATOM     68  C   UNL     1      -5.024  -3.373  10.340  1.00  0.00     0.173 A 
ATOM     69  C   UNL     1      -4.189  -3.476  12.592  1.00  0.00     0.173 A 
ATOM     70  F   UNL     1      -5.046  -3.811   9.073  1.00  0.00    -0.203 F 
ATOM     71  C   UNL     1      -5.807  -2.273  10.685  1.00  0.00     0.198 A 
ATOM     72  C   UNL     1      -4.994  -2.394  12.940  1.00  0.00     0.198 A 
ATOM     73  F   UNL     1      -3.409  -4.028  13.534  1.00  0.00    -0.203 F 
ATOM     74  F   UNL     1      -6.560  -1.671   9.754  1.00  0.00    -0.200 F 
ATOM     75  C   UNL     1      -5.795  -1.789  11.985  1.00  0.00     0.200 A 
ATOM     76  F   UNL     1      -4.988  -1.934  14.199  1.00  0.00    -0.200 F 
ATOM     77  F   UNL     1      -6.550  -0.731  12.314  1.00  0.00    -0.200 F 
ENDBRANCH  53  67
BRANCH  54  78
ATOM     78  C   UNL     1       1.865 -11.470   8.635  1.00  0.00     0.064 A 
ATOM     79  C   UNL     1       1.418 -12.447   7.735  1.00  0.00     0.173 A 
ATOM     80  C   UNL     1       3.166 -11.597   9.143  1.00  0.00     0.173 A 
ATOM     81  F   UNL     1       0.172 -12.385   7.244  1.00  0.00    -0.203 F 
ATOM     82  C   UNL     1       2.235 -13.515   7.368  1.00  0.00     0.198 A 
ATOM     83  C   UNL     1       3.991 -12.650   8.755  1.00  0.00     0.198 A 
ATOM     84  F   UNL     1       3.639 -10.692  10.013  1.00  0.00    -0.203 F 
ATOM     85  F   UNL     1       1.768 -14.459   6.540  1.00  0.00    -0.200 F 
ATOM     86  C   UNL     1       3.523 -13.611   7.872  1.00  0.00     0.200 A 
ATOM     87  F   UNL     1       5.239 -12.734   9.238  1.00  0.00    -0.200 F 
ATOM     88  F   UNL     1       4.309 -14.636   7.516  1.00  0.00    -0.200 F 
ENDBRANCH  54  78
BRANCH  66  89
ATOM     89  C   UNL     1      -3.975 -11.106  12.409  1.00  0.00     0.064 A 
ATOM     90  C   UNL     1      -3.556 -11.722  13.596  1.00  0.00     0.173 A 
ATOM     91  C   UNL     1      -5.221 -11.473  11.879  1.00  0.00     0.173 A 
ATOM     92  F   UNL     1      -2.366 -11.414  14.133  1.00  0.00    -0.203 F 
ATOM     93  C   UNL     1      -4.344 -12.689  14.216  1.00  0.00     0.198 A 
ATOM     94  C   UNL     1      -6.017 -12.422  12.514  1.00  0.00     0.198 A 
ATOM     95  F   UNL     1      -5.669 -10.907  10.748  1.00  0.00    -0.203 F 
ATOM     96  F   UNL     1      -3.905 -13.297  15.326  1.00  0.00    -0.200 F 
ATOM     97  C   UNL     1      -5.575 -13.034  13.678  1.00  0.00     0.200 A 
ATOM     98  F   UNL     1      -7.210 -12.748  11.998  1.00  0.00    -0.200 F 
ATOM     99  F   UNL     1      -6.332 -13.963  14.276  1.00  0.00    -0.200 F 
ENDBRANCH  66  89
ENDBRANCH  40  41
ENDBRANCH  33  35
ENDBRANCH  32  33
ENDBRANCH  31  32
ENDBRANCH   1  31
TORSDOF 16
