REMARK SMILES Cc1ccc(CNC(=O)c2csc(/C=C/C(=O)OCCOC(=O)c3ccc(-c4c5nc(c(-c6c(F)c(F)c(F)c(F)c6F)c6ccc([nH]6)c(-c6c(F)c(F)c(F)c(F)c6F)c6nc(c(-c7c(F)c(F)c(F)c(F)c7F)c7ccc4[nH]7)C=C6)C=C5)cc3)c2)s1
REMARK SMILES IDX 19 1 18 2 16 3 17 4 15 5 14 6 13 7 10 8 11 9 87 10 12 11
REMARK SMILES IDX 8 12 7 13 9 15 6 16 5 17 1 18 2 19 3 20 88 21 4 22 20 23
REMARK SMILES IDX 21 24 22 25 23 26 24 27 25 28 86 29 26 30 85 31 27 32 28 33
REMARK SMILES IDX 29 34 79 35 30 36 84 37 78 38 80 39 31 40 83 41 77 42 76 43
REMARK SMILES IDX 32 45 64 46 44 47 63 48 45 49 48 50 62 51 81 52 46 53 47 54
REMARK SMILES IDX 61 56 82 57 49 58 33 59 34 60 42 61 35 62 36 63 40 64 43 65
REMARK SMILES IDX 37 66 38 67 41 68 39 69 65 70 66 71 74 72 67 73 68 74 72 75
REMARK SMILES IDX 75 76 69 77 70 78 73 79 71 80 50 81 51 82 59 83 52 84 53 85
REMARK SMILES IDX 57 86 60 87 54 88 55 89 58 90 56 91
REMARK H PARENT 7 14 80 44 48 55
REMARK Flexibility Score: inf
ROOT
ATOM      1  C   UNL     1      -7.075   2.761  -7.389  1.00  0.00     0.275 C 
ENDROOT
BRANCH   1   2
ATOM      2  O   UNL     1      -6.382   2.859  -6.131  1.00  0.00    -0.459 OA
BRANCH   2   3
ATOM      3  C   UNL     1      -5.179   3.476  -6.170  1.00  0.00     0.330 C 
ATOM      4  O   UNL     1      -4.595   3.861  -7.173  1.00  0.00    -0.247 OA
BRANCH   3   5
ATOM      5  C   UNL     1      -4.617   3.711  -4.827  1.00  0.00     0.095 C 
ATOM      6  C   UNL     1      -5.241   3.449  -3.668  1.00  0.00     0.026 C 
BRANCH   6   7
ATOM      7  C   UNL     1      -4.634   3.749  -2.413  1.00  0.00     0.028 A 
ATOM      8  C   UNL     1      -3.817   3.506  -0.209  1.00  0.00     0.051 A 
ATOM      9  C   UNL     1      -3.366   4.768  -0.542  1.00  0.00     0.079 A 
ATOM     10  C   UNL     1      -4.650   2.984  -1.259  1.00  0.00     0.033 A 
ATOM     11  S   UNL     1      -3.797   5.228  -2.126  1.00  0.00    -0.144 S 
BRANCH   8  12
ATOM     12  C   UNL     1      -3.483   2.884   1.068  1.00  0.00     0.252 C 
ATOM     13  N   UNL     1      -3.134   1.559   1.092  1.00  0.00    -0.347 N 
ATOM     14  H   UNL     1      -3.039   1.161   1.987  1.00  0.00     0.164 HD
ATOM     15  O   UNL     1      -3.468   3.525   2.117  1.00  0.00    -0.269 OA
BRANCH  13  16
ATOM     16  C   UNL     1      -2.886   0.664  -0.018  1.00  0.00     0.163 C 
BRANCH  16  17
ATOM     17  C   UNL     1      -1.537   0.034   0.110  1.00  0.00     0.024 A 
ATOM     18  C   UNL     1       2.379  -0.197   0.063  1.00  0.00     0.056 C 
ATOM     19  C   UNL     1       0.900  -0.373   0.110  1.00  0.00     0.002 A 
ATOM     20  C   UNL     1       0.176  -1.542   0.208  1.00  0.00     0.015 A 
ATOM     21  S   UNL     1      -0.120   0.996   0.029  1.00  0.00    -0.144 S 
ATOM     22  C   UNL     1      -1.229  -1.308   0.214  1.00  0.00     0.017 A 
ENDBRANCH  16  17
ENDBRANCH  13  16
ENDBRANCH   8  12
ENDBRANCH   6   7
ENDBRANCH   3   5
ENDBRANCH   2   3
ENDBRANCH   1   2
BRANCH   1  23
ATOM     23  C   UNL     1      -8.159   3.836  -7.509  1.00  0.00     0.275 C 
BRANCH  23  24
ATOM     24  O   UNL     1      -7.600   5.161  -7.583  1.00  0.00    -0.458 OA
BRANCH  24  25
ATOM     25  C   UNL     1      -7.440   5.785  -6.391  1.00  0.00     0.338 C 
ATOM     26  O   UNL     1      -7.745   5.359  -5.290  1.00  0.00    -0.246 OA
BRANCH  25  27
ATOM     27  C   UNL     1      -6.713   7.054  -6.582  1.00  0.00     0.060 A 
ATOM     28  C   UNL     1      -5.591   7.295  -5.783  1.00  0.00     0.016 A 
ATOM     29  C   UNL     1      -7.161   8.024  -7.484  1.00  0.00     0.016 A 
ATOM     30  C   UNL     1      -4.912   8.507  -5.880  1.00  0.00     0.010 A 
ATOM     31  C   UNL     1      -6.481   9.243  -7.576  1.00  0.00     0.010 A 
ATOM     32  C   UNL     1      -5.359   9.496  -6.768  1.00  0.00    -0.014 A 
BRANCH  32  33
ATOM     33  C   UNL     1      -4.673  10.810  -6.809  1.00  0.00     0.031 A 
ATOM     34  C   UNL     1      -5.280  11.996  -6.118  1.00  0.00     0.074 A 
ATOM     35  C   UNL     1      -3.491  10.929  -7.440  1.00  0.00     0.049 A 
ATOM     36  N   UNL     1      -4.846  13.229  -6.051  1.00  0.00    -0.248 NA
ATOM     37  C   UNL     1      -6.547  11.762  -5.409  1.00  0.00     0.031 C 
ATOM     38  C   UNL     1      -2.786   9.843  -8.118  1.00  0.00     0.029 A 
ATOM     39  N   UNL     1      -2.675  12.020  -7.610  1.00  0.00    -0.354 N 
ATOM     40  C   UNL     1      -5.784  13.919  -5.295  1.00  0.00     0.074 A 
ATOM     41  C   UNL     1      -6.826  12.975  -4.951  1.00  0.00     0.031 C 
ATOM     42  C   UNL     1      -1.637  10.320  -8.627  1.00  0.00     0.029 A 
ATOM     43  C   UNL     1      -1.544  11.750  -8.339  1.00  0.00     0.049 A 
ATOM     44  H   UNL     1      -2.881  12.910  -7.244  1.00  0.00     0.167 HD
ATOM     45  C   UNL     1      -5.770  15.220  -4.915  1.00  0.00     0.037 A 
ATOM     46  C   UNL     1      -0.554  12.568  -8.742  1.00  0.00     0.037 A 
ATOM     47  C   UNL     1      -4.732  16.158  -5.256  1.00  0.00     0.049 A 
ATOM     48  C   UNL     1      -0.597  14.024  -8.364  1.00  0.00     0.074 A 
ATOM     49  C   UNL     1      -4.622  17.492  -4.904  1.00  0.00     0.029 A 
ATOM     50  N   UNL     1      -3.623  15.859  -6.035  1.00  0.00    -0.354 N 
ATOM     51  N   UNL     1      -1.478  14.665  -7.635  1.00  0.00    -0.248 NA
ATOM     52  C   UNL     1       0.494  14.871  -8.867  1.00  0.00     0.031 C 
ATOM     53  C   UNL     1      -3.470  18.012  -5.506  1.00  0.00     0.029 A 
ATOM     54  C   UNL     1      -2.838  16.990  -6.195  1.00  0.00     0.049 A 
ATOM     55  H   UNL     1      -3.423  14.974  -6.417  1.00  0.00     0.167 HD
ATOM     56  C   UNL     1      -1.041  15.981  -7.574  1.00  0.00     0.074 A 
ATOM     57  C   UNL     1       0.194  16.045  -8.329  1.00  0.00     0.031 C 
ATOM     58  C   UNL     1      -1.611  17.040  -6.949  1.00  0.00     0.037 A 
BRANCH  45  59
ATOM     59  C   UNL     1      -6.932  15.712  -4.103  1.00  0.00     0.064 A 
ATOM     60  C   UNL     1      -7.099  15.345  -2.760  1.00  0.00     0.173 A 
ATOM     61  C   UNL     1      -7.874  16.584  -4.668  1.00  0.00     0.173 A 
ATOM     62  F   UNL     1      -6.231  14.504  -2.177  1.00  0.00    -0.203 F 
ATOM     63  C   UNL     1      -8.182  15.811  -2.020  1.00  0.00     0.198 A 
ATOM     64  C   UNL     1      -8.942  17.069  -3.918  1.00  0.00     0.198 A 
ATOM     65  F   UNL     1      -7.756  16.971  -5.947  1.00  0.00    -0.203 F 
ATOM     66  F   UNL     1      -8.347  15.412  -0.751  1.00  0.00    -0.200 F 
ATOM     67  C   UNL     1      -9.099  16.677  -2.597  1.00  0.00     0.200 A 
ATOM     68  F   UNL     1      -9.821  17.914  -4.474  1.00  0.00    -0.200 F 
ATOM     69  F   UNL     1     -10.140  17.127  -1.883  1.00  0.00    -0.200 F 
ENDBRANCH  45  59
BRANCH  46  70
ATOM     70  C   UNL     1       0.565  12.027  -9.555  1.00  0.00     0.064 A 
ATOM     71  C   UNL     1       1.856  11.915  -9.021  1.00  0.00     0.173 A 
ATOM     72  C   UNL     1       0.367  11.614 -10.880  1.00  0.00     0.173 A 
ATOM     73  F   UNL     1       2.100  12.324  -7.767  1.00  0.00    -0.203 F 
ATOM     74  C   UNL     1       2.909  11.420  -9.787  1.00  0.00     0.198 A 
ATOM     75  C   UNL     1       1.415  11.096 -11.636  1.00  0.00     0.198 A 
ATOM     76  F   UNL     1      -0.849  11.706 -11.438  1.00  0.00    -0.203 F 
ATOM     77  F   UNL     1       4.143  11.361  -9.266  1.00  0.00    -0.200 F 
ATOM     78  C   UNL     1       2.687  11.005 -11.091  1.00  0.00     0.200 A 
ATOM     79  F   UNL     1       1.194  10.687 -12.893  1.00  0.00    -0.200 F 
ATOM     80  F   UNL     1       3.700  10.524 -11.826  1.00  0.00    -0.200 F 
ENDBRANCH  46  70
BRANCH  58  81
ATOM     81  C   UNL     1      -0.894  18.355  -7.035  1.00  0.00     0.064 A 
ATOM     82  C   UNL     1      -0.876  19.106  -8.220  1.00  0.00     0.173 A 
ATOM     83  C   UNL     1      -0.246  18.887  -5.910  1.00  0.00     0.173 A 
ATOM     84  F   UNL     1      -1.467  18.633  -9.327  1.00  0.00    -0.203 F 
ATOM     85  C   UNL     1      -0.217  20.331  -8.280  1.00  0.00     0.198 A 
ATOM     86  C   UNL     1       0.390  20.124  -5.967  1.00  0.00     0.198 A 
ATOM     87  F   UNL     1      -0.238  18.210  -4.752  1.00  0.00    -0.203 F 
ATOM     88  F   UNL     1      -0.176  21.011  -9.434  1.00  0.00    -0.200 F 
ATOM     89  C   UNL     1       0.409  20.842  -7.153  1.00  0.00     0.200 A 
ATOM     90  F   UNL     1       0.986  20.621  -4.874  1.00  0.00    -0.200 F 
ATOM     91  F   UNL     1       1.039  22.023  -7.213  1.00  0.00    -0.200 F 
ENDBRANCH  58  81
ENDBRANCH  32  33
ENDBRANCH  25  27
ENDBRANCH  24  25
ENDBRANCH  23  24
ENDBRANCH   1  23
TORSDOF 15
