REMARK SMILES C[NH2+][C@]1(C(=O)OCCOC(=O)c2ccc(-c3c4nc(c(-c5c(F)c(F)c(F)c(F)c5F)c5ccc([nH]5)c(-c5c(F)c(F)c(F)c(F)c5F)c5nc(c(-c6c(F)c(F)c(F)c(F)c6F)c6ccc3[nH]6)C=C5)C=C4)cc2)CCC[C@@H]([N@@H+](C)C2CCCCCC2)C1
REMARK SMILES IDX 6 1 4 2 5 3 3 4 75 5 88 6 76 7 78 8 77 9 2 10 1 11 79 14
REMARK SMILES IDX 80 15 81 17 82 18 83 19 84 20 87 22 86 23 85 24 7 26 8 27
REMARK SMILES IDX 9 28 10 29 11 30 12 31 13 32 74 33 14 34 73 35 15 36 16 37
REMARK SMILES IDX 17 38 67 39 18 40 72 41 66 42 68 43 19 44 71 45 65 46 64 47
REMARK SMILES IDX 20 49 52 50 32 51 51 52 33 53 36 54 50 55 69 56 34 57 35 58
REMARK SMILES IDX 49 60 70 61 37 62 21 63 22 64 30 65 23 66 24 67 28 68 31 69
REMARK SMILES IDX 25 70 26 71 29 72 27 73 53 74 54 75 62 76 55 77 56 78 60 79
REMARK SMILES IDX 63 80 57 81 58 82 61 83 59 84 38 85 39 86 47 87 40 88 41 89
REMARK SMILES IDX 45 90 48 91 42 92 43 93 46 94 44 95
REMARK H PARENT 2 12 2 13 79 16 68 48 36 59
REMARK Flexibility Score: 90.00
ROOT
ATOM      1  O   UNL     1       0.789  -2.475   1.107  1.00  0.00    -0.457 OA
ENDROOT
BRANCH   1   2
ATOM      2  C   UNL     1       0.099  -1.522   0.427  1.00  0.00     0.368 C 
ATOM      3  O   UNL     1       0.620  -0.519  -0.060  1.00  0.00    -0.245 OA
BRANCH   2   4
ATOM      4  C   UNL     1      -1.440  -1.722   0.414  1.00  0.00     0.199 C 
ATOM      5  C   UNL     1      -1.968  -3.003   1.074  1.00  0.00     0.081 C 
ATOM      6  C   UNL     1      -1.901  -0.544   1.291  1.00  0.00     0.146 C 
ATOM      7  C   UNL     1      -3.499  -3.006   1.152  1.00  0.00     0.013 C 
ATOM      8  C   UNL     1      -3.400  -0.422   1.522  1.00  0.00     0.190 C 
ATOM      9  C   UNL     1      -4.119  -1.760   1.798  1.00  0.00     0.065 C 
BRANCH   4  10
ATOM     10  N   UNL     1      -1.957  -1.531  -0.972  1.00  0.00    -0.334 N 
ATOM     11  C   UNL     1      -1.816  -2.697  -1.834  1.00  0.00     0.331 C 
ATOM     12  H   UNL     1      -2.947  -1.295  -0.913  1.00  0.00     0.347 HD
ATOM     13  H   UNL     1      -1.395  -0.790  -1.391  1.00  0.00     0.347 HD
ENDBRANCH   4  10
BRANCH   8  14
ATOM     14  N   UNL     1      -3.710   0.704   2.444  1.00  0.00    -0.332 N 
ATOM     15  C   UNL     1      -5.134   1.046   2.406  1.00  0.00     0.333 C 
ATOM     16  H   UNL     1      -3.123   1.421   2.019  1.00  0.00     0.348 HD
BRANCH  14  17
ATOM     17  C   UNL     1      -3.142   0.783   3.822  1.00  0.00     0.184 C 
BRANCH  17  18
ATOM     18  C   UNL     1      -3.427  -0.374   4.802  1.00  0.00     0.065 C 
BRANCH  18  19
ATOM     19  C   UNL     1      -2.516  -1.596   4.774  1.00  0.00     0.006 C 
BRANCH  19  20
ATOM     20  C   UNL     1      -1.222  -1.447   5.556  1.00  0.00     0.000 CG0
ATOM     21  G   UNL     1      -0.267  -0.402   4.999  1.00  0.00     0.000 G0
ENDBRANCH  19  20
ENDBRANCH  18  19
ENDBRANCH  17  18
BRANCH  17  22
ATOM     22  C   UNL     1      -1.712   1.389   3.853  1.00  0.00     0.065 C 
BRANCH  22  23
ATOM     23  C   UNL     1      -0.814   1.024   5.038  1.00  0.00     0.006 C 
BRANCH  23  24
ATOM     24  C   UNL     1      -0.267  -0.402   4.999  1.00  0.00     0.000 CG0
ATOM     25  G   UNL     1      -1.222  -1.447   5.556  1.00  0.00     0.000 G0
ENDBRANCH  23  24
ENDBRANCH  22  23
ENDBRANCH  17  22
ENDBRANCH  14  17
ENDBRANCH   8  14
ENDBRANCH   2   4
ENDBRANCH   1   2
BRANCH   1  26
ATOM     26  C   UNL     1       2.180  -2.155   1.329  1.00  0.00     0.274 C 
BRANCH  26  27
ATOM     27  C   UNL     1       3.088  -2.744   0.250  1.00  0.00     0.275 C 
BRANCH  27  28
ATOM     28  O   UNL     1       2.703  -2.260  -1.049  1.00  0.00    -0.458 OA
BRANCH  28  29
ATOM     29  C   UNL     1       2.446  -3.205  -1.983  1.00  0.00     0.338 C 
ATOM     30  O   UNL     1       2.603  -4.409  -1.867  1.00  0.00    -0.246 OA
BRANCH  29  31
ATOM     31  C   UNL     1       1.883  -2.596  -3.210  1.00  0.00     0.060 A 
ATOM     32  C   UNL     1       1.014  -1.509  -3.142  1.00  0.00     0.016 A 
ATOM     33  C   UNL     1       2.102  -3.217  -4.439  1.00  0.00     0.016 A 
ATOM     34  C   UNL     1       0.266  -1.130  -4.255  1.00  0.00     0.010 A 
ATOM     35  C   UNL     1       1.442  -2.756  -5.584  1.00  0.00     0.010 A 
ATOM     36  C   UNL     1       0.480  -1.734  -5.498  1.00  0.00    -0.014 A 
BRANCH  36  37
ATOM     37  C   UNL     1      -0.324  -1.341  -6.690  1.00  0.00     0.031 A 
ATOM     38  C   UNL     1      -1.071  -2.389  -7.473  1.00  0.00     0.074 A 
ATOM     39  C   UNL     1      -0.402  -0.053  -7.081  1.00  0.00     0.049 A 
ATOM     40  N   UNL     1      -1.575  -2.321  -8.680  1.00  0.00    -0.248 NA
ATOM     41  C   UNL     1      -1.259  -3.693  -6.819  1.00  0.00     0.031 C 
ATOM     42  C   UNL     1       0.202   1.087  -6.390  1.00  0.00     0.029 A 
ATOM     43  N   UNL     1      -1.031   0.515  -8.163  1.00  0.00    -0.354 N 
ATOM     44  C   UNL     1      -2.057  -3.593  -8.961  1.00  0.00     0.074 A 
ATOM     45  C   UNL     1      -1.812  -4.407  -7.790  1.00  0.00     0.031 C 
ATOM     46  C   UNL     1      -0.125   2.217  -7.032  1.00  0.00     0.029 A 
ATOM     47  C   UNL     1      -0.860   1.875  -8.243  1.00  0.00     0.049 A 
ATOM     48  H   UNL     1      -1.554  -0.003  -8.817  1.00  0.00     0.167 HD
ATOM     49  C   UNL     1      -2.635  -4.038 -10.102  1.00  0.00     0.037 A 
ATOM     50  C   UNL     1      -1.198   2.748  -9.211  1.00  0.00     0.037 A 
ATOM     51  C   UNL     1      -2.949  -3.201 -11.231  1.00  0.00     0.049 A 
ATOM     52  C   UNL     1      -1.841   2.236 -10.466  1.00  0.00     0.074 A 
ATOM     53  C   UNL     1      -3.527  -3.554 -12.438  1.00  0.00     0.029 A 
ATOM     54  N   UNL     1      -2.741  -1.830 -11.273  1.00  0.00    -0.354 N 
ATOM     55  N   UNL     1      -2.171   1.008 -10.783  1.00  0.00    -0.248 NA
ATOM     56  C   UNL     1      -2.124   3.226 -11.515  1.00  0.00     0.031 C 
ATOM     57  C   UNL     1      -3.654  -2.398 -13.218  1.00  0.00     0.029 A 
ATOM     58  C   UNL     1      -3.183  -1.322 -12.484  1.00  0.00     0.049 A 
ATOM     59  H   UNL     1      -2.338  -1.297 -10.550  1.00  0.00     0.167 HD
ATOM     60  C   UNL     1      -2.691   1.074 -12.067  1.00  0.00     0.074 A 
ATOM     61  C   UNL     1      -2.661   2.468 -12.461  1.00  0.00     0.031 C 
ATOM     62  C   UNL     1      -3.139   0.068 -12.855  1.00  0.00     0.037 A 
BRANCH  49  63
ATOM     63  C   UNL     1      -2.924  -5.505 -10.210  1.00  0.00     0.064 A 
ATOM     64  C   UNL     1      -3.995  -6.107  -9.537  1.00  0.00     0.173 A 
ATOM     65  C   UNL     1      -2.130  -6.315 -11.039  1.00  0.00     0.173 A 
ATOM     66  F   UNL     1      -4.772  -5.381  -8.720  1.00  0.00    -0.203 F 
ATOM     67  C   UNL     1      -4.251  -7.470  -9.674  1.00  0.00     0.198 A 
ATOM     68  C   UNL     1      -2.402  -7.671 -11.193  1.00  0.00     0.198 A 
ATOM     69  F   UNL     1      -1.094  -5.786 -11.708  1.00  0.00    -0.203 F 
ATOM     70  F   UNL     1      -5.258  -8.034  -8.992  1.00  0.00    -0.200 F 
ATOM     71  C   UNL     1      -3.459  -8.249 -10.507  1.00  0.00     0.200 A 
ATOM     72  F   UNL     1      -1.642  -8.419 -12.004  1.00  0.00    -0.200 F 
ATOM     73  F   UNL     1      -3.712  -9.558 -10.642  1.00  0.00    -0.200 F 
ENDBRANCH  49  63
BRANCH  50  74
ATOM     74  C   UNL     1      -0.868   4.187  -9.048  1.00  0.00     0.064 A 
ATOM     75  C   UNL     1      -1.875   5.137  -8.837  1.00  0.00     0.173 A 
ATOM     76  C   UNL     1       0.462   4.636  -9.069  1.00  0.00     0.173 A 
ATOM     77  F   UNL     1      -3.162   4.759  -8.838  1.00  0.00    -0.203 F 
ATOM     78  C   UNL     1      -1.565   6.482  -8.650  1.00  0.00     0.198 A 
ATOM     79  C   UNL     1       0.772   5.975  -8.854  1.00  0.00     0.198 A 
ATOM     80  F   UNL     1       1.461   3.764  -9.270  1.00  0.00    -0.203 F 
ATOM     81  F   UNL     1      -2.547   7.377  -8.479  1.00  0.00    -0.200 F 
ATOM     82  C   UNL     1      -0.241   6.898  -8.648  1.00  0.00     0.200 A 
ATOM     83  F   UNL     1       2.053   6.369  -8.837  1.00  0.00    -0.200 F 
ATOM     84  F   UNL     1       0.057   8.190  -8.451  1.00  0.00    -0.200 F 
ENDBRANCH  50  74
BRANCH  62  85
ATOM     85  C   UNL     1      -3.641   0.445 -14.214  1.00  0.00     0.064 A 
ATOM     86  C   UNL     1      -2.756   0.755 -15.256  1.00  0.00     0.173 A 
ATOM     87  C   UNL     1      -5.017   0.475 -14.482  1.00  0.00     0.173 A 
ATOM     88  F   UNL     1      -1.432   0.755 -15.039  1.00  0.00    -0.203 F 
ATOM     89  C   UNL     1      -3.233   1.101 -16.517  1.00  0.00     0.198 A 
ATOM     90  C   UNL     1      -5.489   0.803 -15.749  1.00  0.00     0.198 A 
ATOM     91  F   UNL     1      -5.900   0.185 -13.515  1.00  0.00    -0.203 F 
ATOM     92  F   UNL     1      -2.372   1.431 -17.490  1.00  0.00    -0.200 F 
ATOM     93  C   UNL     1      -4.598   1.121 -16.763  1.00  0.00     0.200 A 
ATOM     94  F   UNL     1      -6.808   0.818 -15.988  1.00  0.00    -0.200 F 
ATOM     95  F   UNL     1      -5.055   1.456 -17.977  1.00  0.00    -0.200 F 
ENDBRANCH  62  85
ENDBRANCH  36  37
ENDBRANCH  29  31
ENDBRANCH  28  29
ENDBRANCH  27  28
ENDBRANCH  26  27
ENDBRANCH   1  26
TORSDOF 14
