REMARK SMILES C[C@H]1C[NH+](CC[C@@H]2CCC[C@]2([NH3+])C(=O)OCCOC(=O)c2ccc(-c3c4nc(c(-c5c(F)c(F)c(F)c(F)c5F)c5ccc([nH]5)c(-c5c(F)c(F)c(F)c(F)c5F)c5nc(c(-c6c(F)c(F)c(F)c(F)c6F)c6ccc3[nH]6)C=C5)C=C4)cc2)C[C@H](C)O1
REMARK SMILES IDX 16 1 15 2 13 3 14 4 11 5 7 6 8 7 9 8 10 9 6 10 5 11 4 12
REMARK SMILES IDX 1 13 2 14 3 15 87 16 85 17 84 18 86 20 12 21 17 25 18 26
REMARK SMILES IDX 19 27 20 28 21 29 22 30 83 31 23 32 82 33 24 34 25 35 26 36
REMARK SMILES IDX 76 37 27 38 81 39 75 40 77 41 28 42 80 43 74 44 73 45 29 47
REMARK SMILES IDX 61 48 41 49 60 50 42 51 45 52 59 53 78 54 43 55 44 56 58 58
REMARK SMILES IDX 79 59 46 60 30 61 31 62 39 63 32 64 33 65 37 66 40 67 34 68
REMARK SMILES IDX 35 69 38 70 36 71 62 72 63 73 71 74 64 75 65 76 69 77 72 78
REMARK SMILES IDX 66 79 67 80 70 81 68 82 47 83 48 84 56 85 49 86 50 87 54 88
REMARK SMILES IDX 57 89 51 90 52 91 55 92 53 93
REMARK H PARENT 4 19 12 22 12 23 12 24 77 46 45 57
REMARK Flexibility Score: inf
ROOT
ATOM      1  C   UNL     1       3.346  -0.408  -0.032  1.00  0.00     0.274 C 
ENDROOT
BRANCH   1   2
ATOM      2  O   UNL     1       2.749  -0.426  -1.368  1.00  0.00    -0.457 OA
BRANCH   2   3
ATOM      3  C   UNL     1       1.596   0.379  -1.774  1.00  0.00     0.368 C 
ATOM      4  O   UNL     1       1.064   0.617  -0.665  1.00  0.00    -0.245 OA
BRANCH   3   5
ATOM      5  C   UNL     1       1.126   1.014  -3.784  1.00  0.00     0.195 C 
ATOM      6  C   UNL     1       2.021   0.801  -5.355  1.00  0.00     0.068 C 
ATOM      7  C   UNL     1       2.769   2.106  -5.731  1.00  0.00     0.011 C 
ATOM      8  C   UNL     1       2.029   3.249  -5.061  1.00  0.00     0.008 C 
ATOM      9  C   UNL     1       0.786   2.611  -4.436  1.00  0.00     0.081 C 
BRANCH   6  10
ATOM     10  C   UNL     1       2.904  -0.422  -5.616  1.00  0.00     0.072 C 
BRANCH  10  11
ATOM     11  C   UNL     1       3.727  -0.638  -4.397  1.00  0.00     0.262 C 
BRANCH  11  12
ATOM     12  N   UNL     1       2.816  -0.213  -3.389  1.00  0.00    -0.331 N 
ATOM     13  C   UNL     1      -1.706  -0.811  -2.594  1.00  0.00     0.045 C 
ATOM     14  C   UNL     1      -0.267  -0.333  -2.296  1.00  0.00     0.170 C 
ATOM     15  C   UNL     1       1.232  -1.141  -3.220  1.00  0.00     0.294 C 
ATOM     16  O   UNL     1      -0.191   1.496  -2.154  1.00  0.00    -0.364 OA
ATOM     17  C   UNL     1       1.390   2.407  -1.984  1.00  0.00     0.170 C 
ATOM     18  C   UNL     1       2.958   1.516  -2.770  1.00  0.00     0.294 C 
ATOM     19  H   UNL     1       3.239  -0.621  -2.555  1.00  0.00     0.348 HD
ATOM     20  C   UNL     1       1.391   3.028  -0.542  1.00  0.00     0.045 C 
ENDBRANCH  11  12
ENDBRANCH  10  11
ENDBRANCH   6  10
BRANCH   5  21
ATOM     21  N   UNL     1      -0.280   0.516  -4.390  1.00  0.00    -0.343 N 
ATOM     22  H   UNL     1      -0.388   0.877  -5.338  1.00  0.00     0.345 HD
ATOM     23  H   UNL     1      -1.042   0.858  -3.806  1.00  0.00     0.345 HD
ATOM     24  H   UNL     1      -0.299  -0.504  -4.411  1.00  0.00     0.345 HD
ENDBRANCH   5  21
ENDBRANCH   3   5
ENDBRANCH   2   3
ENDBRANCH   1   2
BRANCH   1  25
ATOM     25  C   UNL     1       4.738   0.276  -0.065  1.00  0.00     0.275 C 
BRANCH  25  26
ATOM     26  O   UNL     1       4.630   1.730  -0.069  1.00  0.00    -0.458 OA
BRANCH  26  27
ATOM     27  C   UNL     1       5.757   2.414  -0.427  1.00  0.00     0.338 C 
ATOM     28  O   UNL     1       6.871   1.938  -0.565  1.00  0.00    -0.246 OA
BRANCH  27  29
ATOM     29  C   UNL     1       5.457   3.852  -0.717  1.00  0.00     0.060 A 
ATOM     30  C   UNL     1       4.332   4.199  -1.461  1.00  0.00     0.016 A 
ATOM     31  C   UNL     1       6.333   4.876  -0.372  1.00  0.00     0.016 A 
ATOM     32  C   UNL     1       4.028   5.501  -1.837  1.00  0.00     0.010 A 
ATOM     33  C   UNL     1       6.020   6.211  -0.707  1.00  0.00     0.010 A 
ATOM     34  C   UNL     1       4.854   6.535  -1.432  1.00  0.00    -0.014 A 
BRANCH  34  35
ATOM     35  C   UNL     1       4.538   7.927  -1.844  1.00  0.00     0.031 A 
ATOM     36  C   UNL     1       5.488   8.643  -2.752  1.00  0.00     0.074 A 
ATOM     37  C   UNL     1       3.396   8.539  -1.471  1.00  0.00     0.049 A 
ATOM     38  N   UNL     1       5.613   9.922  -2.984  1.00  0.00    -0.248 NA
ATOM     39  C   UNL     1       6.423   7.794  -3.506  1.00  0.00     0.031 C 
ATOM     40  C   UNL     1       2.286   7.916  -0.747  1.00  0.00     0.029 A 
ATOM     41  N   UNL     1       2.986   9.840  -1.646  1.00  0.00    -0.354 N 
ATOM     42  C   UNL     1       6.693  10.040  -3.846  1.00  0.00     0.074 A 
ATOM     43  C   UNL     1       7.164   8.700  -4.127  1.00  0.00     0.031 C 
ATOM     44  C   UNL     1       1.331   8.836  -0.530  1.00  0.00     0.029 A 
ATOM     45  C   UNL     1       1.809  10.132  -0.997  1.00  0.00     0.049 A 
ATOM     46  H   UNL     1       3.485  10.497  -2.182  1.00  0.00     0.167 HD
ATOM     47  C   UNL     1       7.250  11.175  -4.330  1.00  0.00     0.037 A 
ATOM     48  C   UNL     1       1.229  11.320  -0.732  1.00  0.00     0.037 A 
ATOM     49  C   UNL     1       6.734  12.493  -4.069  1.00  0.00     0.049 A 
ATOM     50  C   UNL     1       1.925  12.581  -1.173  1.00  0.00     0.074 A 
ATOM     51  C   UNL     1       7.238  13.717  -4.471  1.00  0.00     0.029 A 
ATOM     52  N   UNL     1       5.579  12.755  -3.345  1.00  0.00    -0.354 N 
ATOM     53  N   UNL     1       3.029  12.719  -1.869  1.00  0.00    -0.248 NA
ATOM     54  C   UNL     1       1.315  13.854  -0.763  1.00  0.00     0.031 C 
ATOM     55  C   UNL     1       6.412  14.721  -3.953  1.00  0.00     0.029 A 
ATOM     56  C   UNL     1       5.363  14.121  -3.274  1.00  0.00     0.049 A 
ATOM     57  H   UNL     1       4.999  12.070  -2.941  1.00  0.00     0.167 HD
ATOM     58  C   UNL     1       3.236  14.086  -1.993  1.00  0.00     0.074 A 
ATOM     59  C   UNL     1       2.132  14.737  -1.318  1.00  0.00     0.031 C 
ATOM     60  C   UNL     1       4.251  14.746  -2.603  1.00  0.00     0.037 A 
BRANCH  47  61
ATOM     61  C   UNL     1       8.525  11.040  -5.108  1.00  0.00     0.064 A 
ATOM     62  C   UNL     1       8.563  10.507  -6.403  1.00  0.00     0.173 A 
ATOM     63  C   UNL     1       9.736  11.457  -4.533  1.00  0.00     0.173 A 
ATOM     64  F   UNL     1       7.438  10.071  -6.988  1.00  0.00    -0.203 F 
ATOM     65  C   UNL     1       9.772  10.370  -7.084  1.00  0.00     0.198 A 
ATOM     66  C   UNL     1      10.937  11.347  -5.227  1.00  0.00     0.198 A 
ATOM     67  F   UNL     1       9.755  11.971  -3.294  1.00  0.00    -0.203 F 
ATOM     68  F   UNL     1       9.793   9.806  -8.300  1.00  0.00    -0.200 F 
ATOM     69  C   UNL     1      10.956  10.795  -6.498  1.00  0.00     0.200 A 
ATOM     70  F   UNL     1      12.077  11.767  -4.662  1.00  0.00    -0.200 F 
ATOM     71  F   UNL     1      12.116  10.663  -7.155  1.00  0.00    -0.200 F 
ENDBRANCH  47  61
BRANCH  48  72
ATOM     72  C   UNL     1      -0.020  11.385   0.078  1.00  0.00     0.064 A 
ATOM     73  C   UNL     1      -1.214  11.875  -0.468  1.00  0.00     0.173 A 
ATOM     74  C   UNL     1      -0.038  10.990   1.426  1.00  0.00     0.173 A 
ATOM     75  F   UNL     1      -1.243  12.301  -1.739  1.00  0.00    -0.203 F 
ATOM     76  C   UNL     1      -2.371  11.978   0.303  1.00  0.00     0.198 A 
ATOM     77  C   UNL     1      -1.204  11.060   2.186  1.00  0.00     0.198 A 
ATOM     78  F   UNL     1       1.079  10.527   2.006  1.00  0.00    -0.203 F 
ATOM     79  F   UNL     1      -3.484  12.500  -0.230  1.00  0.00    -0.200 F 
ATOM     80  C   UNL     1      -2.368  11.563   1.627  1.00  0.00     0.200 A 
ATOM     81  F   UNL     1      -1.196  10.647   3.460  1.00  0.00    -0.200 F 
ATOM     82  F   UNL     1      -3.481  11.659   2.365  1.00  0.00    -0.200 F 
ENDBRANCH  48  72
BRANCH  60  83
ATOM     83  C   UNL     1       4.192  16.245  -2.605  1.00  0.00     0.064 A 
ATOM     84  C   UNL     1       4.437  16.994  -1.445  1.00  0.00     0.173 A 
ATOM     85  C   UNL     1       3.927  16.942  -3.794  1.00  0.00     0.173 A 
ATOM     86  F   UNL     1       4.678  16.374  -0.280  1.00  0.00    -0.203 F 
ATOM     87  C   UNL     1       4.396  18.385  -1.470  1.00  0.00     0.198 A 
ATOM     88  C   UNL     1       3.917  18.333  -3.822  1.00  0.00     0.198 A 
ATOM     89  F   UNL     1       3.692  16.271  -4.932  1.00  0.00    -0.203 F 
ATOM     90  F   UNL     1       4.586  19.080  -0.340  1.00  0.00    -0.200 F 
ATOM     91  C   UNL     1       4.144  19.053  -2.660  1.00  0.00     0.200 A 
ATOM     92  F   UNL     1       3.687  18.976  -4.975  1.00  0.00    -0.200 F 
ATOM     93  F   UNL     1       4.113  20.393  -2.684  1.00  0.00    -0.200 F 
ENDBRANCH  60  83
ENDBRANCH  34  35
ENDBRANCH  27  29
ENDBRANCH  26  27
ENDBRANCH  25  26
ENDBRANCH   1  25
TORSDOF 15
