REMARK SMILES CCOc1cc(/C=N/O)cc(Cl)c1OCc1ccc(C(=O)OCCOC(=O)c2ccc(-c3c4nc(c(-c5c(F)c(F)c(F)c(F)c5F)c5ccc([nH]5)c(-c5c(F)c(F)c(F)c(F)c5F)c5nc(c(-c6c(F)c(F)c(F)c(F)c6F)c6ccc3[nH]6)C=C5)C=C4)cc2)cc1
REMARK SMILES IDX 22 1 20 2 21 3 19 4 16 5 17 6 92 7 18 8 91 9 15 10 14 11
REMARK SMILES IDX 13 12 4 13 5 14 6 15 11 16 10 17 12 18 3 19 2 20 1 21 7 22
REMARK SMILES IDX 8 23 9 24 23 26 24 27 25 28 26 29 27 30 28 31 29 32 90 33
REMARK SMILES IDX 30 34 89 35 31 36 32 37 33 38 83 39 34 40 88 41 82 42 84 43
REMARK SMILES IDX 35 44 87 45 81 46 80 47 36 49 68 50 48 51 67 52 49 53 52 54
REMARK SMILES IDX 66 55 85 56 50 57 51 58 65 60 86 61 53 62 37 63 38 64 46 65
REMARK SMILES IDX 39 66 40 67 44 68 47 69 41 70 42 71 45 72 43 73 69 74 70 75
REMARK SMILES IDX 78 76 71 77 72 78 76 79 79 80 73 81 74 82 77 83 75 84 54 85
REMARK SMILES IDX 55 86 63 87 56 88 57 89 61 90 64 91 58 92 59 93 62 94 60 95
REMARK H PARENT 9 25 84 48 52 59
REMARK Flexibility Score: inf
ROOT
ATOM      1  O   UNL     1       6.466  -4.207  -5.724  1.00  0.00    -0.458 OA
ENDROOT
BRANCH   1   2
ATOM      2  C   UNL     1       5.618  -5.264  -5.766  1.00  0.00     0.338 C 
ATOM      3  O   UNL     1       5.574  -6.138  -6.616  1.00  0.00    -0.246 OA
BRANCH   2   4
ATOM      4  C   UNL     1       4.774  -5.296  -4.551  1.00  0.00     0.060 A 
ATOM      5  C   UNL     1       3.139  -5.470  -2.269  1.00  0.00    -0.011 A 
ATOM      6  C   UNL     1       3.796  -6.604  -2.764  1.00  0.00     0.008 A 
ATOM      7  C   UNL     1       3.275  -4.257  -2.964  1.00  0.00     0.008 A 
ATOM      8  C   UNL     1       4.588  -6.521  -3.905  1.00  0.00     0.016 A 
ATOM      9  C   UNL     1       4.113  -4.160  -4.083  1.00  0.00     0.016 A 
BRANCH   5  10
ATOM     10  C   UNL     1       2.272  -5.640  -1.035  1.00  0.00     0.265 C 
BRANCH  10  11
ATOM     11  O   UNL     1       2.002  -4.494  -0.232  1.00  0.00    -0.483 OA
BRANCH  11  12
ATOM     12  C   UNL     1       2.990  -3.651   0.193  1.00  0.00     0.180 A 
ATOM     13  C   UNL     1       2.539  -2.332   0.402  1.00  0.00     0.163 A 
ATOM     14  C   UNL     1       3.416  -1.310   0.758  1.00  0.00     0.060 A 
ATOM     15  C   UNL     1       4.772  -1.587   0.889  1.00  0.00     0.001 A 
ATOM     16  C   UNL     1       4.345  -3.931   0.428  1.00  0.00     0.087 A 
ATOM     17  C   UNL     1       5.237  -2.893   0.744  1.00  0.00     0.034 A 
ATOM     18  Cl  UNL     1       5.025  -5.521   0.464  1.00  0.00    -0.080 Cl
BRANCH  13  19
ATOM     19  O   UNL     1       1.191  -2.071   0.374  1.00  0.00    -0.490 OA
BRANCH  19  20
ATOM     20  C   UNL     1       0.780  -1.316  -0.769  1.00  0.00     0.226 C 
ATOM     21  C   UNL     1       0.523   0.131  -0.382  1.00  0.00     0.049 C 
ENDBRANCH  19  20
ENDBRANCH  13  19
BRANCH  15  22
ATOM     22  C   UNL     1       5.723  -0.510   1.217  1.00  0.00     0.162 C 
ATOM     23  N   UNL     1       5.335   0.715   1.374  1.00  0.00    -0.097 NA
BRANCH  23  24
ATOM     24  O   UNL     1       6.445   1.511   1.673  1.00  0.00    -0.411 OA
ATOM     25  H   UNL     1       6.337   2.430   1.818  1.00  0.00     0.330 HD
ENDBRANCH  23  24
ENDBRANCH  15  22
ENDBRANCH  11  12
ENDBRANCH  10  11
ENDBRANCH   5  10
ENDBRANCH   2   4
ENDBRANCH   1   2
BRANCH   1  26
ATOM     26  C   UNL     1       7.415  -4.130  -6.811  1.00  0.00     0.275 C 
BRANCH  26  27
ATOM     27  C   UNL     1       8.757  -4.750  -6.417  1.00  0.00     0.275 C 
BRANCH  27  28
ATOM     28  O   UNL     1       8.587  -6.159  -6.192  1.00  0.00    -0.458 OA
BRANCH  28  29
ATOM     29  C   UNL     1       9.350  -6.696  -5.212  1.00  0.00     0.338 C 
ATOM     30  O   UNL     1      10.211  -6.134  -4.558  1.00  0.00    -0.246 OA
BRANCH  29  31
ATOM     31  C   UNL     1       8.982  -8.114  -5.008  1.00  0.00     0.060 A 
ATOM     32  C   UNL     1       7.642  -8.495  -4.975  1.00  0.00     0.016 A 
ATOM     33  C   UNL     1       9.971  -9.056  -4.728  1.00  0.00     0.016 A 
ATOM     34  C   UNL     1       7.281  -9.775  -4.551  1.00  0.00     0.010 A 
ATOM     35  C   UNL     1       9.611 -10.372  -4.409  1.00  0.00     0.010 A 
ATOM     36  C   UNL     1       8.259 -10.738  -4.263  1.00  0.00    -0.014 A 
BRANCH  36  37
ATOM     37  C   UNL     1       7.880 -12.088  -3.744  1.00  0.00     0.031 A 
ATOM     38  C   UNL     1       8.438 -12.579  -2.429  1.00  0.00     0.074 A 
ATOM     39  C   UNL     1       7.018 -12.879  -4.416  1.00  0.00     0.049 A 
ATOM     40  N   UNL     1       8.385 -13.776  -1.897  1.00  0.00    -0.248 NA
ATOM     41  C   UNL     1       9.171 -11.599  -1.613  1.00  0.00     0.031 C 
ATOM     42  C   UNL     1       6.359 -12.541  -5.677  1.00  0.00     0.029 A 
ATOM     43  N   UNL     1       6.535 -14.132  -4.119  1.00  0.00    -0.354 N 
ATOM     44  C   UNL     1       9.142 -13.710  -0.733  1.00  0.00     0.074 A 
ATOM     45  C   UNL     1       9.636 -12.354  -0.629  1.00  0.00     0.031 C 
ATOM     46  C   UNL     1       5.518 -13.529  -6.015  1.00  0.00     0.029 A 
ATOM     47  C   UNL     1       5.641 -14.613  -5.045  1.00  0.00     0.049 A 
ATOM     48  H   UNL     1       6.805 -14.638  -3.319  1.00  0.00     0.167 HD
ATOM     49  C   UNL     1       9.403 -14.690   0.166  1.00  0.00     0.037 A 
ATOM     50  C   UNL     1       5.013 -15.802  -5.129  1.00  0.00     0.037 A 
ATOM     51  C   UNL     1       8.843 -16.015   0.118  1.00  0.00     0.049 A 
ATOM     52  C   UNL     1       5.294 -16.864  -4.103  1.00  0.00     0.074 A 
ATOM     53  C   UNL     1       9.038 -17.069   0.996  1.00  0.00     0.029 A 
ATOM     54  N   UNL     1       7.949 -16.459  -0.844  1.00  0.00    -0.354 N 
ATOM     55  N   UNL     1       6.079 -16.815  -3.056  1.00  0.00    -0.248 NA
ATOM     56  C   UNL     1       4.618 -18.157  -4.288  1.00  0.00     0.031 C 
ATOM     57  C   UNL     1       8.276 -18.157   0.553  1.00  0.00     0.029 A 
ATOM     58  C   UNL     1       7.582 -17.769  -0.581  1.00  0.00     0.049 A 
ATOM     59  H   UNL     1       7.623 -15.922  -1.602  1.00  0.00     0.167 HD
ATOM     60  C   UNL     1       5.996 -18.065  -2.460  1.00  0.00     0.074 A 
ATOM     61  C   UNL     1       5.059 -18.843  -3.243  1.00  0.00     0.031 C 
ATOM     62  C   UNL     1       6.651 -18.532  -1.369  1.00  0.00     0.037 A 
BRANCH  49  63
ATOM     63  C   UNL     1      10.369 -14.377   1.272  1.00  0.00     0.064 A 
ATOM     64  C   UNL     1      10.018 -13.565   2.359  1.00  0.00     0.173 A 
ATOM     65  C   UNL     1      11.657 -14.935   1.256  1.00  0.00     0.173 A 
ATOM     66  F   UNL     1       8.804 -12.998   2.414  1.00  0.00    -0.203 F 
ATOM     67  C   UNL     1      10.930 -13.304   3.379  1.00  0.00     0.198 A 
ATOM     68  C   UNL     1      12.557 -14.692   2.290  1.00  0.00     0.198 A 
ATOM     69  F   UNL     1      12.040 -15.724   0.241  1.00  0.00    -0.203 F 
ATOM     70  F   UNL     1      10.589 -12.491   4.389  1.00  0.00    -0.200 F 
ATOM     71  C   UNL     1      12.195 -13.872   3.347  1.00  0.00     0.200 A 
ATOM     72  F   UNL     1      13.775 -15.252   2.262  1.00  0.00    -0.200 F 
ATOM     73  F   UNL     1      13.069 -13.624   4.333  1.00  0.00    -0.200 F 
ENDBRANCH  49  63
BRANCH  50  74
ATOM     74  C   UNL     1       4.074 -16.063  -6.250  1.00  0.00     0.064 A 
ATOM     75  C   UNL     1       2.695 -16.167  -6.023  1.00  0.00     0.173 A 
ATOM     76  C   UNL     1       4.533 -16.206  -7.568  1.00  0.00     0.173 A 
ATOM     77  F   UNL     1       2.212 -16.068  -4.776  1.00  0.00    -0.203 F 
ATOM     78  C   UNL     1       1.810 -16.408  -7.072  1.00  0.00     0.198 A 
ATOM     79  C   UNL     1       3.645 -16.418  -8.620  1.00  0.00     0.198 A 
ATOM     80  F   UNL     1       5.844 -16.119  -7.835  1.00  0.00    -0.203 F 
ATOM     81  F   UNL     1       0.500 -16.538  -6.824  1.00  0.00    -0.200 F 
ATOM     82  C   UNL     1       2.285 -16.523  -8.370  1.00  0.00     0.200 A 
ATOM     83  F   UNL     1       4.106 -16.517  -9.873  1.00  0.00    -0.200 F 
ATOM     84  F   UNL     1       1.432 -16.744  -9.380  1.00  0.00    -0.200 F 
ENDBRANCH  50  74
BRANCH  62  85
ATOM     85  C   UNL     1       6.364 -19.943  -0.954  1.00  0.00     0.064 A 
ATOM     86  C   UNL     1       6.887 -21.033  -1.664  1.00  0.00     0.173 A 
ATOM     87  C   UNL     1       5.573 -20.208   0.174  1.00  0.00     0.173 A 
ATOM     88  F   UNL     1       7.635 -20.828  -2.759  1.00  0.00    -0.203 F 
ATOM     89  C   UNL     1       6.608 -22.340  -1.275  1.00  0.00     0.198 A 
ATOM     90  C   UNL     1       5.313 -21.516   0.573  1.00  0.00     0.198 A 
ATOM     91  F   UNL     1       5.052 -19.198   0.887  1.00  0.00    -0.203 F 
ATOM     92  F   UNL     1       7.082 -23.367  -1.993  1.00  0.00    -0.200 F 
ATOM     93  C   UNL     1       5.825 -22.580  -0.155  1.00  0.00     0.200 A 
ATOM     94  F   UNL     1       4.561 -21.748   1.658  1.00  0.00    -0.200 F 
ATOM     95  F   UNL     1       5.555 -23.839   0.216  1.00  0.00    -0.200 F 
ENDBRANCH  62  85
ENDBRANCH  36  37
ENDBRANCH  29  31
ENDBRANCH  28  29
ENDBRANCH  27  28
ENDBRANCH  26  27
ENDBRANCH   1  26
TORSDOF 18
