REMARK SMILES CC(=O)OCC1=C(C(=O)OCCOC(=O)c2ccc(-c3c4nc(c(-c5c(F)c(F)c(F)c(F)c5F)c5ccc([nH]5)c(-c5c(F)c(F)c(F)c(F)c5F)c5nc(c(-c6c(F)c(F)c(F)c(F)c6F)c6ccc3[nH]6)C=C5)C=C4)cc2)N2C(=O)[C@H](NC(=O)C3CCCCC3)[C@@H]2SC1
REMARK SMILES IDX 11 1 10 2 8 3 9 4 7 5 6 6 94 7 79 8 93 9 80 10 92 11 81 12
REMARK SMILES IDX 82 13 5 14 4 15 2 16 1 17 3 18 83 19 84 20 85 22 86 23 87 24
REMARK SMILES IDX 91 25 88 26 90 27 89 28 12 29 13 30 14 31 15 32 16 33 17 34
REMARK SMILES IDX 78 35 18 36 77 37 19 38 20 39 21 40 71 41 22 42 76 43 70 44
REMARK SMILES IDX 72 45 23 46 75 47 69 48 68 49 24 51 56 52 36 53 55 54 37 55
REMARK SMILES IDX 40 56 54 57 73 58 38 59 39 60 53 62 74 63 41 64 25 65 26 66
REMARK SMILES IDX 34 67 27 68 28 69 32 70 35 71 29 72 30 73 33 74 31 75 57 76
REMARK SMILES IDX 58 77 66 78 59 79 60 80 64 81 67 82 61 83 62 84 65 85 63 86
REMARK SMILES IDX 42 87 43 88 51 89 44 90 45 91 49 92 52 93 46 94 47 95 50 96
REMARK SMILES IDX 48 97
REMARK H PARENT 83 21 72 50 40 61
REMARK Flexibility Score: inf
ROOT
ATOM      1  C   UNL     1      -1.127   3.608   5.978  1.00  0.00     0.275 C 
ENDROOT
BRANCH   1   2
ATOM      2  O   UNL     1      -0.435   3.566   4.708  1.00  0.00    -0.457 OA
BRANCH   2   3
ATOM      3  C   UNL     1      -0.910   4.366   3.713  1.00  0.00     0.355 C 
ATOM      4  O   UNL     1      -1.863   5.117   3.834  1.00  0.00    -0.244 OA
BRANCH   3   5
ATOM      5  C   UNL     1       0.033   4.358   2.523  1.00  0.00     0.134 C 
ATOM      6  C   UNL     1       0.754   3.273   2.126  1.00  0.00     0.008 C 
ATOM      7  C   UNL     1       1.792   3.327   1.006  1.00  0.00     0.108 C 
ATOM      8  N   UNL     1       0.182   5.534   1.845  1.00  0.00    -0.289 N 
ATOM      9  S   UNL     1       1.540   4.672  -0.201  1.00  0.00    -0.129 SA
ATOM     10  C   UNL     1      -0.513   6.664   1.590  1.00  0.00     0.253 C 
ATOM     11  C   UNL     1       1.374   5.891   1.105  1.00  0.00     0.181 C 
ATOM     12  O   UNL     1      -1.608   7.076   1.878  1.00  0.00    -0.272 OA
ATOM     13  C   UNL     1       0.696   7.249   0.819  1.00  0.00     0.205 C 
BRANCH   6  14
ATOM     14  C   UNL     1       0.538   1.897   2.742  1.00  0.00     0.267 C 
BRANCH  14  15
ATOM     15  O   UNL     1       0.961   0.834   1.873  1.00  0.00    -0.461 OA
BRANCH  15  16
ATOM     16  C   UNL     1       0.112   0.519   0.855  1.00  0.00     0.302 C 
ATOM     17  C   UNL     1       0.762  -0.476  -0.058  1.00  0.00     0.139 C 
ATOM     18  O   UNL     1      -0.999   0.998   0.684  1.00  0.00    -0.253 OA
ENDBRANCH  15  16
ENDBRANCH  14  15
ENDBRANCH   6  14
BRANCH  13  19
ATOM     19  N   UNL     1       0.462   7.698  -0.560  1.00  0.00    -0.342 N 
ATOM     20  C   UNL     1       0.888   8.794  -1.244  1.00  0.00     0.223 C 
ATOM     21  H   UNL     1      -0.108   7.093  -1.087  1.00  0.00     0.164 HD
ATOM     22  O   UNL     1       0.347   8.979  -2.342  1.00  0.00    -0.275 OA
BRANCH  20  23
ATOM     23  C   UNL     1       1.969   9.787  -0.773  1.00  0.00     0.078 C 
ATOM     24  C   UNL     1       1.373  11.206  -0.679  1.00  0.00     0.013 C 
ATOM     25  C   UNL     1       2.805   9.486   0.469  1.00  0.00     0.013 C 
ATOM     26  C   UNL     1       2.438  12.267  -0.381  1.00  0.00     0.001 C 
ATOM     27  C   UNL     1       3.898  10.527   0.700  1.00  0.00     0.001 C 
ATOM     28  C   UNL     1       3.277  11.913   0.841  1.00  0.00     0.000 C 
ENDBRANCH  20  23
ENDBRANCH  13  19
ENDBRANCH   3   5
ENDBRANCH   2   3
ENDBRANCH   1   2
BRANCH   1  29
ATOM     29  C   UNL     1      -0.211   4.126   7.092  1.00  0.00     0.275 C 
BRANCH  29  30
ATOM     30  O   UNL     1       0.041   5.537   6.955  1.00  0.00    -0.458 OA
BRANCH  30  31
ATOM     31  C   UNL     1       1.137   5.854   6.234  1.00  0.00     0.338 C 
ATOM     32  O   UNL     1       1.946   5.094   5.727  1.00  0.00    -0.246 OA
BRANCH  31  33
ATOM     33  C   UNL     1       1.133   7.295   5.949  1.00  0.00     0.060 A 
ATOM     34  C   UNL     1       0.813   7.659   4.646  1.00  0.00     0.016 A 
ATOM     35  C   UNL     1       1.519   8.262   6.872  1.00  0.00     0.016 A 
ATOM     36  C   UNL     1       0.926   8.977   4.231  1.00  0.00     0.010 A 
ATOM     37  C   UNL     1       1.601   9.602   6.461  1.00  0.00     0.010 A 
ATOM     38  C   UNL     1       1.333   9.967   5.127  1.00  0.00    -0.014 A 
BRANCH  38  39
ATOM     39  C   UNL     1       1.545  11.355   4.636  1.00  0.00     0.031 A 
ATOM     40  C   UNL     1       2.928  11.948   4.662  1.00  0.00     0.074 A 
ATOM     41  C   UNL     1       0.532  12.064   4.100  1.00  0.00     0.049 A 
ATOM     42  N   UNL     1       3.312  13.178   4.431  1.00  0.00    -0.248 NA
ATOM     43  C   UNL     1       4.029  11.025   4.976  1.00  0.00     0.031 C 
ATOM     44  C   UNL     1      -0.832  11.575   3.892  1.00  0.00     0.029 A 
ATOM     45  N   UNL     1       0.496  13.355   3.627  1.00  0.00    -0.354 N 
ATOM     46  C   UNL     1       4.689  13.186   4.615  1.00  0.00     0.074 A 
ATOM     47  C   UNL     1       5.073  11.840   4.982  1.00  0.00     0.031 C 
ATOM     48  C   UNL     1      -1.569  12.549   3.338  1.00  0.00     0.029 A 
ATOM     49  C   UNL     1      -0.758  13.757   3.234  1.00  0.00     0.049 A 
ATOM     50  H   UNL     1       1.291  13.934   3.576  1.00  0.00     0.167 HD
ATOM     51  C   UNL     1       5.549  14.225   4.493  1.00  0.00     0.037 A 
ATOM     52  C   UNL     1      -1.217  14.976   2.889  1.00  0.00     0.037 A 
ATOM     53  C   UNL     1       5.161  15.556   4.102  1.00  0.00     0.049 A 
ATOM     54  C   UNL     1      -0.266  16.143   2.884  1.00  0.00     0.074 A 
ATOM     55  C   UNL     1       5.955  16.682   3.967  1.00  0.00     0.029 A 
ATOM     56  N   UNL     1       3.867  15.940   3.782  1.00  0.00    -0.354 N 
ATOM     57  N   UNL     1       1.022  16.165   3.123  1.00  0.00    -0.248 NA
ATOM     58  C   UNL     1      -0.838  17.461   2.571  1.00  0.00     0.031 C 
ATOM     59  C   UNL     1       5.131  17.761   3.631  1.00  0.00     0.029 A 
ATOM     60  C   UNL     1       3.836  17.293   3.479  1.00  0.00     0.049 A 
ATOM     61  H   UNL     1       3.086  15.341   3.772  1.00  0.00     0.167 HD
ATOM     62  C   UNL     1       1.421  17.484   2.953  1.00  0.00     0.074 A 
ATOM     63  C   UNL     1       0.239  18.233   2.582  1.00  0.00     0.031 C 
ATOM     64  C   UNL     1       2.657  18.025   3.090  1.00  0.00     0.037 A 
BRANCH  51  65
ATOM     65  C   UNL     1       6.989  13.982   4.848  1.00  0.00     0.064 A 
ATOM     66  C   UNL     1       7.832  13.187   4.058  1.00  0.00     0.173 A 
ATOM     67  C   UNL     1       7.539  14.579   5.994  1.00  0.00     0.173 A 
ATOM     68  F   UNL     1       7.354  12.578   2.961  1.00  0.00    -0.203 F 
ATOM     69  C   UNL     1       9.161  12.973   4.419  1.00  0.00     0.198 A 
ATOM     70  C   UNL     1       8.876  14.393   6.332  1.00  0.00     0.198 A 
ATOM     71  F   UNL     1       6.779  15.353   6.784  1.00  0.00    -0.203 F 
ATOM     72  F   UNL     1       9.931  12.162   3.681  1.00  0.00    -0.200 F 
ATOM     73  C   UNL     1       9.683  13.582   5.550  1.00  0.00     0.200 A 
ATOM     74  F   UNL     1       9.381  14.994   7.418  1.00  0.00    -0.200 F 
ATOM     75  F   UNL     1      10.963  13.378   5.893  1.00  0.00    -0.200 F 
ENDBRANCH  51  65
BRANCH  52  76
ATOM     76  C   UNL     1      -2.662  15.171   2.584  1.00  0.00     0.064 A 
ATOM     77  C   UNL     1      -3.088  15.567   1.309  1.00  0.00     0.173 A 
ATOM     78  C   UNL     1      -3.643  15.001   3.573  1.00  0.00     0.173 A 
ATOM     79  F   UNL     1      -2.187  15.776   0.337  1.00  0.00    -0.203 F 
ATOM     80  C   UNL     1      -4.435  15.808   1.042  1.00  0.00     0.198 A 
ATOM     81  C   UNL     1      -4.993  15.205   3.295  1.00  0.00     0.198 A 
ATOM     82  F   UNL     1      -3.292  14.633   4.814  1.00  0.00    -0.203 F 
ATOM     83  F   UNL     1      -4.807  16.250  -0.167  1.00  0.00    -0.200 F 
ATOM     84  C   UNL     1      -5.387  15.620   2.033  1.00  0.00     0.200 A 
ATOM     85  F   UNL     1      -5.909  15.012   4.254  1.00  0.00    -0.200 F 
ATOM     86  F   UNL     1      -6.681  15.855   1.776  1.00  0.00    -0.200 F 
ENDBRANCH  52  76
BRANCH  64  87
ATOM     87  C   UNL     1       2.816  19.485   2.771  1.00  0.00     0.064 A 
ATOM     88  C   UNL     1       2.281  20.491   3.589  1.00  0.00     0.173 A 
ATOM     89  C   UNL     1       3.561  19.883   1.648  1.00  0.00     0.173 A 
ATOM     90  F   UNL     1       1.549  20.167   4.666  1.00  0.00    -0.203 F 
ATOM     91  C   UNL     1       2.461  21.837   3.281  1.00  0.00     0.198 A 
ATOM     92  C   UNL     1       3.771  21.229   1.364  1.00  0.00     0.198 A 
ATOM     93  F   UNL     1       4.103  18.963   0.836  1.00  0.00    -0.203 F 
ATOM     94  F   UNL     1       1.897  22.779   4.049  1.00  0.00    -0.200 F 
ATOM     95  C   UNL     1       3.214  22.205   2.176  1.00  0.00     0.200 A 
ATOM     96  F   UNL     1       4.516  21.581   0.307  1.00  0.00    -0.200 F 
ATOM     97  F   UNL     1       3.398  23.501   1.889  1.00  0.00    -0.200 F 
ENDBRANCH  64  87
ENDBRANCH  38  39
ENDBRANCH  31  33
ENDBRANCH  30  31
ENDBRANCH  29  30
ENDBRANCH   1  29
TORSDOF 16
