REMARK SMILES O=C(OCCOC(=O)c1ccc(S(=O)(=O)[O-])cc1N1C(=O)/C(=C\C=C\c2ccccc2)[NH+]=C1c1ccccc1)c1ccc(-c2c3nc(c(-c4c(F)c(F)c(F)c(F)c4F)c4ccc([nH]4)c(-c4c(F)c(F)c(F)c(F)c4F)c4nc(c(-c5c(F)c(F)c(F)c(F)c5F)c5ccc2[nH]5)C=C4)C=C3)cc1
REMARK SMILES IDX 5 1 4 2 3 3 2 4 1 5 40 6 41 7 102 8 42 9 101 10 43 11 44 12
REMARK SMILES IDX 45 13 95 14 46 15 100 16 94 17 96 18 47 19 99 20 93 21 92 22
REMARK SMILES IDX 48 24 80 25 60 26 79 27 61 28 64 29 78 30 97 31 62 32 63 33
REMARK SMILES IDX 77 35 98 36 65 37 49 38 50 39 58 40 51 41 52 42 56 43 59 44
REMARK SMILES IDX 53 45 54 46 57 47 55 48 81 49 82 50 90 51 83 52 84 53 88 54
REMARK SMILES IDX 91 55 85 56 86 57 89 58 87 59 66 60 67 61 75 62 68 63 69 64
REMARK SMILES IDX 73 65 76 66 70 67 71 68 74 69 72 70 6 71 7 72 8 73 9 74
REMARK SMILES IDX 10 75 18 76 11 77 17 78 12 79 19 80 20 81 33 82 21 83 22 84
REMARK SMILES IDX 32 85 23 86 34 88 35 89 39 90 36 91 38 92 37 93 24 94 25 95
REMARK SMILES IDX 26 96 27 97 31 98 28 99 30 100 29 101 13 102 14 103 15 104
REMARK SMILES IDX 16 105
REMARK H PARENT 96 23 64 34 32 87
REMARK Flexibility Score: inf
ROOT
ATOM      1  C   UNL     1       4.250   2.054   0.800  1.00  0.00     0.275 C 
ENDROOT
BRANCH   1   2
ATOM      2  C   UNL     1       4.207   1.537  -0.649  1.00  0.00     0.275 C 
BRANCH   2   3
ATOM      3  O   UNL     1       3.053   0.734  -0.924  1.00  0.00    -0.458 OA
BRANCH   3   4
ATOM      4  C   UNL     1       2.866  -0.586  -0.727  1.00  0.00     0.338 C 
ATOM      5  O   UNL     1       1.768  -1.061  -1.019  1.00  0.00    -0.246 OA
BRANCH   4   6
ATOM      6  C   UNL     1       3.872  -1.520  -0.108  1.00  0.00     0.060 A 
ATOM      7  C   UNL     1       5.118  -1.196   0.446  1.00  0.00     0.016 A 
ATOM      8  C   UNL     1       3.442  -2.850   0.018  1.00  0.00     0.016 A 
ATOM      9  C   UNL     1       5.833  -2.103   1.233  1.00  0.00     0.010 A 
ATOM     10  C   UNL     1       4.164  -3.770   0.770  1.00  0.00     0.010 A 
ATOM     11  C   UNL     1       5.316  -3.373   1.466  1.00  0.00    -0.014 A 
BRANCH  11  12
ATOM     12  C   UNL     1       5.944  -4.222   2.523  1.00  0.00     0.031 A 
ATOM     13  C   UNL     1       6.708  -5.393   2.021  1.00  0.00     0.074 A 
ATOM     14  C   UNL     1       5.777  -4.205   3.927  1.00  0.00     0.049 A 
ATOM     15  N   UNL     1       7.486  -6.199   2.680  1.00  0.00    -0.248 NA
ATOM     16  C   UNL     1       6.504  -5.760   0.609  1.00  0.00     0.031 C 
ATOM     17  C   UNL     1       4.396  -3.842   5.522  1.00  0.00     0.029 A 
ATOM     18  N   UNL     1       7.295  -3.299   4.581  1.00  0.00    -0.354 N 
ATOM     19  C   UNL     1       7.823  -7.186   1.776  1.00  0.00     0.074 A 
ATOM     20  C   UNL     1       7.112  -6.929   0.549  1.00  0.00     0.031 C 
ATOM     21  C   UNL     1       5.171  -2.894   6.705  1.00  0.00     0.029 A 
ATOM     22  C   UNL     1       7.019  -2.611   6.253  1.00  0.00     0.049 A 
ATOM     23  H   UNL     1       8.138  -3.206   4.081  1.00  0.00     0.167 HD
ATOM     24  C   UNL     1       8.685  -8.201   1.974  1.00  0.00     0.037 A 
ATOM     25  C   UNL     1       7.920  -2.799   7.301  1.00  0.00     0.037 A 
ATOM     26  C   UNL     1       9.345  -8.387   3.232  1.00  0.00     0.049 A 
ATOM     27  C   UNL     1       8.888  -4.046   7.298  1.00  0.00     0.074 A 
ATOM     28  C   UNL     1      10.145  -9.429   3.638  1.00  0.00     0.029 A 
ATOM     29  N   UNL     1       9.272  -7.475   4.292  1.00  0.00    -0.354 N 
ATOM     30  N   UNL     1       9.091  -4.996   6.398  1.00  0.00    -0.248 NA
ATOM     31  C   UNL     1       9.539  -4.341   8.588  1.00  0.00     0.031 C 
ATOM     32  C   UNL     1      10.536  -9.163   4.954  1.00  0.00     0.029 A 
ATOM     33  C   UNL     1      10.031  -7.925   5.353  1.00  0.00     0.049 A 
ATOM     34  H   UNL     1       8.756  -6.636   4.281  1.00  0.00     0.167 HD
ATOM     35  C   UNL     1       9.822  -6.016   7.031  1.00  0.00     0.074 A 
ATOM     36  C   UNL     1      10.062  -5.540   8.381  1.00  0.00     0.031 C 
ATOM     37  C   UNL     1      10.235  -7.254   6.624  1.00  0.00     0.037 A 
BRANCH  24  38
ATOM     38  C   UNL     1       8.888  -9.122   0.810  1.00  0.00     0.064 A 
ATOM     39  C   UNL     1       9.506  -8.664  -0.368  1.00  0.00     0.173 A 
ATOM     40  C   UNL     1       8.329 -10.407   0.797  1.00  0.00     0.173 A 
ATOM     41  F   UNL     1      10.008  -7.421  -0.425  1.00  0.00    -0.203 F 
ATOM     42  C   UNL     1       9.504  -9.434  -1.528  1.00  0.00     0.198 A 
ATOM     43  C   UNL     1       8.362 -11.190  -0.356  1.00  0.00     0.198 A 
ATOM     44  F   UNL     1       7.704 -10.884   1.884  1.00  0.00    -0.203 F 
ATOM     45  F   UNL     1      10.002  -8.929  -2.665  1.00  0.00    -0.200 F 
ATOM     46  C   UNL     1       8.933 -10.696  -1.521  1.00  0.00     0.200 A 
ATOM     47  F   UNL     1       7.801 -12.407  -0.353  1.00  0.00    -0.200 F 
ATOM     48  F   UNL     1       8.905 -11.426  -2.645  1.00  0.00    -0.200 F 
ENDBRANCH  24  38
BRANCH  25  49
ATOM     49  C   UNL     1       7.629  -2.199   8.654  1.00  0.00     0.064 A 
ATOM     50  C   UNL     1       8.536  -1.300   9.243  1.00  0.00     0.173 A 
ATOM     51  C   UNL     1       6.553  -2.598   9.462  1.00  0.00     0.173 A 
ATOM     52  F   UNL     1       9.697  -1.029   8.628  1.00  0.00    -0.203 F 
ATOM     53  C   UNL     1       8.315  -0.765  10.518  1.00  0.00     0.198 A 
ATOM     54  C   UNL     1       6.271  -1.984  10.682  1.00  0.00     0.198 A 
ATOM     55  F   UNL     1       5.800  -3.652   9.118  1.00  0.00    -0.203 F 
ATOM     56  F   UNL     1       9.250   0.005  11.093  1.00  0.00    -0.200 F 
ATOM     57  C   UNL     1       7.155  -1.066  11.213  1.00  0.00     0.200 A 
ATOM     58  F   UNL     1       5.161  -2.320  11.353  1.00  0.00    -0.200 F 
ATOM     59  F   UNL     1       6.919  -0.523  12.415  1.00  0.00    -0.200 F 
ENDBRANCH  25  49
BRANCH  37  60
ATOM     60  C   UNL     1      11.085  -8.044   7.598  1.00  0.00     0.064 A 
ATOM     61  C   UNL     1      10.536  -8.768   8.666  1.00  0.00     0.173 A 
ATOM     62  C   UNL     1      12.465  -8.167   7.361  1.00  0.00     0.173 A 
ATOM     63  F   UNL     1       9.223  -8.691   8.931  1.00  0.00    -0.203 F 
ATOM     64  C   UNL     1      11.343  -9.566   9.477  1.00  0.00     0.198 A 
ATOM     65  C   UNL     1      13.260  -8.992   8.150  1.00  0.00     0.198 A 
ATOM     66  F   UNL     1      13.029  -7.525   6.327  1.00  0.00    -0.203 F 
ATOM     67  F   UNL     1      10.808 -10.222  10.516  1.00  0.00    -0.200 F 
ATOM     68  C   UNL     1      12.701  -9.684   9.213  1.00  0.00     0.200 A 
ATOM     69  F   UNL     1      14.563  -9.131   7.869  1.00  0.00    -0.200 F 
ATOM     70  F   UNL     1      13.471 -10.466   9.982  1.00  0.00    -0.200 F 
ENDBRANCH  37  60
ENDBRANCH  11  12
ENDBRANCH   4   6
ENDBRANCH   3   4
ENDBRANCH   2   3
ENDBRANCH   1   2
BRANCH   1  71
ATOM     71  O   UNL     1       3.911   1.060   1.801  1.00  0.00    -0.458 OA
BRANCH  71  72
ATOM     72  C   UNL     1       2.624   1.108   2.232  1.00  0.00     0.342 C 
ATOM     73  O   UNL     1       1.771   1.870   1.797  1.00  0.00    -0.246 OA
BRANCH  72  74
ATOM     74  C   UNL     1       2.254   0.037   3.208  1.00  0.00     0.107 A 
ATOM     75  C   UNL     1       1.028  -0.591   2.892  1.00  0.00     0.021 A 
ATOM     76  C   UNL     1       2.979  -0.407   4.354  1.00  0.00     0.152 A 
ATOM     77  C   UNL     1       0.490  -1.579   3.713  1.00  0.00     0.020 A 
ATOM     78  C   UNL     1       2.338  -1.269   5.259  1.00  0.00     0.072 A 
ATOM     79  C   UNL     1       1.127  -1.879   4.914  1.00  0.00     0.059 A 
BRANCH  76  80
ATOM     80  N   UNL     1       4.363  -0.129   4.543  1.00  0.00    -0.153 N 
ATOM     81  C   UNL     1       4.726   1.183   4.601  1.00  0.00     0.385 C 
ATOM     82  C   UNL     1       5.515  -0.935   4.749  1.00  0.00     0.295 C 
ATOM     83  O   UNL     1       3.996   2.155   4.691  1.00  0.00    -0.236 OA
ATOM     84  C   UNL     1       6.207   1.120   4.648  1.00  0.00     0.215 C 
ATOM     85  N   UNL     1       6.612  -0.207   4.837  1.00  0.00    -0.233 N 
ATOM     86  C   UNL     1       6.963   2.223   4.459  1.00  0.00     0.060 C 
ATOM     87  H   UNL     1       7.527  -0.531   5.002  1.00  0.00     0.312 HD
BRANCH  82  88
ATOM     88  C   UNL     1       5.441  -2.604   4.734  1.00  0.00     0.065 A 
ATOM     89  C   UNL     1       6.102  -4.347   5.683  1.00  0.00     0.017 A 
ATOM     90  C   UNL     1       4.022  -2.930   3.684  1.00  0.00     0.017 A 
ATOM     91  C   UNL     1       5.343  -5.866   5.360  1.00  0.00     0.001 A 
ATOM     92  C   UNL     1       3.423  -4.536   3.554  1.00  0.00     0.001 A 
ATOM     93  C   UNL     1       4.077  -5.891   4.329  1.00  0.00     0.000 A 
ENDBRANCH  82  88
BRANCH  86  94
ATOM     94  C   UNL     1       6.428   3.545   4.109  1.00  0.00     0.005 C 
ATOM     95  C   UNL     1       7.043   4.739   4.170  1.00  0.00     0.008 C 
BRANCH  95  96
ATOM     96  C   UNL     1       6.319   5.999   3.863  1.00  0.00    -0.026 A 
ATOM     97  C   UNL     1       6.947   7.018   3.134  1.00  0.00     0.008 A 
ATOM     98  C   UNL     1       5.015   6.234   4.335  1.00  0.00     0.008 A 
ATOM     99  C   UNL     1       6.281   8.222   2.861  1.00  0.00     0.001 A 
ATOM    100  C   UNL     1       4.350   7.436   4.064  1.00  0.00     0.001 A 
ATOM    101  C   UNL     1       4.983   8.431   3.325  1.00  0.00     0.000 A 
ENDBRANCH  95  96
ENDBRANCH  86  94
ENDBRANCH  76  80
BRANCH  79 102
ATOM    102  S   UNL     1       0.455  -3.170   5.925  1.00  0.00     0.124 S 
ATOM    103  O   UNL     1      -0.830  -2.729   6.412  1.00  0.00    -0.237 OA
ATOM    104  O   UNL     1       0.612  -4.413   5.203  1.00  0.00    -0.237 OA
ATOM    105  O   UNL     1       1.432  -3.273   7.205  1.00  0.00    -0.744 OA
ENDBRANCH  79 102
ENDBRANCH  72  74
ENDBRANCH  71  72
ENDBRANCH   1  71
TORSDOF 16
