REMARK SMILES Cc1ccccc1[C@@H](CC(=O)OCCOC(=O)c1ccc(-c2c3nc(c(-c4c(F)c(F)c(F)c(F)c4F)c4ccc([nH]4)c(-c4c(F)c(F)c(F)c(F)c4F)c4nc(c(-c5c(F)c(F)c(F)c(F)c5F)c5ccc2[nH]5)C=C4)C=C3)cc1)NC(=O)C(F)(F)F
REMARK SMILES IDX 13 1 12 2 10 3 11 4 9 5 8 6 7 7 1 8 2 9 3 10 4 11 6 12 5 13
REMARK SMILES IDX 81 14 82 15 83 17 84 18 85 19 86 20 87 21 14 22 15 23 16 24
REMARK SMILES IDX 17 25 18 26 19 27 80 28 20 29 79 30 21 31 22 32 23 33 73 34
REMARK SMILES IDX 24 35 78 36 72 37 74 38 25 39 77 40 71 41 70 42 26 44 58 45
REMARK SMILES IDX 38 46 57 47 39 48 42 49 56 50 75 51 40 52 41 53 55 55 76 56
REMARK SMILES IDX 43 57 27 58 28 59 36 60 29 61 30 62 34 63 37 64 31 65 32 66
REMARK SMILES IDX 35 67 33 68 59 69 60 70 68 71 61 72 62 73 66 74 69 75 63 76
REMARK SMILES IDX 64 77 67 78 65 79 44 80 45 81 53 82 46 83 47 84 51 85 54 86
REMARK SMILES IDX 48 87 49 88 52 89 50 90
REMARK H PARENT 81 16 74 43 42 54
REMARK Flexibility Score: inf
ROOT
ATOM      1  C   UNL     1      -2.800   2.170   0.319  1.00  0.00     0.274 C 
ENDROOT
BRANCH   1   2
ATOM      2  O   UNL     1      -1.383   2.329   0.293  1.00  0.00    -0.462 OA
BRANCH   2   3
ATOM      3  C   UNL     1      -0.713   1.723  -0.726  1.00  0.00     0.308 C 
ATOM      4  O   UNL     1      -1.229   1.091  -1.619  1.00  0.00    -0.252 OA
BRANCH   3   5
ATOM      5  C   UNL     1       0.780   1.965  -0.568  1.00  0.00     0.152 C 
BRANCH   5   6
ATOM      6  C   UNL     1       1.276   1.584   0.843  1.00  0.00     0.124 C 
BRANCH   6   7
ATOM      7  C   UNL     1       0.738   0.180   1.148  1.00  0.00    -0.022 A 
ATOM      8  C   UNL     1       2.717  -0.957  -0.011  1.00  0.00     0.045 C 
ATOM      9  C   UNL     1       1.288  -0.926   0.461  1.00  0.00    -0.046 A 
ATOM     10  C   UNL     1       0.483  -2.052   0.231  1.00  0.00     0.004 A 
ATOM     11  C   UNL     1      -0.831  -2.100   0.692  1.00  0.00     0.000 A 
ATOM     12  C   UNL     1      -0.520   0.031   1.768  1.00  0.00     0.006 A 
ATOM     13  C   UNL     1      -1.317  -1.081   1.498  1.00  0.00     0.000 A 
ENDBRANCH   6   7
BRANCH   6  14
ATOM     14  N   UNL     1       0.926   2.607   1.827  1.00  0.00    -0.341 N 
ATOM     15  C   UNL     1       1.777   3.410   2.557  1.00  0.00     0.326 C 
ATOM     16  H   UNL     1      -0.036   2.739   1.989  1.00  0.00     0.164 HD
ATOM     17  O   UNL     1       1.274   4.189   3.372  1.00  0.00    -0.265 OA
BRANCH  15  18
ATOM     18  C   UNL     1       3.300   3.295   2.333  1.00  0.00     0.471 C 
ATOM     19  F   UNL     1       3.759   2.035   2.585  1.00  0.00    -0.162 F 
ATOM     20  F   UNL     1       3.642   3.564   1.038  1.00  0.00    -0.162 F 
ATOM     21  F   UNL     1       4.036   4.134   3.109  1.00  0.00    -0.162 F 
ENDBRANCH  15  18
ENDBRANCH   6  14
ENDBRANCH   5   6
ENDBRANCH   3   5
ENDBRANCH   2   3
ENDBRANCH   1   2
BRANCH   1  22
ATOM     22  C   UNL     1      -3.402   3.266   1.208  1.00  0.00     0.275 C 
BRANCH  22  23
ATOM     23  O   UNL     1      -2.616   4.487   1.459  1.00  0.00    -0.458 OA
BRANCH  23  24
ATOM     24  C   UNL     1      -1.677   5.121   0.701  1.00  0.00     0.338 C 
ATOM     25  O   UNL     1      -0.749   5.741   1.198  1.00  0.00    -0.246 OA
BRANCH  24  26
ATOM     26  C   UNL     1      -1.761   4.977  -0.763  1.00  0.00     0.060 A 
ATOM     27  C   UNL     1      -0.599   4.935  -1.562  1.00  0.00     0.016 A 
ATOM     28  C   UNL     1      -2.991   4.669  -1.298  1.00  0.00     0.016 A 
ATOM     29  C   UNL     1      -0.661   4.414  -2.861  1.00  0.00     0.010 A 
ATOM     30  C   UNL     1      -2.999   3.933  -2.449  1.00  0.00     0.010 A 
ATOM     31  C   UNL     1      -1.868   3.863  -3.282  1.00  0.00    -0.014 A 
BRANCH  31  32
ATOM     32  C   UNL     1      -2.213   3.413  -4.631  1.00  0.00     0.031 A 
ATOM     33  C   UNL     1      -1.674   2.211  -5.296  1.00  0.00     0.074 A 
ATOM     34  C   UNL     1      -3.237   4.142  -5.144  1.00  0.00     0.049 A 
ATOM     35  N   UNL     1      -1.941   1.918  -6.521  1.00  0.00    -0.248 NA
ATOM     36  C   UNL     1      -0.809   1.219  -4.674  1.00  0.00     0.031 C 
ATOM     37  C   UNL     1      -4.093   3.957  -6.297  1.00  0.00     0.029 A 
ATOM     38  N   UNL     1      -3.623   5.412  -4.663  1.00  0.00    -0.354 N 
ATOM     39  C   UNL     1      -1.493   0.641  -6.794  1.00  0.00     0.074 A 
ATOM     40  C   UNL     1      -0.770   0.255  -5.607  1.00  0.00     0.031 C 
ATOM     41  C   UNL     1      -4.582   5.168  -6.646  1.00  0.00     0.029 A 
ATOM     42  C   UNL     1      -3.940   6.166  -5.792  1.00  0.00     0.049 A 
ATOM     43  H   UNL     1      -3.662   5.705  -3.724  1.00  0.00     0.167 HD
ATOM     44  C   UNL     1      -1.877   0.076  -7.978  1.00  0.00     0.037 A 
ATOM     45  C   UNL     1      -3.011   7.107  -6.143  1.00  0.00     0.037 A 
ATOM     46  C   UNL     1      -2.486   1.104  -8.826  1.00  0.00     0.049 A 
ATOM     47  C   UNL     1      -2.296   6.719  -7.419  1.00  0.00     0.074 A 
ATOM     48  C   UNL     1      -3.781   1.540  -9.041  1.00  0.00     0.029 A 
ATOM     49  N   UNL     1      -1.659   2.107  -9.296  1.00  0.00    -0.354 N 
ATOM     50  N   UNL     1      -2.370   5.534  -7.963  1.00  0.00    -0.248 NA
ATOM     51  C   UNL     1      -1.406   7.613  -8.151  1.00  0.00     0.031 C 
ATOM     52  C   UNL     1      -3.707   2.886  -9.525  1.00  0.00     0.029 A 
ATOM     53  C   UNL     1      -2.372   3.243  -9.630  1.00  0.00     0.049 A 
ATOM     54  H   UNL     1      -0.682   2.023  -9.383  1.00  0.00     0.167 HD
ATOM     55  C   UNL     1      -1.647   5.511  -9.111  1.00  0.00     0.074 A 
ATOM     56  C   UNL     1      -1.008   6.817  -9.158  1.00  0.00     0.031 C 
ATOM     57  C   UNL     1      -1.631   4.448  -9.964  1.00  0.00     0.037 A 
BRANCH  44  58
ATOM     58  C   UNL     1      -1.837  -1.386  -8.382  1.00  0.00     0.064 A 
ATOM     59  C   UNL     1      -2.646  -1.836  -9.456  1.00  0.00     0.173 A 
ATOM     60  C   UNL     1      -1.092  -2.402  -7.755  1.00  0.00     0.173 A 
ATOM     61  F   UNL     1      -3.387  -0.984 -10.178  1.00  0.00    -0.203 F 
ATOM     62  C   UNL     1      -2.739  -3.181  -9.829  1.00  0.00     0.198 A 
ATOM     63  C   UNL     1      -1.198  -3.753  -8.118  1.00  0.00     0.198 A 
ATOM     64  F   UNL     1      -0.206  -2.135  -6.793  1.00  0.00    -0.203 F 
ATOM     65  F   UNL     1      -3.535  -3.536 -10.848  1.00  0.00    -0.200 F 
ATOM     66  C   UNL     1      -2.026  -4.144  -9.150  1.00  0.00     0.200 A 
ATOM     67  F   UNL     1      -0.485  -4.677  -7.456  1.00  0.00    -0.200 F 
ATOM     68  F   UNL     1      -2.127  -5.435  -9.493  1.00  0.00    -0.200 F 
ENDBRANCH  44  58
BRANCH  45  69
ATOM     69  C   UNL     1      -2.370   7.776  -4.948  1.00  0.00     0.064 A 
ATOM     70  C   UNL     1      -3.208   8.265  -3.914  1.00  0.00     0.173 A 
ATOM     71  C   UNL     1      -1.009   7.657  -4.637  1.00  0.00     0.173 A 
ATOM     72  F   UNL     1      -4.527   8.409  -4.129  1.00  0.00    -0.203 F 
ATOM     73  C   UNL     1      -2.737   8.484  -2.619  1.00  0.00     0.198 A 
ATOM     74  C   UNL     1      -0.531   7.925  -3.347  1.00  0.00     0.198 A 
ATOM     75  F   UNL     1      -0.137   7.199  -5.546  1.00  0.00    -0.203 F 
ATOM     76  F   UNL     1      -3.596   8.794  -1.636  1.00  0.00    -0.200 F 
ATOM     77  C   UNL     1      -1.399   8.301  -2.333  1.00  0.00     0.200 A 
ATOM     78  F   UNL     1       0.766   7.731  -3.065  1.00  0.00    -0.200 F 
ATOM     79  F   UNL     1      -0.954   8.437  -1.075  1.00  0.00    -0.200 F 
ENDBRANCH  45  69
BRANCH  57  80
ATOM     80  C   UNL     1      -0.880   4.525 -11.245  1.00  0.00     0.064 A 
ATOM     81  C   UNL     1      -1.065   5.600 -12.126  1.00  0.00     0.173 A 
ATOM     82  C   UNL     1      -0.018   3.496 -11.659  1.00  0.00     0.173 A 
ATOM     83  F   UNL     1      -1.921   6.590 -11.828  1.00  0.00    -0.203 F 
ATOM     84  C   UNL     1      -0.363   5.679 -13.323  1.00  0.00     0.198 A 
ATOM     85  C   UNL     1       0.629   3.544 -12.888  1.00  0.00     0.198 A 
ATOM     86  F   UNL     1       0.241   2.441 -10.872  1.00  0.00    -0.203 F 
ATOM     87  F   UNL     1      -0.494   6.763 -14.098  1.00  0.00    -0.200 F 
ATOM     88  C   UNL     1       0.476   4.646 -13.708  1.00  0.00     0.200 A 
ATOM     89  F   UNL     1       1.414   2.525 -13.264  1.00  0.00    -0.200 F 
ATOM     90  F   UNL     1       1.145   4.719 -14.865  1.00  0.00    -0.200 F 
ENDBRANCH  57  80
ENDBRANCH  31  32
ENDBRANCH  24  26
ENDBRANCH  23  24
ENDBRANCH  22  23
ENDBRANCH   1  22
TORSDOF 15
