REMARK SMILES CC[N@@H+]1CCO[C@@H](COc2ccc(C(=O)OCCOC(=O)c3ccc(-c4c5nc(c(-c6c(F)c(F)c(F)c(F)c6F)c6ccc([nH]6)c(-c6c(F)c(F)c(F)c(F)c6F)c6nc(c(-c7c(F)c(F)c(F)c(F)c7F)c7ccc4[nH]7)C=C6)C=C5)cc3)cc2OC)C1
REMARK SMILES IDX 17 1 16 2 14 3 15 4 13 5 10 6 11 7 86 8 12 9 85 10 9 11 8 12
REMARK SMILES IDX 7 13 3 14 4 15 89 16 5 18 6 19 2 20 1 21 87 22 88 23 18 24
REMARK SMILES IDX 19 25 20 26 21 27 22 28 23 29 84 30 24 31 83 32 25 33 26 34
REMARK SMILES IDX 27 35 77 36 28 37 82 38 76 39 78 40 29 41 81 42 75 43 74 44
REMARK SMILES IDX 30 46 62 47 42 48 61 49 43 50 46 51 60 52 79 53 44 54 45 55
REMARK SMILES IDX 59 57 80 58 47 59 31 60 32 61 40 62 33 63 34 64 38 65 41 66
REMARK SMILES IDX 35 67 36 68 39 69 37 70 63 71 64 72 72 73 65 74 66 75 70 76
REMARK SMILES IDX 73 77 67 78 68 79 71 80 69 81 48 82 49 83 57 84 50 85 51 86
REMARK SMILES IDX 55 87 58 88 52 89 53 90 56 91 54 92
REMARK H PARENT 3 17 78 45 46 56
REMARK Flexibility Score: inf
ROOT
ATOM      1  C   UNL     1       2.212   2.717  -5.709  1.00  0.00     0.275 C 
ENDROOT
BRANCH   1   2
ATOM      2  O   UNL     1       1.523   3.109  -4.508  1.00  0.00    -0.458 OA
BRANCH   2   3
ATOM      3  C   UNL     1       1.817   4.348  -4.051  1.00  0.00     0.338 C 
ATOM      4  O   UNL     1       2.623   5.125  -4.543  1.00  0.00    -0.246 OA
BRANCH   3   5
ATOM      5  C   UNL     1       1.004   4.706  -2.860  1.00  0.00     0.064 A 
ATOM      6  C   UNL     1      -0.234   5.415  -0.474  1.00  0.00     0.161 A 
ATOM      7  C   UNL     1       0.532   6.361  -1.155  1.00  0.00     0.051 A 
ATOM      8  C   UNL     1      -0.528   4.174  -1.055  1.00  0.00     0.161 A 
ATOM      9  C   UNL     1       1.170   5.997  -2.334  1.00  0.00     0.020 A 
ATOM     10  C   UNL     1       0.115   3.817  -2.246  1.00  0.00     0.066 A 
BRANCH   6  11
ATOM     11  O   UNL     1      -0.589   5.693   0.817  1.00  0.00    -0.487 OA
BRANCH  11  12
ATOM     12  C   UNL     1       0.547   5.580   1.705  1.00  0.00     0.267 C 
BRANCH  12  13
ATOM     13  C   UNL     1       0.802   4.130   2.155  1.00  0.00     0.210 C 
ATOM     14  N   UNL     1       2.125   1.997   1.702  1.00  0.00    -0.331 N 
ATOM     15  C   UNL     1       2.463   2.033   3.138  1.00  0.00     0.291 C 
ATOM     16  C   UNL     1       1.839   3.387   1.264  1.00  0.00     0.298 C 
ATOM     17  H   UNL     1       2.916   1.629   1.175  1.00  0.00     0.348 HD
ATOM     18  C   UNL     1       1.467   2.822   4.001  1.00  0.00     0.222 C 
ATOM     19  O   UNL     1       1.297   4.159   3.512  1.00  0.00    -0.363 OA
BRANCH  14  20
ATOM     20  C   UNL     1       1.015   1.077   1.409  1.00  0.00     0.258 C 
ATOM     21  C   UNL     1       1.177   0.461   0.024  1.00  0.00     0.071 C 
ENDBRANCH  14  20
ENDBRANCH  12  13
ENDBRANCH  11  12
ENDBRANCH   6  11
BRANCH   8  22
ATOM     22  O   UNL     1      -1.246   3.168  -0.463  1.00  0.00    -0.493 OA
ATOM     23  C   UNL     1      -2.445   3.571   0.193  1.00  0.00     0.278 C 
ENDBRANCH   8  22
ENDBRANCH   3   5
ENDBRANCH   2   3
ENDBRANCH   1   2
BRANCH   1  24
ATOM     24  C   UNL     1       1.309   2.875  -6.932  1.00  0.00     0.275 C 
BRANCH  24  25
ATOM     25  O   UNL     1       0.943   4.254  -7.130  1.00  0.00    -0.458 OA
BRANCH  25  26
ATOM     26  C   UNL     1      -0.311   4.581  -6.739  1.00  0.00     0.338 C 
ATOM     27  O   UNL     1      -1.172   3.843  -6.293  1.00  0.00    -0.246 OA
BRANCH  26  28
ATOM     28  C   UNL     1      -0.499   6.034  -6.852  1.00  0.00     0.060 A 
ATOM     29  C   UNL     1      -0.178   6.831  -5.755  1.00  0.00     0.016 A 
ATOM     30  C   UNL     1      -1.116   6.592  -7.970  1.00  0.00     0.016 A 
ATOM     31  C   UNL     1      -0.503   8.182  -5.746  1.00  0.00     0.010 A 
ATOM     32  C   UNL     1      -1.400   7.963  -7.982  1.00  0.00     0.010 A 
ATOM     33  C   UNL     1      -1.116   8.767  -6.861  1.00  0.00    -0.014 A 
BRANCH  33  34
ATOM     34  C   UNL     1      -1.507  10.200  -6.820  1.00  0.00     0.031 A 
ATOM     35  C   UNL     1      -2.959  10.585  -6.871  1.00  0.00     0.074 A 
ATOM     36  C   UNL     1      -0.567  11.157  -6.700  1.00  0.00     0.049 A 
ATOM     37  N   UNL     1      -3.501  11.771  -6.989  1.00  0.00    -0.248 NA
ATOM     38  C   UNL     1      -3.934   9.486  -6.786  1.00  0.00     0.031 C 
ATOM     39  C   UNL     1       0.872  10.919  -6.580  1.00  0.00     0.029 A 
ATOM     40  N   UNL     1      -0.682  12.525  -6.653  1.00  0.00    -0.354 N 
ATOM     41  C   UNL     1      -4.872  11.559  -7.042  1.00  0.00     0.074 A 
ATOM     42  C   UNL     1      -5.082  10.130  -6.945  1.00  0.00     0.031 C 
ATOM     43  C   UNL     1       1.503  12.095  -6.448  1.00  0.00     0.029 A 
ATOM     44  C   UNL     1       0.524  13.174  -6.550  1.00  0.00     0.049 A 
ATOM     45  H   UNL     1      -1.546  12.995  -6.689  1.00  0.00     0.167 HD
ATOM     46  C   UNL     1      -5.863  12.475  -7.163  1.00  0.00     0.037 A 
ATOM     47  C   UNL     1       0.815  14.489  -6.575  1.00  0.00     0.037 A 
ATOM     48  C   UNL     1      -5.651  13.899  -7.209  1.00  0.00     0.049 A 
ATOM     49  C   UNL     1      -0.300  15.484  -6.744  1.00  0.00     0.074 A 
ATOM     50  C   UNL     1      -6.591  14.909  -7.319  1.00  0.00     0.029 A 
ATOM     51  N   UNL     1      -4.410  14.515  -7.133  1.00  0.00    -0.354 N 
ATOM     52  N   UNL     1      -1.589  15.272  -6.846  1.00  0.00    -0.248 NA
ATOM     53  C   UNL     1       0.083  16.900  -6.818  1.00  0.00     0.031 C 
ATOM     54  C   UNL     1      -5.917  16.134  -7.345  1.00  0.00     0.029 A 
ATOM     55  C   UNL     1      -4.560  15.891  -7.207  1.00  0.00     0.049 A 
ATOM     56  H   UNL     1      -3.551  14.044  -7.041  1.00  0.00     0.167 HD
ATOM     57  C   UNL     1      -2.172  16.523  -6.985  1.00  0.00     0.074 A 
ATOM     58  C   UNL     1      -1.097  17.493  -6.932  1.00  0.00     0.031 C 
ATOM     59  C   UNL     1      -3.480  16.841  -7.148  1.00  0.00     0.037 A 
BRANCH  46  60
ATOM     60  C   UNL     1      -7.269  11.965  -7.292  1.00  0.00     0.064 A 
ATOM     61  C   UNL     1      -7.964  11.417  -6.206  1.00  0.00     0.173 A 
ATOM     62  C   UNL     1      -7.942  12.064  -8.521  1.00  0.00     0.173 A 
ATOM     63  F   UNL     1      -7.362  11.287  -5.014  1.00  0.00    -0.203 F 
ATOM     64  C   UNL     1      -9.274  10.965  -6.349  1.00  0.00     0.198 A 
ATOM     65  C   UNL     1      -9.260  11.637  -8.653  1.00  0.00     0.198 A 
ATOM     66  F   UNL     1      -7.323  12.586  -9.591  1.00  0.00    -0.203 F 
ATOM     67  F   UNL     1      -9.906  10.405  -5.308  1.00  0.00    -0.200 F 
ATOM     68  C   UNL     1      -9.923  11.082  -7.570  1.00  0.00     0.200 A 
ATOM     69  F   UNL     1      -9.888  11.762  -9.831  1.00  0.00    -0.200 F 
ATOM     70  F   UNL     1     -11.185  10.653  -7.704  1.00  0.00    -0.200 F 
ENDBRANCH  46  60
BRANCH  47  71
ATOM     71  C   UNL     1       2.228  14.935  -6.475  1.00  0.00     0.064 A 
ATOM     72  C   UNL     1       2.690  15.625  -5.346  1.00  0.00     0.173 A 
ATOM     73  C   UNL     1       3.147  14.678  -7.504  1.00  0.00     0.173 A 
ATOM     74  F   UNL     1       1.843  15.920  -4.348  1.00  0.00    -0.203 F 
ATOM     75  C   UNL     1       4.015  16.048  -5.253  1.00  0.00     0.198 A 
ATOM     76  C   UNL     1       4.478  15.074  -7.397  1.00  0.00     0.198 A 
ATOM     77  F   UNL     1       2.755  14.025  -8.607  1.00  0.00    -0.203 F 
ATOM     78  F   UNL     1       4.421  16.741  -4.181  1.00  0.00    -0.200 F 
ATOM     79  C   UNL     1       4.910  15.764  -6.275  1.00  0.00     0.200 A 
ATOM     80  F   UNL     1       5.341  14.785  -8.380  1.00  0.00    -0.200 F 
ATOM     81  F   UNL     1       6.186  16.162  -6.180  1.00  0.00    -0.200 F 
ENDBRANCH  47  71
BRANCH  59  82
ATOM     82  C   UNL     1      -3.821  18.297  -7.251  1.00  0.00     0.064 A 
ATOM     83  C   UNL     1      -3.537  19.038  -8.408  1.00  0.00     0.173 A 
ATOM     84  C   UNL     1      -4.469  18.951  -6.192  1.00  0.00     0.173 A 
ATOM     85  F   UNL     1      -2.904  18.460  -9.440  1.00  0.00    -0.203 F 
ATOM     86  C   UNL     1      -3.868  20.387  -8.491  1.00  0.00     0.198 A 
ATOM     87  C   UNL     1      -4.822  20.294  -6.290  1.00  0.00     0.198 A 
ATOM     88  F   UNL     1      -4.767  18.285  -5.067  1.00  0.00    -0.203 F 
ATOM     89  F   UNL     1      -3.547  21.087  -9.588  1.00  0.00    -0.200 F 
ATOM     90  C   UNL     1      -4.515  21.013  -7.435  1.00  0.00     0.200 A 
ATOM     91  F   UNL     1      -5.456  20.895  -5.273  1.00  0.00    -0.200 F 
ATOM     92  F   UNL     1      -4.836  22.311  -7.519  1.00  0.00    -0.200 F 
ENDBRANCH  59  82
ENDBRANCH  33  34
ENDBRANCH  26  28
ENDBRANCH  25  26
ENDBRANCH  24  25
ENDBRANCH   1  24
TORSDOF 16
