REMARK SMILES Cc1ccccc1/C=C1\SC(=S)N(CCC(=O)N[C@@H](C)C(=O)OCCOC(=O)c2ccc(-c3c4nc(c(-c5c(F)c(F)c(F)c(F)c5F)c5ccc([nH]5)c(-c5c(F)c(F)c(F)c(F)c5F)c5nc(c(-c6c(F)c(F)c(F)c(F)c6F)c6ccc3[nH]6)C=C5)C=C4)cc2)C1=O
REMARK SMILES IDX 23 1 21 2 22 3 19 4 20 5 18 6 16 7 17 8 15 10 14 11 13 12
REMARK SMILES IDX 8 13 9 14 10 15 92 16 11 17 93 18 12 19 7 20 1 21 2 22 3 23
REMARK SMILES IDX 4 24 6 25 5 26 24 27 25 28 26 29 27 30 28 31 29 32 30 33
REMARK SMILES IDX 91 34 31 35 90 36 32 37 33 38 34 39 84 40 35 41 89 42 83 43
REMARK SMILES IDX 85 44 36 45 88 46 82 47 81 48 37 50 69 51 49 52 68 53 50 54
REMARK SMILES IDX 53 55 67 56 86 57 51 58 52 59 66 61 87 62 54 63 38 64 39 65
REMARK SMILES IDX 47 66 40 67 41 68 45 69 48 70 42 71 43 72 46 73 44 74 70 75
REMARK SMILES IDX 71 76 79 77 72 78 73 79 77 80 80 81 74 82 75 83 78 84 76 85
REMARK SMILES IDX 55 86 56 87 64 88 57 89 58 90 62 91 65 92 59 93 60 94 63 95
REMARK SMILES IDX 61 96
REMARK H PARENT 18 9 85 49 53 60
REMARK Flexibility Score: inf
ROOT
ATOM      1  O   UNL     1      -1.223   6.928  -0.712  1.00  0.00    -0.461 OA
ENDROOT
BRANCH   1   2
ATOM      2  C   UNL     1      -0.562   6.073   0.106  1.00  0.00     0.328 C 
ATOM      3  O   UNL     1      -1.099   5.143   0.704  1.00  0.00    -0.250 OA
BRANCH   2   4
ATOM      4  C   UNL     1       0.952   6.289   0.136  1.00  0.00     0.189 C 
ATOM      5  C   UNL     1       1.363   6.149   1.605  1.00  0.00     0.043 C 
BRANCH   4   6
ATOM      6  N   UNL     1       1.559   7.507  -0.391  1.00  0.00    -0.343 N 
ATOM      7  C   UNL     1       2.828   7.596  -0.903  1.00  0.00     0.222 C 
ATOM      8  O   UNL     1       3.531   8.559  -0.601  1.00  0.00    -0.275 OA
ATOM      9  H   UNL     1       1.016   8.329  -0.377  1.00  0.00     0.164 HD
BRANCH   7  10
ATOM     10  C   UNL     1       3.321   6.555  -1.885  1.00  0.00     0.122 C 
BRANCH  10  11
ATOM     11  C   UNL     1       4.309   5.550  -1.292  1.00  0.00     0.137 C 
BRANCH  11  12
ATOM     12  N   UNL     1       3.717   4.208  -1.135  1.00  0.00    -0.292 N 
ATOM     13  C   UNL     1       0.738   2.340   0.258  1.00  0.00     0.029 C 
ATOM     14  C   UNL     1       2.059   2.651  -0.259  1.00  0.00     0.081 C 
ATOM     15  S   UNL     1       3.260   1.753  -1.344  1.00  0.00    -0.054 SA
ATOM     16  C   UNL     1       2.974   3.850  -0.004  1.00  0.00     0.266 C 
ATOM     17  C   UNL     1       4.068   3.158  -1.941  1.00  0.00     0.148 C 
ATOM     18  O   UNL     1       3.185   4.287   1.115  1.00  0.00    -0.268 OA
ATOM     19  S   UNL     1       5.061   3.102  -3.280  1.00  0.00    -0.052 S 
BRANCH  13  20
ATOM     20  C   UNL     1      -0.705   1.224   0.297  1.00  0.00    -0.021 A 
ATOM     21  C   UNL     1      -0.927  -1.137  -1.512  1.00  0.00     0.045 C 
ATOM     22  C   UNL     1      -1.292  -0.056  -0.368  1.00  0.00    -0.044 A 
ATOM     23  C   UNL     1      -2.604  -0.549  -0.080  1.00  0.00     0.004 A 
ATOM     24  C   UNL     1      -3.475   0.123   0.703  1.00  0.00     0.000 A 
ATOM     25  C   UNL     1      -1.697   1.803   1.124  1.00  0.00     0.008 A 
ATOM     26  C   UNL     1      -3.025   1.290   1.284  1.00  0.00     0.001 A 
ENDBRANCH  13  20
ENDBRANCH  11  12
ENDBRANCH  10  11
ENDBRANCH   7  10
ENDBRANCH   4   6
ENDBRANCH   2   4
ENDBRANCH   1   2
BRANCH   1  27
ATOM     27  C   UNL     1      -2.626   6.634  -0.832  1.00  0.00     0.274 C 
BRANCH  27  28
ATOM     28  C   UNL     1      -3.172   7.138  -2.174  1.00  0.00     0.275 C 
BRANCH  28  29
ATOM     29  O   UNL     1      -2.673   6.411  -3.325  1.00  0.00    -0.458 OA
BRANCH  29  30
ATOM     30  C   UNL     1      -1.344   6.438  -3.586  1.00  0.00     0.338 C 
ATOM     31  O   UNL     1      -0.697   7.435  -3.919  1.00  0.00    -0.246 OA
BRANCH  30  32
ATOM     32  C   UNL     1      -0.752   5.097  -3.326  1.00  0.00     0.060 A 
ATOM     33  C   UNL     1       0.552   4.716  -3.652  1.00  0.00     0.016 A 
ATOM     34  C   UNL     1      -1.507   4.204  -2.598  1.00  0.00     0.016 A 
ATOM     35  C   UNL     1       1.071   3.448  -3.241  1.00  0.00     0.010 A 
ATOM     36  C   UNL     1      -0.917   3.095  -2.019  1.00  0.00     0.010 A 
ATOM     37  C   UNL     1       0.373   2.597  -2.347  1.00  0.00    -0.014 A 
BRANCH  37  38
ATOM     38  C   UNL     1       0.660   0.956  -2.152  1.00  0.00     0.031 A 
ATOM     39  C   UNL     1       1.288  -0.133  -0.669  1.00  0.00     0.074 A 
ATOM     40  C   UNL     1      -0.325   0.690  -3.105  1.00  0.00     0.049 A 
ATOM     41  N   UNL     1       1.127  -1.473  -0.453  1.00  0.00    -0.248 NA
ATOM     42  C   UNL     1       1.989   0.176   0.725  1.00  0.00     0.031 C 
ATOM     43  C   UNL     1      -1.860   0.629  -3.000  1.00  0.00     0.029 A 
ATOM     44  N   UNL     1      -0.307   0.981  -4.454  1.00  0.00    -0.354 N 
ATOM     45  C   UNL     1       0.861  -1.730   0.965  1.00  0.00     0.074 A 
ATOM     46  C   UNL     1       1.641  -0.751   1.620  1.00  0.00     0.031 C 
ATOM     47  C   UNL     1      -2.365   0.102  -4.117  1.00  0.00     0.029 A 
ATOM     48  C   UNL     1      -1.300   0.169  -5.050  1.00  0.00     0.049 A 
ATOM     49  H   UNL     1       0.281   1.625  -4.911  1.00  0.00     0.167 HD
ATOM     50  C   UNL     1      -0.110  -2.574   1.521  1.00  0.00     0.037 A 
ATOM     51  C   UNL     1      -0.917  -0.717  -5.984  1.00  0.00     0.037 A 
ATOM     52  C   UNL     1      -0.833  -3.425   0.554  1.00  0.00     0.049 A 
ATOM     53  C   UNL     1      -0.555  -2.061  -5.304  1.00  0.00     0.074 A 
ATOM     54  C   UNL     1      -2.158  -3.777   0.309  1.00  0.00     0.029 A 
ATOM     55  N   UNL     1      -0.141  -3.933  -0.525  1.00  0.00    -0.354 N 
ATOM     56  N   UNL     1      -1.033  -2.622  -4.199  1.00  0.00    -0.248 NA
ATOM     57  C   UNL     1       0.499  -2.857  -5.916  1.00  0.00     0.031 C 
ATOM     58  C   UNL     1      -2.249  -4.306  -1.030  1.00  0.00     0.029 A 
ATOM     59  C   UNL     1      -0.978  -4.304  -1.577  1.00  0.00     0.049 A 
ATOM     60  H   UNL     1       0.840  -4.024  -0.549  1.00  0.00     0.167 HD
ATOM     61  C   UNL     1      -0.294  -3.788  -3.920  1.00  0.00     0.074 A 
ATOM     62  C   UNL     1       0.633  -3.863  -5.046  1.00  0.00     0.031 C 
ATOM     63  C   UNL     1      -0.308  -4.645  -2.823  1.00  0.00     0.037 A 
BRANCH  50  64
ATOM     64  C   UNL     1      -0.649  -2.601   3.004  1.00  0.00     0.064 A 
ATOM     65  C   UNL     1      -1.415  -3.724   3.439  1.00  0.00     0.173 A 
ATOM     66  C   UNL     1      -0.597  -1.567   3.969  1.00  0.00     0.173 A 
ATOM     67  F   UNL     1      -1.511  -4.829   2.685  1.00  0.00    -0.203 F 
ATOM     68  C   UNL     1      -2.111  -3.782   4.658  1.00  0.00     0.198 A 
ATOM     69  C   UNL     1      -1.227  -1.666   5.236  1.00  0.00     0.198 A 
ATOM     70  F   UNL     1       0.031  -0.409   3.730  1.00  0.00    -0.203 F 
ATOM     71  F   UNL     1      -2.889  -4.840   4.934  1.00  0.00    -0.200 F 
ATOM     72  C   UNL     1      -2.004  -2.759   5.568  1.00  0.00     0.200 A 
ATOM     73  F   UNL     1      -1.091  -0.676   6.133  1.00  0.00    -0.200 F 
ATOM     74  F   UNL     1      -2.638  -2.827   6.748  1.00  0.00    -0.200 F 
ENDBRANCH  50  64
BRANCH  51  75
ATOM     75  C   UNL     1      -0.151   0.201  -6.959  1.00  0.00     0.064 A 
ATOM     76  C   UNL     1      -0.993   1.212  -7.532  1.00  0.00     0.173 A 
ATOM     77  C   UNL     1       1.182   0.589  -6.695  1.00  0.00     0.173 A 
ATOM     78  F   UNL     1      -2.292   0.941  -7.752  1.00  0.00    -0.203 F 
ATOM     79  C   UNL     1      -0.610   2.560  -7.563  1.00  0.00     0.198 A 
ATOM     80  C   UNL     1       1.560   1.946  -6.755  1.00  0.00     0.198 A 
ATOM     81  F   UNL     1       2.023  -0.269  -6.101  1.00  0.00    -0.203 F 
ATOM     82  F   UNL     1      -1.521   3.509  -7.833  1.00  0.00    -0.200 F 
ATOM     83  C   UNL     1       0.652   2.928  -7.137  1.00  0.00     0.200 A 
ATOM     84  F   UNL     1       2.750   2.328  -6.268  1.00  0.00    -0.200 F 
ATOM     85  F   UNL     1       0.960   4.228  -6.994  1.00  0.00    -0.200 F 
ENDBRANCH  51  75
BRANCH  63  86
ATOM     86  C   UNL     1       0.529  -5.932  -2.779  1.00  0.00     0.064 A 
ATOM     87  C   UNL     1       0.666  -6.752  -3.907  1.00  0.00     0.173 A 
ATOM     88  C   UNL     1       1.148  -6.440  -1.603  1.00  0.00     0.173 A 
ATOM     89  F   UNL     1      -0.014  -6.487  -5.033  1.00  0.00    -0.203 F 
ATOM     90  C   UNL     1       1.505  -7.869  -3.912  1.00  0.00     0.198 A 
ATOM     91  C   UNL     1       1.932  -7.587  -1.593  1.00  0.00     0.198 A 
ATOM     92  F   UNL     1       1.040  -5.863  -0.402  1.00  0.00    -0.203 F 
ATOM     93  F   UNL     1       1.695  -8.546  -5.052  1.00  0.00    -0.200 F 
ATOM     94  C   UNL     1       2.148  -8.279  -2.759  1.00  0.00     0.200 A 
ATOM     95  F   UNL     1       2.484  -7.999  -0.442  1.00  0.00    -0.200 F 
ATOM     96  F   UNL     1       2.958  -9.344  -2.765  1.00  0.00    -0.200 F 
ENDBRANCH  63  86
ENDBRANCH  37  38
ENDBRANCH  30  32
ENDBRANCH  29  30
ENDBRANCH  28  29
ENDBRANCH  27  28
ENDBRANCH   1  27
TORSDOF 16
