REMARK SMILES CC[C@@H]1CCC[C@@](C[C@@H]2CSc3ccccc32)(C(=O)OCCOC(=O)c2ccc(-c3c4nc(c(-c5c(F)c(F)c(F)c(F)c5F)c5ccc([nH]5)c(-c5c(F)c(F)c(F)c(F)c5F)c5nc(c(-c6c(F)c(F)c(F)c(F)c6F)c6ccc3[nH]6)C=C5)C=C4)cc2)C1
REMARK SMILES IDX 21 1 20 2 18 3 19 4 7 5 3 6 4 7 89 8 5 9 6 10 2 11 1 12 8 13
REMARK SMILES IDX 9 14 10 15 17 16 11 17 12 18 16 19 13 20 15 21 14 22 22 23
REMARK SMILES IDX 23 24 24 25 25 26 26 27 27 28 88 29 28 30 87 31 29 32 30 33
REMARK SMILES IDX 31 34 81 35 32 36 86 37 80 38 82 39 33 40 85 41 79 42 78 43
REMARK SMILES IDX 34 45 66 46 46 47 65 48 47 49 50 50 64 51 83 52 48 53 49 54
REMARK SMILES IDX 63 56 84 57 51 58 35 59 36 60 44 61 37 62 38 63 42 64 45 65
REMARK SMILES IDX 39 66 40 67 43 68 41 69 67 70 68 71 76 72 69 73 70 74 74 75
REMARK SMILES IDX 77 76 71 77 72 78 75 79 73 80 52 81 53 82 61 83 54 84 55 85
REMARK SMILES IDX 59 86 62 87 56 88 57 89 60 90 58 91
REMARK H PARENT 82 44 50 55
REMARK Flexibility Score: inf
ROOT
ATOM      1  C   UNL     1       3.869   9.244  -1.047  1.00  0.00     0.274 C 
ENDROOT
BRANCH   1   2
ATOM      2  O   UNL     1       2.488   9.394  -1.450  1.00  0.00    -0.462 OA
BRANCH   2   3
ATOM      3  C   UNL     1       1.589   9.686  -0.476  1.00  0.00     0.312 C 
ATOM      4  O   UNL     1       1.898   9.980   0.676  1.00  0.00    -0.252 OA
BRANCH   3   5
ATOM      5  C   UNL     1       0.125   9.498  -0.912  1.00  0.00     0.069 C 
ATOM      6  C   UNL     1      -0.588  11.993  -1.375  1.00  0.00    -0.010 C 
ATOM      7  C   UNL     1      -0.896  11.629  -2.824  1.00  0.00     0.003 C 
ATOM      8  C   UNL     1      -0.696  10.756  -0.462  1.00  0.00     0.022 C 
ATOM      9  C   UNL     1       0.060  10.543  -3.287  1.00  0.00     0.001 C 
ATOM     10  C   UNL     1      -0.070   9.289  -2.429  1.00  0.00     0.019 C 
BRANCH   6  11
ATOM     11  C   UNL     1      -1.493  13.123  -0.846  1.00  0.00     0.000 C 
ATOM     12  C   UNL     1      -1.313  14.443  -1.585  1.00  0.00     0.004 C 
ENDBRANCH   6  11
BRANCH   5  13
ATOM     13  C   UNL     1      -0.433   8.291  -0.059  1.00  0.00     0.028 C 
BRANCH  13  14
ATOM     14  C   UNL     1      -0.027   6.813  -0.305  1.00  0.00     0.032 C 
ATOM     15  C   UNL     1       1.447   6.452  -0.041  1.00  0.00     0.083 C 
ATOM     16  C   UNL     1      -0.396   6.284  -1.666  1.00  0.00    -0.030 A 
ATOM     17  S   UNL     1       2.232   6.012  -1.621  1.00  0.00    -0.125 SA
ATOM     18  C   UNL     1       0.685   5.903  -2.462  1.00  0.00     0.011 A 
ATOM     19  C   UNL     1      -1.692   6.239  -2.178  1.00  0.00     0.005 A 
ATOM     20  C   UNL     1       0.506   5.554  -3.792  1.00  0.00     0.015 A 
ATOM     21  C   UNL     1      -1.881   5.883  -3.514  1.00  0.00     0.000 A 
ATOM     22  C   UNL     1      -0.786   5.557  -4.322  1.00  0.00     0.001 A 
ENDBRANCH  13  14
ENDBRANCH   5  13
ENDBRANCH   3   5
ENDBRANCH   2   3
ENDBRANCH   1   2
BRANCH   1  23
ATOM     23  C   UNL     1       4.723  10.379  -1.591  1.00  0.00     0.275 C 
BRANCH  23  24
ATOM     24  O   UNL     1       4.344  11.588  -0.921  1.00  0.00    -0.458 OA
BRANCH  24  25
ATOM     25  C   UNL     1       3.902  12.583  -1.717  1.00  0.00     0.338 C 
ATOM     26  O   UNL     1       3.895  12.631  -2.933  1.00  0.00    -0.246 OA
BRANCH  25  27
ATOM     27  C   UNL     1       3.373  13.656  -0.864  1.00  0.00     0.060 A 
ATOM     28  C   UNL     1       3.812  14.963  -1.048  1.00  0.00     0.016 A 
ATOM     29  C   UNL     1       2.339  13.376   0.026  1.00  0.00     0.016 A 
ATOM     30  C   UNL     1       3.197  15.992  -0.333  1.00  0.00     0.010 A 
ATOM     31  C   UNL     1       1.647  14.416   0.636  1.00  0.00     0.010 A 
ATOM     32  C   UNL     1       2.075  15.737   0.480  1.00  0.00    -0.014 A 
BRANCH  32  33
ATOM     33  C   UNL     1       1.341  16.860   1.123  1.00  0.00     0.031 A 
ATOM     34  C   UNL     1       1.155  16.924   2.615  1.00  0.00     0.074 A 
ATOM     35  C   UNL     1       0.812  17.826   0.345  1.00  0.00     0.049 A 
ATOM     36  N   UNL     1       0.678  17.905   3.342  1.00  0.00    -0.248 NA
ATOM     37  C   UNL     1       1.500  15.725   3.394  1.00  0.00     0.031 C 
ATOM     38  C   UNL     1       0.780  17.812  -1.120  1.00  0.00     0.029 A 
ATOM     39  N   UNL     1       0.228  19.024   0.676  1.00  0.00    -0.354 N 
ATOM     40  C   UNL     1       0.663  17.436   4.648  1.00  0.00     0.074 A 
ATOM     41  C   UNL     1       1.088  16.056   4.608  1.00  0.00     0.031 C 
ATOM     42  C   UNL     1       0.288  18.980  -1.561  1.00  0.00     0.029 A 
ATOM     43  C   UNL     1      -0.033  19.821  -0.413  1.00  0.00     0.049 A 
ATOM     44  H   UNL     1       0.017  19.285   1.601  1.00  0.00     0.167 HD
ATOM     45  C   UNL     1       0.379  18.109   5.788  1.00  0.00     0.037 A 
ATOM     46  C   UNL     1      -0.432  21.105  -0.476  1.00  0.00     0.037 A 
ATOM     47  C   UNL     1       0.021  19.499   5.830  1.00  0.00     0.049 A 
ATOM     48  C   UNL     1      -0.635  21.873   0.799  1.00  0.00     0.074 A 
ATOM     49  C   UNL     1      -0.175  20.309   6.933  1.00  0.00     0.029 A 
ATOM     50  N   UNL     1      -0.185  20.287   4.708  1.00  0.00    -0.354 N 
ATOM     51  N   UNL     1      -0.502  21.465   2.037  1.00  0.00    -0.248 NA
ATOM     52  C   UNL     1      -1.021  23.285   0.668  1.00  0.00     0.031 C 
ATOM     53  C   UNL     1      -0.516  21.588   6.478  1.00  0.00     0.029 A 
ATOM     54  C   UNL     1      -0.511  21.576   5.092  1.00  0.00     0.049 A 
ATOM     55  H   UNL     1      -0.111  19.976   3.777  1.00  0.00     0.167 HD
ATOM     56  C   UNL     1      -0.771  22.569   2.832  1.00  0.00     0.074 A 
ATOM     57  C   UNL     1      -1.058  23.671   1.937  1.00  0.00     0.031 C 
ATOM     58  C   UNL     1      -0.784  22.659   4.184  1.00  0.00     0.037 A 
BRANCH  45  59
ATOM     59  C   UNL     1       0.512  17.361   7.082  1.00  0.00     0.064 A 
ATOM     60  C   UNL     1       1.771  16.980   7.573  1.00  0.00     0.173 A 
ATOM     61  C   UNL     1      -0.617  17.038   7.848  1.00  0.00     0.173 A 
ATOM     62  F   UNL     1       2.881  17.259   6.872  1.00  0.00    -0.203 F 
ATOM     63  C   UNL     1       1.892  16.271   8.763  1.00  0.00     0.198 A 
ATOM     64  C   UNL     1      -0.489  16.352   9.053  1.00  0.00     0.198 A 
ATOM     65  F   UNL     1      -1.843  17.386   7.428  1.00  0.00    -0.203 F 
ATOM     66  F   UNL     1       3.101  15.871   9.182  1.00  0.00    -0.200 F 
ATOM     67  C   UNL     1       0.763  15.961   9.505  1.00  0.00     0.200 A 
ATOM     68  F   UNL     1      -1.579  16.061   9.777  1.00  0.00    -0.200 F 
ATOM     69  F   UNL     1       0.881  15.278  10.652  1.00  0.00    -0.200 F 
ENDBRANCH  45  59
BRANCH  46  70
ATOM     70  C   UNL     1      -0.545  21.771  -1.798  1.00  0.00     0.064 A 
ATOM     71  C   UNL     1       0.439  22.674  -2.224  1.00  0.00     0.173 A 
ATOM     72  C   UNL     1      -1.607  21.499  -2.670  1.00  0.00     0.173 A 
ATOM     73  F   UNL     1       1.468  22.972  -1.417  1.00  0.00    -0.203 F 
ATOM     74  C   UNL     1       0.358  23.291  -3.470  1.00  0.00     0.198 A 
ATOM     75  C   UNL     1      -1.678  22.103  -3.924  1.00  0.00     0.198 A 
ATOM     76  F   UNL     1      -2.567  20.635  -2.310  1.00  0.00    -0.203 F 
ATOM     77  F   UNL     1       1.299  24.170  -3.843  1.00  0.00    -0.200 F 
ATOM     78  C   UNL     1      -0.697  23.001  -4.321  1.00  0.00     0.200 A 
ATOM     79  F   UNL     1      -2.693  21.814  -4.749  1.00  0.00    -0.200 F 
ATOM     80  F   UNL     1      -0.772  23.590  -5.522  1.00  0.00    -0.200 F 
ENDBRANCH  46  70
BRANCH  58  81
ATOM     81  C   UNL     1      -1.114  23.990   4.784  1.00  0.00     0.064 A 
ATOM     82  C   UNL     1      -2.436  24.454   4.830  1.00  0.00     0.173 A 
ATOM     83  C   UNL     1      -0.116  24.764   5.393  1.00  0.00     0.173 A 
ATOM     84  F   UNL     1      -3.419  23.750   4.250  1.00  0.00    -0.203 F 
ATOM     85  C   UNL     1      -2.747  25.654   5.462  1.00  0.00     0.198 A 
ATOM     86  C   UNL     1      -0.434  25.953   6.041  1.00  0.00     0.198 A 
ATOM     87  F   UNL     1       1.161  24.355   5.378  1.00  0.00    -0.203 F 
ATOM     88  F   UNL     1      -4.013  26.091   5.479  1.00  0.00    -0.200 F 
ATOM     89  C   UNL     1      -1.748  26.397   6.075  1.00  0.00     0.200 A 
ATOM     90  F   UNL     1       0.529  26.666   6.642  1.00  0.00    -0.200 F 
ATOM     91  F   UNL     1      -2.053  27.544   6.698  1.00  0.00    -0.200 F 
ENDBRANCH  58  81
ENDBRANCH  32  33
ENDBRANCH  25  27
ENDBRANCH  24  25
ENDBRANCH  23  24
ENDBRANCH   1  23
TORSDOF 14
