REMARK SMILES C=C(C)C[N@H+](C)[C@H](C(=O)OCCOC(=O)c1ccc(-c2c3nc(c(-c4c(F)c(F)c(F)c(F)c4F)c4ccc([nH]4)c(-c4c(F)c(F)c(F)c(F)c4F)c4nc(c(-c5c(F)c(F)c(F)c(F)c5F)c5ccc2[nH]5)C=C4)C=C3)cc1)c1cc(C)c(OC)c(C)c1
REMARK SMILES IDX 11 1 10 2 8 3 9 4 7 5 5 6 6 7 4 9 2 10 1 11 3 12 79 13 80 14
REMARK SMILES IDX 88 15 81 16 86 17 82 18 83 19 87 20 84 21 85 22 12 23 13 24
REMARK SMILES IDX 14 25 15 26 16 27 17 28 78 29 18 30 77 31 19 32 20 33 21 34
REMARK SMILES IDX 71 35 22 36 76 37 70 38 72 39 23 40 75 41 69 42 68 43 24 45
REMARK SMILES IDX 56 46 36 47 55 48 37 49 40 50 54 51 73 52 38 53 39 54 53 56
REMARK SMILES IDX 74 57 41 58 25 59 26 60 34 61 27 62 28 63 32 64 35 65 29 66
REMARK SMILES IDX 30 67 33 68 31 69 57 70 58 71 66 72 59 73 60 74 64 75 67 76
REMARK SMILES IDX 61 77 62 78 65 79 63 80 42 81 43 82 51 83 44 84 45 85 49 86
REMARK SMILES IDX 52 87 46 88 47 89 50 90 48 91
REMARK H PARENT 5 8 72 44 40 55
REMARK Flexibility Score: inf
ROOT
ATOM      1  C   UNL     1       3.169   1.387   0.445  1.00  0.00     0.274 C 
ENDROOT
BRANCH   1   2
ATOM      2  O   UNL     1       2.093   0.948   1.306  1.00  0.00    -0.457 OA
BRANCH   2   3
ATOM      3  C   UNL     1       2.013   1.527   2.539  1.00  0.00     0.370 C 
ATOM      4  O   UNL     1       2.781   2.407   2.924  1.00  0.00    -0.245 OA
BRANCH   3   5
ATOM      5  C   UNL     1       0.817   1.021   3.399  1.00  0.00     0.326 C 
BRANCH   5   6
ATOM      6  N   UNL     1      -0.242   2.082   3.586  1.00  0.00    -0.318 N 
ATOM      7  C   UNL     1       0.217   3.092   4.548  1.00  0.00     0.334 C 
ATOM      8  H   UNL     1      -1.064   1.597   3.947  1.00  0.00     0.349 HD
BRANCH   6   9
ATOM      9  C   UNL     1      -0.669   2.731   2.338  1.00  0.00     0.294 C 
BRANCH   9  10
ATOM     10  C   UNL     1      -1.693   2.021   1.489  1.00  0.00    -0.026 C 
ATOM     11  C   UNL     1      -1.356   1.353   0.372  1.00  0.00     0.013 C 
ATOM     12  C   UNL     1      -3.130   2.165   1.907  1.00  0.00     0.045 C 
ENDBRANCH   9  10
ENDBRANCH   6   9
ENDBRANCH   5   6
BRANCH   5  13
ATOM     13  C   UNL     1       0.254  -0.365   3.064  1.00  0.00     0.022 A 
ATOM     14  C   UNL     1      -1.119  -0.619   3.115  1.00  0.00     0.017 A 
ATOM     15  C   UNL     1       1.089  -1.464   2.820  1.00  0.00     0.017 A 
ATOM     16  C   UNL     1      -1.667  -1.859   2.770  1.00  0.00    -0.008 A 
ATOM     17  C   UNL     1       0.576  -2.759   2.567  1.00  0.00    -0.008 A 
ATOM     18  C   UNL     1      -3.164  -1.941   2.623  1.00  0.00     0.048 C 
ATOM     19  C   UNL     1      -0.818  -2.940   2.483  1.00  0.00     0.124 A 
ATOM     20  C   UNL     1       1.581  -3.869   2.443  1.00  0.00     0.048 C 
BRANCH  19  21
ATOM     21  O   UNL     1      -1.485  -4.111   2.247  1.00  0.00    -0.496 OA
ATOM     22  C   UNL     1      -0.917  -5.065   1.368  1.00  0.00     0.278 C 
ENDBRANCH  19  21
ENDBRANCH   5  13
ENDBRANCH   3   5
ENDBRANCH   2   3
ENDBRANCH   1   2
BRANCH   1  23
ATOM     23  C   UNL     1       2.630   2.280  -0.674  1.00  0.00     0.275 C 
BRANCH  23  24
ATOM     24  O   UNL     1       2.106   3.483  -0.092  1.00  0.00    -0.458 OA
BRANCH  24  25
ATOM     25  C   UNL     1       1.254   4.195  -0.871  1.00  0.00     0.338 C 
ATOM     26  O   UNL     1       0.998   3.976  -2.041  1.00  0.00    -0.246 OA
BRANCH  25  27
ATOM     27  C   UNL     1       0.577   5.238  -0.047  1.00  0.00     0.060 A 
ATOM     28  C   UNL     1       0.841   5.376   1.319  1.00  0.00     0.016 A 
ATOM     29  C   UNL     1      -0.430   6.019  -0.622  1.00  0.00     0.016 A 
ATOM     30  C   UNL     1       0.016   6.168   2.119  1.00  0.00     0.010 A 
ATOM     31  C   UNL     1      -1.174   6.907   0.169  1.00  0.00     0.010 A 
ATOM     32  C   UNL     1      -0.987   6.973   1.560  1.00  0.00    -0.014 A 
BRANCH  32  33
ATOM     33  C   UNL     1      -1.829   7.874   2.406  1.00  0.00     0.031 A 
ATOM     34  C   UNL     1      -3.333   7.867   2.276  1.00  0.00     0.074 A 
ATOM     35  C   UNL     1      -1.266   8.733   3.283  1.00  0.00     0.049 A 
ATOM     36  N   UNL     1      -4.203   8.777   2.640  1.00  0.00    -0.248 NA
ATOM     37  C   UNL     1      -3.938   6.685   1.642  1.00  0.00     0.031 C 
ATOM     38  C   UNL     1       0.161   8.826   3.595  1.00  0.00     0.029 A 
ATOM     39  N   UNL     1      -1.834   9.711   4.068  1.00  0.00    -0.354 N 
ATOM     40  C   UNL     1      -5.441   8.319   2.206  1.00  0.00     0.074 A 
ATOM     41  C   UNL     1      -5.217   7.034   1.578  1.00  0.00     0.031 C 
ATOM     42  C   UNL     1       0.354   9.773   4.521  1.00  0.00     0.029 A 
ATOM     43  C   UNL     1      -0.912  10.450   4.770  1.00  0.00     0.049 A 
ATOM     44  H   UNL     1      -2.805   9.865   4.122  1.00  0.00     0.167 HD
ATOM     45  C   UNL     1      -6.648   8.929   2.308  1.00  0.00     0.037 A 
ATOM     46  C   UNL     1      -1.037  11.595   5.467  1.00  0.00     0.037 A 
ATOM     47  C   UNL     1      -6.878  10.171   3.003  1.00  0.00     0.049 A 
ATOM     48  C   UNL     1      -2.373  12.275   5.536  1.00  0.00     0.074 A 
ATOM     49  C   UNL     1      -8.066  10.866   3.162  1.00  0.00     0.029 A 
ATOM     50  N   UNL     1      -5.904  10.889   3.679  1.00  0.00    -0.354 N 
ATOM     51  N   UNL     1      -3.516  11.903   5.018  1.00  0.00    -0.248 NA
ATOM     52  C   UNL     1      -2.426  13.554   6.258  1.00  0.00     0.031 C 
ATOM     53  C   UNL     1      -7.805  12.017   3.913  1.00  0.00     0.029 A 
ATOM     54  C   UNL     1      -6.464  12.018   4.255  1.00  0.00     0.049 A 
ATOM     55  H   UNL     1      -4.955  10.633   3.741  1.00  0.00     0.167 HD
ATOM     56  C   UNL     1      -4.427  12.891   5.359  1.00  0.00     0.074 A 
ATOM     57  C   UNL     1      -3.708  13.874   6.143  1.00  0.00     0.031 C 
ATOM     58  C   UNL     1      -5.741  12.980   5.044  1.00  0.00     0.037 A 
BRANCH  45  59
ATOM     59  C   UNL     1      -7.822   8.296   1.621  1.00  0.00     0.064 A 
ATOM     60  C   UNL     1      -8.469   7.165   2.136  1.00  0.00     0.173 A 
ATOM     61  C   UNL     1      -8.360   8.891   0.467  1.00  0.00     0.173 A 
ATOM     62  F   UNL     1      -7.990   6.554   3.230  1.00  0.00    -0.203 F 
ATOM     63  C   UNL     1      -9.606   6.648   1.518  1.00  0.00     0.198 A 
ATOM     64  C   UNL     1      -9.510   8.387  -0.134  1.00  0.00     0.198 A 
ATOM     65  F   UNL     1      -7.784   9.982  -0.061  1.00  0.00    -0.203 F 
ATOM     66  F   UNL     1     -10.197   5.551   2.013  1.00  0.00    -0.200 F 
ATOM     67  C   UNL     1     -10.131   7.264   0.390  1.00  0.00     0.200 A 
ATOM     68  F   UNL     1     -10.022   8.993  -1.214  1.00  0.00    -0.200 F 
ATOM     69  F   UNL     1     -11.235   6.775  -0.191  1.00  0.00    -0.200 F 
ENDBRANCH  45  59
BRANCH  46  70
ATOM     70  C   UNL     1       0.166  12.216   6.081  1.00  0.00     0.064 A 
ATOM     71  C   UNL     1       0.320  12.267   7.472  1.00  0.00     0.173 A 
ATOM     72  C   UNL     1       1.191  12.754   5.288  1.00  0.00     0.173 A 
ATOM     73  F   UNL     1      -0.647  11.792   8.271  1.00  0.00    -0.203 F 
ATOM     74  C   UNL     1       1.454  12.838   8.047  1.00  0.00     0.198 A 
ATOM     75  C   UNL     1       2.339  13.293   5.863  1.00  0.00     0.198 A 
ATOM     76  F   UNL     1       1.090  12.730   3.951  1.00  0.00    -0.203 F 
ATOM     77  F   UNL     1       1.561  12.909   9.381  1.00  0.00    -0.200 F 
ATOM     78  C   UNL     1       2.466  13.340   7.243  1.00  0.00     0.200 A 
ATOM     79  F   UNL     1       3.322  13.759   5.081  1.00  0.00    -0.200 F 
ATOM     80  F   UNL     1       3.563  13.874   7.797  1.00  0.00    -0.200 F 
ENDBRANCH  46  70
BRANCH  58  81
ATOM     81  C   UNL     1      -6.496  14.153   5.588  1.00  0.00     0.064 A 
ATOM     82  C   UNL     1      -6.353  15.436   5.040  1.00  0.00     0.173 A 
ATOM     83  C   UNL     1      -7.391  13.986   6.654  1.00  0.00     0.173 A 
ATOM     84  F   UNL     1      -5.494  15.647   4.032  1.00  0.00    -0.203 F 
ATOM     85  C   UNL     1      -7.067  16.515   5.555  1.00  0.00     0.198 A 
ATOM     86  C   UNL     1      -8.120  15.062   7.152  1.00  0.00     0.198 A 
ATOM     87  F   UNL     1      -7.562  12.776   7.209  1.00  0.00    -0.203 F 
ATOM     88  F   UNL     1      -6.886  17.740   5.045  1.00  0.00    -0.200 F 
ATOM     89  C   UNL     1      -7.952  16.326   6.606  1.00  0.00     0.200 A 
ATOM     90  F   UNL     1      -8.980  14.877   8.163  1.00  0.00    -0.200 F 
ATOM     91  F   UNL     1      -8.639  17.365   7.100  1.00  0.00    -0.200 F 
ENDBRANCH  58  81
ENDBRANCH  32  33
ENDBRANCH  25  27
ENDBRANCH  24  25
ENDBRANCH  23  24
ENDBRANCH   1  23
TORSDOF 16
