REMARK SMILES C[C@@H]1CN(C(=O)Nc2ccc(O)c(C(=O)OCCOC(=O)c3ccc(-c4c5nc(c(-c6c(F)c(F)c(F)c(F)c6F)c6ccc([nH]6)c(-c6c(F)c(F)c(F)c(F)c6F)c6nc(c(-c7c(F)c(F)c(F)c(F)c7F)c7ccc4[nH]7)C=C6)C=C5)cc3)c2)C[C@H]1C
REMARK SMILES IDX 18 1 17 2 16 3 14 4 15 5 13 6 8 7 9 8 85 9 10 10 11 11 7 12
REMARK SMILES IDX 1 13 2 14 3 15 87 16 4 17 86 18 88 19 5 20 6 21 12 23 19 25
REMARK SMILES IDX 20 26 21 27 22 28 23 29 84 30 24 31 83 32 25 33 26 34 27 35
REMARK SMILES IDX 77 36 28 37 82 38 76 39 78 40 29 41 81 42 75 43 74 44 30 46
REMARK SMILES IDX 62 47 42 48 61 49 43 50 46 51 60 52 79 53 44 54 45 55 59 57
REMARK SMILES IDX 80 58 47 59 31 60 32 61 40 62 33 63 34 64 38 65 41 66 35 67
REMARK SMILES IDX 36 68 39 69 37 70 63 71 64 72 72 73 65 74 66 75 70 76 73 77
REMARK SMILES IDX 67 78 68 79 71 80 69 81 48 82 49 83 57 84 50 85 51 86 55 87
REMARK SMILES IDX 58 88 52 89 53 90 56 91 54 92
REMARK H PARENT 7 22 12 24 78 45 46 56
REMARK Flexibility Score: inf
ROOT
ATOM      1  C   UNL     1      -0.419   8.664   2.573  1.00  0.00     0.275 C 
ENDROOT
BRANCH   1   2
ATOM      2  C   UNL     1       0.216   7.335   2.970  1.00  0.00     0.275 C 
BRANCH   2   3
ATOM      3  O   UNL     1       0.634   6.630   1.788  1.00  0.00    -0.458 OA
BRANCH   3   4
ATOM      4  C   UNL     1      -0.057   5.512   1.471  1.00  0.00     0.342 C 
ATOM      5  O   UNL     1      -1.002   5.040   2.087  1.00  0.00    -0.246 OA
BRANCH   4   6
ATOM      6  C   UNL     1       0.354   4.999   0.144  1.00  0.00     0.103 A 
ATOM      7  C   UNL     1      -0.360   3.943  -1.917  1.00  0.00     0.044 A 
ATOM      8  C   UNL     1       0.942   4.005  -2.408  1.00  0.00     0.030 A 
ATOM      9  C   UNL     1      -0.660   4.465  -0.664  1.00  0.00     0.045 A 
ATOM     10  C   UNL     1       1.964   4.512  -1.600  1.00  0.00     0.049 A 
ATOM     11  C   UNL     1       1.674   4.984  -0.317  1.00  0.00     0.130 A 
BRANCH   7  12
ATOM     12  N   UNL     1      -1.391   3.363  -2.652  1.00  0.00    -0.308 N 
ATOM     13  C   UNL     1       0.995  -0.580   0.229  1.00  0.00     0.010 C 
ATOM     14  C   UNL     1       0.538  -0.376  -1.207  1.00  0.00     0.010 C 
ATOM     15  C   UNL     1       0.170   1.079  -1.481  1.00  0.00     0.125 C 
ATOM     16  C   UNL     1      -0.746  -1.124  -1.579  1.00  0.00     0.010 C 
ATOM     17  N   UNL     1      -0.861   1.048  -2.509  1.00  0.00    -0.324 N 
ATOM     18  C   UNL     1      -1.255  -0.326  -2.782  1.00  0.00     0.125 C 
ATOM     19  C   UNL     1      -0.513  -2.590  -1.901  1.00  0.00     0.010 C 
ATOM     20  C   UNL     1      -1.584   2.076  -3.050  1.00  0.00     0.321 C 
ATOM     21  O   UNL     1      -2.519   1.869  -3.829  1.00  0.00    -0.248 OA
ATOM     22  H   UNL     1      -2.099   3.989  -2.930  1.00  0.00     0.171 HD
ENDBRANCH   7  12
BRANCH  11  23
ATOM     23  O   UNL     1       2.698   5.372   0.499  1.00  0.00    -0.507 OA
ATOM     24  H   UNL     1       3.580   5.358   0.183  1.00  0.00     0.293 HD
ENDBRANCH  11  23
ENDBRANCH   4   6
ENDBRANCH   3   4
ENDBRANCH   2   3
ENDBRANCH   1   2
BRANCH   1  25
ATOM     25  O   UNL     1      -1.663   8.414   1.890  1.00  0.00    -0.458 OA
BRANCH  25  26
ATOM     26  C   UNL     1      -1.703   8.771   0.587  1.00  0.00     0.338 C 
ATOM     27  O   UNL     1      -0.847   9.341  -0.065  1.00  0.00    -0.246 OA
BRANCH  26  28
ATOM     28  C   UNL     1      -2.982   8.335   0.007  1.00  0.00     0.060 A 
ATOM     29  C   UNL     1      -3.212   6.974  -0.177  1.00  0.00     0.016 A 
ATOM     30  C   UNL     1      -3.896   9.271  -0.470  1.00  0.00     0.016 A 
ATOM     31  C   UNL     1      -4.307   6.541  -0.924  1.00  0.00     0.010 A 
ATOM     32  C   UNL     1      -5.048   8.830  -1.131  1.00  0.00     0.010 A 
ATOM     33  C   UNL     1      -5.250   7.463  -1.402  1.00  0.00    -0.014 A 
BRANCH  33  34
ATOM     34  C   UNL     1      -6.423   7.012  -2.209  1.00  0.00     0.031 A 
ATOM     35  C   UNL     1      -6.643   7.564  -3.596  1.00  0.00     0.074 A 
ATOM     36  C   UNL     1      -7.301   6.119  -1.710  1.00  0.00     0.049 A 
ATOM     37  N   UNL     1      -7.695   7.466  -4.372  1.00  0.00    -0.248 NA
ATOM     38  C   UNL     1      -5.542   8.344  -4.183  1.00  0.00     0.031 C 
ATOM     39  C   UNL     1      -7.205   5.471  -0.402  1.00  0.00     0.029 A 
ATOM     40  N   UNL     1      -8.457   5.602  -2.247  1.00  0.00    -0.354 N 
ATOM     41  C   UNL     1      -7.409   8.225  -5.500  1.00  0.00     0.074 A 
ATOM     42  C   UNL     1      -6.082   8.772  -5.316  1.00  0.00     0.031 C 
ATOM     43  C   UNL     1      -8.236   4.627  -0.249  1.00  0.00     0.029 A 
ATOM     44  C   UNL     1      -9.115   4.735  -1.408  1.00  0.00     0.049 A 
ATOM     45  H   UNL     1      -8.783   5.832  -3.148  1.00  0.00     0.167 HD
ATOM     46  C   UNL     1      -8.186   8.448  -6.587  1.00  0.00     0.037 A 
ATOM     47  C   UNL     1     -10.313   4.130  -1.530  1.00  0.00     0.037 A 
ATOM     48  C   UNL     1      -9.470   7.837  -6.811  1.00  0.00     0.049 A 
ATOM     49  C   UNL     1     -11.151   4.391  -2.751  1.00  0.00     0.074 A 
ATOM     50  C   UNL     1     -10.307   7.967  -7.907  1.00  0.00     0.029 A 
ATOM     51  N   UNL     1     -10.093   6.963  -5.935  1.00  0.00    -0.354 N 
ATOM     52  N   UNL     1     -10.887   5.144  -3.790  1.00  0.00    -0.248 NA
ATOM     53  C   UNL     1     -12.466   3.734  -2.805  1.00  0.00     0.031 C 
ATOM     54  C   UNL     1     -11.452   7.198  -7.679  1.00  0.00     0.029 A 
ATOM     55  C   UNL     1     -11.310   6.558  -6.459  1.00  0.00     0.049 A 
ATOM     56  H   UNL     1      -9.726   6.674  -5.068  1.00  0.00     0.167 HD
ATOM     57  C   UNL     1     -11.991   5.039  -4.626  1.00  0.00     0.074 A 
ATOM     58  C   UNL     1     -12.920   4.134  -3.984  1.00  0.00     0.031 C 
ATOM     59  C   UNL     1     -12.218   5.647  -5.815  1.00  0.00     0.037 A 
BRANCH  46  60
ATOM     60  C   UNL     1      -7.693   9.417  -7.621  1.00  0.00     0.064 A 
ATOM     61  C   UNL     1      -6.681   9.085  -8.531  1.00  0.00     0.173 A 
ATOM     62  C   UNL     1      -8.311  10.671  -7.753  1.00  0.00     0.173 A 
ATOM     63  F   UNL     1      -6.053   7.903  -8.441  1.00  0.00    -0.203 F 
ATOM     64  C   UNL     1      -6.299   9.976  -9.531  1.00  0.00     0.198 A 
ATOM     65  C   UNL     1      -7.944  11.550  -8.768  1.00  0.00     0.198 A 
ATOM     66  F   UNL     1      -9.291  11.034  -6.911  1.00  0.00    -0.203 F 
ATOM     67  F   UNL     1      -5.312   9.649 -10.377  1.00  0.00    -0.200 F 
ATOM     68  C   UNL     1      -6.937  11.202  -9.655  1.00  0.00     0.200 A 
ATOM     69  F   UNL     1      -8.571  12.727  -8.894  1.00  0.00    -0.200 F 
ATOM     70  F   UNL     1      -6.580  12.050 -10.631  1.00  0.00    -0.200 F 
ENDBRANCH  46  60
BRANCH  47  71
ATOM     71  C   UNL     1     -10.821   3.256  -0.439  1.00  0.00     0.064 A 
ATOM     72  C   UNL     1     -10.982   1.877  -0.631  1.00  0.00     0.173 A 
ATOM     73  C   UNL     1     -11.180   3.787   0.810  1.00  0.00     0.173 A 
ATOM     74  F   UNL     1     -10.683   1.327  -1.817  1.00  0.00    -0.203 F 
ATOM     75  C   UNL     1     -11.500   1.066   0.377  1.00  0.00     0.198 A 
ATOM     76  C   UNL     1     -11.666   2.970   1.827  1.00  0.00     0.198 A 
ATOM     77  F   UNL     1     -11.050   5.101   1.044  1.00  0.00    -0.203 F 
ATOM     78  F   UNL     1     -11.695  -0.240   0.149  1.00  0.00    -0.200 F 
ATOM     79  C   UNL     1     -11.835   1.612   1.607  1.00  0.00     0.200 A 
ATOM     80  F   UNL     1     -11.977   3.500   3.018  1.00  0.00    -0.200 F 
ATOM     81  F   UNL     1     -12.332   0.831   2.576  1.00  0.00    -0.200 F 
ENDBRANCH  47  71
BRANCH  59  82
ATOM     82  C   UNL     1     -13.505   5.328  -6.513  1.00  0.00     0.064 A 
ATOM     83  C   UNL     1     -14.728   5.849  -6.068  1.00  0.00     0.173 A 
ATOM     84  C   UNL     1     -13.510   4.520  -7.660  1.00  0.00     0.173 A 
ATOM     85  F   UNL     1     -14.776   6.614  -4.967  1.00  0.00    -0.203 F 
ATOM     86  C   UNL     1     -15.915   5.553  -6.733  1.00  0.00     0.198 A 
ATOM     87  C   UNL     1     -14.695   4.246  -8.337  1.00  0.00     0.198 A 
ATOM     88  F   UNL     1     -12.364   4.003  -8.128  1.00  0.00    -0.203 F 
ATOM     89  F   UNL     1     -17.078   6.026  -6.266  1.00  0.00    -0.200 F 
ATOM     90  C   UNL     1     -15.896   4.757  -7.870  1.00  0.00     0.200 A 
ATOM     91  F   UNL     1     -14.674   3.486  -9.440  1.00  0.00    -0.200 F 
ATOM     92  F   UNL     1     -17.039   4.476  -8.511  1.00  0.00    -0.200 F 
ENDBRANCH  59  82
ENDBRANCH  33  34
ENDBRANCH  26  28
ENDBRANCH  25  26
ENDBRANCH   1  25
TORSDOF 13
