REMARK SMILES CC/C=C/C/C=C/C/C=C/C/C=C/CCSCCCC(=O)OCCOC(=O)c1ccc(-c2c3nc(c(-c4c(F)c(F)c(F)c(F)c4F)c4ccc([nH]4)c(-c4c(F)c(F)c(F)c(F)c4F)c4nc(c(-c5c(F)c(F)c(F)c(F)c5F)c5ccc2[nH]5)C=C4)C=C3)cc1
REMARK SMILES IDX 17 1 16 2 15 3 14 4 13 5 12 6 11 7 10 8 9 9 8 10 7 11 6 12
REMARK SMILES IDX 5 13 4 14 3 15 2 16 1 17 18 18 19 19 20 20 21 21 22 22 23 23
REMARK SMILES IDX 24 24 25 25 26 26 27 27 28 28 29 29 90 30 30 31 89 32 31 33
REMARK SMILES IDX 32 34 33 35 83 36 34 37 88 38 82 39 84 40 35 41 87 42 81 43
REMARK SMILES IDX 80 44 36 46 68 47 48 48 67 49 49 50 52 51 66 52 85 53 50 54
REMARK SMILES IDX 51 55 65 57 86 58 53 59 37 60 38 61 46 62 39 63 40 64 44 65
REMARK SMILES IDX 47 66 41 67 42 68 45 69 43 70 69 71 70 72 78 73 71 74 72 75
REMARK SMILES IDX 76 76 79 77 73 78 74 79 77 80 75 81 54 82 55 83 63 84 56 85
REMARK SMILES IDX 57 86 61 87 64 88 58 89 59 90 62 91 60 92
REMARK H PARENT 84 45 52 56
REMARK Flexibility Score: inf
ROOT
ATOM      1  C   UNL     1      -7.074  -9.606   8.881  1.00  0.00     0.070 C 
ENDROOT
BRANCH   1   2
ATOM      2  S   UNL     1      -7.522 -10.929   7.701  1.00  0.00    -0.162 SA
BRANCH   2   3
ATOM      3  C   UNL     1      -6.440 -10.715   6.237  1.00  0.00     0.073 C 
BRANCH   3   4
ATOM      4  C   UNL     1      -7.024 -10.005   5.002  1.00  0.00     0.038 C 
BRANCH   4   5
ATOM      5  C   UNL     1      -6.617  -8.564   4.813  1.00  0.00    -0.030 C 
ATOM      6  C   UNL     1      -5.660  -8.147   3.958  1.00  0.00    -0.027 C 
BRANCH   6   7
ATOM      7  C   UNL     1      -5.219  -6.716   3.717  1.00  0.00     0.054 C 
BRANCH   7   8
ATOM      8  C   UNL     1      -3.739  -6.526   3.930  1.00  0.00    -0.027 C 
ATOM      9  C   UNL     1      -3.127  -5.335   4.070  1.00  0.00    -0.027 C 
BRANCH   9  10
ATOM     10  C   UNL     1      -1.659  -5.193   4.360  1.00  0.00     0.054 C 
BRANCH  10  11
ATOM     11  C   UNL     1      -0.820  -5.259   3.122  1.00  0.00    -0.027 C 
ATOM     12  C   UNL     1       0.156  -4.387   2.822  1.00  0.00    -0.027 C 
BRANCH  12  13
ATOM     13  C   UNL     1       0.920  -4.419   1.530  1.00  0.00     0.054 C 
BRANCH  13  14
ATOM     14  C   UNL     1       0.416  -3.320   0.643  1.00  0.00    -0.027 C 
ATOM     15  C   UNL     1       1.177  -2.348   0.119  1.00  0.00    -0.031 C 
BRANCH  15  16
ATOM     16  C   UNL     1       0.613  -1.202  -0.668  1.00  0.00     0.023 C 
ATOM     17  C   UNL     1       0.993   0.124  -0.029  1.00  0.00     0.008 C 
ENDBRANCH  15  16
ENDBRANCH  13  14
ENDBRANCH  12  13
ENDBRANCH  10  11
ENDBRANCH   9  10
ENDBRANCH   7   8
ENDBRANCH   6   7
ENDBRANCH   4   5
ENDBRANCH   3   4
ENDBRANCH   2   3
ENDBRANCH   1   2
BRANCH   1  18
ATOM     18  C   UNL     1      -5.665  -9.539   9.480  1.00  0.00     0.023 C 
BRANCH  18  19
ATOM     19  C   UNL     1      -4.537  -9.053   8.589  1.00  0.00     0.123 C 
BRANCH  19  20
ATOM     20  C   UNL     1      -4.869  -7.865   7.725  1.00  0.00     0.305 C 
ATOM     21  O   UNL     1      -4.282  -7.655   6.673  1.00  0.00    -0.252 OA
BRANCH  20  22
ATOM     22  O   UNL     1      -5.804  -7.050   8.276  1.00  0.00    -0.462 OA
BRANCH  22  23
ATOM     23  C   UNL     1      -6.295  -5.971   7.465  1.00  0.00     0.274 C 
BRANCH  23  24
ATOM     24  C   UNL     1      -5.603  -4.638   7.726  1.00  0.00     0.275 C 
BRANCH  24  25
ATOM     25  O   UNL     1      -4.196  -4.699   7.465  1.00  0.00    -0.458 OA
BRANCH  25  26
ATOM     26  C   UNL     1      -3.461  -5.206   8.483  1.00  0.00     0.338 C 
ATOM     27  O   UNL     1      -3.839  -5.539   9.591  1.00  0.00    -0.246 OA
BRANCH  26  28
ATOM     28  C   UNL     1      -2.088  -5.406   8.017  1.00  0.00     0.060 A 
ATOM     29  C   UNL     1      -1.576  -6.706   7.952  1.00  0.00     0.016 A 
ATOM     30  C   UNL     1      -1.292  -4.302   7.724  1.00  0.00     0.016 A 
ATOM     31  C   UNL     1      -0.249  -6.916   7.615  1.00  0.00     0.010 A 
ATOM     32  C   UNL     1       0.039  -4.511   7.377  1.00  0.00     0.010 A 
ATOM     33  C   UNL     1       0.569  -5.816   7.354  1.00  0.00    -0.014 A 
BRANCH  33  34
ATOM     34  C   UNL     1       2.029  -6.007   7.272  1.00  0.00     0.031 A 
ATOM     35  C   UNL     1       2.848  -5.543   8.438  1.00  0.00     0.074 A 
ATOM     36  C   UNL     1       2.595  -6.597   6.208  1.00  0.00     0.049 A 
ATOM     37  N   UNL     1       4.144  -5.443   8.557  1.00  0.00    -0.248 NA
ATOM     38  C   UNL     1       2.095  -5.111   9.628  1.00  0.00     0.031 C 
ATOM     39  C   UNL     1       1.879  -7.153   5.062  1.00  0.00     0.029 A 
ATOM     40  N   UNL     1       3.916  -6.816   5.918  1.00  0.00    -0.354 N 
ATOM     41  C   UNL     1       4.356  -4.902   9.817  1.00  0.00     0.074 A 
ATOM     42  C   UNL     1       3.061  -4.653  10.406  1.00  0.00     0.031 C 
ATOM     43  C   UNL     1       2.771  -7.633   4.180  1.00  0.00     0.029 A 
ATOM     44  C   UNL     1       4.117  -7.379   4.683  1.00  0.00     0.049 A 
ATOM     45  H   UNL     1       4.649  -6.591   6.535  1.00  0.00     0.167 HD
ATOM     46  C   UNL     1       5.535  -4.652  10.431  1.00  0.00     0.037 A 
ATOM     47  C   UNL     1       5.268  -7.627   4.031  1.00  0.00     0.037 A 
ATOM     48  C   UNL     1       6.811  -4.936   9.838  1.00  0.00     0.049 A 
ATOM     49  C   UNL     1       6.569  -7.282   4.709  1.00  0.00     0.074 A 
ATOM     50  C   UNL     1       8.073  -4.729  10.360  1.00  0.00     0.029 A 
ATOM     51  N   UNL     1       6.980  -5.500   8.580  1.00  0.00    -0.354 N 
ATOM     52  N   UNL     1       6.774  -6.756   5.894  1.00  0.00    -0.248 NA
ATOM     53  C   UNL     1       7.800  -7.566   3.961  1.00  0.00     0.031 C 
ATOM     54  C   UNL     1       9.008  -5.126   9.398  1.00  0.00     0.029 A 
ATOM     55  C   UNL     1       8.329  -5.635   8.301  1.00  0.00     0.049 A 
ATOM     56  H   UNL     1       6.249  -5.765   7.976  1.00  0.00     0.167 HD
ATOM     57  C   UNL     1       8.151  -6.679   6.048  1.00  0.00     0.074 A 
ATOM     58  C   UNL     1       8.733  -7.224   4.838  1.00  0.00     0.031 C 
ATOM     59  C   UNL     1       8.874  -6.201   7.092  1.00  0.00     0.037 A 
BRANCH  46  60
ATOM     60  C   UNL     1       5.476  -4.015  11.788  1.00  0.00     0.064 A 
ATOM     61  C   UNL     1       4.975  -4.699  12.907  1.00  0.00     0.173 A 
ATOM     62  C   UNL     1       5.896  -2.689  11.964  1.00  0.00     0.173 A 
ATOM     63  F   UNL     1       4.536  -5.961  12.787  1.00  0.00    -0.203 F 
ATOM     64  C   UNL     1       4.857  -4.064  14.141  1.00  0.00     0.198 A 
ATOM     65  C   UNL     1       5.810  -2.069  13.208  1.00  0.00     0.198 A 
ATOM     66  F   UNL     1       6.379  -1.988  10.927  1.00  0.00    -0.203 F 
ATOM     67  F   UNL     1       4.305  -4.713  15.176  1.00  0.00    -0.200 F 
ATOM     68  C   UNL     1       5.279  -2.752  14.291  1.00  0.00     0.200 A 
ATOM     69  F   UNL     1       6.227  -0.804  13.353  1.00  0.00    -0.200 F 
ATOM     70  F   UNL     1       5.161  -2.141  15.478  1.00  0.00    -0.200 F 
ENDBRANCH  46  60
BRANCH  47  71
ATOM     71  C   UNL     1       5.244  -8.215   2.666  1.00  0.00     0.064 A 
ATOM     72  C   UNL     1       5.744  -9.503   2.427  1.00  0.00     0.173 A 
ATOM     73  C   UNL     1       4.745  -7.497   1.569  1.00  0.00     0.173 A 
ATOM     74  F   UNL     1       6.249 -10.224   3.439  1.00  0.00    -0.203 F 
ATOM     75  C   UNL     1       5.773 -10.037   1.140  1.00  0.00     0.198 A 
ATOM     76  C   UNL     1       4.747  -8.044   0.287  1.00  0.00     0.198 A 
ATOM     77  F   UNL     1       4.250  -6.262   1.741  1.00  0.00    -0.203 F 
ATOM     78  F   UNL     1       6.309 -11.248   0.932  1.00  0.00    -0.200 F 
ATOM     79  C   UNL     1       5.272  -9.309   0.072  1.00  0.00     0.200 A 
ATOM     80  F   UNL     1       4.249  -7.342  -0.740  1.00  0.00    -0.200 F 
ATOM     81  F   UNL     1       5.304  -9.822  -1.166  1.00  0.00    -0.200 F 
ENDBRANCH  47  71
BRANCH  59  82
ATOM     82  C   UNL     1      10.368  -6.295   6.995  1.00  0.00     0.064 A 
ATOM     83  C   UNL     1      11.105  -5.478   6.125  1.00  0.00     0.173 A 
ATOM     84  C   UNL     1      11.075  -7.173   7.832  1.00  0.00     0.173 A 
ATOM     85  F   UNL     1      10.474  -4.633   5.295  1.00  0.00    -0.203 F 
ATOM     86  C   UNL     1      12.494  -5.554   6.080  1.00  0.00     0.198 A 
ATOM     87  C   UNL     1      12.465  -7.220   7.809  1.00  0.00     0.198 A 
ATOM     88  F   UNL     1      10.417  -7.968   8.688  1.00  0.00    -0.203 F 
ATOM     89  F   UNL     1      13.175  -4.798   5.208  1.00  0.00    -0.200 F 
ATOM     90  C   UNL     1      13.173  -6.417   6.928  1.00  0.00     0.200 A 
ATOM     91  F   UNL     1      13.120  -8.040   8.643  1.00  0.00    -0.200 F 
ATOM     92  F   UNL     1      14.511  -6.476   6.894  1.00  0.00    -0.200 F 
ENDBRANCH  59  82
ENDBRANCH  33  34
ENDBRANCH  26  28
ENDBRANCH  25  26
ENDBRANCH  24  25
ENDBRANCH  23  24
ENDBRANCH  22  23
ENDBRANCH  20  22
ENDBRANCH  19  20
ENDBRANCH  18  19
ENDBRANCH   1  18
TORSDOF 24
