REMARK SMILES CC(C)[C@H]([NH2+]C[C@H]1CC[C@@H](C(=O)OCCOC(=O)c2ccc(-c3c4nc(c(-c5c(F)c(F)c(F)c(F)c5F)c5ccc([nH]5)c(-c5c(F)c(F)c(F)c(F)c5F)c5nc(c(-c6c(F)c(F)c(F)c(F)c6F)c6ccc3[nH]6)C=C5)C=C4)cc2)CC1)c1ccccc1
REMARK SMILES IDX 14 1 13 2 11 3 12 4 10 5 7 6 8 7 83 8 9 9 82 10 6 11 5 12
REMARK SMILES IDX 4 15 2 16 1 17 3 18 84 19 85 20 89 21 86 22 88 23 87 24
REMARK SMILES IDX 15 25 16 26 17 27 18 28 19 29 20 30 81 31 21 32 80 33 22 34
REMARK SMILES IDX 23 35 24 36 74 37 25 38 79 39 73 40 75 41 26 42 78 43 72 44
REMARK SMILES IDX 71 45 27 47 59 48 39 49 58 50 40 51 43 52 57 53 76 54 41 55
REMARK SMILES IDX 42 56 56 58 77 59 44 60 28 61 29 62 37 63 30 64 31 65 35 66
REMARK SMILES IDX 38 67 32 68 33 69 36 70 34 71 60 72 61 73 69 74 62 75 63 76
REMARK SMILES IDX 67 77 70 78 64 79 65 80 68 81 66 82 45 83 46 84 54 85 47 86
REMARK SMILES IDX 48 87 52 88 55 89 49 90 50 91 53 92 51 93
REMARK H PARENT 5 13 5 14 75 46 43 57
REMARK Flexibility Score: inf
ROOT
ATOM      1  C   UNL     1       2.935  -2.392   4.945  1.00  0.00     0.274 C 
ENDROOT
BRANCH   1   2
ATOM      2  O   UNL     1       3.344  -1.675   3.765  1.00  0.00    -0.462 OA
BRANCH   2   3
ATOM      3  C   UNL     1       4.394  -0.825   3.880  1.00  0.00     0.309 C 
ATOM      4  O   UNL     1       4.991  -0.590   4.924  1.00  0.00    -0.252 OA
BRANCH   3   5
ATOM      5  C   UNL     1       4.757  -0.144   2.561  1.00  0.00     0.099 C 
ATOM      6  C   UNL     1       2.283   0.362   0.961  1.00  0.00     0.044 C 
ATOM      7  C   UNL     1       2.648   1.188   2.211  1.00  0.00     0.010 C 
ATOM      8  C   UNL     1       2.994  -1.000   0.911  1.00  0.00     0.010 C 
ATOM      9  C   UNL     1       4.143   1.245   2.479  1.00  0.00     0.016 C 
ATOM     10  C   UNL     1       4.469  -0.949   1.293  1.00  0.00     0.016 C 
BRANCH   6  11
ATOM     11  C   UNL     1       0.758   0.109   0.893  1.00  0.00     0.264 C 
BRANCH  11  12
ATOM     12  N   UNL     1       0.025   1.351   0.748  1.00  0.00    -0.340 N 
ATOM     13  H   UNL     1       0.371   1.980   1.472  1.00  0.00     0.346 HD
ATOM     14  H   UNL     1       0.196   1.605  -0.225  1.00  0.00     0.346 HD
BRANCH  12  15
ATOM     15  C   UNL     1      -1.457   1.367   0.842  1.00  0.00     0.216 C 
BRANCH  15  16
ATOM     16  C   UNL     1      -2.119   0.110   1.532  1.00  0.00     0.046 C 
ATOM     17  C   UNL     1      -3.479   0.286   2.218  1.00  0.00     0.014 C 
ATOM     18  C   UNL     1      -2.312  -1.012   0.486  1.00  0.00     0.014 C 
ENDBRANCH  15  16
BRANCH  15  19
ATOM     19  C   UNL     1      -1.817   2.809   1.239  1.00  0.00     0.009 A 
ATOM     20  C   UNL     1      -1.458   3.832   0.327  1.00  0.00     0.010 A 
ATOM     21  C   UNL     1      -2.350   3.212   2.466  1.00  0.00     0.010 A 
ATOM     22  C   UNL     1      -1.641   5.184   0.622  1.00  0.00     0.001 A 
ATOM     23  C   UNL     1      -2.583   4.566   2.743  1.00  0.00     0.001 A 
ATOM     24  C   UNL     1      -2.223   5.551   1.827  1.00  0.00     0.000 A 
ENDBRANCH  15  19
ENDBRANCH  12  15
ENDBRANCH  11  12
ENDBRANCH   6  11
ENDBRANCH   3   5
ENDBRANCH   2   3
ENDBRANCH   1   2
BRANCH   1  25
ATOM     25  C   UNL     1       3.379  -3.853   4.872  1.00  0.00     0.275 C 
BRANCH  25  26
ATOM     26  O   UNL     1       4.815  -3.945   4.889  1.00  0.00    -0.458 OA
BRANCH  26  27
ATOM     27  C   UNL     1       5.399  -4.122   3.685  1.00  0.00     0.338 C 
ATOM     28  O   UNL     1       4.855  -4.296   2.603  1.00  0.00    -0.246 OA
BRANCH  27  29
ATOM     29  C   UNL     1       6.846  -3.943   3.830  1.00  0.00     0.060 A 
ATOM     30  C   UNL     1       7.410  -2.737   3.408  1.00  0.00     0.016 A 
ATOM     31  C   UNL     1       7.650  -4.974   4.311  1.00  0.00     0.016 A 
ATOM     32  C   UNL     1       8.785  -2.547   3.464  1.00  0.00     0.010 A 
ATOM     33  C   UNL     1       9.033  -4.783   4.373  1.00  0.00     0.010 A 
ATOM     34  C   UNL     1       9.607  -3.572   3.942  1.00  0.00    -0.014 A 
BRANCH  34  35
ATOM     35  C   UNL     1      11.077  -3.404   3.933  1.00  0.00     0.031 A 
ATOM     36  C   UNL     1      11.895  -4.147   2.921  1.00  0.00     0.074 A 
ATOM     37  C   UNL     1      11.666  -2.584   4.821  1.00  0.00     0.049 A 
ATOM     38  N   UNL     1      13.194  -4.272   2.834  1.00  0.00    -0.248 NA
ATOM     39  C   UNL     1      11.148  -4.847   1.864  1.00  0.00     0.031 C 
ATOM     40  C   UNL     1      10.965  -1.759   5.803  1.00  0.00     0.029 A 
ATOM     41  N   UNL     1      12.994  -2.322   5.048  1.00  0.00    -0.354 N 
ATOM     42  C   UNL     1      13.420  -5.085   1.732  1.00  0.00     0.074 A 
ATOM     43  C   UNL     1      12.125  -5.433   1.187  1.00  0.00     0.031 C 
ATOM     44  C   UNL     1      11.869  -1.093   6.539  1.00  0.00     0.029 A 
ATOM     45  C   UNL     1      13.210  -1.489   6.117  1.00  0.00     0.049 A 
ATOM     46  H   UNL     1      13.720  -2.696   4.498  1.00  0.00     0.167 HD
ATOM     47  C   UNL     1      14.605  -5.500   1.226  1.00  0.00     0.037 A 
ATOM     48  C   UNL     1      14.360  -1.125   6.714  1.00  0.00     0.037 A 
ATOM     49  C   UNL     1      15.886  -5.136   1.771  1.00  0.00     0.049 A 
ATOM     50  C   UNL     1      15.661  -1.660   6.178  1.00  0.00     0.074 A 
ATOM     51  C   UNL     1      17.147  -5.508   1.341  1.00  0.00     0.029 A 
ATOM     52  N   UNL     1      16.066  -4.306   2.869  1.00  0.00    -0.354 N 
ATOM     53  N   UNL     1      15.871  -2.455   5.157  1.00  0.00    -0.248 NA
ATOM     54  C   UNL     1      16.885  -1.255   6.884  1.00  0.00     0.031 C 
ATOM     55  C   UNL     1      18.089  -4.934   2.202  1.00  0.00     0.029 A 
ATOM     56  C   UNL     1      17.417  -4.168   3.141  1.00  0.00     0.049 A 
ATOM     57  H   UNL     1      15.340  -3.879   3.380  1.00  0.00     0.167 HD
ATOM     58  C   UNL     1      17.246  -2.629   5.084  1.00  0.00     0.074 A 
ATOM     59  C   UNL     1      17.823  -1.846   6.157  1.00  0.00     0.031 C 
ATOM     60  C   UNL     1      17.967  -3.372   4.209  1.00  0.00     0.037 A 
BRANCH  47  61
ATOM     61  C   UNL     1      14.567  -6.424   0.045  1.00  0.00     0.064 A 
ATOM     62  C   UNL     1      14.213  -5.973  -1.234  1.00  0.00     0.173 A 
ATOM     63  C   UNL     1      14.915  -7.775   0.193  1.00  0.00     0.173 A 
ATOM     64  F   UNL     1      13.856  -4.694  -1.424  1.00  0.00    -0.203 F 
ATOM     65  C   UNL     1      14.188  -6.846  -2.319  1.00  0.00     0.198 A 
ATOM     66  C   UNL     1      14.914  -8.639  -0.899  1.00  0.00     0.198 A 
ATOM     67  F   UNL     1      15.263  -8.257   1.396  1.00  0.00    -0.203 F 
ATOM     68  F   UNL     1      13.804  -6.403  -3.525  1.00  0.00    -0.200 F 
ATOM     69  C   UNL     1      14.544  -8.176  -2.152  1.00  0.00     0.200 A 
ATOM     70  F   UNL     1      15.267  -9.922  -0.737  1.00  0.00    -0.200 F 
ATOM     71  F   UNL     1      14.523  -9.014  -3.198  1.00  0.00    -0.200 F 
ENDBRANCH  47  61
BRANCH  48  72
ATOM     72  C   UNL     1      14.329  -0.243   7.909  1.00  0.00     0.064 A 
ATOM     73  C   UNL     1      14.826   1.065   7.856  1.00  0.00     0.173 A 
ATOM     74  C   UNL     1      13.806  -0.694   9.131  1.00  0.00     0.173 A 
ATOM     75  F   UNL     1      15.360   1.533   6.718  1.00  0.00    -0.203 F 
ATOM     76  C   UNL     1      14.815   1.885   8.983  1.00  0.00     0.198 A 
ATOM     77  C   UNL     1      13.769   0.136  10.249  1.00  0.00     0.198 A 
ATOM     78  F   UNL     1      13.321  -1.940   9.235  1.00  0.00    -0.203 F 
ATOM     79  F   UNL     1      15.338   3.117   8.918  1.00  0.00    -0.200 F 
ATOM     80  C   UNL     1      14.281   1.422  10.176  1.00  0.00     0.200 A 
ATOM     81  F   UNL     1      13.242  -0.313  11.396  1.00  0.00    -0.200 F 
ATOM     82  F   UNL     1      14.267   2.212  11.258  1.00  0.00    -0.200 F 
ENDBRANCH  48  72
BRANCH  60  83
ATOM     83  C   UNL     1      19.459  -3.343   4.353  1.00  0.00     0.064 A 
ATOM     84  C   UNL     1      20.110  -4.025   5.389  1.00  0.00     0.173 A 
ATOM     85  C   UNL     1      20.247  -2.661   3.413  1.00  0.00     0.173 A 
ATOM     86  F   UNL     1      19.398  -4.677   6.321  1.00  0.00    -0.203 F 
ATOM     87  C   UNL     1      21.499  -4.011   5.491  1.00  0.00     0.198 A 
ATOM     88  C   UNL     1      21.636  -2.671   3.503  1.00  0.00     0.198 A 
ATOM     89  F   UNL     1      19.670  -1.998   2.400  1.00  0.00    -0.203 F 
ATOM     90  F   UNL     1      22.100  -4.637   6.512  1.00  0.00    -0.200 F 
ATOM     91  C   UNL     1      22.260  -3.341   4.544  1.00  0.00     0.200 A 
ATOM     92  F   UNL     1      22.370  -2.033   2.581  1.00  0.00    -0.200 F 
ATOM     93  F   UNL     1      23.596  -3.336   4.639  1.00  0.00    -0.200 F 
ENDBRANCH  60  83
ENDBRANCH  34  35
ENDBRANCH  27  29
ENDBRANCH  26  27
ENDBRANCH  25  26
ENDBRANCH   1  25
TORSDOF 16
