REMARK SMILES C=C1c2ccccc2C(=O)N1[C@](C)(C(=O)OCCOC(=O)c1ccc(-c2c3nc(c(-c4c(F)c(F)c(F)c(F)c4F)c4ccc([nH]4)c(-c4c(F)c(F)c(F)c(F)c4F)c4nc(c(-c5c(F)c(F)c(F)c(F)c5F)c5ccc2[nH]5)C=C4)C=C3)cc1)C(F)(F)F
REMARK SMILES IDX 18 1 17 2 16 3 14 4 15 5 12 6 13 7 11 8 1 9 2 10 3 11 4 12
REMARK SMILES IDX 8 13 9 14 5 15 7 16 10 17 6 18 85 19 86 20 87 21 88 22 19 23
REMARK SMILES IDX 20 24 21 25 22 26 23 27 84 28 24 29 83 30 25 31 26 32 27 33
REMARK SMILES IDX 77 34 28 35 82 36 76 37 78 38 29 39 81 40 75 41 74 42 30 44
REMARK SMILES IDX 62 45 42 46 61 47 43 48 46 49 60 50 79 51 44 52 45 53 59 55
REMARK SMILES IDX 80 56 47 57 31 58 32 59 40 60 33 61 34 62 38 63 41 64 35 65
REMARK SMILES IDX 36 66 39 67 37 68 63 69 64 70 72 71 65 72 66 73 70 74 73 75
REMARK SMILES IDX 67 76 68 77 71 78 69 79 48 80 49 81 57 82 50 83 51 84 55 85
REMARK SMILES IDX 58 86 52 87 53 88 56 89 54 90
REMARK H PARENT 78 43 46 54
REMARK Flexibility Score: inf
ROOT
ATOM      1  C   UNL     1       3.112  -2.149  -4.191  1.00  0.00     0.275 C 
ENDROOT
BRANCH   1   2
ATOM      2  C   UNL     1       3.474  -2.661  -2.800  1.00  0.00     0.274 C 
BRANCH   2   3
ATOM      3  O   UNL     1       2.905  -1.804  -1.785  1.00  0.00    -0.460 OA
BRANCH   3   4
ATOM      4  C   UNL     1       3.771  -1.142  -0.969  1.00  0.00     0.341 C 
ATOM      5  O   UNL     1       4.989  -1.151  -1.129  1.00  0.00    -0.249 OA
BRANCH   4   6
ATOM      6  C   UNL     1       3.083  -0.471   0.229  1.00  0.00     0.238 C 
ATOM      7  C   UNL     1       1.551  -0.666   0.261  1.00  0.00     0.058 C 
BRANCH   6   8
ATOM      8  N   UNL     1       3.724  -1.120   1.407  1.00  0.00    -0.283 N 
ATOM      9  C   UNL     1       5.121   0.597   2.546  1.00  0.00     0.038 C 
ATOM     10  C   UNL     1       4.632  -0.629   2.346  1.00  0.00     0.046 C 
ATOM     11  C   UNL     1       5.028  -1.764   3.190  1.00  0.00     0.010 A 
ATOM     12  C   UNL     1       5.897  -1.885   4.263  1.00  0.00     0.011 A 
ATOM     13  C   UNL     1       4.347  -2.888   2.737  1.00  0.00     0.049 A 
ATOM     14  C   UNL     1       3.528  -2.493   1.598  1.00  0.00     0.260 C 
ATOM     15  C   UNL     1       6.054  -3.143   4.859  1.00  0.00     0.001 A 
ATOM     16  C   UNL     1       4.485  -4.144   3.298  1.00  0.00     0.014 A 
ATOM     17  O   UNL     1       2.854  -3.271   0.944  1.00  0.00    -0.269 OA
ATOM     18  C   UNL     1       5.353  -4.265   4.380  1.00  0.00     0.001 A 
ENDBRANCH   6   8
BRANCH   6  19
ATOM     19  C   UNL     1       3.305   1.026   0.018  1.00  0.00     0.422 C 
ATOM     20  F   UNL     1       2.663   1.481  -1.085  1.00  0.00    -0.168 F 
ATOM     21  F   UNL     1       2.806   1.750   1.053  1.00  0.00    -0.168 F 
ATOM     22  F   UNL     1       4.601   1.380  -0.123  1.00  0.00    -0.168 F 
ENDBRANCH   6  19
ENDBRANCH   4   6
ENDBRANCH   3   4
ENDBRANCH   2   3
ENDBRANCH   1   2
BRANCH   1  23
ATOM     23  O   UNL     1       3.769  -0.891  -4.431  1.00  0.00    -0.458 OA
BRANCH  23  24
ATOM     24  C   UNL     1       3.016   0.193  -4.143  1.00  0.00     0.338 C 
ATOM     25  O   UNL     1       1.846   0.220  -3.800  1.00  0.00    -0.246 OA
BRANCH  24  26
ATOM     26  C   UNL     1       3.848   1.400  -4.167  1.00  0.00     0.060 A 
ATOM     27  C   UNL     1       4.666   1.646  -3.072  1.00  0.00     0.016 A 
ATOM     28  C   UNL     1       3.643   2.387  -5.124  1.00  0.00     0.016 A 
ATOM     29  C   UNL     1       5.136   2.929  -2.832  1.00  0.00     0.010 A 
ATOM     30  C   UNL     1       4.262   3.632  -4.963  1.00  0.00     0.010 A 
ATOM     31  C   UNL     1       4.975   3.937  -3.788  1.00  0.00    -0.014 A 
BRANCH  31  32
ATOM     32  C   UNL     1       5.534   5.299  -3.548  1.00  0.00     0.031 A 
ATOM     33  C   UNL     1       4.655   6.516  -3.672  1.00  0.00     0.074 A 
ATOM     34  C   UNL     1       6.834   5.451  -3.217  1.00  0.00     0.049 A 
ATOM     35  N   UNL     1       4.992   7.781  -3.739  1.00  0.00    -0.248 NA
ATOM     36  C   UNL     1       3.204   6.281  -3.750  1.00  0.00     0.031 C 
ATOM     37  C   UNL     1       7.791   4.364  -2.997  1.00  0.00     0.029 A 
ATOM     38  N   UNL     1       7.580   6.586  -3.008  1.00  0.00    -0.354 N 
ATOM     39  C   UNL     1       3.807   8.481  -3.932  1.00  0.00     0.074 A 
ATOM     40  C   UNL     1       2.742   7.502  -3.981  1.00  0.00     0.031 C 
ATOM     41  C   UNL     1       8.977   4.878  -2.647  1.00  0.00     0.029 A 
ATOM     42  C   UNL     1       8.903   6.328  -2.743  1.00  0.00     0.049 A 
ATOM     43  H   UNL     1       7.203   7.495  -3.045  1.00  0.00     0.167 HD
ATOM     44  C   UNL     1       3.630   9.819  -4.060  1.00  0.00     0.037 A 
ATOM     45  C   UNL     1       9.962   7.154  -2.655  1.00  0.00     0.037 A 
ATOM     46  C   UNL     1       4.694  10.787  -3.957  1.00  0.00     0.049 A 
ATOM     47  C   UNL     1       9.752   8.624  -2.869  1.00  0.00     0.074 A 
ATOM     48  C   UNL     1       4.621  12.166  -4.052  1.00  0.00     0.029 A 
ATOM     49  N   UNL     1       6.027  10.474  -3.725  1.00  0.00    -0.354 N 
ATOM     50  N   UNL     1       8.639   9.276  -3.106  1.00  0.00    -0.248 NA
ATOM     51  C   UNL     1      10.948   9.474  -2.822  1.00  0.00     0.031 C 
ATOM     52  C   UNL     1       5.915  12.683  -3.937  1.00  0.00     0.029 A 
ATOM     53  C   UNL     1       6.788  11.633  -3.701  1.00  0.00     0.049 A 
ATOM     54  H   UNL     1       6.380   9.564  -3.597  1.00  0.00     0.167 HD
ATOM     55  C   UNL     1       8.996  10.612  -3.213  1.00  0.00     0.074 A 
ATOM     56  C   UNL     1      10.426  10.679  -2.993  1.00  0.00     0.031 C 
ATOM     57  C   UNL     1       8.210  11.685  -3.473  1.00  0.00     0.037 A 
BRANCH  44  58
ATOM     58  C   UNL     1       2.245  10.320  -4.369  1.00  0.00     0.064 A 
ATOM     59  C   UNL     1       1.200  10.261  -3.436  1.00  0.00     0.173 A 
ATOM     60  C   UNL     1       1.973  10.908  -5.616  1.00  0.00     0.173 A 
ATOM     61  F   UNL     1       1.399   9.704  -2.232  1.00  0.00    -0.203 F 
ATOM     62  C   UNL     1      -0.071  10.740  -3.750  1.00  0.00     0.198 A 
ATOM     63  C   UNL     1       0.712  11.417  -5.914  1.00  0.00     0.198 A 
ATOM     64  F   UNL     1       2.937  11.001  -6.546  1.00  0.00    -0.203 F 
ATOM     65  F   UNL     1      -1.067  10.624  -2.861  1.00  0.00    -0.200 F 
ATOM     66  C   UNL     1      -0.312  11.324  -4.985  1.00  0.00     0.200 A 
ATOM     67  F   UNL     1       0.488  11.998  -7.101  1.00  0.00    -0.200 F 
ATOM     68  F   UNL     1      -1.532  11.793  -5.281  1.00  0.00    -0.200 F 
ENDBRANCH  44  58
BRANCH  45  69
ATOM     69  C   UNL     1      11.320   6.598  -2.410  1.00  0.00     0.064 A 
ATOM     70  C   UNL     1      12.015   6.886  -1.228  1.00  0.00     0.173 A 
ATOM     71  C   UNL     1      11.952   5.768  -3.350  1.00  0.00     0.173 A 
ATOM     72  F   UNL     1      11.466   7.693  -0.308  1.00  0.00    -0.203 F 
ATOM     73  C   UNL     1      13.294   6.381  -1.003  1.00  0.00     0.198 A 
ATOM     74  C   UNL     1      13.213   5.231  -3.107  1.00  0.00     0.198 A 
ATOM     75  F   UNL     1      11.332   5.457  -4.498  1.00  0.00    -0.203 F 
ATOM     76  F   UNL     1      13.957   6.715   0.112  1.00  0.00    -0.200 F 
ATOM     77  C   UNL     1      13.888   5.546  -1.938  1.00  0.00     0.200 A 
ATOM     78  F   UNL     1      13.774   4.408  -4.004  1.00  0.00    -0.200 F 
ATOM     79  F   UNL     1      15.114   5.054  -1.717  1.00  0.00    -0.200 F 
ENDBRANCH  45  69
BRANCH  57  80
ATOM     80  C   UNL     1       8.876  13.031  -3.483  1.00  0.00     0.064 A 
ATOM     81  C   UNL     1       9.763  13.411  -4.501  1.00  0.00     0.173 A 
ATOM     82  C   UNL     1       8.603  13.962  -2.468  1.00  0.00     0.173 A 
ATOM     83  F   UNL     1      10.073  12.551  -5.483  1.00  0.00    -0.203 F 
ATOM     84  C   UNL     1      10.377  14.661  -4.485  1.00  0.00     0.198 A 
ATOM     85  C   UNL     1       9.189  15.223  -2.476  1.00  0.00     0.198 A 
ATOM     86  F   UNL     1       7.758  13.650  -1.474  1.00  0.00    -0.203 F 
ATOM     87  F   UNL     1      11.267  14.979  -5.434  1.00  0.00    -0.200 F 
ATOM     88  C   UNL     1      10.083  15.568  -3.478  1.00  0.00     0.200 A 
ATOM     89  F   UNL     1       8.892  16.104  -1.511  1.00  0.00    -0.200 F 
ATOM     90  F   UNL     1      10.670  16.773  -3.468  1.00  0.00    -0.200 F 
ENDBRANCH  57  80
ENDBRANCH  31  32
ENDBRANCH  24  26
ENDBRANCH  23  24
ENDBRANCH   1  23
TORSDOF 13
