REMARK SMILES CC(C)C[C@H](CNC(=O)c1ccc(O)cc1O)C(=O)OCCOC(=O)c1ccc(-c2c3nc(c(-c4c(F)c(F)c(F)c(F)c4F)c4ccc([nH]4)c(-c4c(F)c(F)c(F)c(F)c4F)c4nc(c(-c5c(F)c(F)c(F)c(F)c5F)c5ccc2[nH]5)C=C4)C=C3)cc1
REMARK SMILES IDX 21 1 20 2 18 3 19 4 5 5 4 6 2 7 1 8 3 9 6 10 7 11 8 12 9 14
REMARK SMILES IDX 10 15 11 16 16 17 12 18 15 19 13 20 17 21 14 23 22 25 23 26
REMARK SMILES IDX 24 27 25 28 26 29 27 30 88 31 28 32 87 33 29 34 30 35 31 36
REMARK SMILES IDX 81 37 32 38 86 39 80 40 82 41 33 42 85 43 79 44 78 45 34 47
REMARK SMILES IDX 66 48 46 49 65 50 47 51 50 52 64 53 83 54 48 55 49 56 63 58
REMARK SMILES IDX 84 59 51 60 35 61 36 62 44 63 37 64 38 65 42 66 45 67 39 68
REMARK SMILES IDX 40 69 43 70 41 71 67 72 68 73 76 74 69 75 70 76 74 77 77 78
REMARK SMILES IDX 71 79 72 80 75 81 73 82 52 83 53 84 61 85 54 86 55 87 59 88
REMARK SMILES IDX 62 89 56 90 57 91 60 92 58 93
REMARK H PARENT 7 13 17 22 14 24 82 46 50 57
REMARK Flexibility Score: inf
ROOT
ATOM      1  C   UNL     1      -5.129   1.840   0.611  1.00  0.00     0.274 C 
ENDROOT
BRANCH   1   2
ATOM      2  O   UNL     1      -3.695   1.994   0.691  1.00  0.00    -0.462 OA
BRANCH   2   3
ATOM      3  C   UNL     1      -3.073   1.096   1.496  1.00  0.00     0.310 C 
ATOM      4  O   UNL     1      -3.653   0.197   2.096  1.00  0.00    -0.252 OA
BRANCH   3   5
ATOM      5  C   UNL     1      -1.570   1.285   1.594  1.00  0.00     0.118 C 
BRANCH   5   6
ATOM      6  C   UNL     1      -1.058   2.221   2.707  1.00  0.00     0.020 C 
BRANCH   6   7
ATOM      7  C   UNL     1      -2.011   2.569   3.865  1.00  0.00    -0.017 C 
ATOM      8  C   UNL     1      -2.325   1.385   4.780  1.00  0.00     0.007 C 
ATOM      9  C   UNL     1      -1.384   3.686   4.710  1.00  0.00     0.007 C 
ENDBRANCH   6   7
ENDBRANCH   5   6
BRANCH   5  10
ATOM     10  C   UNL     1      -0.919   1.547   0.220  1.00  0.00     0.131 C 
BRANCH  10  11
ATOM     11  N   UNL     1      -0.881   2.953  -0.163  1.00  0.00    -0.351 N 
ATOM     12  C   UNL     1       0.220   3.728  -0.435  1.00  0.00     0.255 C 
ATOM     13  H   UNL     1      -1.753   3.404  -0.237  1.00  0.00     0.163 HD
ATOM     14  O   UNL     1       0.154   4.954  -0.380  1.00  0.00    -0.269 OA
BRANCH  12  15
ATOM     15  C   UNL     1       1.524   3.102  -0.737  1.00  0.00     0.081 A 
ATOM     16  C   UNL     1       1.618   2.079  -1.691  1.00  0.00     0.021 A 
ATOM     17  C   UNL     1       2.681   3.568  -0.102  1.00  0.00     0.132 A 
ATOM     18  C   UNL     1       2.854   1.485  -1.958  1.00  0.00     0.047 A 
ATOM     19  C   UNL     1       3.910   2.965  -0.353  1.00  0.00     0.093 A 
ATOM     20  C   UNL     1       3.987   1.927  -1.277  1.00  0.00     0.119 A 
BRANCH  17  21
ATOM     21  O   UNL     1       2.668   4.618   0.776  1.00  0.00    -0.507 OA
ATOM     22  H   UNL     1       1.863   5.054   0.974  1.00  0.00     0.293 HD
ENDBRANCH  17  21
BRANCH  20  23
ATOM     23  O   UNL     1       5.210   1.366  -1.502  1.00  0.00    -0.508 OA
ATOM     24  H   UNL     1       5.297   0.665  -2.117  1.00  0.00     0.293 HD
ENDBRANCH  20  23
ENDBRANCH  12  15
ENDBRANCH  10  11
ENDBRANCH   5  10
ENDBRANCH   3   5
ENDBRANCH   2   3
ENDBRANCH   1   2
BRANCH   1  25
ATOM     25  C   UNL     1      -5.582   0.898  -0.516  1.00  0.00     0.275 C 
BRANCH  25  26
ATOM     26  O   UNL     1      -5.197  -0.472  -0.289  1.00  0.00    -0.458 OA
BRANCH  26  27
ATOM     27  C   UNL     1      -4.042  -0.850  -0.885  1.00  0.00     0.338 C 
ATOM     28  O   UNL     1      -3.344  -0.175  -1.624  1.00  0.00    -0.246 OA
BRANCH  27  29
ATOM     29  C   UNL     1      -3.611  -2.173  -0.399  1.00  0.00     0.060 A 
ATOM     30  C   UNL     1      -2.347  -2.259   0.195  1.00  0.00     0.016 A 
ATOM     31  C   UNL     1      -4.373  -3.324  -0.600  1.00  0.00     0.016 A 
ATOM     32  C   UNL     1      -1.837  -3.490   0.595  1.00  0.00     0.010 A 
ATOM     33  C   UNL     1      -3.853  -4.567  -0.213  1.00  0.00     0.010 A 
ATOM     34  C   UNL     1      -2.578  -4.655   0.376  1.00  0.00    -0.014 A 
BRANCH  34  35
ATOM     35  C   UNL     1      -1.969  -5.968   0.694  1.00  0.00     0.031 A 
ATOM     36  C   UNL     1      -1.365  -6.790  -0.407  1.00  0.00     0.074 A 
ATOM     37  C   UNL     1      -1.906  -6.394   1.968  1.00  0.00     0.049 A 
ATOM     38  N   UNL     1      -0.835  -7.985  -0.356  1.00  0.00    -0.248 NA
ATOM     39  C   UNL     1      -1.349  -6.179  -1.745  1.00  0.00     0.031 C 
ATOM     40  C   UNL     1      -2.393  -5.652   3.130  1.00  0.00     0.029 A 
ATOM     41  N   UNL     1      -1.405  -7.557   2.497  1.00  0.00    -0.354 N 
ATOM     42  C   UNL     1      -0.437  -8.277  -1.654  1.00  0.00     0.074 A 
ATOM     43  C   UNL     1      -0.794  -7.138  -2.473  1.00  0.00     0.031 C 
ATOM     44  C   UNL     1      -2.173  -6.381   4.236  1.00  0.00     0.029 A 
ATOM     45  C   UNL     1      -1.570  -7.656   3.856  1.00  0.00     0.049 A 
ATOM     46  H   UNL     1      -0.969  -8.253   1.954  1.00  0.00     0.167 HD
ATOM     47  C   UNL     1       0.172  -9.395  -2.116  1.00  0.00     0.037 A 
ATOM     48  C   UNL     1      -1.293  -8.676   4.692  1.00  0.00     0.037 A 
ATOM     49  C   UNL     1       0.530 -10.523  -1.297  1.00  0.00     0.049 A 
ATOM     50  C   UNL     1      -0.687  -9.938   4.139  1.00  0.00     0.074 A 
ATOM     51  C   UNL     1       1.144 -11.705  -1.674  1.00  0.00     0.029 A 
ATOM     52  N   UNL     1       0.306 -10.607   0.069  1.00  0.00    -0.354 N 
ATOM     53  N   UNL     1      -0.331 -10.215   2.908  1.00  0.00    -0.248 NA
ATOM     54  C   UNL     1      -0.450 -11.032   5.091  1.00  0.00     0.031 C 
ATOM     55  C   UNL     1       1.255 -12.521  -0.543  1.00  0.00     0.029 A 
ATOM     56  C   UNL     1       0.751 -11.830   0.547  1.00  0.00     0.049 A 
ATOM     57  H   UNL     1      -0.108  -9.903   0.618  1.00  0.00     0.167 HD
ATOM     58  C   UNL     1       0.186 -11.503   2.940  1.00  0.00     0.074 A 
ATOM     59  C   UNL     1       0.114 -11.948   4.316  1.00  0.00     0.031 C 
ATOM     60  C   UNL     1       0.674 -12.252   1.921  1.00  0.00     0.037 A 
BRANCH  47  61
ATOM     61  C   UNL     1       0.456  -9.468  -3.586  1.00  0.00     0.064 A 
ATOM     62  C   UNL     1       1.490  -8.727  -4.176  1.00  0.00     0.173 A 
ATOM     63  C   UNL     1      -0.298 -10.316  -4.411  1.00  0.00     0.173 A 
ATOM     64  F   UNL     1       2.228  -7.888  -3.432  1.00  0.00    -0.203 F 
ATOM     65  C   UNL     1       1.746  -8.818  -5.542  1.00  0.00     0.198 A 
ATOM     66  C   UNL     1      -0.024 -10.423  -5.771  1.00  0.00     0.198 A 
ATOM     67  F   UNL     1      -1.298 -11.047  -3.895  1.00  0.00    -0.203 F 
ATOM     68  F   UNL     1       2.713  -8.070  -6.091  1.00  0.00    -0.200 F 
ATOM     69  C   UNL     1       0.994  -9.670  -6.337  1.00  0.00     0.200 A 
ATOM     70  F   UNL     1      -0.748 -11.252  -6.537  1.00  0.00    -0.200 F 
ATOM     71  F   UNL     1       1.244  -9.759  -7.650  1.00  0.00    -0.200 F 
ENDBRANCH  47  61
BRANCH  48  72
ATOM     72  C   UNL     1      -1.619  -8.560   6.137  1.00  0.00     0.064 A 
ATOM     73  C   UNL     1      -0.609  -8.491   7.105  1.00  0.00     0.173 A 
ATOM     74  C   UNL     1      -2.950  -8.537   6.579  1.00  0.00     0.173 A 
ATOM     75  F   UNL     1       0.679  -8.540   6.732  1.00  0.00    -0.203 F 
ATOM     76  C   UNL     1      -0.917  -8.416   8.462  1.00  0.00     0.198 A 
ATOM     77  C   UNL     1      -3.257  -8.435   7.934  1.00  0.00     0.198 A 
ATOM     78  F   UNL     1      -3.954  -8.608   5.693  1.00  0.00    -0.203 F 
ATOM     79  F   UNL     1       0.068  -8.397   9.370  1.00  0.00    -0.200 F 
ATOM     80  C   UNL     1      -2.240  -8.382   8.875  1.00  0.00     0.200 A 
ATOM     81  F   UNL     1      -4.537  -8.394   8.328  1.00  0.00    -0.200 F 
ATOM     82  F   UNL     1      -2.536  -8.309  10.180  1.00  0.00    -0.200 F 
ENDBRANCH  48  72
BRANCH  60  83
ATOM     83  C   UNL     1       1.192 -13.618   2.262  1.00  0.00     0.064 A 
ATOM     84  C   UNL     1       0.324 -14.677   2.567  1.00  0.00     0.173 A 
ATOM     85  C   UNL     1       2.571 -13.879   2.248  1.00  0.00     0.173 A 
ATOM     86  F   UNL     1      -1.001 -14.472   2.608  1.00  0.00    -0.203 F 
ATOM     87  C   UNL     1       0.820 -15.943   2.868  1.00  0.00     0.198 A 
ATOM     88  C   UNL     1       3.061 -15.152   2.524  1.00  0.00     0.198 A 
ATOM     89  F   UNL     1       3.441 -12.901   1.956  1.00  0.00    -0.203 F 
ATOM     90  F   UNL     1      -0.025 -16.930   3.197  1.00  0.00    -0.200 F 
ATOM     91  C   UNL     1       2.186 -16.181   2.839  1.00  0.00     0.200 A 
ATOM     92  F   UNL     1       4.380 -15.384   2.486  1.00  0.00    -0.200 F 
ATOM     93  F   UNL     1       2.660 -17.401   3.124  1.00  0.00    -0.200 F 
ENDBRANCH  60  83
ENDBRANCH  34  35
ENDBRANCH  27  29
ENDBRANCH  26  27
ENDBRANCH  25  26
ENDBRANCH   1  25
TORSDOF 18
