REMARK SMILES CC(C)(C(=O)OCCOC(=O)c1ccc(-c2c3nc(c(-c4c(F)c(F)c(F)c(F)c4F)c4ccc([nH]4)c(-c4c(F)c(F)c(F)c(F)c4F)c4nc(c(-c5c(F)c(F)c(F)c(F)c5F)c5ccc2[nH]5)C=C4)C=C3)cc1)c1ccc(NS(=O)(=O)c2c(F)cc(F)cc2F)cc1
REMARK SMILES IDX 7 1 6 2 4 3 5 4 2 5 1 6 3 7 75 8 76 9 93 10 77 11 92 12
REMARK SMILES IDX 78 13 79 14 80 16 81 17 82 18 83 19 84 20 90 21 85 22 86 23
REMARK SMILES IDX 89 24 91 25 87 26 88 27 8 28 9 29 10 30 11 31 12 32 13 33
REMARK SMILES IDX 74 34 14 35 73 36 15 37 16 38 17 39 67 40 18 41 72 42 66 43
REMARK SMILES IDX 68 44 19 45 71 46 65 47 64 48 20 50 52 51 32 52 51 53 33 54
REMARK SMILES IDX 36 55 50 56 69 57 34 58 35 59 49 61 70 62 37 63 21 64 22 65
REMARK SMILES IDX 30 66 23 67 24 68 28 69 31 70 25 71 26 72 29 73 27 74 53 75
REMARK SMILES IDX 54 76 62 77 55 78 56 79 60 80 63 81 57 82 58 83 61 84 59 85
REMARK SMILES IDX 38 86 39 87 47 88 40 89 41 90 45 91 48 92 42 93 43 94 46 95
REMARK SMILES IDX 44 96
REMARK H PARENT 79 15 68 49 36 60
REMARK Flexibility Score: inf
ROOT
ATOM      1  C   UNL     1      -2.885   1.264   0.450  1.00  0.00     0.274 C 
ENDROOT
BRANCH   1   2
ATOM      2  O   UNL     1      -1.458   1.120   0.291  1.00  0.00    -0.461 OA
BRANCH   2   3
ATOM      3  C   UNL     1      -0.677   1.389   1.376  1.00  0.00     0.316 C 
ATOM      4  O   UNL     1      -1.141   1.698   2.469  1.00  0.00    -0.251 OA
BRANCH   3   5
ATOM      5  C   UNL     1       0.847   1.353   1.042  1.00  0.00     0.087 C 
ATOM      6  C   UNL     1       1.059   0.729  -0.361  1.00  0.00     0.028 C 
ATOM      7  C   UNL     1       1.324   2.815   0.977  1.00  0.00     0.028 C 
BRANCH   5   8
ATOM      8  C   UNL     1       1.657   0.614   2.136  1.00  0.00    -0.031 A 
ATOM      9  C   UNL     1       2.606  -0.374   1.826  1.00  0.00     0.007 A 
ATOM     10  C   UNL     1       1.464   0.895   3.501  1.00  0.00     0.007 A 
ATOM     11  C   UNL     1       3.193  -1.161   2.822  1.00  0.00     0.027 A 
ATOM     12  C   UNL     1       2.008   0.074   4.495  1.00  0.00     0.027 A 
ATOM     13  C   UNL     1       2.791  -1.023   4.145  1.00  0.00     0.049 A 
BRANCH  13  14
ATOM     14  N   UNL     1       2.970  -2.037   5.124  1.00  0.00    -0.279 N 
ATOM     15  H   UNL     1       2.660  -1.838   6.037  1.00  0.00     0.180 HD
BRANCH  14  16
ATOM     16  S   UNL     1       3.659  -3.538   4.868  1.00  0.00     0.267 S 
ATOM     17  O   UNL     1       4.965  -3.324   4.282  1.00  0.00    -0.201 OA
ATOM     18  O   UNL     1       3.507  -4.216   6.138  1.00  0.00    -0.201 OA
BRANCH  16  19
ATOM     19  C   UNL     1       2.715  -4.455   3.701  1.00  0.00     0.159 A 
ATOM     20  C   UNL     1       1.563  -4.016   3.070  1.00  0.00     0.149 A 
ATOM     21  C   UNL     1       3.200  -5.713   3.366  1.00  0.00     0.149 A 
ATOM     22  F   UNL     1       1.052  -2.811   3.294  1.00  0.00    -0.205 F 
ATOM     23  C   UNL     1       0.886  -4.805   2.141  1.00  0.00     0.080 A 
ATOM     24  C   UNL     1       2.536  -6.526   2.446  1.00  0.00     0.080 A 
ATOM     25  F   UNL     1       4.334  -6.168   3.910  1.00  0.00    -0.205 F 
ATOM     26  C   UNL     1       1.375  -6.064   1.845  1.00  0.00     0.129 A 
ATOM     27  F   UNL     1       0.719  -6.843   0.978  1.00  0.00    -0.207 F 
ENDBRANCH  16  19
ENDBRANCH  14  16
ENDBRANCH  13  14
ENDBRANCH   5   8
ENDBRANCH   3   5
ENDBRANCH   2   3
ENDBRANCH   1   2
BRANCH   1  28
ATOM     28  C   UNL     1      -3.562  -0.102   0.523  1.00  0.00     0.275 C 
BRANCH  28  29
ATOM     29  O   UNL     1      -3.303  -0.706   1.804  1.00  0.00    -0.458 OA
BRANCH  29  30
ATOM     30  C   UNL     1      -2.639  -1.881   1.780  1.00  0.00     0.338 C 
ATOM     31  O   UNL     1      -2.257  -2.508   0.806  1.00  0.00    -0.246 OA
BRANCH  30  32
ATOM     32  C   UNL     1      -2.365  -2.330   3.153  1.00  0.00     0.060 A 
ATOM     33  C   UNL     1      -1.412  -1.644   3.888  1.00  0.00     0.016 A 
ATOM     34  C   UNL     1      -2.864  -3.548   3.623  1.00  0.00     0.016 A 
ATOM     35  C   UNL     1      -0.851  -2.259   5.007  1.00  0.00     0.010 A 
ATOM     36  C   UNL     1      -2.354  -4.112   4.808  1.00  0.00     0.010 A 
ATOM     37  C   UNL     1      -1.265  -3.526   5.469  1.00  0.00    -0.014 A 
BRANCH  37  38
ATOM     38  C   UNL     1      -0.450  -4.214   6.539  1.00  0.00     0.031 A 
ATOM     39  C   UNL     1       0.148  -5.603   6.340  1.00  0.00     0.074 A 
ATOM     40  C   UNL     1      -0.083  -3.520   7.641  1.00  0.00     0.049 A 
ATOM     41  N   UNL     1       1.013  -6.245   7.094  1.00  0.00    -0.248 NA
ATOM     42  C   UNL     1      -0.254  -6.371   5.152  1.00  0.00     0.031 C 
ATOM     43  C   UNL     1      -0.569  -2.184   7.994  1.00  0.00     0.029 A 
ATOM     44  N   UNL     1       0.828  -3.804   8.634  1.00  0.00    -0.354 N 
ATOM     45  C   UNL     1       1.284  -7.452   6.454  1.00  0.00     0.074 A 
ATOM     46  C   UNL     1       0.446  -7.492   5.279  1.00  0.00     0.031 C 
ATOM     47  C   UNL     1       0.120  -1.725   9.047  1.00  0.00     0.029 A 
ATOM     48  C   UNL     1       1.020  -2.770   9.522  1.00  0.00     0.049 A 
ATOM     49  H   UNL     1       1.297  -4.667   8.702  1.00  0.00     0.167 HD
ATOM     50  C   UNL     1       2.161  -8.432   6.788  1.00  0.00     0.037 A 
ATOM     51  C   UNL     1       1.803  -2.666  10.616  1.00  0.00     0.037 A 
ATOM     52  C   UNL     1       2.991  -8.438   7.963  1.00  0.00     0.049 A 
ATOM     53  C   UNL     1       2.640  -3.838  11.044  1.00  0.00     0.074 A 
ATOM     54  C   UNL     1       3.866  -9.424   8.393  1.00  0.00     0.029 A 
ATOM     55  N   UNL     1       3.057  -7.415   8.892  1.00  0.00    -0.354 N 
ATOM     56  N   UNL     1       2.862  -4.968  10.423  1.00  0.00    -0.248 NA
ATOM     57  C   UNL     1       3.306  -3.732  12.352  1.00  0.00     0.031 C 
ATOM     58  C   UNL     1       4.411  -9.025   9.618  1.00  0.00     0.029 A 
ATOM     59  C   UNL     1       3.900  -7.778   9.932  1.00  0.00     0.049 A 
ATOM     60  H   UNL     1       2.577  -6.558   8.825  1.00  0.00     0.167 HD
ATOM     61  C   UNL     1       3.683  -5.708  11.261  1.00  0.00     0.074 A 
ATOM     62  C   UNL     1       3.956  -4.884  12.419  1.00  0.00     0.031 C 
ATOM     63  C   UNL     1       4.149  -6.969  11.095  1.00  0.00     0.037 A 
BRANCH  50  64
ATOM     64  C   UNL     1       2.284  -9.616   5.872  1.00  0.00     0.064 A 
ATOM     65  C   UNL     1       3.154  -9.588   4.774  1.00  0.00     0.173 A 
ATOM     66  C   UNL     1       1.625 -10.820   6.151  1.00  0.00     0.173 A 
ATOM     67  F   UNL     1       3.840  -8.477   4.489  1.00  0.00    -0.203 F 
ATOM     68  C   UNL     1       3.340 -10.708   3.969  1.00  0.00     0.198 A 
ATOM     69  C   UNL     1       1.831 -11.949   5.358  1.00  0.00     0.198 A 
ATOM     70  F   UNL     1       0.802 -10.910   7.206  1.00  0.00    -0.203 F 
ATOM     71  F   UNL     1       4.157 -10.640   2.908  1.00  0.00    -0.200 F 
ATOM     72  C   UNL     1       2.683 -11.890   4.265  1.00  0.00     0.200 A 
ATOM     73  F   UNL     1       1.210 -13.099   5.657  1.00  0.00    -0.200 F 
ATOM     74  F   UNL     1       2.875 -12.974   3.501  1.00  0.00    -0.200 F 
ENDBRANCH  50  64
BRANCH  51  75
ATOM     75  C   UNL     1       1.780  -1.424  11.438  1.00  0.00     0.064 A 
ATOM     76  C   UNL     1       2.925  -0.629  11.588  1.00  0.00     0.173 A 
ATOM     77  C   UNL     1       0.618  -1.022  12.114  1.00  0.00     0.173 A 
ATOM     78  F   UNL     1       4.073  -0.986  10.993  1.00  0.00    -0.203 F 
ATOM     79  C   UNL     1       2.909   0.514  12.388  1.00  0.00     0.198 A 
ATOM     80  C   UNL     1       0.591   0.140  12.879  1.00  0.00     0.198 A 
ATOM     81  F   UNL     1      -0.502  -1.754  12.018  1.00  0.00    -0.203 F 
ATOM     82  F   UNL     1       4.029   1.228  12.556  1.00  0.00    -0.200 F 
ATOM     83  C   UNL     1       1.739   0.903  13.023  1.00  0.00     0.200 A 
ATOM     84  F   UNL     1      -0.547   0.519  13.476  1.00  0.00    -0.200 F 
ATOM     85  F   UNL     1       1.719   2.008  13.780  1.00  0.00    -0.200 F 
ENDBRANCH  51  75
BRANCH  63  86
ATOM     86  C   UNL     1       4.965  -7.550  12.212  1.00  0.00     0.064 A 
ATOM     87  C   UNL     1       4.365  -7.915  13.427  1.00  0.00     0.173 A 
ATOM     88  C   UNL     1       6.344  -7.755  12.073  1.00  0.00     0.173 A 
ATOM     89  F   UNL     1       3.050  -7.726  13.615  1.00  0.00    -0.203 F 
ATOM     90  C   UNL     1       5.122  -8.435  14.473  1.00  0.00     0.198 A 
ATOM     91  C   UNL     1       7.095  -8.300  13.111  1.00  0.00     0.198 A 
ATOM     92  F   UNL     1       6.966  -7.430  10.929  1.00  0.00    -0.203 F 
ATOM     93  F   UNL     1       4.536  -8.726  15.642  1.00  0.00    -0.200 F 
ATOM     94  C   UNL     1       6.486  -8.631  14.313  1.00  0.00     0.200 A 
ATOM     95  F   UNL     1       8.411  -8.500  12.953  1.00  0.00    -0.200 F 
ATOM     96  F   UNL     1       7.214  -9.128  15.322  1.00  0.00    -0.200 F 
ENDBRANCH  63  86
ENDBRANCH  37  38
ENDBRANCH  30  32
ENDBRANCH  29  30
ENDBRANCH  28  29
ENDBRANCH   1  28
TORSDOF 15
