REMARK SMILES C=CCN(CC(=O)OCCOC(=O)c1ccc(-c2c3nc(c(-c4c(F)c(F)c(F)c(F)c4F)c4ccc([nH]4)c(-c4c(F)c(F)c(F)c(F)c4F)c4nc(c(-c5c(F)c(F)c(F)c(F)c5F)c5ccc2[nH]5)C=C4)C=C3)cc1)c1ccc([N+](=O)[O-])cc1Br
REMARK SMILES IDX 9 1 8 2 6 3 7 4 5 5 4 6 3 7 2 8 1 9 77 10 78 11 85 12 79 13
REMARK SMILES IDX 84 14 86 15 80 16 81 17 82 18 83 19 10 20 11 21 12 22 13 23
REMARK SMILES IDX 14 24 15 25 76 26 16 27 75 28 17 29 18 30 19 31 69 32 20 33
REMARK SMILES IDX 74 34 68 35 70 36 21 37 73 38 67 39 66 40 22 42 54 43 34 44
REMARK SMILES IDX 53 45 35 46 38 47 52 48 71 49 36 50 37 51 51 53 72 54 39 55
REMARK SMILES IDX 23 56 24 57 32 58 25 59 26 60 30 61 33 62 27 63 28 64 31 65
REMARK SMILES IDX 29 66 55 67 56 68 64 69 57 70 58 71 62 72 65 73 59 74 60 75
REMARK SMILES IDX 63 76 61 77 40 78 41 79 49 80 42 81 43 82 47 83 50 84 44 85
REMARK SMILES IDX 45 86 48 87 46 88
REMARK H PARENT 70 41 38 52
REMARK Flexibility Score: inf
ROOT
ATOM      1  C   UNL     1      -5.640   1.938  -0.897  1.00  0.00     0.274 C 
ENDROOT
BRANCH   1   2
ATOM      2  O   UNL     1      -4.221   1.693  -0.913  1.00  0.00    -0.461 OA
BRANCH   2   3
ATOM      3  C   UNL     1      -3.609   1.853  -2.119  1.00  0.00     0.325 C 
ATOM      4  O   UNL     1      -4.198   2.123  -3.163  1.00  0.00    -0.250 OA
BRANCH   3   5
ATOM      5  C   UNL     1      -2.092   1.688  -2.082  1.00  0.00     0.239 C 
BRANCH   5   6
ATOM      6  N   UNL     1      -1.512   1.418  -0.760  1.00  0.00    -0.356 N 
BRANCH   6   7
ATOM      7  C   UNL     1      -1.480   0.054  -0.256  1.00  0.00     0.144 C 
BRANCH   7   8
ATOM      8  C   UNL     1      -0.157  -0.547  -0.630  1.00  0.00    -0.014 C 
ATOM      9  C   UNL     1       0.773  -0.960   0.241  1.00  0.00     0.006 C 
ENDBRANCH   7   8
ENDBRANCH   6   7
BRANCH   6  10
ATOM     10  C   UNL     1      -1.050   2.470   0.015  1.00  0.00     0.052 A 
ATOM     11  C   UNL     1      -1.765   2.828   1.171  1.00  0.00     0.034 A 
ATOM     12  C   UNL     1       0.090   3.237  -0.311  1.00  0.00     0.048 A 
ATOM     13  C   UNL     1      -1.404   3.936   1.945  1.00  0.00     0.088 A 
ATOM     14  C   UNL     1       0.471   4.342   0.460  1.00  0.00     0.103 A 
ATOM     15  Br  UNL     1       1.214   2.806  -1.788  1.00  0.00    -0.048 Br
ATOM     16  C   UNL     1      -0.295   4.696   1.572  1.00  0.00     0.270 A 
BRANCH  16  17
ATOM     17  N   UNL     1       0.057   5.893   2.338  1.00  0.00     0.062 N 
ATOM     18  O   UNL     1      -0.824   6.413   3.036  1.00  0.00    -0.258 OA
ATOM     19  O   UNL     1       1.214   6.325   2.225  1.00  0.00    -0.258 OA
ENDBRANCH  16  17
ENDBRANCH   6  10
ENDBRANCH   5   6
ENDBRANCH   3   5
ENDBRANCH   2   3
ENDBRANCH   1   2
BRANCH   1  20
ATOM     20  C   UNL     1      -5.943   3.356  -0.423  1.00  0.00     0.275 C 
BRANCH  20  21
ATOM     21  O   UNL     1      -5.274   4.315  -1.262  1.00  0.00    -0.458 OA
BRANCH  21  22
ATOM     22  C   UNL     1      -4.364   5.089  -0.633  1.00  0.00     0.338 C 
ATOM     23  O   UNL     1      -4.079   5.088   0.554  1.00  0.00    -0.246 OA
BRANCH  22  24
ATOM     24  C   UNL     1      -3.766   6.044  -1.577  1.00  0.00     0.060 A 
ATOM     25  C   UNL     1      -3.038   5.617  -2.692  1.00  0.00     0.016 A 
ATOM     26  C   UNL     1      -3.852   7.400  -1.260  1.00  0.00     0.016 A 
ATOM     27  C   UNL     1      -2.349   6.553  -3.467  1.00  0.00     0.010 A 
ATOM     28  C   UNL     1      -3.203   8.336  -2.061  1.00  0.00     0.010 A 
ATOM     29  C   UNL     1      -2.425   7.918  -3.153  1.00  0.00    -0.014 A 
BRANCH  29  30
ATOM     30  C   UNL     1      -1.697   8.947  -3.931  1.00  0.00     0.031 A 
ATOM     31  C   UNL     1      -0.551   9.684  -3.301  1.00  0.00     0.074 A 
ATOM     32  C   UNL     1      -2.133   9.287  -5.157  1.00  0.00     0.049 A 
ATOM     33  N   UNL     1       0.048  10.779  -3.695  1.00  0.00    -0.248 NA
ATOM     34  C   UNL     1      -0.017   9.118  -2.053  1.00  0.00     0.031 C 
ATOM     35  C   UNL     1      -3.218   8.625  -5.879  1.00  0.00     0.029 A 
ATOM     36  N   UNL     1      -1.740  10.303  -5.992  1.00  0.00    -0.354 N 
ATOM     37  C   UNL     1       1.008  11.050  -2.730  1.00  0.00     0.074 A 
ATOM     38  C   UNL     1       0.914  10.007  -1.731  1.00  0.00     0.031 C 
ATOM     39  C   UNL     1      -3.425   9.268  -7.039  1.00  0.00     0.029 A 
ATOM     40  C   UNL     1      -2.527  10.417  -7.111  1.00  0.00     0.049 A 
ATOM     41  H   UNL     1      -0.972  10.890  -5.807  1.00  0.00     0.167 HD
ATOM     42  C   UNL     1       1.881  12.085  -2.684  1.00  0.00     0.037 A 
ATOM     43  C   UNL     1      -2.556  11.370  -8.061  1.00  0.00     0.037 A 
ATOM     44  C   UNL     1       1.972  13.113  -3.687  1.00  0.00     0.049 A 
ATOM     45  C   UNL     1      -1.606  12.530  -7.969  1.00  0.00     0.074 A 
ATOM     46  C   UNL     1       2.828  14.200  -3.739  1.00  0.00     0.029 A 
ATOM     47  N   UNL     1       1.173  13.179  -4.819  1.00  0.00    -0.354 N 
ATOM     48  N   UNL     1      -0.715  12.795  -7.045  1.00  0.00    -0.248 NA
ATOM     49  C   UNL     1      -1.672  13.529  -9.045  1.00  0.00     0.031 C 
ATOM     50  C   UNL     1       2.529  14.938  -4.890  1.00  0.00     0.029 A 
ATOM     51  C   UNL     1       1.509  14.293  -5.571  1.00  0.00     0.049 A 
ATOM     52  H   UNL     1       0.470  12.530  -5.054  1.00  0.00     0.167 HD
ATOM     53  C   UNL     1      -0.102  13.976  -7.434  1.00  0.00     0.074 A 
ATOM     54  C   UNL     1      -0.720  14.377  -8.682  1.00  0.00     0.031 C 
ATOM     55  C   UNL     1       0.886  14.666  -6.814  1.00  0.00     0.037 A 
BRANCH  42  56
ATOM     56  C   UNL     1       2.794  12.171  -1.499  1.00  0.00     0.064 A 
ATOM     57  C   UNL     1       3.911  11.334  -1.370  1.00  0.00     0.173 A 
ATOM     58  C   UNL     1       2.576  13.137  -0.505  1.00  0.00     0.173 A 
ATOM     59  F   UNL     1       4.155  10.388  -2.290  1.00  0.00    -0.203 F 
ATOM     60  C   UNL     1       4.772  11.453  -0.282  1.00  0.00     0.198 A 
ATOM     61  C   UNL     1       3.450  13.266   0.572  1.00  0.00     0.198 A 
ATOM     62  F   UNL     1       1.524  13.964  -0.586  1.00  0.00    -0.203 F 
ATOM     63  F   UNL     1       5.823  10.629  -0.166  1.00  0.00    -0.200 F 
ATOM     64  C   UNL     1       4.545  12.423   0.684  1.00  0.00     0.200 A 
ATOM     65  F   UNL     1       3.234  14.210   1.498  1.00  0.00    -0.200 F 
ATOM     66  F   UNL     1       5.381  12.544   1.724  1.00  0.00    -0.200 F 
ENDBRANCH  42  56
BRANCH  43  67
ATOM     67  C   UNL     1      -3.546  11.269  -9.160  1.00  0.00     0.064 A 
ATOM     68  C   UNL     1      -3.149  10.905 -10.453  1.00  0.00     0.173 A 
ATOM     69  C   UNL     1      -4.912  11.487  -8.929  1.00  0.00     0.173 A 
ATOM     70  F   UNL     1      -1.851  10.708 -10.723  1.00  0.00    -0.203 F 
ATOM     71  C   UNL     1      -4.084  10.759 -11.475  1.00  0.00     0.198 A 
ATOM     72  C   UNL     1      -5.848  11.320  -9.947  1.00  0.00     0.198 A 
ATOM     73  F   UNL     1      -5.339  11.836  -7.706  1.00  0.00    -0.203 F 
ATOM     74  F   UNL     1      -3.679  10.429 -12.709  1.00  0.00    -0.200 F 
ATOM     75  C   UNL     1      -5.433  10.958 -11.219  1.00  0.00     0.200 A 
ATOM     76  F   UNL     1      -7.151  11.500  -9.692  1.00  0.00    -0.200 F 
ATOM     77  F   UNL     1      -6.333  10.801 -12.199  1.00  0.00    -0.200 F 
ENDBRANCH  43  67
BRANCH  55  78
ATOM     78  C   UNL     1       1.383  15.903  -7.495  1.00  0.00     0.064 A 
ATOM     79  C   UNL     1       0.670  17.107  -7.435  1.00  0.00     0.173 A 
ATOM     80  C   UNL     1       2.606  15.889  -8.181  1.00  0.00     0.173 A 
ATOM     81  F   UNL     1      -0.512  17.161  -6.803  1.00  0.00    -0.203 F 
ATOM     82  C   UNL     1       1.159  18.256  -8.052  1.00  0.00     0.198 A 
ATOM     83  C   UNL     1       3.101  17.043  -8.781  1.00  0.00     0.198 A 
ATOM     84  F   UNL     1       3.323  14.758  -8.262  1.00  0.00    -0.203 F 
ATOM     85  F   UNL     1       0.449  19.391  -8.010  1.00  0.00    -0.200 F 
ATOM     86  C   UNL     1       2.376  18.224  -8.719  1.00  0.00     0.200 A 
ATOM     87  F   UNL     1       4.277  17.012  -9.422  1.00  0.00    -0.200 F 
ATOM     88  F   UNL     1       2.846  19.331  -9.310  1.00  0.00    -0.200 F 
ENDBRANCH  55  78
ENDBRANCH  29  30
ENDBRANCH  22  24
ENDBRANCH  21  22
ENDBRANCH  20  21
ENDBRANCH   1  20
TORSDOF 16
