REMARK SMILES O=C(OCCOC(=O)[C@H]1CC[C@@H](CNC(=O)[C@@H]2CCC[NH2+]C2)O1)c1ccc(-c2c3nc(c(-c4c(F)c(F)c(F)c(F)c4F)c4ccc([nH]4)c(-c4c(F)c(F)c(F)c(F)c4F)c4nc(c(-c5c(F)c(F)c(F)c(F)c5F)c5ccc2[nH]5)C=C4)C=C3)cc1
REMARK SMILES IDX 5 1 4 2 3 3 2 4 1 5 24 6 25 7 86 8 26 9 85 10 27 11 28 12
REMARK SMILES IDX 29 13 79 14 30 15 84 16 78 17 80 18 31 19 83 20 77 21 76 22
REMARK SMILES IDX 32 24 64 25 44 26 63 27 45 28 48 29 62 30 81 31 46 32 47 33
REMARK SMILES IDX 61 35 82 36 49 37 33 38 34 39 42 40 35 41 36 42 40 43 43 44
REMARK SMILES IDX 37 45 38 46 41 47 39 48 65 49 66 50 74 51 67 52 68 53 72 54
REMARK SMILES IDX 75 55 69 56 70 57 73 58 71 59 50 60 51 61 59 62 52 63 53 64
REMARK SMILES IDX 57 65 60 66 54 67 55 68 58 69 56 70 6 71 7 72 8 73 9 74
REMARK SMILES IDX 10 75 23 76 11 77 12 78 13 79 14 80 15 81 16 83 17 84 18 85
REMARK SMILES IDX 22 86 19 87 21 88 20 89
REMARK H PARENT 80 23 48 34 14 82 21 90 21 91
REMARK Flexibility Score: inf
ROOT
ATOM      1  C   UNL     1      -0.433  -1.531  -4.729  1.00  0.00     0.274 C 
ENDROOT
BRANCH   1   2
ATOM      2  C   UNL     1      -1.416  -1.375  -3.565  1.00  0.00     0.275 C 
BRANCH   2   3
ATOM      3  O   UNL     1      -1.386  -0.054  -2.990  1.00  0.00    -0.458 OA
BRANCH   3   4
ATOM      4  C   UNL     1      -0.784   0.376  -1.854  1.00  0.00     0.338 C 
ATOM      5  O   UNL     1      -1.220   1.388  -1.306  1.00  0.00    -0.246 OA
BRANCH   4   6
ATOM      6  C   UNL     1       0.498  -0.203  -1.329  1.00  0.00     0.060 A 
ATOM      7  C   UNL     1       0.947  -1.517  -1.491  1.00  0.00     0.016 A 
ATOM      8  C   UNL     1       1.341   0.693  -0.641  1.00  0.00     0.016 A 
ATOM      9  C   UNL     1       2.233  -1.900  -1.095  1.00  0.00     0.010 A 
ATOM     10  C   UNL     1       2.624   0.318  -0.233  1.00  0.00     0.010 A 
ATOM     11  C   UNL     1       3.080  -0.981  -0.476  1.00  0.00    -0.014 A 
BRANCH  11  12
ATOM     12  C   UNL     1       4.354  -1.442   0.109  1.00  0.00     0.031 A 
ATOM     13  C   UNL     1       4.332  -1.849   1.546  1.00  0.00     0.074 A 
ATOM     14  C   UNL     1       5.485  -1.500  -0.615  1.00  0.00     0.049 A 
ATOM     15  N   UNL     1       5.309  -2.253   2.311  1.00  0.00    -0.248 NA
ATOM     16  C   UNL     1       3.018  -1.799   2.209  1.00  0.00     0.031 C 
ATOM     17  C   UNL     1       5.591  -1.190  -2.036  1.00  0.00     0.029 A 
ATOM     18  N   UNL     1       6.767  -1.825  -0.252  1.00  0.00    -0.354 N 
ATOM     19  C   UNL     1       4.726  -2.510   3.543  1.00  0.00     0.074 A 
ATOM     20  C   UNL     1       3.324  -2.179   3.437  1.00  0.00     0.031 C 
ATOM     21  C   UNL     1       6.874  -1.291  -2.420  1.00  0.00     0.029 A 
ATOM     22  C   UNL     1       7.683  -1.658  -1.262  1.00  0.00     0.049 A 
ATOM     23  H   UNL     1       7.007  -2.147   0.647  1.00  0.00     0.167 HD
ATOM     24  C   UNL     1       5.316  -2.987   4.662  1.00  0.00     0.037 A 
ATOM     25  C   UNL     1       9.026  -1.766  -1.239  1.00  0.00     0.037 A 
ATOM     26  C   UNL     1       6.723  -3.256   4.755  1.00  0.00     0.049 A 
ATOM     27  C   UNL     1       9.684  -2.197   0.046  1.00  0.00     0.074 A 
ATOM     28  C   UNL     1       7.445  -3.716   5.838  1.00  0.00     0.029 A 
ATOM     29  N   UNL     1       7.627  -3.057   3.718  1.00  0.00    -0.354 N 
ATOM     30  N   UNL     1       9.127  -2.476   1.202  1.00  0.00    -0.248 NA
ATOM     31  C   UNL     1      11.145  -2.343   0.035  1.00  0.00     0.031 C 
ATOM     32  C   UNL     1       8.796  -3.732   5.477  1.00  0.00     0.029 A 
ATOM     33  C   UNL     1       8.908  -3.353   4.146  1.00  0.00     0.049 A 
ATOM     34  H   UNL     1       7.390  -2.750   2.813  1.00  0.00     0.167 HD
ATOM     35  C   UNL     1      10.158  -2.867   2.042  1.00  0.00     0.074 A 
ATOM     36  C   UNL     1      11.379  -2.782   1.265  1.00  0.00     0.031 C 
ATOM     37  C   UNL     1      10.100  -3.273   3.335  1.00  0.00     0.037 A 
BRANCH  24  38
ATOM     38  C   UNL     1       4.433  -3.157   5.861  1.00  0.00     0.064 A 
ATOM     39  C   UNL     1       3.405  -4.115   5.894  1.00  0.00     0.173 A 
ATOM     40  C   UNL     1       4.554  -2.288   6.955  1.00  0.00     0.173 A 
ATOM     41  F   UNL     1       3.228  -4.950   4.859  1.00  0.00    -0.203 F 
ATOM     42  C   UNL     1       2.496  -4.154   6.947  1.00  0.00     0.198 A 
ATOM     43  C   UNL     1       3.665  -2.355   8.024  1.00  0.00     0.198 A 
ATOM     44  F   UNL     1       5.514  -1.352   6.972  1.00  0.00    -0.203 F 
ATOM     45  F   UNL     1       1.467  -5.011   6.910  1.00  0.00    -0.200 F 
ATOM     46  C   UNL     1       2.627  -3.274   8.011  1.00  0.00     0.200 A 
ATOM     47  F   UNL     1       3.795  -1.507   9.053  1.00  0.00    -0.200 F 
ATOM     48  F   UNL     1       1.737  -3.296   9.013  1.00  0.00    -0.200 F 
ENDBRANCH  24  38
BRANCH  25  49
ATOM     49  C   UNL     1       9.818  -1.458  -2.460  1.00  0.00     0.064 A 
ATOM     50  C   UNL     1      10.481  -2.463  -3.176  1.00  0.00     0.173 A 
ATOM     51  C   UNL     1       9.907  -0.145  -2.952  1.00  0.00     0.173 A 
ATOM     52  F   UNL     1      10.441  -3.731  -2.741  1.00  0.00    -0.203 F 
ATOM     53  C   UNL     1      11.210  -2.168  -4.329  1.00  0.00     0.198 A 
ATOM     54  C   UNL     1      10.616   0.145  -4.117  1.00  0.00     0.198 A 
ATOM     55  F   UNL     1       9.287   0.856  -2.310  1.00  0.00    -0.203 F 
ATOM     56  F   UNL     1      11.857  -3.146  -4.978  1.00  0.00    -0.200 F 
ATOM     57  C   UNL     1      11.270  -0.866  -4.802  1.00  0.00     0.200 A 
ATOM     58  F   UNL     1      10.657   1.402  -4.578  1.00  0.00    -0.200 F 
ATOM     59  F   UNL     1      11.960  -0.586  -5.917  1.00  0.00    -0.200 F 
ENDBRANCH  25  49
BRANCH  37  60
ATOM     60  C   UNL     1      11.378  -3.709   3.986  1.00  0.00     0.064 A 
ATOM     61  C   UNL     1      12.351  -2.788   4.396  1.00  0.00     0.173 A 
ATOM     62  C   UNL     1      11.567  -5.062   4.312  1.00  0.00     0.173 A 
ATOM     63  F   UNL     1      12.220  -1.488   4.095  1.00  0.00    -0.203 F 
ATOM     64  C   UNL     1      13.469  -3.206   5.112  1.00  0.00     0.198 A 
ATOM     65  C   UNL     1      12.669  -5.471   5.054  1.00  0.00     0.198 A 
ATOM     66  F   UNL     1      10.659  -5.978   3.946  1.00  0.00    -0.203 F 
ATOM     67  F   UNL     1      14.398  -2.314   5.480  1.00  0.00    -0.200 F 
ATOM     68  C   UNL     1      13.619  -4.543   5.454  1.00  0.00     0.200 A 
ATOM     69  F   UNL     1      12.801  -6.758   5.400  1.00  0.00    -0.200 F 
ATOM     70  F   UNL     1      14.679  -4.937   6.173  1.00  0.00    -0.200 F 
ENDBRANCH  37  60
ENDBRANCH  11  12
ENDBRANCH   4   6
ENDBRANCH   3   4
ENDBRANCH   2   3
ENDBRANCH   1   2
BRANCH   1  71
ATOM     71  O   UNL     1       0.890  -1.129  -4.346  1.00  0.00    -0.460 OA
BRANCH  71  72
ATOM     72  C   UNL     1       1.354   0.045  -4.875  1.00  0.00     0.335 C 
ATOM     73  O   UNL     1       0.834   0.656  -5.793  1.00  0.00    -0.249 OA
BRANCH  72  74
ATOM     74  C   UNL     1       2.568   0.522  -4.077  1.00  0.00     0.228 C 
ATOM     75  C   UNL     1       3.747   0.960  -4.920  1.00  0.00     0.047 C 
ATOM     76  O   UNL     1       2.183   1.646  -3.278  1.00  0.00    -0.361 OA
ATOM     77  C   UNL     1       3.545   2.454  -5.019  1.00  0.00     0.037 C 
ATOM     78  C   UNL     1       2.965   2.792  -3.655  1.00  0.00     0.138 C 
BRANCH  78  79
ATOM     79  C   UNL     1       2.094   4.052  -3.535  1.00  0.00     0.147 C 
BRANCH  79  80
ATOM     80  N   UNL     1       1.925   4.785  -4.774  1.00  0.00    -0.353 N 
ATOM     81  C   UNL     1       0.928   4.730  -5.700  1.00  0.00     0.228 C 
ATOM     82  H   UNL     1       2.646   5.423  -4.979  1.00  0.00     0.163 HD
ATOM     83  O   UNL     1       1.171   5.256  -6.790  1.00  0.00    -0.275 OA
BRANCH  81  84
ATOM     84  C   UNL     1      -0.381   3.993  -5.402  1.00  0.00     0.133 C 
ATOM     85  C   UNL     1      -1.256   3.879  -6.664  1.00  0.00     0.025 C 
ATOM     86  C   UNL     1      -1.202   4.643  -4.279  1.00  0.00     0.274 C 
ATOM     87  C   UNL     1      -1.929   5.208  -7.015  1.00  0.00     0.062 C 
ATOM     88  N   UNL     1      -1.779   5.937  -4.652  1.00  0.00    -0.346 N 
ATOM     89  C   UNL     1      -2.653   5.816  -5.816  1.00  0.00     0.260 C 
ATOM     90  H   UNL     1      -2.321   6.296  -3.866  1.00  0.00     0.346 HD
ATOM     91  H   UNL     1      -1.017   6.572  -4.888  1.00  0.00     0.346 HD
ENDBRANCH  81  84
ENDBRANCH  79  80
ENDBRANCH  78  79
ENDBRANCH  72  74
ENDBRANCH  71  72
ENDBRANCH   1  71
TORSDOF 14
