REMARK SMILES Cc1c(C(=O)OCCOC(=O)c2ccc(-c3c4nc(c(-c5c(F)c(F)c(F)c(F)c5F)c5ccc([nH]5)c(-c5c(F)c(F)c(F)c(F)c5F)c5nc(c(-c6c(F)c(F)c(F)c(F)c6F)c6ccc3[nH]6)C=C5)C=C4)cc2)oc2c1/C(=N/NC(=O)C(c1ccccc1)c1ccccc1)CCC2
REMARK SMILES IDX 7 1 6 2 4 3 5 4 3 5 1 6 2 7 77 8 75 9 76 10 78 11 98 12
REMARK SMILES IDX 79 13 96 14 97 15 80 16 81 17 82 19 83 20 84 21 85 22 89 23
REMARK SMILES IDX 86 24 88 25 87 26 90 27 91 28 95 29 92 30 94 31 93 32 8 33
REMARK SMILES IDX 9 34 10 35 11 36 12 37 13 38 74 39 14 40 73 41 15 42 16 43
REMARK SMILES IDX 17 44 67 45 18 46 72 47 66 48 68 49 19 50 71 51 65 52 64 53
REMARK SMILES IDX 20 55 52 56 32 57 51 58 33 59 36 60 50 61 69 62 34 63 35 64
REMARK SMILES IDX 49 66 70 67 37 68 21 69 22 70 30 71 23 72 24 73 28 74 31 75
REMARK SMILES IDX 25 76 26 77 29 78 27 79 53 80 54 81 62 82 55 83 56 84 60 85
REMARK SMILES IDX 63 86 57 87 58 88 61 89 59 90 38 91 39 92 47 93 40 94 41 95
REMARK SMILES IDX 45 96 48 97 42 98 43 99 46 100 44 101
REMARK H PARENT 80 18 68 54 36 65
REMARK Flexibility Score: inf
ROOT
ATOM      1  C   UNL     1      -4.650   1.117  -1.805  1.00  0.00     0.275 C 
ENDROOT
BRANCH   1   2
ATOM      2  O   UNL     1      -3.501   1.633  -1.131  1.00  0.00    -0.456 OA
BRANCH   2   3
ATOM      3  C   UNL     1      -2.528   0.797  -0.658  1.00  0.00     0.374 C 
ATOM      4  O   UNL     1      -2.640  -0.420  -0.516  1.00  0.00    -0.242 OA
BRANCH   3   5
ATOM      5  C   UNL     1      -1.349   1.592  -0.440  1.00  0.00     0.215 A 
ATOM      6  C   UNL     1       0.654   0.076   0.231  1.00  0.00     0.049 C 
ATOM      7  C   UNL     1      -0.019   1.366  -0.068  1.00  0.00     0.012 A 
ATOM      8  C   UNL     1       0.556   2.672   0.057  1.00  0.00     0.043 A 
ATOM      9  O   UNL     1      -1.552   2.922  -0.654  1.00  0.00    -0.453 OA
ATOM     10  C   UNL     1      -0.431   3.550  -0.343  1.00  0.00     0.114 A 
ATOM     11  C   UNL     1       1.798   3.215   0.611  1.00  0.00     0.072 C 
ATOM     12  C   UNL     1      -0.507   5.019  -0.323  1.00  0.00     0.076 C 
ATOM     13  N   UNL     1       2.796   2.389   0.739  1.00  0.00    -0.177 NA
ATOM     14  C   UNL     1       1.543   4.650   1.028  1.00  0.00     0.059 C 
ATOM     15  C   UNL     1       0.875   5.536  -0.022  1.00  0.00     0.014 C 
BRANCH  13  16
ATOM     16  N   UNL     1       4.082   2.434   1.235  1.00  0.00    -0.246 N 
ATOM     17  C   UNL     1       4.996   3.349   1.739  1.00  0.00     0.252 C 
ATOM     18  H   UNL     1       4.476   1.533   1.230  1.00  0.00     0.193 HD
ATOM     19  O   UNL     1       6.130   2.934   2.018  1.00  0.00    -0.272 OA
BRANCH  17  20
ATOM     20  C   UNL     1       4.645   4.825   1.981  1.00  0.00     0.140 C 
BRANCH  20  21
ATOM     21  C   UNL     1       4.459   5.474   0.540  1.00  0.00    -0.031 A 
ATOM     22  C   UNL     1       4.098   6.810   0.312  1.00  0.00     0.005 A 
ATOM     23  C   UNL     1       4.602   4.677  -0.636  1.00  0.00     0.005 A 
ATOM     24  C   UNL     1       3.756   7.255  -0.988  1.00  0.00     0.000 A 
ATOM     25  C   UNL     1       4.213   5.096  -1.909  1.00  0.00     0.000 A 
ATOM     26  C   UNL     1       3.772   6.390  -2.086  1.00  0.00     0.000 A 
ENDBRANCH  20  21
BRANCH  20  27
ATOM     27  C   UNL     1       3.577   4.820   3.165  1.00  0.00    -0.031 A 
ATOM     28  C   UNL     1       2.762   5.905   3.528  1.00  0.00     0.005 A 
ATOM     29  C   UNL     1       3.306   3.599   3.850  1.00  0.00     0.005 A 
ATOM     30  C   UNL     1       1.599   5.695   4.309  1.00  0.00     0.000 A 
ATOM     31  C   UNL     1       2.137   3.379   4.581  1.00  0.00     0.000 A 
ATOM     32  C   UNL     1       1.256   4.424   4.777  1.00  0.00     0.000 A 
ENDBRANCH  20  27
ENDBRANCH  17  20
ENDBRANCH  13  16
ENDBRANCH   3   5
ENDBRANCH   2   3
ENDBRANCH   1   2
BRANCH   1  33
ATOM     33  C   UNL     1      -4.351   0.862  -3.275  1.00  0.00     0.275 C 
BRANCH  33  34
ATOM     34  O   UNL     1      -3.467  -0.244  -3.383  1.00  0.00    -0.458 OA
BRANCH  34  35
ATOM     35  C   UNL     1      -2.154   0.062  -3.456  1.00  0.00     0.338 C 
ATOM     36  O   UNL     1      -1.643   1.167  -3.445  1.00  0.00    -0.246 OA
BRANCH  35  37
ATOM     37  C   UNL     1      -1.406  -1.177  -3.660  1.00  0.00     0.060 A 
ATOM     38  C   UNL     1      -0.013  -1.083  -3.663  1.00  0.00     0.016 A 
ATOM     39  C   UNL     1      -2.091  -2.291  -4.163  1.00  0.00     0.016 A 
ATOM     40  C   UNL     1       0.681  -1.982  -4.434  1.00  0.00     0.010 A 
ATOM     41  C   UNL     1      -1.399  -3.189  -4.924  1.00  0.00     0.010 A 
ATOM     42  C   UNL     1      -0.051  -2.937  -5.147  1.00  0.00    -0.014 A 
BRANCH  42  43
ATOM     43  C   UNL     1       0.623  -3.700  -6.166  1.00  0.00     0.031 A 
ATOM     44  C   UNL     1       1.582  -4.672  -5.604  1.00  0.00     0.074 A 
ATOM     45  C   UNL     1       0.294  -3.549  -7.463  1.00  0.00     0.049 A 
ATOM     46  N   UNL     1       2.861  -4.690  -5.762  1.00  0.00    -0.248 NA
ATOM     47  C   UNL     1       1.086  -5.612  -4.585  1.00  0.00     0.031 C 
ATOM     48  C   UNL     1      -0.793  -2.765  -8.060  1.00  0.00     0.029 A 
ATOM     49  N   UNL     1       0.836  -4.177  -8.538  1.00  0.00    -0.354 N 
ATOM     50  C   UNL     1       3.320  -5.757  -5.000  1.00  0.00     0.074 A 
ATOM     51  C   UNL     1       2.222  -6.173  -4.171  1.00  0.00     0.031 C 
ATOM     52  C   UNL     1      -0.982  -3.160  -9.341  1.00  0.00     0.029 A 
ATOM     53  C   UNL     1       0.055  -4.111  -9.688  1.00  0.00     0.049 A 
ATOM     54  H   UNL     1       1.705  -4.638  -8.506  1.00  0.00     0.167 HD
ATOM     55  C   UNL     1       4.508  -6.353  -5.283  1.00  0.00     0.037 A 
ATOM     56  C   UNL     1       0.236  -4.900 -10.778  1.00  0.00     0.037 A 
ATOM     57  C   UNL     1       5.329  -5.500  -6.102  1.00  0.00     0.049 A 
ATOM     58  C   UNL     1       1.638  -5.409 -10.707  1.00  0.00     0.074 A 
ATOM     59  C   UNL     1       5.930  -4.273  -5.900  1.00  0.00     0.029 A 
ATOM     60  N   UNL     1       5.289  -5.685  -7.463  1.00  0.00    -0.354 N 
ATOM     61  N   UNL     1       2.682  -4.631 -10.829  1.00  0.00    -0.248 NA
ATOM     62  C   UNL     1       1.865  -6.647  -9.970  1.00  0.00     0.031 C 
ATOM     63  C   UNL     1       5.774  -3.580  -7.135  1.00  0.00     0.029 A 
ATOM     64  C   UNL     1       5.166  -4.447  -8.043  1.00  0.00     0.049 A 
ATOM     65  H   UNL     1       5.339  -6.547  -7.936  1.00  0.00     0.167 HD
ATOM     66  C   UNL     1       3.568  -5.066  -9.852  1.00  0.00     0.074 A 
ATOM     67  C   UNL     1       3.027  -6.341  -9.382  1.00  0.00     0.031 C 
ATOM     68  C   UNL     1       4.481  -4.219  -9.294  1.00  0.00     0.037 A 
BRANCH  55  69
ATOM     69  C   UNL     1       4.768  -7.826  -5.137  1.00  0.00     0.064 A 
ATOM     70  C   UNL     1       6.072  -8.310  -5.353  1.00  0.00     0.173 A 
ATOM     71  C   UNL     1       3.749  -8.803  -5.108  1.00  0.00     0.173 A 
ATOM     72  F   UNL     1       7.115  -7.467  -5.401  1.00  0.00    -0.203 F 
ATOM     73  C   UNL     1       6.321  -9.657  -5.618  1.00  0.00     0.198 A 
ATOM     74  C   UNL     1       4.008 -10.154  -5.321  1.00  0.00     0.198 A 
ATOM     75  F   UNL     1       2.454  -8.487  -4.987  1.00  0.00    -0.203 F 
ATOM     76  F   UNL     1       7.557 -10.052  -5.949  1.00  0.00    -0.200 F 
ATOM     77  C   UNL     1       5.287 -10.576  -5.613  1.00  0.00     0.200 A 
ATOM     78  F   UNL     1       2.990 -11.026  -5.326  1.00  0.00    -0.200 F 
ATOM     79  F   UNL     1       5.511 -11.856  -5.937  1.00  0.00    -0.200 F 
ENDBRANCH  55  69
BRANCH  56  80
ATOM     80  C   UNL     1      -0.815  -5.533 -11.611  1.00  0.00     0.064 A 
ATOM     81  C   UNL     1      -0.527  -6.060 -12.880  1.00  0.00     0.173 A 
ATOM     82  C   UNL     1      -2.072  -5.867 -11.067  1.00  0.00     0.173 A 
ATOM     83  F   UNL     1       0.666  -5.833 -13.447  1.00  0.00    -0.203 F 
ATOM     84  C   UNL     1      -1.438  -6.881 -13.558  1.00  0.00     0.198 A 
ATOM     85  C   UNL     1      -2.981  -6.682 -11.745  1.00  0.00     0.198 A 
ATOM     86  F   UNL     1      -2.409  -5.486  -9.827  1.00  0.00    -0.203 F 
ATOM     87  F   UNL     1      -1.110  -7.407 -14.746  1.00  0.00    -0.200 F 
ATOM     88  C   UNL     1      -2.660  -7.197 -12.986  1.00  0.00     0.200 A 
ATOM     89  F   UNL     1      -4.142  -7.012 -11.161  1.00  0.00    -0.200 F 
ATOM     90  F   UNL     1      -3.508  -8.027 -13.609  1.00  0.00    -0.200 F 
ENDBRANCH  56  80
BRANCH  68  91
ATOM     91  C   UNL     1       4.632  -2.848  -9.891  1.00  0.00     0.064 A 
ATOM     92  C   UNL     1       3.629  -1.863  -9.851  1.00  0.00     0.173 A 
ATOM     93  C   UNL     1       5.899  -2.459 -10.341  1.00  0.00     0.173 A 
ATOM     94  F   UNL     1       2.423  -2.130  -9.338  1.00  0.00    -0.203 F 
ATOM     95  C   UNL     1       3.880  -0.557 -10.272  1.00  0.00     0.198 A 
ATOM     96  C   UNL     1       6.157  -1.147 -10.727  1.00  0.00     0.198 A 
ATOM     97  F   UNL     1       6.909  -3.342 -10.341  1.00  0.00    -0.203 F 
ATOM     98  F   UNL     1       2.908   0.366 -10.220  1.00  0.00    -0.200 F 
ATOM     99  C   UNL     1       5.147  -0.199 -10.700  1.00  0.00     0.200 A 
ATOM    100  F   UNL     1       7.398  -0.793 -11.088  1.00  0.00    -0.200 F 
ATOM    101  F   UNL     1       5.405   1.068 -11.057  1.00  0.00    -0.200 F 
ENDBRANCH  68  91
ENDBRANCH  42  43
ENDBRANCH  35  37
ENDBRANCH  34  35
ENDBRANCH  33  34
ENDBRANCH   1  33
TORSDOF 15
