REMARK SMILES Cc1cn2c(CC(=O)N[C@@H](C(=O)OCCOC(=O)c3ccc(-c4c5nc(c(-c6c(F)c(F)c(F)c(F)c6F)c6ccc([nH]6)c(-c6c(F)c(F)c(F)c(F)c6F)c6nc(c(-c7c(F)c(F)c(F)c(F)c7F)c7ccc4[nH]7)C=C6)C=C5)cc3)[C@H](C)O)csc2n1
REMARK SMILES IDX 14 1 13 2 11 3 12 4 10 5 9 6 7 7 8 8 6 10 5 11 1 12 2 13
REMARK SMILES IDX 3 14 88 15 4 16 87 17 86 18 85 19 82 20 83 21 84 22 15 24
REMARK SMILES IDX 16 25 17 26 18 27 19 28 20 29 81 30 21 31 80 32 22 33 23 34
REMARK SMILES IDX 24 35 74 36 25 37 79 38 73 39 75 40 26 41 78 42 72 43 71 44
REMARK SMILES IDX 27 46 59 47 39 48 58 49 40 50 43 51 57 52 76 53 41 54 42 55
REMARK SMILES IDX 56 57 77 58 44 59 28 60 29 61 37 62 30 63 31 64 35 65 38 66
REMARK SMILES IDX 32 67 33 68 36 69 34 70 60 71 61 72 69 73 62 74 63 75 67 76
REMARK SMILES IDX 70 77 64 78 65 79 68 80 66 81 45 82 46 83 54 84 47 85 48 86
REMARK SMILES IDX 52 87 55 88 49 89 50 90 53 91 51 92
REMARK H PARENT 9 9 84 23 75 45 43 56
REMARK Flexibility Score: inf
ROOT
ATOM      1  C   UNL     1      -0.080  -7.665   3.626  1.00  0.00     0.274 C 
ENDROOT
BRANCH   1   2
ATOM      2  O   UNL     1       0.751  -6.622   3.067  1.00  0.00    -0.460 OA
BRANCH   2   3
ATOM      3  C   UNL     1       0.151  -5.425   2.816  1.00  0.00     0.331 C 
ATOM      4  O   UNL     1      -1.010  -5.158   3.101  1.00  0.00    -0.250 OA
BRANCH   3   5
ATOM      5  C   UNL     1       1.095  -4.431   2.108  1.00  0.00     0.221 C 
BRANCH   5   6
ATOM      6  N   UNL     1       2.433  -4.997   1.858  1.00  0.00    -0.340 N 
ATOM      7  C   UNL     1       2.937  -5.472   0.682  1.00  0.00     0.226 C 
ATOM      8  O   UNL     1       4.031  -6.035   0.695  1.00  0.00    -0.275 OA
ATOM      9  H   UNL     1       3.037  -5.037   2.634  1.00  0.00     0.164 HD
BRANCH   7  10
ATOM     10  C   UNL     1       2.134  -5.325  -0.608  1.00  0.00     0.155 C 
BRANCH  10  11
ATOM     11  C   UNL     1       1.073  -6.378  -0.660  1.00  0.00     0.044 A 
ATOM     12  C   UNL     1      -3.614  -4.689  -0.304  1.00  0.00     0.068 C 
ATOM     13  C   UNL     1      -2.360  -5.454  -0.487  1.00  0.00     0.057 A 
ATOM     14  C   UNL     1      -1.074  -4.974  -0.696  1.00  0.00     0.117 A 
ATOM     15  N   UNL     1      -2.371  -6.838  -0.430  1.00  0.00    -0.224 NA
ATOM     16  N   UNL     1      -0.282  -6.086  -0.676  1.00  0.00    -0.294 N 
ATOM     17  C   UNL     1      -1.117  -7.159  -0.577  1.00  0.00     0.194 A 
ATOM     18  S   UNL     1      -0.229  -8.647  -0.534  1.00  0.00    -0.105 S 
ATOM     19  C   UNL     1       1.272  -7.713  -0.599  1.00  0.00     0.091 A 
ENDBRANCH  10  11
ENDBRANCH   7  10
ENDBRANCH   5   6
BRANCH   5  20
ATOM     20  C   UNL     1       1.219  -3.080   2.837  1.00  0.00     0.145 C 
ATOM     21  C   UNL     1      -0.061  -2.250   2.789  1.00  0.00     0.041 C 
BRANCH  20  22
ATOM     22  O   UNL     1       2.228  -2.285   2.190  1.00  0.00    -0.391 OA
ATOM     23  H   UNL     1       1.962  -2.107   1.274  1.00  0.00     0.211 HD
ENDBRANCH  20  22
ENDBRANCH   5  20
ENDBRANCH   3   5
ENDBRANCH   2   3
ENDBRANCH   1   2
BRANCH   1  24
ATOM     24  C   UNL     1       0.297  -7.931   5.082  1.00  0.00     0.275 C 
BRANCH  24  25
ATOM     25  O   UNL     1      -0.018  -6.768   5.868  1.00  0.00    -0.458 OA
BRANCH  25  26
ATOM     26  C   UNL     1       1.018  -6.167   6.488  1.00  0.00     0.338 C 
ATOM     27  O   UNL     1       2.186  -6.532   6.530  1.00  0.00    -0.246 OA
BRANCH  26  28
ATOM     28  C   UNL     1       0.566  -4.887   7.050  1.00  0.00     0.060 A 
ATOM     29  C   UNL     1       0.078  -3.919   6.178  1.00  0.00     0.016 A 
ATOM     30  C   UNL     1       0.755  -4.583   8.396  1.00  0.00     0.016 A 
ATOM     31  C   UNL     1      -0.121  -2.616   6.615  1.00  0.00     0.010 A 
ATOM     32  C   UNL     1       0.447  -3.297   8.861  1.00  0.00     0.010 A 
ATOM     33  C   UNL     1       0.046  -2.287   7.966  1.00  0.00    -0.014 A 
BRANCH  33  34
ATOM     34  C   UNL     1      -0.145  -0.877   8.405  1.00  0.00     0.031 A 
ATOM     35  C   UNL     1       0.989  -0.119   9.042  1.00  0.00     0.074 A 
ATOM     36  C   UNL     1      -1.314  -0.245   8.176  1.00  0.00     0.049 A 
ATOM     37  N   UNL     1       0.982   1.065   9.602  1.00  0.00    -0.248 NA
ATOM     38  C   UNL     1       2.301  -0.782   9.066  1.00  0.00     0.031 C 
ATOM     39  C   UNL     1      -2.486  -0.837   7.529  1.00  0.00     0.029 A 
ATOM     40  N   UNL     1      -1.700   1.048   8.434  1.00  0.00    -0.354 N 
ATOM     41  C   UNL     1       2.260   1.252  10.111  1.00  0.00     0.074 A 
ATOM     42  C   UNL     1       3.025   0.071   9.777  1.00  0.00     0.031 C 
ATOM     43  C   UNL     1      -3.430   0.103   7.378  1.00  0.00     0.029 A 
ATOM     44  C   UNL     1      -2.967   1.342   7.995  1.00  0.00     0.049 A 
ATOM     45  H   UNL     1      -1.123   1.701   8.892  1.00  0.00     0.167 HD
ATOM     46  C   UNL     1       2.745   2.309  10.804  1.00  0.00     0.037 A 
ATOM     47  C   UNL     1      -3.690   2.473   8.098  1.00  0.00     0.037 A 
ATOM     48  C   UNL     1       2.012   3.520  11.063  1.00  0.00     0.049 A 
ATOM     49  C   UNL     1      -3.114   3.650   8.830  1.00  0.00     0.074 A 
ATOM     50  C   UNL     1       2.424   4.652  11.746  1.00  0.00     0.029 A 
ATOM     51  N   UNL     1       0.722   3.769  10.620  1.00  0.00    -0.354 N 
ATOM     52  N   UNL     1      -1.936   3.777   9.390  1.00  0.00    -0.248 NA
ATOM     53  C   UNL     1      -3.979   4.830   8.972  1.00  0.00     0.031 C 
ATOM     54  C   UNL     1       1.376   5.580  11.731  1.00  0.00     0.029 A 
ATOM     55  C   UNL     1       0.322   5.035  11.016  1.00  0.00     0.049 A 
ATOM     56  H   UNL     1       0.172   3.139  10.102  1.00  0.00     0.167 HD
ATOM     57  C   UNL     1      -1.925   5.037   9.969  1.00  0.00     0.074 A 
ATOM     58  C   UNL     1      -3.198   5.654   9.657  1.00  0.00     0.031 C 
ATOM     59  C   UNL     1      -0.955   5.623  10.711  1.00  0.00     0.037 A 
BRANCH  46  60
ATOM     60  C   UNL     1       4.126   2.187  11.373  1.00  0.00     0.064 A 
ATOM     61  C   UNL     1       5.273   2.314  10.578  1.00  0.00     0.173 A 
ATOM     62  C   UNL     1       4.298   1.966  12.748  1.00  0.00     0.173 A 
ATOM     63  F   UNL     1       5.160   2.506   9.256  1.00  0.00    -0.203 F 
ATOM     64  C   UNL     1       6.544   2.207  11.138  1.00  0.00     0.198 A 
ATOM     65  C   UNL     1       5.569   1.881  13.308  1.00  0.00     0.198 A 
ATOM     66  F   UNL     1       3.230   1.839  13.550  1.00  0.00    -0.203 F 
ATOM     67  F   UNL     1       7.629   2.294  10.355  1.00  0.00    -0.200 F 
ATOM     68  C   UNL     1       6.691   1.997  12.502  1.00  0.00     0.200 A 
ATOM     69  F   UNL     1       5.708   1.685  14.626  1.00  0.00    -0.200 F 
ATOM     70  F   UNL     1       7.915   1.898  13.038  1.00  0.00    -0.200 F 
ENDBRANCH  46  60
BRANCH  47  71
ATOM     71  C   UNL     1      -5.057   2.527   7.521  1.00  0.00     0.064 A 
ATOM     72  C   UNL     1      -5.324   3.290   6.377  1.00  0.00     0.173 A 
ATOM     73  C   UNL     1      -6.114   1.798   8.085  1.00  0.00     0.173 A 
ATOM     74  F   UNL     1      -4.350   4.024   5.818  1.00  0.00    -0.203 F 
ATOM     75  C   UNL     1      -6.600   3.322   5.818  1.00  0.00     0.198 A 
ATOM     76  C   UNL     1      -7.382   1.811   7.511  1.00  0.00     0.198 A 
ATOM     77  F   UNL     1      -5.906   1.054   9.181  1.00  0.00    -0.203 F 
ATOM     78  F   UNL     1      -6.838   4.081   4.739  1.00  0.00    -0.200 F 
ATOM     79  C   UNL     1      -7.625   2.575   6.380  1.00  0.00     0.200 A 
ATOM     80  F   UNL     1      -8.366   1.078   8.049  1.00  0.00    -0.200 F 
ATOM     81  F   UNL     1      -8.848   2.595   5.833  1.00  0.00    -0.200 F 
ENDBRANCH  47  71
BRANCH  59  82
ATOM     82  C   UNL     1      -1.247   6.989  11.249  1.00  0.00     0.064 A 
ATOM     83  C   UNL     1      -2.089   7.164  12.357  1.00  0.00     0.173 A 
ATOM     84  C   UNL     1      -0.667   8.127  10.672  1.00  0.00     0.173 A 
ATOM     85  F   UNL     1      -2.678   6.104  12.930  1.00  0.00    -0.203 F 
ATOM     86  C   UNL     1      -2.355   8.435  12.857  1.00  0.00     0.198 A 
ATOM     87  C   UNL     1      -0.921   9.395  11.186  1.00  0.00     0.198 A 
ATOM     88  F   UNL     1       0.146   8.007   9.611  1.00  0.00    -0.203 F 
ATOM     89  F   UNL     1      -3.191   8.583  13.894  1.00  0.00    -0.200 F 
ATOM     90  C   UNL     1      -1.769   9.548  12.274  1.00  0.00     0.200 A 
ATOM     91  F   UNL     1      -0.352  10.471  10.624  1.00  0.00    -0.200 F 
ATOM     92  F   UNL     1      -2.028  10.772  12.755  1.00  0.00    -0.200 F 
ENDBRANCH  59  82
ENDBRANCH  33  34
ENDBRANCH  26  28
ENDBRANCH  25  26
ENDBRANCH  24  25
ENDBRANCH   1  24
TORSDOF 16
