REMARK SMILES CCOC(=O)c1c(NC(=O)[C@@H]2[C@@H](C(=O)OCCOC(=O)c3ccc(-c4c5nc(c(-c6c(F)c(F)c(F)c(F)c6F)c6ccc([nH]6)c(-c6c(F)c(F)c(F)c(F)c6F)c6nc(c(-c7c(F)c(F)c(F)c(F)c7F)c7ccc4[nH]7)C=C6)C=C5)cc3)[C@@H]3C=C[C@H]2CC3)sc2c1CCC2
REMARK SMILES IDX 15 1 13 2 14 3 12 4 11 5 87 6 84 7 86 8 88 9 85 10 89 11
REMARK SMILES IDX 9 12 8 13 10 15 7 16 6 17 92 18 90 19 91 20 93 21 95 22
REMARK SMILES IDX 94 23 4 24 5 25 3 26 2 27 1 28 16 29 17 30 18 31 19 32 20 33
REMARK SMILES IDX 21 34 22 35 83 36 23 37 82 38 24 39 25 40 26 41 76 42 27 43
REMARK SMILES IDX 81 44 75 45 77 46 28 47 80 48 74 49 73 50 29 52 61 53 41 54
REMARK SMILES IDX 60 55 42 56 45 57 59 58 78 59 43 60 44 61 58 63 79 64 46 65
REMARK SMILES IDX 30 66 31 67 39 68 32 69 33 70 37 71 40 72 34 73 35 74 38 75
REMARK SMILES IDX 36 76 62 77 63 78 71 79 64 80 65 81 69 82 72 83 66 84 67 85
REMARK SMILES IDX 70 86 68 87 47 88 48 89 56 90 49 91 50 92 54 93 57 94 51 95
REMARK SMILES IDX 52 96 55 97 53 98
REMARK H PARENT 8 14 77 51 45 62
REMARK Flexibility Score: inf
ROOT
ATOM      1  O   UNL     1       8.776   4.622  -5.841  1.00  0.00    -0.462 OA
ENDROOT
BRANCH   1   2
ATOM      2  C   UNL     1       7.620   5.286  -5.553  1.00  0.00     0.310 C 
ATOM      3  O   UNL     1       7.042   6.039  -6.330  1.00  0.00    -0.252 OA
BRANCH   2   4
ATOM      4  C   UNL     1       7.194   5.056  -4.117  1.00  0.00     0.119 C 
ATOM      5  C   UNL     1       5.614   4.844  -3.965  1.00  0.00     0.100 C 
ATOM      6  C   UNL     1       5.126   6.072  -3.147  1.00  0.00     0.025 C 
ATOM      7  C   UNL     1       7.673   6.295  -3.290  1.00  0.00     0.026 C 
ATOM      8  C   UNL     1       5.813   6.047  -1.804  1.00  0.00    -0.027 C 
ATOM      9  C   UNL     1       5.496   7.362  -3.915  1.00  0.00     0.009 C 
ATOM     10  C   UNL     1       7.148   6.131  -1.877  1.00  0.00    -0.027 C 
ATOM     11  C   UNL     1       7.009   7.592  -3.821  1.00  0.00     0.009 C 
BRANCH   5  12
ATOM     12  C   UNL     1       5.315   3.422  -3.388  1.00  0.00     0.229 C 
ATOM     13  N   UNL     1       4.181   3.018  -2.733  1.00  0.00    -0.317 N 
ATOM     14  H   UNL     1       4.178   2.070  -2.465  1.00  0.00     0.170 HD
ATOM     15  O   UNL     1       6.164   2.526  -3.520  1.00  0.00    -0.274 OA
BRANCH  13  16
ATOM     16  C   UNL     1       3.047   3.711  -2.389  1.00  0.00     0.110 A 
ATOM     17  C   UNL     1       2.268   3.633  -1.233  1.00  0.00     0.098 A 
ATOM     18  C   UNL     1       1.644   4.905  -1.090  1.00  0.00    -0.017 A 
ATOM     19  S   UNL     1       2.243   4.710  -3.549  1.00  0.00    -0.122 S 
ATOM     20  C   UNL     1       1.664   5.614  -2.257  1.00  0.00     0.011 A 
ATOM     21  C   UNL     1       1.119   5.725   0.031  1.00  0.00     0.038 C 
ATOM     22  C   UNL     1       1.291   7.034  -2.112  1.00  0.00     0.047 C 
ATOM     23  C   UNL     1       0.638   7.025  -0.696  1.00  0.00     0.010 C 
BRANCH  17  24
ATOM     24  C   UNL     1       2.273   2.555  -0.260  1.00  0.00     0.341 C 
ATOM     25  O   UNL     1       3.237   1.846  -0.024  1.00  0.00    -0.246 OA
BRANCH  24  26
ATOM     26  O   UNL     1       1.014   2.374   0.239  1.00  0.00    -0.462 OA
BRANCH  26  27
ATOM     27  C   UNL     1       0.739   1.171   0.972  1.00  0.00     0.230 C 
ATOM     28  C   UNL     1       0.877  -0.075   0.111  1.00  0.00     0.049 C 
ENDBRANCH  26  27
ENDBRANCH  24  26
ENDBRANCH  17  24
ENDBRANCH  13  16
ENDBRANCH   5  12
ENDBRANCH   2   4
ENDBRANCH   1   2
BRANCH   1  29
ATOM     29  C   UNL     1       9.332   4.848  -7.151  1.00  0.00     0.274 C 
BRANCH  29  30
ATOM     30  C   UNL     1       8.746   3.939  -8.229  1.00  0.00     0.275 C 
BRANCH  30  31
ATOM     31  O   UNL     1       7.409   4.303  -8.572  1.00  0.00    -0.458 OA
BRANCH  31  32
ATOM     32  C   UNL     1       6.459   3.711  -7.815  1.00  0.00     0.338 C 
ATOM     33  O   UNL     1       6.633   2.997  -6.843  1.00  0.00    -0.246 OA
BRANCH  32  34
ATOM     34  C   UNL     1       5.133   3.941  -8.397  1.00  0.00     0.060 A 
ATOM     35  C   UNL     1       4.039   3.469  -7.665  1.00  0.00     0.016 A 
ATOM     36  C   UNL     1       5.005   4.368  -9.726  1.00  0.00     0.016 A 
ATOM     37  C   UNL     1       2.854   3.246  -8.326  1.00  0.00     0.010 A 
ATOM     38  C   UNL     1       3.819   4.137 -10.389  1.00  0.00     0.010 A 
ATOM     39  C   UNL     1       2.790   3.501  -9.701  1.00  0.00    -0.014 A 
BRANCH  39  40
ATOM     40  C   UNL     1       1.601   3.049 -10.390  1.00  0.00     0.031 A 
ATOM     41  C   UNL     1       0.380   3.828 -10.094  1.00  0.00     0.074 A 
ATOM     42  C   UNL     1       1.621   2.020 -11.256  1.00  0.00     0.049 A 
ATOM     43  N   UNL     1      -0.699   3.426  -9.510  1.00  0.00    -0.248 NA
ATOM     44  C   UNL     1       0.412   5.266 -10.396  1.00  0.00     0.031 C 
ATOM     45  C   UNL     1       2.781   1.357 -11.856  1.00  0.00     0.029 A 
ATOM     46  N   UNL     1       0.566   1.408 -11.855  1.00  0.00    -0.354 N 
ATOM     47  C   UNL     1      -1.554   4.522  -9.504  1.00  0.00     0.074 A 
ATOM     48  C   UNL     1      -0.779   5.655  -9.942  1.00  0.00     0.031 C 
ATOM     49  C   UNL     1       2.364   0.593 -12.892  1.00  0.00     0.029 A 
ATOM     50  C   UNL     1       0.911   0.612 -12.933  1.00  0.00     0.049 A 
ATOM     51  H   UNL     1      -0.362   1.522 -11.549  1.00  0.00     0.167 HD
ATOM     52  C   UNL     1      -2.895   4.374  -9.342  1.00  0.00     0.037 A 
ATOM     53  C   UNL     1       0.050   0.094 -13.841  1.00  0.00     0.037 A 
ATOM     54  C   UNL     1      -3.226   3.111  -8.739  1.00  0.00     0.049 A 
ATOM     55  C   UNL     1      -1.305   0.095 -13.232  1.00  0.00     0.074 A 
ATOM     56  C   UNL     1      -2.944   2.512  -7.527  1.00  0.00     0.029 A 
ATOM     57  N   UNL     1      -3.688   2.105  -9.549  1.00  0.00    -0.354 N 
ATOM     58  N   UNL     1      -1.664  -0.666 -12.235  1.00  0.00    -0.248 NA
ATOM     59  C   UNL     1      -2.155   1.254 -13.465  1.00  0.00     0.031 C 
ATOM     60  C   UNL     1      -2.800   1.124  -7.821  1.00  0.00     0.029 A 
ATOM     61  C   UNL     1      -3.032   0.957  -9.186  1.00  0.00     0.049 A 
ATOM     62  H   UNL     1      -4.364   2.192 -10.259  1.00  0.00     0.167 HD
ATOM     63  C   UNL     1      -2.508   0.126 -11.470  1.00  0.00     0.074 A 
ATOM     64  C   UNL     1      -2.855   1.253 -12.329  1.00  0.00     0.031 C 
ATOM     65  C   UNL     1      -2.623  -0.062 -10.123  1.00  0.00     0.037 A 
BRANCH  52  66
ATOM     66  C   UNL     1      -3.913   5.225 -10.050  1.00  0.00     0.064 A 
ATOM     67  C   UNL     1      -5.268   5.133  -9.681  1.00  0.00     0.173 A 
ATOM     68  C   UNL     1      -3.653   5.893 -11.267  1.00  0.00     0.173 A 
ATOM     69  F   UNL     1      -5.628   4.495  -8.557  1.00  0.00    -0.203 F 
ATOM     70  C   UNL     1      -6.289   5.613 -10.505  1.00  0.00     0.198 A 
ATOM     71  C   UNL     1      -4.670   6.420 -12.059  1.00  0.00     0.198 A 
ATOM     72  F   UNL     1      -2.424   5.960 -11.794  1.00  0.00    -0.203 F 
ATOM     73  F   UNL     1      -7.568   5.393 -10.176  1.00  0.00    -0.200 F 
ATOM     74  C   UNL     1      -5.989   6.252 -11.695  1.00  0.00     0.200 A 
ATOM     75  F   UNL     1      -4.359   7.017 -13.218  1.00  0.00    -0.200 F 
ATOM     76  F   UNL     1      -6.966   6.657 -12.516  1.00  0.00    -0.200 F 
ENDBRANCH  52  66
BRANCH  53  77
ATOM     77  C   UNL     1       0.269  -0.046 -15.299  1.00  0.00     0.064 A 
ATOM     78  C   UNL     1      -0.563  -0.864 -16.078  1.00  0.00     0.173 A 
ATOM     79  C   UNL     1       1.120   0.833 -15.999  1.00  0.00     0.173 A 
ATOM     80  F   UNL     1      -1.437  -1.692 -15.488  1.00  0.00    -0.203 F 
ATOM     81  C   UNL     1      -0.559  -0.791 -17.475  1.00  0.00     0.198 A 
ATOM     82  C   UNL     1       1.130   0.897 -17.392  1.00  0.00     0.198 A 
ATOM     83  F   UNL     1       1.888   1.717 -15.346  1.00  0.00    -0.203 F 
ATOM     84  F   UNL     1      -1.414  -1.541 -18.185  1.00  0.00    -0.200 F 
ATOM     85  C   UNL     1       0.281   0.095 -18.129  1.00  0.00     0.200 A 
ATOM     86  F   UNL     1       1.921   1.786 -18.010  1.00  0.00    -0.200 F 
ATOM     87  F   UNL     1       0.240   0.209 -19.464  1.00  0.00    -0.200 F 
ENDBRANCH  53  77
BRANCH  65  88
ATOM     88  C   UNL     1      -2.044  -1.322  -9.544  1.00  0.00     0.064 A 
ATOM     89  C   UNL     1      -0.675  -1.640  -9.572  1.00  0.00     0.173 A 
ATOM     90  C   UNL     1      -2.889  -2.171  -8.817  1.00  0.00     0.173 A 
ATOM     91  F   UNL     1       0.210  -0.824 -10.157  1.00  0.00    -0.203 F 
ATOM     92  C   UNL     1      -0.187  -2.785  -8.944  1.00  0.00     0.198 A 
ATOM     93  C   UNL     1      -2.394  -3.292  -8.158  1.00  0.00     0.198 A 
ATOM     94  F   UNL     1      -4.196  -1.885  -8.706  1.00  0.00    -0.203 F 
ATOM     95  F   UNL     1       1.120  -3.078  -9.000  1.00  0.00    -0.200 F 
ATOM     96  C   UNL     1      -1.046  -3.606  -8.232  1.00  0.00     0.200 A 
ATOM     97  F   UNL     1      -3.220  -4.056  -7.429  1.00  0.00    -0.200 F 
ATOM     98  F   UNL     1      -0.572  -4.686  -7.595  1.00  0.00    -0.200 F 
ENDBRANCH  65  88
ENDBRANCH  39  40
ENDBRANCH  32  34
ENDBRANCH  31  32
ENDBRANCH  30  31
ENDBRANCH  29  30
ENDBRANCH   1  29
TORSDOF 16
