REMARK SMILES O=C(CSc1cc(-c2ccccc2)nc(-c2ccccc2F)n1)OCCOC(=O)c1ccc(-c2c3nc(c(-c4c(F)c(F)c(F)c(F)c4F)c4ccc([nH]4)c(-c4c(F)c(F)c(F)c(F)c4F)c4nc(c(-c5c(F)c(F)c(F)c(F)c5F)c5ccc2[nH]5)C=C4)C=C3)cc1
REMARK SMILES IDX 25 1 24 2 2 3 1 4 3 5 4 6 5 7 6 8 23 9 7 10 15 11 14 12 8 13
REMARK SMILES IDX 9 14 13 15 10 16 12 17 11 18 16 19 17 20 21 21 18 22 20 23
REMARK SMILES IDX 22 24 19 25 26 26 27 27 28 28 29 29 30 30 31 31 92 32 32 33
REMARK SMILES IDX 91 34 33 35 34 36 35 37 85 38 36 39 90 40 84 41 86 42 37 43
REMARK SMILES IDX 89 44 83 45 82 46 38 48 70 49 50 50 69 51 51 52 54 53 68 54
REMARK SMILES IDX 87 55 52 56 53 57 67 59 88 60 55 61 39 62 40 63 48 64 41 65
REMARK SMILES IDX 42 66 46 67 49 68 43 69 44 70 47 71 45 72 71 73 72 74 80 75
REMARK SMILES IDX 73 76 74 77 78 78 81 79 75 80 76 81 79 82 77 83 56 84 57 85
REMARK SMILES IDX 65 86 58 87 59 88 63 89 66 90 60 91 61 92 64 93 62 94
REMARK H PARENT 86 47 54 58
REMARK Flexibility Score: inf
ROOT
ATOM      1  C   UNL     1       4.626   1.047  -0.491  1.00  0.00     0.274 C 
ENDROOT
BRANCH   1   2
ATOM      2  O   UNL     1       3.296   0.597  -0.824  1.00  0.00    -0.461 OA
BRANCH   2   3
ATOM      3  C   UNL     1       2.703  -0.511  -0.313  1.00  0.00     0.316 C 
ATOM      4  O   UNL     1       1.484  -0.654  -0.413  1.00  0.00    -0.251 OA
BRANCH   3   5
ATOM      5  C   UNL     1       3.544  -1.514   0.444  1.00  0.00     0.199 C 
BRANCH   5   6
ATOM      6  S   UNL     1       4.673  -2.459  -0.609  1.00  0.00    -0.094 SA
BRANCH   6   7
ATOM      7  C   UNL     1       3.505  -3.644  -1.208  1.00  0.00     0.101 A 
ATOM      8  C   UNL     1       3.691  -4.971  -0.937  1.00  0.00     0.064 A 
ATOM      9  N   UNL     1       2.470  -3.170  -1.905  1.00  0.00    -0.222 NA
ATOM     10  C   UNL     1       2.731  -5.825  -1.432  1.00  0.00     0.075 A 
ATOM     11  C   UNL     1       1.557  -4.065  -2.316  1.00  0.00     0.163 A 
ATOM     12  N   UNL     1       1.657  -5.393  -2.125  1.00  0.00    -0.228 NA
BRANCH  10  13
ATOM     13  C   UNL     1       2.902  -7.269  -1.278  1.00  0.00     0.000 A 
ATOM     14  C   UNL     1       3.227  -8.060  -2.390  1.00  0.00     0.010 A 
ATOM     15  C   UNL     1       2.870  -7.875  -0.010  1.00  0.00     0.010 A 
ATOM     16  C   UNL     1       3.551  -9.409  -2.236  1.00  0.00     0.001 A 
ATOM     17  C   UNL     1       3.185  -9.226   0.143  1.00  0.00     0.001 A 
ATOM     18  C   UNL     1       3.537  -9.989  -0.969  1.00  0.00     0.000 A 
ENDBRANCH  10  13
BRANCH  11  19
ATOM     19  C   UNL     1       0.414  -3.528  -3.056  1.00  0.00     0.055 A 
ATOM     20  C   UNL     1       0.590  -2.494  -3.999  1.00  0.00     0.015 A 
ATOM     21  C   UNL     1      -0.892  -3.974  -2.831  1.00  0.00     0.134 A 
ATOM     22  C   UNL     1      -0.493  -1.948  -4.694  1.00  0.00     0.001 A 
ATOM     23  C   UNL     1      -1.981  -3.429  -3.516  1.00  0.00     0.040 A 
ATOM     24  F   UNL     1      -1.144  -4.917  -1.909  1.00  0.00    -0.206 F 
ATOM     25  C   UNL     1      -1.781  -2.417  -4.452  1.00  0.00     0.003 A 
ENDBRANCH  11  19
ENDBRANCH   6   7
ENDBRANCH   5   6
ENDBRANCH   3   5
ENDBRANCH   2   3
ENDBRANCH   1   2
BRANCH   1  26
ATOM     26  C   UNL     1       4.626   1.970   0.730  1.00  0.00     0.275 C 
BRANCH  26  27
ATOM     27  O   UNL     1       4.180   1.257   1.901  1.00  0.00    -0.458 OA
BRANCH  27  28
ATOM     28  C   UNL     1       2.883   1.456   2.243  1.00  0.00     0.338 C 
ATOM     29  O   UNL     1       2.115   2.262   1.746  1.00  0.00    -0.246 OA
BRANCH  28  30
ATOM     30  C   UNL     1       2.461   0.431   3.226  1.00  0.00     0.060 A 
ATOM     31  C   UNL     1       1.167  -0.093   3.109  1.00  0.00     0.016 A 
ATOM     32  C   UNL     1       3.297   0.005   4.264  1.00  0.00     0.016 A 
ATOM     33  C   UNL     1       0.680  -0.981   4.070  1.00  0.00     0.010 A 
ATOM     34  C   UNL     1       2.809  -0.891   5.224  1.00  0.00     0.010 A 
ATOM     35  C   UNL     1       1.481  -1.349   5.160  1.00  0.00    -0.014 A 
BRANCH  35  36
ATOM     36  C   UNL     1       0.864  -2.051   6.316  1.00  0.00     0.031 A 
ATOM     37  C   UNL     1       0.458  -1.243   7.521  1.00  0.00     0.074 A 
ATOM     38  C   UNL     1       0.620  -3.374   6.289  1.00  0.00     0.049 A 
ATOM     39  N   UNL     1      -0.158  -1.625   8.613  1.00  0.00    -0.248 NA
ATOM     40  C   UNL     1       0.795   0.189   7.492  1.00  0.00     0.031 C 
ATOM     41  C   UNL     1       0.945  -4.273   5.185  1.00  0.00     0.029 A 
ATOM     42  N   UNL     1       0.032  -4.189   7.226  1.00  0.00    -0.354 N 
ATOM     43  C   UNL     1      -0.286  -0.482   9.392  1.00  0.00     0.074 A 
ATOM     44  C   UNL     1       0.358   0.596   8.674  1.00  0.00     0.031 C 
ATOM     45  C   UNL     1       0.545  -5.516   5.504  1.00  0.00     0.029 A 
ATOM     46  C   UNL     1      -0.052  -5.503   6.839  1.00  0.00     0.049 A 
ATOM     47  H   UNL     1      -0.299  -3.860   8.093  1.00  0.00     0.167 HD
ATOM     48  C   UNL     1      -0.903  -0.335  10.589  1.00  0.00     0.037 A 
ATOM     49  C   UNL     1      -0.560  -6.571   7.488  1.00  0.00     0.037 A 
ATOM     50  C   UNL     1      -1.551  -1.398  11.309  1.00  0.00     0.049 A 
ATOM     51  C   UNL     1      -1.193  -6.390   8.845  1.00  0.00     0.074 A 
ATOM     52  C   UNL     1      -2.234  -1.336  12.511  1.00  0.00     0.029 A 
ATOM     53  N   UNL     1      -1.588  -2.721  10.896  1.00  0.00    -0.354 N 
ATOM     54  N   UNL     1      -1.370  -5.295   9.542  1.00  0.00    -0.248 NA
ATOM     55  C   UNL     1      -1.712  -7.602   9.499  1.00  0.00     0.031 C 
ATOM     56  C   UNL     1      -2.638  -2.631  12.853  1.00  0.00     0.029 A 
ATOM     57  C   UNL     1      -2.257  -3.490  11.836  1.00  0.00     0.049 A 
ATOM     58  H   UNL     1      -1.197  -3.064  10.060  1.00  0.00     0.167 HD
ATOM     59  C   UNL     1      -2.058  -5.676  10.689  1.00  0.00     0.074 A 
ATOM     60  C   UNL     1      -2.270  -7.104  10.593  1.00  0.00     0.031 C 
ATOM     61  C   UNL     1      -2.481  -4.909  11.724  1.00  0.00     0.037 A 
BRANCH  48  62
ATOM     62  C   UNL     1      -0.892   1.034  11.205  1.00  0.00     0.064 A 
ATOM     63  C   UNL     1      -1.655   2.086  10.677  1.00  0.00     0.173 A 
ATOM     64  C   UNL     1      -0.126   1.288  12.352  1.00  0.00     0.173 A 
ATOM     65  F   UNL     1      -2.393   1.897   9.573  1.00  0.00    -0.203 F 
ATOM     66  C   UNL     1      -1.628   3.351  11.258  1.00  0.00     0.198 A 
ATOM     67  C   UNL     1      -0.124   2.547  12.947  1.00  0.00     0.198 A 
ATOM     68  F   UNL     1       0.619   0.315  12.899  1.00  0.00    -0.203 F 
ATOM     69  F   UNL     1      -2.324   4.355  10.707  1.00  0.00    -0.200 F 
ATOM     70  C   UNL     1      -0.868   3.579  12.396  1.00  0.00     0.200 A 
ATOM     71  F   UNL     1       0.601   2.762  14.053  1.00  0.00    -0.200 F 
ATOM     72  F   UNL     1      -0.846   4.796  12.955  1.00  0.00    -0.200 F 
ENDBRANCH  48  62
BRANCH  49  73
ATOM     73  C   UNL     1      -0.519  -7.916   6.856  1.00  0.00     0.064 A 
ATOM     74  C   UNL     1      -1.697  -8.554   6.440  1.00  0.00     0.173 A 
ATOM     75  C   UNL     1       0.689  -8.608   6.695  1.00  0.00     0.173 A 
ATOM     76  F   UNL     1      -2.881  -7.944   6.601  1.00  0.00    -0.203 F 
ATOM     77  C   UNL     1      -1.670  -9.843   5.911  1.00  0.00     0.198 A 
ATOM     78  C   UNL     1       0.718  -9.886   6.140  1.00  0.00     0.198 A 
ATOM     79  F   UNL     1       1.843  -8.045   7.081  1.00  0.00    -0.203 F 
ATOM     80  F   UNL     1      -2.816 -10.451   5.575  1.00  0.00    -0.200 F 
ATOM     81  C   UNL     1      -0.462 -10.506   5.758  1.00  0.00     0.200 A 
ATOM     82  F   UNL     1       1.888 -10.521   5.986  1.00  0.00    -0.200 F 
ATOM     83  F   UNL     1      -0.436 -11.748   5.255  1.00  0.00    -0.200 F 
ENDBRANCH  49  73
BRANCH  61  84
ATOM     84  C   UNL     1      -3.266  -5.583  12.815  1.00  0.00     0.064 A 
ATOM     85  C   UNL     1      -2.667  -6.472  13.720  1.00  0.00     0.173 A 
ATOM     86  C   UNL     1      -4.633  -5.306  12.977  1.00  0.00     0.173 A 
ATOM     87  F   UNL     1      -1.366  -6.780  13.602  1.00  0.00    -0.203 F 
ATOM     88  C   UNL     1      -3.413  -7.082  14.726  1.00  0.00     0.198 A 
ATOM     89  C   UNL     1      -5.368  -5.893  14.004  1.00  0.00     0.198 A 
ATOM     90  F   UNL     1      -5.254  -4.456  12.146  1.00  0.00    -0.203 F 
ATOM     91  F   UNL     1      -2.830  -7.968  15.546  1.00  0.00    -0.200 F 
ATOM     92  C   UNL     1      -4.760  -6.787  14.871  1.00  0.00     0.200 A 
ATOM     93  F   UNL     1      -6.666  -5.594  14.152  1.00  0.00    -0.200 F 
ATOM     94  F   UNL     1      -5.474  -7.371  15.843  1.00  0.00    -0.200 F 
ENDBRANCH  61  84
ENDBRANCH  35  36
ENDBRANCH  28  30
ENDBRANCH  27  28
ENDBRANCH  26  27
ENDBRANCH   1  26
TORSDOF 15
