REMARK SMILES COc1ccc(NCc2ccc(C(=O)OCCOC(=O)c3ccc(-c4c5nc(c(-c6c(F)c(F)c(F)c(F)c6F)c6ccc([nH]6)c(-c6c(F)c(F)c(F)c(F)c6F)c6nc(c(-c7c(F)c(F)c(F)c(F)c7F)c7ccc4[nH]7)C=C6)C=C5)cc3)cn2)cc1Br
REMARK SMILES IDX 16 1 15 2 13 3 14 4 12 5 9 6 10 7 85 8 11 9 84 10 8 11 7 12
REMARK SMILES IDX 6 14 3 15 4 16 87 17 5 18 86 19 88 20 2 21 1 22 17 23 18 24
REMARK SMILES IDX 19 25 20 26 21 27 22 28 83 29 23 30 82 31 24 32 25 33 26 34
REMARK SMILES IDX 76 35 27 36 81 37 75 38 77 39 28 40 80 41 74 42 73 43 29 45
REMARK SMILES IDX 61 46 41 47 60 48 42 49 45 50 59 51 78 52 43 53 44 54 58 56
REMARK SMILES IDX 79 57 46 58 30 59 31 60 39 61 32 62 33 63 37 64 40 65 34 66
REMARK SMILES IDX 35 67 38 68 36 69 62 70 63 71 71 72 64 73 65 74 69 75 72 76
REMARK SMILES IDX 66 77 67 78 70 79 68 80 47 81 48 82 56 83 49 84 50 85 54 86
REMARK SMILES IDX 57 87 51 88 52 89 55 90 53 91
REMARK H PARENT 7 13 77 44 45 55
REMARK Flexibility Score: inf
ROOT
ATOM      1  C   UNL     1       0.809  -3.988  11.597  1.00  0.00     0.275 C 
ENDROOT
BRANCH   1   2
ATOM      2  O   UNL     1       0.923  -3.025  10.528  1.00  0.00    -0.458 OA
BRANCH   2   3
ATOM      3  C   UNL     1      -0.004  -2.033  10.532  1.00  0.00     0.339 C 
ATOM      4  O   UNL     1      -0.900  -1.884  11.338  1.00  0.00    -0.246 OA
BRANCH   3   5
ATOM      5  C   UNL     1       0.273  -1.047   9.466  1.00  0.00     0.078 A 
ATOM      6  C   UNL     1       0.777   1.006   7.678  1.00  0.00     0.059 A 
ATOM      7  C   UNL     1       1.234  -0.285   7.396  1.00  0.00     0.026 A 
ATOM      8  N   UNL     1       0.045   1.270   8.792  1.00  0.00    -0.259 NA
ATOM      9  C   UNL     1       0.992  -1.319   8.307  1.00  0.00     0.019 A 
ATOM     10  C   UNL     1      -0.206   0.243   9.638  1.00  0.00     0.127 A 
BRANCH   6  11
ATOM     11  C   UNL     1       1.069   2.205   6.794  1.00  0.00     0.169 C 
BRANCH  11  12
ATOM     12  N   UNL     1       2.009   1.938   5.716  1.00  0.00    -0.379 N 
ATOM     13  H   UNL     1       2.960   1.872   5.961  1.00  0.00     0.160 HD
BRANCH  12  14
ATOM     14  C   UNL     1       1.696   1.769   4.383  1.00  0.00     0.036 A 
ATOM     15  C   UNL     1       1.195   1.415   1.623  1.00  0.00     0.133 A 
ATOM     16  C   UNL     1       0.143   1.649   2.506  1.00  0.00     0.050 A 
ATOM     17  C   UNL     1       2.501   1.377   2.106  1.00  0.00     0.062 A 
ATOM     18  C   UNL     1       0.394   1.810   3.874  1.00  0.00     0.029 A 
ATOM     19  C   UNL     1       2.741   1.540   3.475  1.00  0.00     0.045 A 
ATOM     20  Br  UNL     1       3.996   1.146   0.961  1.00  0.00    -0.047 Br
BRANCH  15  21
ATOM     21  O   UNL     1       0.888   1.320   0.293  1.00  0.00    -0.496 OA
ATOM     22  C   UNL     1       0.796  -0.045  -0.116  1.00  0.00     0.278 C 
ENDBRANCH  15  21
ENDBRANCH  12  14
ENDBRANCH  11  12
ENDBRANCH   6  11
ENDBRANCH   3   5
ENDBRANCH   2   3
ENDBRANCH   1   2
BRANCH   1  23
ATOM     23  C   UNL     1       1.824  -3.713  12.707  1.00  0.00     0.275 C 
BRANCH  23  24
ATOM     24  O   UNL     1       1.541  -2.452  13.344  1.00  0.00    -0.458 OA
BRANCH  24  25
ATOM     25  C   UNL     1       2.508  -1.514  13.239  1.00  0.00     0.338 C 
ATOM     26  O   UNL     1       3.601  -1.623  12.708  1.00  0.00    -0.246 OA
BRANCH  25  27
ATOM     27  C   UNL     1       2.041  -0.244  13.814  1.00  0.00     0.060 A 
ATOM     28  C   UNL     1       1.159   0.532  13.067  1.00  0.00     0.016 A 
ATOM     29  C   UNL     1       2.606   0.266  14.981  1.00  0.00     0.016 A 
ATOM     30  C   UNL     1       0.900   1.850  13.433  1.00  0.00     0.010 A 
ATOM     31  C   UNL     1       2.281   1.567  15.393  1.00  0.00     0.010 A 
ATOM     32  C   UNL     1       1.459   2.392  14.600  1.00  0.00    -0.014 A 
BRANCH  32  33
ATOM     33  C   UNL     1       1.247   3.833  14.932  1.00  0.00     0.031 A 
ATOM     34  C   UNL     1       2.424   4.770  15.043  1.00  0.00     0.074 A 
ATOM     35  C   UNL     1       0.002   4.328  15.089  1.00  0.00     0.049 A 
ATOM     36  N   UNL     1       2.461   6.018  15.445  1.00  0.00    -0.248 NA
ATOM     37  C   UNL     1       3.738   4.230  14.662  1.00  0.00     0.031 C 
ATOM     38  C   UNL     1      -1.236   3.559  14.968  1.00  0.00     0.029 A 
ATOM     39  N   UNL     1      -0.428   5.604  15.369  1.00  0.00    -0.354 N 
ATOM     40  C   UNL     1       3.801   6.387  15.423  1.00  0.00     0.074 A 
ATOM     41  C   UNL     1       4.548   5.232  14.973  1.00  0.00     0.031 C 
ATOM     42  C   UNL     1      -2.284   4.383  15.122  1.00  0.00     0.029 A 
ATOM     43  C   UNL     1      -1.795   5.722  15.437  1.00  0.00     0.049 A 
ATOM     44  H   UNL     1       0.186   6.361  15.508  1.00  0.00     0.167 HD
ATOM     45  C   UNL     1       4.358   7.580  15.746  1.00  0.00     0.037 A 
ATOM     46  C   UNL     1      -2.573   6.777  15.749  1.00  0.00     0.037 A 
ATOM     47  C   UNL     1       3.613   8.754  16.127  1.00  0.00     0.049 A 
ATOM     48  C   UNL     1      -1.931   8.088  16.108  1.00  0.00     0.074 A 
ATOM     49  C   UNL     1       4.091  10.011  16.458  1.00  0.00     0.029 A 
ATOM     50  N   UNL     1       2.230   8.821  16.203  1.00  0.00    -0.354 N 
ATOM     51  N   UNL     1      -0.661   8.407  16.143  1.00  0.00    -0.248 NA
ATOM     52  C   UNL     1      -2.834   9.184  16.489  1.00  0.00     0.031 C 
ATOM     53  C   UNL     1       2.999  10.830  16.767  1.00  0.00     0.029 A 
ATOM     54  C   UNL     1       1.839  10.097  16.583  1.00  0.00     0.049 A 
ATOM     55  H   UNL     1       1.617   8.075  16.016  1.00  0.00     0.167 HD
ATOM     56  C   UNL     1      -0.612   9.738  16.533  1.00  0.00     0.074 A 
ATOM     57  C   UNL     1      -1.981  10.176  16.702  1.00  0.00     0.031 C 
ATOM     58  C   UNL     1       0.473  10.524  16.739  1.00  0.00     0.037 A 
BRANCH  45  59
ATOM     59  C   UNL     1       5.857   7.676  15.735  1.00  0.00     0.064 A 
ATOM     60  C   UNL     1       6.595   7.694  14.543  1.00  0.00     0.173 A 
ATOM     61  C   UNL     1       6.562   7.793  16.944  1.00  0.00     0.173 A 
ATOM     62  F   UNL     1       5.971   7.572  13.362  1.00  0.00    -0.203 F 
ATOM     63  C   UNL     1       7.984   7.799  14.562  1.00  0.00     0.198 A 
ATOM     64  C   UNL     1       7.948   7.928  16.958  1.00  0.00     0.198 A 
ATOM     65  F   UNL     1       5.905   7.790  18.114  1.00  0.00    -0.203 F 
ATOM     66  F   UNL     1       8.672   7.768  13.412  1.00  0.00    -0.200 F 
ATOM     67  C   UNL     1       8.658   7.924  15.767  1.00  0.00     0.200 A 
ATOM     68  F   UNL     1       8.596   8.064  18.123  1.00  0.00    -0.200 F 
ATOM     69  F   UNL     1       9.994   8.033  15.782  1.00  0.00    -0.200 F 
ENDBRANCH  45  59
BRANCH  46  70
ATOM     70  C   UNL     1      -4.052   6.627  15.765  1.00  0.00     0.064 A 
ATOM     71  C   UNL     1      -4.856   7.282  14.822  1.00  0.00     0.173 A 
ATOM     72  C   UNL     1      -4.692   5.826  16.723  1.00  0.00     0.173 A 
ATOM     73  F   UNL     1      -4.294   8.084  13.905  1.00  0.00    -0.203 F 
ATOM     74  C   UNL     1      -6.243   7.151  14.843  1.00  0.00     0.198 A 
ATOM     75  C   UNL     1      -6.076   5.669  16.722  1.00  0.00     0.198 A 
ATOM     76  F   UNL     1      -3.970   5.181  17.650  1.00  0.00    -0.203 F 
ATOM     77  F   UNL     1      -6.991   7.824  13.958  1.00  0.00    -0.200 F 
ATOM     78  C   UNL     1      -6.851   6.337  15.787  1.00  0.00     0.200 A 
ATOM     79  F   UNL     1      -6.657   4.870  17.628  1.00  0.00    -0.200 F 
ATOM     80  F   UNL     1      -8.184   6.203  15.800  1.00  0.00    -0.200 F 
ENDBRANCH  46  70
BRANCH  58  81
ATOM     81  C   UNL     1       0.221  11.950  17.132  1.00  0.00     0.064 A 
ATOM     82  C   UNL     1      -0.239  12.290  18.413  1.00  0.00     0.173 A 
ATOM     83  C   UNL     1       0.462  12.990  16.222  1.00  0.00     0.173 A 
ATOM     84  F   UNL     1      -0.499  11.331  19.314  1.00  0.00    -0.203 F 
ATOM     85  C   UNL     1      -0.475  13.618  18.759  1.00  0.00     0.198 A 
ATOM     86  C   UNL     1       0.251  14.319  16.580  1.00  0.00     0.198 A 
ATOM     87  F   UNL     1       0.907  12.718  14.986  1.00  0.00    -0.203 F 
ATOM     88  F   UNL     1      -0.961  13.917  19.971  1.00  0.00    -0.200 F 
ATOM     89  C   UNL     1      -0.225  14.631  17.844  1.00  0.00     0.200 A 
ATOM     90  F   UNL     1       0.502  15.297  15.699  1.00  0.00    -0.200 F 
ATOM     91  F   UNL     1      -0.453  15.909  18.179  1.00  0.00    -0.200 F 
ENDBRANCH  58  81
ENDBRANCH  32  33
ENDBRANCH  25  27
ENDBRANCH  24  25
ENDBRANCH  23  24
ENDBRANCH   1  23
TORSDOF 15
