REMARK SMILES Cc1nn(Cc2ccc(Cl)cc2Cl)c(C)c1NC(=O)c1c(C(=O)OCCOC(=O)c2ccc(-c3c4nc(c(-c5c(F)c(F)c(F)c(F)c5F)c5ccc([nH]5)c(-c5c(F)c(F)c(F)c(F)c5F)c5nc(c(-c6c(F)c(F)c(F)c(F)c6F)c6ccc3[nH]6)C=C5)C=C4)cc2)cnn1C
REMARK SMILES IDX 25 1 24 2 22 3 23 4 21 5 20 6 95 7 93 8 94 9 96 10 18 11
REMARK SMILES IDX 17 12 19 14 16 15 1 16 2 17 3 18 4 19 14 20 15 21 5 22 6 23
REMARK SMILES IDX 7 24 12 25 8 26 11 27 13 28 9 29 10 30 26 31 27 32 28 33
REMARK SMILES IDX 29 34 30 35 31 36 92 37 32 38 91 39 33 40 34 41 35 42 85 43
REMARK SMILES IDX 36 44 90 45 84 46 86 47 37 48 89 49 83 50 82 51 38 53 70 54
REMARK SMILES IDX 50 55 69 56 51 57 54 58 68 59 87 60 52 61 53 62 67 64 88 65
REMARK SMILES IDX 55 66 39 67 40 68 48 69 41 70 42 71 46 72 49 73 43 74 44 75
REMARK SMILES IDX 47 76 45 77 71 78 72 79 80 80 73 81 74 82 78 83 81 84 75 85
REMARK SMILES IDX 76 86 79 87 77 88 56 89 57 90 65 91 58 92 59 93 63 94 66 95
REMARK SMILES IDX 60 96 61 97 64 98 62 99
REMARK H PARENT 17 13 86 52 54 63
REMARK Flexibility Score: inf
ROOT
ATOM      1  C   UNL     1      -3.687   2.530  -2.408  1.00  0.00     0.275 C 
ENDROOT
BRANCH   1   2
ATOM      2  O   UNL     1      -2.425   2.948  -2.954  1.00  0.00    -0.458 OA
BRANCH   2   3
ATOM      3  C   UNL     1      -2.275   4.298  -3.028  1.00  0.00     0.342 C 
ATOM      4  O   UNL     1      -3.138   5.102  -2.695  1.00  0.00    -0.246 OA
BRANCH   3   5
ATOM      5  C   UNL     1      -1.070   4.739  -3.694  1.00  0.00     0.111 A 
ATOM      6  C   UNL     1       0.282   4.505  -3.446  1.00  0.00     0.140 A 
ATOM      7  N   UNL     1       0.920   5.507  -4.152  1.00  0.00    -0.262 N 
ATOM      8  C   UNL     1      -1.079   5.676  -4.750  1.00  0.00     0.151 A 
ATOM      9  N   UNL     1       0.141   6.085  -5.086  1.00  0.00    -0.180 NA
ATOM     10  C   UNL     1       2.285   5.965  -4.024  1.00  0.00     0.174 C 
BRANCH   6  11
ATOM     11  C   UNL     1       0.983   3.610  -2.562  1.00  0.00     0.274 C 
ATOM     12  N   UNL     1       0.774   2.251  -2.610  1.00  0.00    -0.317 N 
ATOM     13  H   UNL     1       1.164   1.757  -1.853  1.00  0.00     0.170 HD
ATOM     14  O   UNL     1       1.800   4.019  -1.734  1.00  0.00    -0.267 OA
BRANCH  12  15
ATOM     15  C   UNL     1       0.119   1.455  -3.524  1.00  0.00     0.085 A 
ATOM     16  C   UNL     1      -0.585  -0.555  -2.034  1.00  0.00     0.071 C 
ATOM     17  C   UNL     1      -0.509   0.214  -3.263  1.00  0.00     0.083 A 
ATOM     18  N   UNL     1      -1.127  -0.284  -4.323  1.00  0.00    -0.175 NA
ATOM     19  N   UNL     1      -0.761   0.539  -5.311  1.00  0.00    -0.263 N 
ATOM     20  C   UNL     1       0.054   1.569  -4.895  1.00  0.00     0.060 A 
ATOM     21  C   UNL     1       0.796   2.446  -5.827  1.00  0.00     0.069 C 
BRANCH  19  22
ATOM     22  C   UNL     1      -1.139   0.129  -6.657  1.00  0.00     0.181 C 
BRANCH  22  23
ATOM     23  C   UNL     1      -0.031  -0.700  -7.261  1.00  0.00    -0.008 A 
ATOM     24  C   UNL     1       0.273  -1.960  -6.698  1.00  0.00     0.009 A 
ATOM     25  C   UNL     1       0.782  -0.214  -8.292  1.00  0.00     0.047 A 
ATOM     26  C   UNL     1       1.399  -2.673  -7.107  1.00  0.00     0.021 A 
ATOM     27  C   UNL     1       1.922  -0.916  -8.683  1.00  0.00     0.041 A 
ATOM     28  Cl  UNL     1       0.434   1.263  -9.119  1.00  0.00    -0.084 Cl
ATOM     29  C   UNL     1       2.231  -2.134  -8.082  1.00  0.00     0.042 A 
ATOM     30  Cl  UNL     1       3.657  -2.973  -8.549  1.00  0.00    -0.084 Cl
ENDBRANCH  22  23
ENDBRANCH  19  22
ENDBRANCH  12  15
ENDBRANCH   6  11
ENDBRANCH   3   5
ENDBRANCH   2   3
ENDBRANCH   1   2
BRANCH   1  31
ATOM     31  C   UNL     1      -3.510   1.282  -1.565  1.00  0.00     0.275 C 
BRANCH  31  32
ATOM     32  O   UNL     1      -2.948   1.409  -0.234  1.00  0.00    -0.458 OA
BRANCH  32  33
ATOM     33  C   UNL     1      -1.889   2.220   0.040  1.00  0.00     0.338 C 
ATOM     34  O   UNL     1      -1.676   3.323  -0.396  1.00  0.00    -0.246 OA
BRANCH  33  35
ATOM     35  C   UNL     1      -0.844   1.398   0.735  1.00  0.00     0.060 A 
ATOM     36  C   UNL     1       0.487   1.782   0.544  1.00  0.00     0.016 A 
ATOM     37  C   UNL     1      -1.134   0.107   1.196  1.00  0.00     0.016 A 
ATOM     38  C   UNL     1       1.481   0.805   0.504  1.00  0.00     0.010 A 
ATOM     39  C   UNL     1      -0.138  -0.867   1.173  1.00  0.00     0.010 A 
ATOM     40  C   UNL     1       1.145  -0.542   0.710  1.00  0.00    -0.014 A 
BRANCH  40  41
ATOM     41  C   UNL     1       2.200  -1.575   0.661  1.00  0.00     0.031 A 
ATOM     42  C   UNL     1       3.240  -1.338   1.699  1.00  0.00     0.074 A 
ATOM     43  C   UNL     1       2.128  -2.709  -0.084  1.00  0.00     0.049 A 
ATOM     44  N   UNL     1       4.522  -1.472   1.585  1.00  0.00    -0.248 NA
ATOM     45  C   UNL     1       2.811  -0.710   2.970  1.00  0.00     0.031 C 
ATOM     46  C   UNL     1       1.176  -3.047  -1.133  1.00  0.00     0.029 A 
ATOM     47  N   UNL     1       2.790  -3.904   0.056  1.00  0.00    -0.354 N 
ATOM     48  C   UNL     1       5.020  -1.160   2.845  1.00  0.00     0.074 A 
ATOM     49  C   UNL     1       3.975  -0.498   3.574  1.00  0.00     0.031 C 
ATOM     50  C   UNL     1       1.062  -4.375  -1.288  1.00  0.00     0.029 A 
ATOM     51  C   UNL     1       2.066  -4.988  -0.459  1.00  0.00     0.049 A 
ATOM     52  H   UNL     1       3.678  -3.989   0.472  1.00  0.00     0.167 HD
ATOM     53  C   UNL     1       6.100  -1.811   3.343  1.00  0.00     0.037 A 
ATOM     54  C   UNL     1       2.229  -6.311  -0.220  1.00  0.00     0.037 A 
ATOM     55  C   UNL     1       6.989  -2.268   2.316  1.00  0.00     0.049 A 
ATOM     56  C   UNL     1       3.587  -6.481   0.329  1.00  0.00     0.074 A 
ATOM     57  C   UNL     1       7.682  -1.646   1.297  1.00  0.00     0.029 A 
ATOM     58  N   UNL     1       7.022  -3.608   2.032  1.00  0.00    -0.354 N 
ATOM     59  N   UNL     1       4.670  -6.348  -0.382  1.00  0.00    -0.248 NA
ATOM     60  C   UNL     1       3.755  -6.357   1.766  1.00  0.00     0.031 C 
ATOM     61  C   UNL     1       7.728  -2.591   0.234  1.00  0.00     0.029 A 
ATOM     62  C   UNL     1       7.092  -3.752   0.671  1.00  0.00     0.049 A 
ATOM     63  H   UNL     1       6.999  -4.339   2.691  1.00  0.00     0.167 HD
ATOM     64  C   UNL     1       5.552  -5.692   0.461  1.00  0.00     0.074 A 
ATOM     65  C   UNL     1       4.978  -5.824   1.795  1.00  0.00     0.031 C 
ATOM     66  C   UNL     1       6.499  -4.853  -0.049  1.00  0.00     0.037 A 
BRANCH  53  67
ATOM     67  C   UNL     1       6.062  -2.365   4.739  1.00  0.00     0.064 A 
ATOM     68  C   UNL     1       7.252  -2.706   5.392  1.00  0.00     0.173 A 
ATOM     69  C   UNL     1       4.866  -2.797   5.364  1.00  0.00     0.173 A 
ATOM     70  F   UNL     1       8.437  -2.409   4.839  1.00  0.00    -0.203 F 
ATOM     71  C   UNL     1       7.243  -3.428   6.588  1.00  0.00     0.198 A 
ATOM     72  C   UNL     1       4.857  -3.450   6.590  1.00  0.00     0.198 A 
ATOM     73  F   UNL     1       3.674  -2.702   4.760  1.00  0.00    -0.203 F 
ATOM     74  F   UNL     1       8.401  -3.827   7.130  1.00  0.00    -0.200 F 
ATOM     75  C   UNL     1       6.048  -3.786   7.192  1.00  0.00     0.200 A 
ATOM     76  F   UNL     1       3.688  -3.811   7.137  1.00  0.00    -0.200 F 
ATOM     77  F   UNL     1       6.042  -4.505   8.322  1.00  0.00    -0.200 F 
ENDBRANCH  53  67
BRANCH  54  78
ATOM     78  C   UNL     1       1.188  -7.368  -0.184  1.00  0.00     0.064 A 
ATOM     79  C   UNL     1       1.536  -8.728  -0.211  1.00  0.00     0.173 A 
ATOM     80  C   UNL     1      -0.156  -7.077   0.130  1.00  0.00     0.173 A 
ATOM     81  F   UNL     1       2.800  -9.095  -0.468  1.00  0.00    -0.203 F 
ATOM     82  C   UNL     1       0.606  -9.730   0.090  1.00  0.00     0.198 A 
ATOM     83  C   UNL     1      -1.086  -8.078   0.415  1.00  0.00     0.198 A 
ATOM     84  F   UNL     1      -0.580  -5.811   0.257  1.00  0.00    -0.203 F 
ATOM     85  F   UNL     1       0.994 -11.013   0.118  1.00  0.00    -0.200 F 
ATOM     86  C   UNL     1      -0.701  -9.404   0.412  1.00  0.00     0.200 A 
ATOM     87  F   UNL     1      -2.340  -7.743   0.753  1.00  0.00    -0.200 F 
ATOM     88  F   UNL     1      -1.575 -10.358   0.759  1.00  0.00    -0.200 F 
ENDBRANCH  54  78
BRANCH  66  89
ATOM     89  C   UNL     1       6.761  -4.920  -1.528  1.00  0.00     0.064 A 
ATOM     90  C   UNL     1       5.816  -4.571  -2.510  1.00  0.00     0.173 A 
ATOM     91  C   UNL     1       8.059  -5.224  -1.958  1.00  0.00     0.173 A 
ATOM     92  F   UNL     1       4.583  -4.173  -2.168  1.00  0.00    -0.203 F 
ATOM     93  C   UNL     1       6.150  -4.574  -3.864  1.00  0.00     0.198 A 
ATOM     94  C   UNL     1       8.399  -5.190  -3.307  1.00  0.00     0.198 A 
ATOM     95  F   UNL     1       9.014  -5.509  -1.059  1.00  0.00    -0.203 F 
ATOM     96  F   UNL     1       5.228  -4.254  -4.784  1.00  0.00    -0.200 F 
ATOM     97  C   UNL     1       7.443  -4.877  -4.260  1.00  0.00     0.200 A 
ATOM     98  F   UNL     1       9.662  -5.435  -3.681  1.00  0.00    -0.200 F 
ATOM     99  F   UNL     1       7.776  -4.841  -5.558  1.00  0.00    -0.200 F 
ENDBRANCH  66  89
ENDBRANCH  40  41
ENDBRANCH  33  35
ENDBRANCH  32  33
ENDBRANCH  31  32
ENDBRANCH   1  31
TORSDOF 15
