REMARK SMILES COc1ncccc1NS(=O)(=O)c1ccc(Br)c(C(=O)OCCOC(=O)c2ccc(-c3c4nc(c(-c5c(F)c(F)c(F)c(F)c5F)c5ccc([nH]5)c(-c5c(F)c(F)c(F)c(F)c5F)c5nc(c(-c6c(F)c(F)c(F)c(F)c6F)c6ccc3[nH]6)C=C5)C=C4)cc2)c1
REMARK SMILES IDX 22 1 21 2 19 3 20 4 18 5 13 6 14 7 90 8 15 9 16 10 17 11
REMARK SMILES IDX 10 12 11 13 12 14 9 15 8 17 3 18 4 19 5 20 7 21 6 22 2 23
REMARK SMILES IDX 1 24 23 25 24 26 25 27 26 28 27 29 28 30 89 31 29 32 88 33
REMARK SMILES IDX 30 34 31 35 32 36 82 37 33 38 87 39 81 40 83 41 34 42 86 43
REMARK SMILES IDX 80 44 79 45 35 47 67 48 47 49 66 50 48 51 51 52 65 53 84 54
REMARK SMILES IDX 49 55 50 56 64 58 85 59 52 60 36 61 37 62 45 63 38 64 39 65
REMARK SMILES IDX 43 66 46 67 40 68 41 69 44 70 42 71 68 72 69 73 77 74 70 75
REMARK SMILES IDX 71 76 75 77 78 78 72 79 73 80 76 81 74 82 53 83 54 84 62 85
REMARK SMILES IDX 55 86 56 87 60 88 63 89 57 90 58 91 61 92 59 93
REMARK H PARENT 9 16 83 46 51 57
REMARK Flexibility Score: inf
ROOT
ATOM      1  C   UNL     1      -4.593   1.138  -0.275  1.00  0.00     0.275 C 
ENDROOT
BRANCH   1   2
ATOM      2  O   UNL     1      -3.568   0.142  -0.059  1.00  0.00    -0.458 OA
BRANCH   2   3
ATOM      3  C   UNL     1      -2.648  -0.001  -1.042  1.00  0.00     0.339 C 
ATOM      4  O   UNL     1      -2.502   0.739  -2.005  1.00  0.00    -0.246 OA
BRANCH   3   5
ATOM      5  C   UNL     1      -1.748  -1.160  -0.797  1.00  0.00     0.075 A 
ATOM      6  C   UNL     1       0.561  -1.988  -0.916  1.00  0.00     0.088 A 
ATOM      7  C   UNL     1       0.110  -3.234  -0.468  1.00  0.00     0.023 A 
ATOM      8  C   UNL     1      -0.378  -0.971  -1.097  1.00  0.00     0.039 A 
ATOM      9  C   UNL     1      -1.251  -3.458  -0.235  1.00  0.00     0.018 A 
ATOM     10  C   UNL     1      -2.186  -2.427  -0.402  1.00  0.00     0.032 A 
ATOM     11  Br  UNL     1      -4.014  -2.901  -0.206  1.00  0.00    -0.050 Br
BRANCH   6  12
ATOM     12  S   UNL     1       2.307  -1.897  -1.303  1.00  0.00     0.262 S 
ATOM     13  O   UNL     1       2.473  -2.490  -2.610  1.00  0.00    -0.201 OA
ATOM     14  O   UNL     1       2.982  -2.449  -0.142  1.00  0.00    -0.201 OA
BRANCH  12  15
ATOM     15  N   UNL     1       2.881  -0.339  -1.357  1.00  0.00    -0.274 N 
ATOM     16  H   UNL     1       3.620  -0.098  -0.754  1.00  0.00     0.180 HD
BRANCH  15  17
ATOM     17  C   UNL     1       2.373   0.660  -2.215  1.00  0.00     0.111 A 
ATOM     18  C   UNL     1       1.543   1.668  -1.724  1.00  0.00     0.238 A 
ATOM     19  N   UNL     1       0.884   2.531  -2.531  1.00  0.00    -0.220 NA
ATOM     20  C   UNL     1       1.099   2.430  -3.860  1.00  0.00     0.115 A 
ATOM     21  C   UNL     1       2.625   0.620  -3.583  1.00  0.00     0.034 A 
ATOM     22  C   UNL     1       1.974   1.520  -4.425  1.00  0.00     0.023 A 
BRANCH  18  23
ATOM     23  O   UNL     1       1.089   1.694  -0.429  1.00  0.00    -0.480 OA
ATOM     24  C   UNL     1       2.033   1.522   0.617  1.00  0.00     0.280 C 
ENDBRANCH  18  23
ENDBRANCH  15  17
ENDBRANCH  12  15
ENDBRANCH   6  12
ENDBRANCH   3   5
ENDBRANCH   2   3
ENDBRANCH   1   2
BRANCH   1  25
ATOM     25  C   UNL     1      -4.617   2.152   0.865  1.00  0.00     0.275 C 
BRANCH  25  26
ATOM     26  O   UNL     1      -3.466   3.013   0.771  1.00  0.00    -0.458 OA
BRANCH  26  27
ATOM     27  C   UNL     1      -2.630   3.011   1.835  1.00  0.00     0.338 C 
ATOM     28  O   UNL     1      -2.752   2.383   2.873  1.00  0.00    -0.246 OA
BRANCH  27  29
ATOM     29  C   UNL     1      -1.476   3.897   1.576  1.00  0.00     0.060 A 
ATOM     30  C   UNL     1      -0.816   3.832   0.362  1.00  0.00     0.016 A 
ATOM     31  C   UNL     1      -0.933   4.671   2.605  1.00  0.00     0.016 A 
ATOM     32  C   UNL     1       0.456   4.405   0.251  1.00  0.00     0.010 A 
ATOM     33  C   UNL     1       0.308   5.318   2.437  1.00  0.00     0.010 A 
ATOM     34  C   UNL     1       1.085   5.114   1.285  1.00  0.00    -0.014 A 
BRANCH  34  35
ATOM     35  C   UNL     1       2.556   5.485   1.207  1.00  0.00     0.031 A 
ATOM     36  C   UNL     1       3.476   5.290   2.406  1.00  0.00     0.074 A 
ATOM     37  C   UNL     1       3.153   5.893   0.061  1.00  0.00     0.049 A 
ATOM     38  N   UNL     1       4.676   5.779   2.627  1.00  0.00    -0.248 NA
ATOM     39  C   UNL     1       2.986   4.442   3.504  1.00  0.00     0.031 C 
ATOM     40  C   UNL     1       2.505   6.055  -1.238  1.00  0.00     0.029 A 
ATOM     41  N   UNL     1       4.471   6.217  -0.203  1.00  0.00    -0.354 N 
ATOM     42  C   UNL     1       5.019   5.404   3.924  1.00  0.00     0.074 A 
ATOM     43  C   UNL     1       3.919   4.613   4.430  1.00  0.00     0.031 C 
ATOM     44  C   UNL     1       3.427   6.321  -2.172  1.00  0.00     0.029 A 
ATOM     45  C   UNL     1       4.706   6.553  -1.516  1.00  0.00     0.049 A 
ATOM     46  H   UNL     1       5.176   6.209   0.485  1.00  0.00     0.167 HD
ATOM     47  C   UNL     1       6.139   5.699   4.633  1.00  0.00     0.037 A 
ATOM     48  C   UNL     1       5.784   7.077  -2.135  1.00  0.00     0.037 A 
ATOM     49  C   UNL     1       7.300   6.368   4.097  1.00  0.00     0.049 A 
ATOM     50  C   UNL     1       6.998   7.444  -1.335  1.00  0.00     0.074 A 
ATOM     51  C   UNL     1       8.486   6.689   4.739  1.00  0.00     0.029 A 
ATOM     52  N   UNL     1       7.441   6.782   2.782  1.00  0.00    -0.354 N 
ATOM     53  N   UNL     1       7.242   7.243  -0.065  1.00  0.00    -0.248 NA
ATOM     54  C   UNL     1       8.066   8.162  -2.046  1.00  0.00     0.031 C 
ATOM     55  C   UNL     1       9.327   7.331   3.824  1.00  0.00     0.029 A 
ATOM     56  C   UNL     1       8.686   7.366   2.599  1.00  0.00     0.049 A 
ATOM     57  H   UNL     1       6.757   6.677   2.082  1.00  0.00     0.167 HD
ATOM     58  C   UNL     1       8.485   7.810   0.177  1.00  0.00     0.074 A 
ATOM     59  C   UNL     1       8.961   8.337  -1.084  1.00  0.00     0.031 C 
ATOM     60  C   UNL     1       9.162   7.894   1.347  1.00  0.00     0.037 A 
BRANCH  47  61
ATOM     61  C   UNL     1       6.159   5.359   6.099  1.00  0.00     0.064 A 
ATOM     62  C   UNL     1       6.283   4.047   6.575  1.00  0.00     0.173 A 
ATOM     63  C   UNL     1       6.115   6.396   7.049  1.00  0.00     0.173 A 
ATOM     64  F   UNL     1       6.323   3.019   5.715  1.00  0.00    -0.203 F 
ATOM     65  C   UNL     1       6.335   3.782   7.943  1.00  0.00     0.198 A 
ATOM     66  C   UNL     1       6.200   6.131   8.413  1.00  0.00     0.198 A 
ATOM     67  F   UNL     1       6.013   7.673   6.651  1.00  0.00    -0.203 F 
ATOM     68  F   UNL     1       6.409   2.516   8.376  1.00  0.00    -0.200 F 
ATOM     69  C   UNL     1       6.302   4.823   8.860  1.00  0.00     0.200 A 
ATOM     70  F   UNL     1       6.189   7.141   9.294  1.00  0.00    -0.200 F 
ATOM     71  F   UNL     1       6.364   4.566  10.174  1.00  0.00    -0.200 F 
ENDBRANCH  47  61
BRANCH  48  72
ATOM     72  C   UNL     1       5.714   7.395  -3.590  1.00  0.00     0.064 A 
ATOM     73  C   UNL     1       6.506   6.711  -4.521  1.00  0.00     0.173 A 
ATOM     74  C   UNL     1       4.836   8.377  -4.078  1.00  0.00     0.173 A 
ATOM     75  F   UNL     1       7.392   5.795  -4.104  1.00  0.00    -0.203 F 
ATOM     76  C   UNL     1       6.412   6.988  -5.884  1.00  0.00     0.198 A 
ATOM     77  C   UNL     1       4.712   8.621  -5.442  1.00  0.00     0.198 A 
ATOM     78  F   UNL     1       4.067   9.072  -3.227  1.00  0.00    -0.203 F 
ATOM     79  F   UNL     1       7.204   6.344  -6.753  1.00  0.00    -0.200 F 
ATOM     80  C   UNL     1       5.503   7.930  -6.345  1.00  0.00     0.200 A 
ATOM     81  F   UNL     1       3.817   9.517  -5.880  1.00  0.00    -0.200 F 
ATOM     82  F   UNL     1       5.393   8.173  -7.657  1.00  0.00    -0.200 F 
ENDBRANCH  48  72
BRANCH  60  83
ATOM     83  C   UNL     1      10.509   8.553   1.315  1.00  0.00     0.064 A 
ATOM     84  C   UNL     1      10.645   9.942   1.165  1.00  0.00     0.173 A 
ATOM     85  C   UNL     1      11.679   7.790   1.444  1.00  0.00     0.173 A 
ATOM     86  F   UNL     1       9.557  10.714   1.019  1.00  0.00    -0.203 F 
ATOM     87  C   UNL     1      11.903  10.537   1.118  1.00  0.00     0.198 A 
ATOM     88  C   UNL     1      12.934   8.391   1.423  1.00  0.00     0.198 A 
ATOM     89  F   UNL     1      11.604   6.458   1.591  1.00  0.00    -0.203 F 
ATOM     90  F   UNL     1      12.010  11.859   0.922  1.00  0.00    -0.200 F 
ATOM     91  C   UNL     1      13.046   9.763   1.251  1.00  0.00     0.200 A 
ATOM     92  F   UNL     1      14.037   7.642   1.560  1.00  0.00    -0.200 F 
ATOM     93  F   UNL     1      14.256  10.337   1.203  1.00  0.00    -0.200 F 
ENDBRANCH  60  83
ENDBRANCH  34  35
ENDBRANCH  27  29
ENDBRANCH  26  27
ENDBRANCH  25  26
ENDBRANCH   1  25
TORSDOF 15
