REMARK SMILES O=C(OCCOC(=O)[C@@H]1[C@@H](C(=O)N2CCN(c3cccc(Cl)c3)CC2)[C@H]2CC[C@@H]1O2)c1ccc(-c2c3nc(c(-c4c(F)c(F)c(F)c(F)c4F)c4ccc([nH]4)c(-c4c(F)c(F)c(F)c(F)c4F)c4nc(c(-c5c(F)c(F)c(F)c(F)c5F)c5ccc2[nH]5)C=C4)C=C3)cc1
REMARK SMILES IDX 4 1 3 2 2 3 1 4 31 5 32 6 93 7 33 8 92 9 34 10 35 11 36 12
REMARK SMILES IDX 86 13 37 14 91 15 85 16 87 17 38 18 90 19 84 20 83 21 39 23
REMARK SMILES IDX 71 24 51 25 70 26 52 27 55 28 69 29 88 30 53 31 54 32 68 34
REMARK SMILES IDX 89 35 56 36 40 37 41 38 49 39 42 40 43 41 47 42 50 43 44 44
REMARK SMILES IDX 45 45 48 46 46 47 72 48 73 49 81 50 74 51 75 52 79 53 82 54
REMARK SMILES IDX 76 55 77 56 80 57 78 58 57 59 58 60 66 61 59 62 60 63 64 64
REMARK SMILES IDX 67 65 61 66 62 67 65 68 63 69 5 70 6 71 7 72 8 73 9 74 10 75
REMARK SMILES IDX 29 76 26 77 28 78 30 79 27 80 11 81 12 82 13 83 14 84 25 85
REMARK SMILES IDX 15 86 24 87 16 88 17 89 18 90 23 91 19 92 21 93 20 94 22 95
REMARK H PARENT 87 22 55 33
REMARK Flexibility Score: inf
ROOT
ATOM      1  C   UNL     1       3.857   0.078  -0.997  1.00  0.00     0.275 C 
ENDROOT
BRANCH   1   2
ATOM      2  O   UNL     1       2.715  -0.513  -0.309  1.00  0.00    -0.458 OA
BRANCH   2   3
ATOM      3  C   UNL     1       2.499  -1.874  -0.299  1.00  0.00     0.338 C 
ATOM      4  O   UNL     1       1.749  -2.434  -1.083  1.00  0.00    -0.246 OA
BRANCH   3   5
ATOM      5  C   UNL     1       2.954  -2.535   0.988  1.00  0.00     0.060 A 
ATOM      6  C   UNL     1       4.261  -2.426   1.396  1.00  0.00     0.016 A 
ATOM      7  C   UNL     1       2.090  -3.179   1.900  1.00  0.00     0.016 A 
ATOM      8  C   UNL     1       4.599  -2.689   2.746  1.00  0.00     0.010 A 
ATOM      9  C   UNL     1       2.446  -3.348   3.308  1.00  0.00     0.010 A 
ATOM     10  C   UNL     1       3.701  -2.966   3.807  1.00  0.00    -0.014 A 
BRANCH  10  11
ATOM     11  C   UNL     1       4.313  -3.130   5.258  1.00  0.00     0.031 A 
ATOM     12  C   UNL     1       5.205  -4.322   5.369  1.00  0.00     0.074 A 
ATOM     13  C   UNL     1       4.413  -2.286   6.345  1.00  0.00     0.049 A 
ATOM     14  N   UNL     1       6.282  -4.496   6.084  1.00  0.00    -0.248 NA
ATOM     15  C   UNL     1       4.842  -5.439   4.494  1.00  0.00     0.031 C 
ATOM     16  C   UNL     1       3.626  -1.109   6.616  1.00  0.00     0.029 A 
ATOM     17  N   UNL     1       5.403  -2.164   7.357  1.00  0.00    -0.354 N 
ATOM     18  C   UNL     1       6.775  -5.719   5.682  1.00  0.00     0.074 A 
ATOM     19  C   UNL     1       5.882  -6.234   4.662  1.00  0.00     0.031 C 
ATOM     20  C   UNL     1       4.278  -0.252   7.422  1.00  0.00     0.029 A 
ATOM     21  C   UNL     1       5.470  -0.885   7.949  1.00  0.00     0.049 A 
ATOM     22  H   UNL     1       5.990  -2.908   7.623  1.00  0.00     0.167 HD
ATOM     23  C   UNL     1       7.854  -6.388   6.135  1.00  0.00     0.037 A 
ATOM     24  C   UNL     1       6.340  -0.262   8.800  1.00  0.00     0.037 A 
ATOM     25  C   UNL     1       8.620  -6.045   7.295  1.00  0.00     0.049 A 
ATOM     26  C   UNL     1       7.421  -1.113   9.422  1.00  0.00     0.074 A 
ATOM     27  C   UNL     1       9.551  -6.822   7.958  1.00  0.00     0.029 A 
ATOM     28  N   UNL     1       8.508  -4.861   8.004  1.00  0.00    -0.354 N 
ATOM     29  N   UNL     1       7.885  -2.267   9.018  1.00  0.00    -0.248 NA
ATOM     30  C   UNL     1       8.041  -0.621  10.669  1.00  0.00     0.031 C 
ATOM     31  C   UNL     1       9.954  -6.138   9.109  1.00  0.00     0.029 A 
ATOM     32  C   UNL     1       9.327  -4.906   9.123  1.00  0.00     0.049 A 
ATOM     33  H   UNL     1       7.934  -4.102   7.752  1.00  0.00     0.167 HD
ATOM     34  C   UNL     1       8.808  -2.656   9.978  1.00  0.00     0.074 A 
ATOM     35  C   UNL     1       8.925  -1.574  10.928  1.00  0.00     0.031 C 
ATOM     36  C   UNL     1       9.450  -3.842  10.083  1.00  0.00     0.037 A 
BRANCH  23  37
ATOM     37  C   UNL     1       8.158  -7.646   5.401  1.00  0.00     0.064 A 
ATOM     38  C   UNL     1       8.785  -7.605   4.149  1.00  0.00     0.173 A 
ATOM     39  C   UNL     1       7.714  -8.878   5.895  1.00  0.00     0.173 A 
ATOM     40  F   UNL     1       9.154  -6.429   3.622  1.00  0.00    -0.203 F 
ATOM     41  C   UNL     1       8.955  -8.767   3.408  1.00  0.00     0.198 A 
ATOM     42  C   UNL     1       7.897 -10.039   5.157  1.00  0.00     0.198 A 
ATOM     43  F   UNL     1       7.061  -8.941   7.065  1.00  0.00    -0.203 F 
ATOM     44  F   UNL     1       9.505  -8.709   2.188  1.00  0.00    -0.200 F 
ATOM     45  C   UNL     1       8.514  -9.982   3.914  1.00  0.00     0.200 A 
ATOM     46  F   UNL     1       7.447 -11.207   5.632  1.00  0.00    -0.200 F 
ATOM     47  F   UNL     1       8.657 -11.100   3.189  1.00  0.00    -0.200 F 
ENDBRANCH  23  37
BRANCH  24  48
ATOM     48  C   UNL     1       6.246   1.196   9.258  1.00  0.00     0.064 A 
ATOM     49  C   UNL     1       7.380   2.045   9.294  1.00  0.00     0.173 A 
ATOM     50  C   UNL     1       5.075   1.743   9.811  1.00  0.00     0.173 A 
ATOM     51  F   UNL     1       8.567   1.602   8.850  1.00  0.00    -0.203 F 
ATOM     52  C   UNL     1       7.343   3.328   9.866  1.00  0.00     0.198 A 
ATOM     53  C   UNL     1       5.020   3.050  10.315  1.00  0.00     0.198 A 
ATOM     54  F   UNL     1       3.966   0.998   9.916  1.00  0.00    -0.203 F 
ATOM     55  F   UNL     1       8.469   4.051   9.975  1.00  0.00    -0.200 F 
ATOM     56  C   UNL     1       6.157   3.836  10.361  1.00  0.00     0.200 A 
ATOM     57  F   UNL     1       3.863   3.531  10.790  1.00  0.00    -0.200 F 
ATOM     58  F   UNL     1       6.115   5.059  10.910  1.00  0.00    -0.200 F 
ENDBRANCH  24  48
BRANCH  36  59
ATOM     59  C   UNL     1      10.330  -4.048  11.280  1.00  0.00     0.064 A 
ATOM     60  C   UNL     1       9.794  -4.162  12.573  1.00  0.00     0.173 A 
ATOM     61  C   UNL     1      11.719  -4.161  11.132  1.00  0.00     0.173 A 
ATOM     62  F   UNL     1       8.472  -4.046  12.771  1.00  0.00    -0.203 F 
ATOM     63  C   UNL     1      10.621  -4.352  13.677  1.00  0.00     0.198 A 
ATOM     64  C   UNL     1      12.539  -4.386  12.234  1.00  0.00     0.198 A 
ATOM     65  F   UNL     1      12.280  -4.061   9.918  1.00  0.00    -0.203 F 
ATOM     66  F   UNL     1      10.093  -4.401  14.907  1.00  0.00    -0.200 F 
ATOM     67  C   UNL     1      11.992  -4.471  13.505  1.00  0.00     0.200 A 
ATOM     68  F   UNL     1      13.863  -4.514  12.064  1.00  0.00    -0.200 F 
ATOM     69  F   UNL     1      12.787  -4.659  14.567  1.00  0.00    -0.200 F 
ENDBRANCH  36  59
ENDBRANCH  10  11
ENDBRANCH   3   5
ENDBRANCH   2   3
ENDBRANCH   1   2
BRANCH   1  70
ATOM     70  C   UNL     1       3.984   1.615  -0.758  1.00  0.00     0.274 C 
BRANCH  70  71
ATOM     71  O   UNL     1       3.952   1.926   0.642  1.00  0.00    -0.462 OA
BRANCH  71  72
ATOM     72  C   UNL     1       2.782   2.446   1.120  1.00  0.00     0.312 C 
ATOM     73  O   UNL     1       2.045   3.171   0.500  1.00  0.00    -0.252 OA
BRANCH  72  74
ATOM     74  C   UNL     1       2.566   1.964   2.546  1.00  0.00     0.143 C 
ATOM     75  C   UNL     1       3.068   0.500   2.663  1.00  0.00     0.124 C 
ATOM     76  C   UNL     1       1.044   1.855   2.770  1.00  0.00     0.133 C 
ATOM     77  C   UNL     1       1.691  -0.183   2.925  1.00  0.00     0.132 C 
ATOM     78  C   UNL     1       0.646   1.481   4.202  1.00  0.00     0.036 C 
ATOM     79  O   UNL     1       0.797   0.609   2.092  1.00  0.00    -0.373 OA
ATOM     80  C   UNL     1       0.959   0.003   4.229  1.00  0.00     0.035 C 
BRANCH  75  81
ATOM     81  C   UNL     1       4.261   0.402   3.640  1.00  0.00     0.229 C 
ATOM     82  O   UNL     1       4.025   0.744   4.799  1.00  0.00    -0.274 OA
ATOM     83  N   UNL     1       5.578  -0.001   3.280  1.00  0.00    -0.339 N 
ATOM     84  C   UNL     1       6.479  -0.454   4.355  1.00  0.00     0.141 C 
ATOM     85  C   UNL     1       6.393   0.533   2.182  1.00  0.00     0.141 C 
ATOM     86  C   UNL     1       7.528  -1.521   3.980  1.00  0.00     0.138 C 
ATOM     87  C   UNL     1       7.579  -0.365   1.683  1.00  0.00     0.138 C 
ATOM     88  N   UNL     1       8.111  -1.331   2.652  1.00  0.00    -0.368 N 
BRANCH  88  89
ATOM     89  C   UNL     1       9.364  -1.916   2.490  1.00  0.00     0.038 A 
ATOM     90  C   UNL     1      10.479  -1.323   3.103  1.00  0.00     0.026 A 
ATOM     91  C   UNL     1       9.538  -3.167   1.882  1.00  0.00     0.046 A 
ATOM     92  C   UNL     1      11.719  -1.966   3.151  1.00  0.00     0.004 A 
ATOM     93  C   UNL     1      10.788  -3.806   1.917  1.00  0.00     0.043 A 
ATOM     94  C   UNL     1      11.874  -3.215   2.562  1.00  0.00     0.020 A 
ATOM     95  Cl  UNL     1      10.995  -5.354   1.187  1.00  0.00    -0.084 Cl
ENDBRANCH  88  89
ENDBRANCH  75  81
ENDBRANCH  72  74
ENDBRANCH  71  72
ENDBRANCH  70  71
ENDBRANCH   1  70
TORSDOF 13
