REMARK SMILES CC(C)(C)OC(=O)c1c(F)ccc(C(=O)OCCOC(=O)c2ccc(-c3c4nc(c(-c5c(F)c(F)c(F)c(F)c5F)c5ccc([nH]5)c(-c5c(F)c(F)c(F)c(F)c5F)c5nc(c(-c6c(F)c(F)c(F)c(F)c6F)c6ccc3[nH]6)C=C5)C=C4)cc2)c1N
REMARK SMILES IDX 17 1 16 2 14 3 15 4 13 5 8 6 9 7 85 8 10 9 11 10 12 11 6 12
REMARK SMILES IDX 7 13 5 14 2 15 1 16 3 17 4 18 86 19 18 22 19 23 20 24 21 25
REMARK SMILES IDX 22 26 23 27 84 28 24 29 83 30 25 31 26 32 27 33 77 34 28 35
REMARK SMILES IDX 82 36 76 37 78 38 29 39 81 40 75 41 74 42 30 44 62 45 42 46
REMARK SMILES IDX 61 47 43 48 46 49 60 50 79 51 44 52 45 53 59 55 80 56 47 57
REMARK SMILES IDX 31 58 32 59 40 60 33 61 34 62 38 63 41 64 35 65 36 66 39 67
REMARK SMILES IDX 37 68 63 69 64 70 72 71 65 72 66 73 70 74 73 75 67 76 68 77
REMARK SMILES IDX 71 78 69 79 48 80 49 81 57 82 50 83 51 84 55 85 58 86 52 87
REMARK SMILES IDX 53 88 56 89 54 90
REMARK H PARENT 86 20 86 21 78 43 46 54
REMARK Flexibility Score: inf
ROOT
ATOM      1  C   UNL     1       6.169  -1.935   5.616  1.00  0.00     0.275 C 
ENDROOT
BRANCH   1   2
ATOM      2  O   UNL     1       4.858  -1.357   5.439  1.00  0.00    -0.458 OA
BRANCH   2   3
ATOM      3  C   UNL     1       3.806  -2.078   5.908  1.00  0.00     0.340 C 
ATOM      4  O   UNL     1       3.875  -3.151   6.487  1.00  0.00    -0.246 OA
BRANCH   3   5
ATOM      5  C   UNL     1       2.520  -1.337   5.755  1.00  0.00     0.084 A 
ATOM      6  C   UNL     1       0.948   0.123   4.639  1.00  0.00     0.119 A 
ATOM      7  C   UNL     1       0.053  -0.033   5.705  1.00  0.00     0.139 A 
ATOM      8  C   UNL     1       2.220  -0.505   4.654  1.00  0.00     0.064 A 
ATOM      9  F   UNL     1      -1.146   0.567   5.702  1.00  0.00    -0.206 F 
ATOM     10  C   UNL     1       0.356  -0.860   6.772  1.00  0.00     0.041 A 
ATOM     11  C   UNL     1       1.568  -1.538   6.776  1.00  0.00     0.021 A 
BRANCH   6  12
ATOM     12  C   UNL     1       0.482   0.984   3.535  1.00  0.00     0.343 C 
ATOM     13  O   UNL     1      -0.118   2.031   3.694  1.00  0.00    -0.246 OA
BRANCH  12  14
ATOM     14  O   UNL     1       0.780   0.386   2.356  1.00  0.00    -0.456 OA
BRANCH  14  15
ATOM     15  C   UNL     1       0.335   0.966   1.104  1.00  0.00     0.104 C 
ATOM     16  C   UNL     1       0.924   0.052   0.020  1.00  0.00     0.056 C 
ATOM     17  C   UNL     1       0.895   2.379   0.909  1.00  0.00     0.056 C 
ATOM     18  C   UNL     1      -1.193   0.928   1.006  1.00  0.00     0.056 C 
ENDBRANCH  14  15
ENDBRANCH  12  14
ENDBRANCH   6  12
BRANCH   8  19
ATOM     19  N   UNL     1       3.103  -0.395   3.579  1.00  0.00    -0.397 N 
ATOM     20  H   UNL     1       2.881   0.189   2.818  1.00  0.00     0.156 HD
ATOM     21  H   UNL     1       3.947  -0.901   3.582  1.00  0.00     0.156 HD
ENDBRANCH   8  19
ENDBRANCH   3   5
ENDBRANCH   2   3
ENDBRANCH   1   2
BRANCH   1  22
ATOM     22  C   UNL     1       6.968  -1.182   6.681  1.00  0.00     0.275 C 
BRANCH  22  23
ATOM     23  O   UNL     1       6.397  -1.406   7.983  1.00  0.00    -0.458 OA
BRANCH  23  24
ATOM     24  C   UNL     1       5.726  -0.358   8.507  1.00  0.00     0.338 C 
ATOM     25  O   UNL     1       5.593   0.759   8.037  1.00  0.00    -0.246 OA
BRANCH  24  26
ATOM     26  C   UNL     1       5.037  -0.779   9.734  1.00  0.00     0.060 A 
ATOM     27  C   UNL     1       3.828  -1.449   9.591  1.00  0.00     0.016 A 
ATOM     28  C   UNL     1       5.467  -0.372  10.992  1.00  0.00     0.016 A 
ATOM     29  C   UNL     1       2.985  -1.625  10.682  1.00  0.00     0.010 A 
ATOM     30  C   UNL     1       4.666  -0.645  12.110  1.00  0.00     0.010 A 
ATOM     31  C   UNL     1       3.395  -1.236  11.964  1.00  0.00    -0.014 A 
BRANCH  31  32
ATOM     32  C   UNL     1       2.476  -1.405  13.129  1.00  0.00     0.031 A 
ATOM     33  C   UNL     1       2.081  -0.213  13.963  1.00  0.00     0.074 A 
ATOM     34  C   UNL     1       1.966  -2.617  13.431  1.00  0.00     0.049 A 
ATOM     35  N   UNL     1       1.445  -0.173  15.108  1.00  0.00    -0.248 NA
ATOM     36  C   UNL     1       2.465   1.110  13.448  1.00  0.00     0.031 C 
ATOM     37  C   UNL     1       2.216  -3.852  12.686  1.00  0.00     0.029 A 
ATOM     38  N   UNL     1       1.125  -3.010  14.445  1.00  0.00    -0.354 N 
ATOM     39  C   UNL     1       1.409   1.167  15.477  1.00  0.00     0.074 A 
ATOM     40  C   UNL     1       2.093   1.907  14.439  1.00  0.00     0.031 C 
ATOM     41  C   UNL     1       1.518  -4.852  13.242  1.00  0.00     0.029 A 
ATOM     42  C   UNL     1       0.852  -4.357  14.440  1.00  0.00     0.049 A 
ATOM     43  H   UNL     1       0.754  -2.386  15.111  1.00  0.00     0.167 HD
ATOM     44  C   UNL     1       0.856   1.726  16.581  1.00  0.00     0.037 A 
ATOM     45  C   UNL     1       0.186  -5.123  15.326  1.00  0.00     0.037 A 
ATOM     46  C   UNL     1       0.125   0.992  17.584  1.00  0.00     0.049 A 
ATOM     47  C   UNL     1      -0.391  -4.487  16.558  1.00  0.00     0.074 A 
ATOM     48  C   UNL     1      -0.487   1.470  18.730  1.00  0.00     0.029 A 
ATOM     49  N   UNL     1      -0.105  -0.376  17.550  1.00  0.00    -0.354 N 
ATOM     50  N   UNL     1      -0.370  -3.229  16.927  1.00  0.00    -0.248 NA
ATOM     51  C   UNL     1      -1.070  -5.380  17.507  1.00  0.00     0.031 C 
ATOM     52  C   UNL     1      -1.051   0.386  19.411  1.00  0.00     0.029 A 
ATOM     53  C   UNL     1      -0.837  -0.760  18.663  1.00  0.00     0.049 A 
ATOM     54  H   UNL     1       0.205  -0.983  16.841  1.00  0.00     0.167 HD
ATOM     55  C   UNL     1      -1.040  -3.176  18.141  1.00  0.00     0.074 A 
ATOM     56  C   UNL     1      -1.478  -4.525  18.435  1.00  0.00     0.031 C 
ATOM     57  C   UNL     1      -1.267  -2.107  18.942  1.00  0.00     0.037 A 
BRANCH  44  58
ATOM     58  C   UNL     1       1.050   3.203  16.787  1.00  0.00     0.064 A 
ATOM     59  C   UNL     1       0.408   4.160  15.987  1.00  0.00     0.173 A 
ATOM     60  C   UNL     1       1.874   3.666  17.825  1.00  0.00     0.173 A 
ATOM     61  F   UNL     1      -0.381   3.772  14.973  1.00  0.00    -0.203 F 
ATOM     62  C   UNL     1       0.609   5.522  16.197  1.00  0.00     0.198 A 
ATOM     63  C   UNL     1       2.047   5.029  18.053  1.00  0.00     0.198 A 
ATOM     64  F   UNL     1       2.506   2.796  18.627  1.00  0.00    -0.203 F 
ATOM     65  F   UNL     1       0.028   6.417  15.386  1.00  0.00    -0.200 F 
ATOM     66  C   UNL     1       1.423   5.956  17.234  1.00  0.00     0.200 A 
ATOM     67  F   UNL     1       2.821   5.445  19.065  1.00  0.00    -0.200 F 
ATOM     68  F   UNL     1       1.611   7.267  17.438  1.00  0.00    -0.200 F 
ENDBRANCH  44  58
BRANCH  45  69
ATOM     69  C   UNL     1       0.080  -6.590  15.098  1.00  0.00     0.064 A 
ATOM     70  C   UNL     1      -1.153  -7.193  14.818  1.00  0.00     0.173 A 
ATOM     71  C   UNL     1       1.213  -7.416  15.145  1.00  0.00     0.173 A 
ATOM     72  F   UNL     1      -2.271  -6.451  14.789  1.00  0.00    -0.203 F 
ATOM     73  C   UNL     1      -1.250  -8.566  14.601  1.00  0.00     0.198 A 
ATOM     74  C   UNL     1       1.121  -8.783  14.894  1.00  0.00     0.198 A 
ATOM     75  F   UNL     1       2.418  -6.890  15.411  1.00  0.00    -0.203 F 
ATOM     76  F   UNL     1      -2.447  -9.124  14.376  1.00  0.00    -0.200 F 
ATOM     77  C   UNL     1      -0.112  -9.358  14.629  1.00  0.00     0.200 A 
ATOM     78  F   UNL     1       2.227  -9.539  14.904  1.00  0.00    -0.200 F 
ATOM     79  F   UNL     1      -0.203 -10.676  14.406  1.00  0.00    -0.200 F 
ENDBRANCH  45  69
BRANCH  57  80
ATOM     80  C   UNL     1      -2.053  -2.349  20.198  1.00  0.00     0.064 A 
ATOM     81  C   UNL     1      -1.503  -3.035  21.290  1.00  0.00     0.173 A 
ATOM     82  C   UNL     1      -3.365  -1.865  20.318  1.00  0.00     0.173 A 
ATOM     83  F   UNL     1      -0.259  -3.532  21.218  1.00  0.00    -0.203 F 
ATOM     84  C   UNL     1      -2.248  -3.252  22.447  1.00  0.00     0.198 A 
ATOM     85  C   UNL     1      -4.096  -2.058  21.486  1.00  0.00     0.198 A 
ATOM     86  F   UNL     1      -3.935  -1.198  19.303  1.00  0.00    -0.203 F 
ATOM     87  F   UNL     1      -1.720  -3.955  23.458  1.00  0.00    -0.200 F 
ATOM     88  C   UNL     1      -3.540  -2.759  22.546  1.00  0.00     0.200 A 
ATOM     89  F   UNL     1      -5.340  -1.570  21.585  1.00  0.00    -0.200 F 
ATOM     90  F   UNL     1      -4.254  -2.966  23.661  1.00  0.00    -0.200 F 
ENDBRANCH  57  80
ENDBRANCH  31  32
ENDBRANCH  24  26
ENDBRANCH  23  24
ENDBRANCH  22  23
ENDBRANCH   1  22
TORSDOF 15
