REMARK SMILES Cc1cccc(OC2(C(=O)OCCOC(=O)c3ccc(-c4c5nc(c(-c6c(F)c(F)c(F)c(F)c6F)c6ccc([nH]6)c(-c6c(F)c(F)c(F)c(F)c6F)c6nc(c(-c7c(F)c(F)c(F)c(F)c7F)c7ccc4[nH]7)C=C6)C=C5)cc3)CCN(C(=O)c3cnc[nH]c3=O)CC2)c1
REMARK SMILES IDX 12 1 11 2 9 3 10 4 8 5 80 6 93 7 81 8 92 9 82 10 83 11 84 12
REMARK SMILES IDX 7 13 6 14 1 15 2 16 3 17 94 18 4 19 5 20 85 21 86 22 90 23
REMARK SMILES IDX 87 24 89 25 91 26 88 27 13 29 14 30 15 31 16 32 17 33 18 34
REMARK SMILES IDX 79 35 19 36 78 37 20 38 21 39 22 40 72 41 23 42 77 43 71 44
REMARK SMILES IDX 73 45 24 46 76 47 70 48 69 49 25 51 57 52 37 53 56 54 38 55
REMARK SMILES IDX 41 56 55 57 74 58 39 59 40 60 54 62 75 63 42 64 26 65 27 66
REMARK SMILES IDX 35 67 28 68 29 69 33 70 36 71 30 72 31 73 34 74 32 75 58 76
REMARK SMILES IDX 59 77 67 78 60 79 61 80 65 81 68 82 62 83 63 84 66 85 64 86
REMARK SMILES IDX 43 87 44 88 52 89 45 90 46 91 50 92 53 93 47 94 48 95 51 96
REMARK SMILES IDX 49 97
REMARK H PARENT 89 28 73 50 41 61
REMARK Flexibility Score: inf
ROOT
ATOM      1  C   UNL     1       0.452   5.138  -4.422  1.00  0.00     0.274 C 
ENDROOT
BRANCH   1   2
ATOM      2  O   UNL     1      -0.585   5.261  -3.446  1.00  0.00    -0.459 OA
BRANCH   2   3
ATOM      3  C   UNL     1      -0.249   5.597  -2.199  1.00  0.00     0.350 C 
ATOM      4  O   UNL     1       0.316   6.678  -2.039  1.00  0.00    -0.247 OA
BRANCH   3   5
ATOM      5  C   UNL     1      -0.526   4.469  -0.933  1.00  0.00     0.209 C 
ATOM      6  C   UNL     1       1.236   4.773  -0.382  1.00  0.00     0.082 C 
ATOM      7  C   UNL     1      -0.989   5.504   0.516  1.00  0.00     0.082 C 
ATOM      8  C   UNL     1       1.768   4.568   1.045  1.00  0.00     0.124 C 
ATOM      9  C   UNL     1      -0.461   5.140   1.954  1.00  0.00     0.124 C 
ATOM     10  N   UNL     1       0.976   5.297   2.018  1.00  0.00    -0.338 N 
ATOM     11  C   UNL     1       1.577   6.281   2.784  1.00  0.00     0.261 C 
ATOM     12  O   UNL     1       2.509   6.973   2.389  1.00  0.00    -0.269 OA
BRANCH   5  13
ATOM     13  O   UNL     1      -1.330   2.564  -1.135  1.00  0.00    -0.475 OA
BRANCH  13  14
ATOM     14  C   UNL     1      -0.996   0.981  -0.711  1.00  0.00     0.121 A 
ATOM     15  C   UNL     1       2.120  -1.083   0.244  1.00  0.00     0.044 C 
ATOM     16  C   UNL     1       0.661  -0.808  -0.001  1.00  0.00    -0.047 A 
ATOM     17  C   UNL     1      -0.364  -1.719   0.093  1.00  0.00     0.003 A 
ATOM     18  C   UNL     1       0.319   0.483  -0.389  1.00  0.00     0.050 A 
ATOM     19  C   UNL     1      -1.686  -1.275  -0.111  1.00  0.00     0.004 A 
ATOM     20  C   UNL     1      -2.010   0.070  -0.474  1.00  0.00     0.046 A 
ENDBRANCH  13  14
ENDBRANCH   5  13
BRANCH  11  21
ATOM     21  C   UNL     1       1.079   6.402   4.167  1.00  0.00     0.123 A 
ATOM     22  C   UNL     1       0.365   7.467   4.554  1.00  0.00     0.132 A 
ATOM     23  C   UNL     1       1.376   5.377   5.184  1.00  0.00     0.263 A 
ATOM     24  N   UNL     1      -0.148   7.655   5.817  1.00  0.00    -0.246 NA
ATOM     25  N   UNL     1       0.867   5.633   6.428  1.00  0.00    -0.312 N 
ATOM     26  O   UNL     1       2.023   4.362   4.952  1.00  0.00    -0.269 OA
ATOM     27  C   UNL     1       0.127   6.747   6.691  1.00  0.00     0.199 A 
ATOM     28  H   UNL     1       1.040   4.992   7.155  1.00  0.00     0.171 HD
ENDBRANCH  11  21
ENDBRANCH   3   5
ENDBRANCH   2   3
ENDBRANCH   1   2
BRANCH   1  29
ATOM     29  C   UNL     1       1.765   4.348  -4.054  1.00  0.00     0.275 C 
BRANCH  29  30
ATOM     30  O   UNL     1       1.814   2.956  -3.518  1.00  0.00    -0.458 OA
BRANCH  30  31
ATOM     31  C   UNL     1       1.839   2.530  -2.193  1.00  0.00     0.338 C 
ATOM     32  O   UNL     1       2.782   1.945  -1.695  1.00  0.00    -0.246 OA
BRANCH  31  33
ATOM     33  C   UNL     1       0.512   2.733  -1.509  1.00  0.00     0.060 A 
ATOM     34  C   UNL     1      -0.212   2.895   0.254  1.00  0.00     0.016 A 
ATOM     35  C   UNL     1      -0.552   2.920  -2.866  1.00  0.00     0.016 A 
ATOM     36  C   UNL     1      -2.005   3.448   0.342  1.00  0.00     0.010 A 
ATOM     37  C   UNL     1      -2.070   3.552  -2.683  1.00  0.00     0.010 A 
ATOM     38  C   UNL     1      -2.824   3.941  -1.191  1.00  0.00    -0.014 A 
BRANCH  38  39
ATOM     39  C   UNL     1      -3.843   5.077  -1.626  1.00  0.00     0.031 A 
ATOM     40  C   UNL     1      -3.914   6.521  -1.132  1.00  0.00     0.074 A 
ATOM     41  C   UNL     1      -4.453   4.971  -2.861  1.00  0.00     0.049 A 
ATOM     42  N   UNL     1      -5.008   7.202  -0.917  1.00  0.00    -0.248 NA
ATOM     43  C   UNL     1      -2.745   7.387  -0.996  1.00  0.00     0.031 C 
ATOM     44  C   UNL     1      -4.968   6.039  -3.736  1.00  0.00     0.029 A 
ATOM     45  N   UNL     1      -4.687   3.832  -3.653  1.00  0.00    -0.354 N 
ATOM     46  C   UNL     1      -4.653   8.555  -0.798  1.00  0.00     0.074 A 
ATOM     47  C   UNL     1      -3.231   8.573  -0.626  1.00  0.00     0.031 C 
ATOM     48  C   UNL     1      -5.649   5.504  -4.771  1.00  0.00     0.029 A 
ATOM     49  C   UNL     1      -5.717   4.073  -4.568  1.00  0.00     0.049 A 
ATOM     50  H   UNL     1      -4.195   2.984  -3.575  1.00  0.00     0.167 HD
ATOM     51  C   UNL     1      -5.445   9.596  -1.212  1.00  0.00     0.037 A 
ATOM     52  C   UNL     1      -6.799   3.243  -4.569  1.00  0.00     0.037 A 
ATOM     53  C   UNL     1      -6.478   9.096  -2.095  1.00  0.00     0.049 A 
ATOM     54  C   UNL     1      -7.991   3.980  -4.053  1.00  0.00     0.074 A 
ATOM     55  C   UNL     1      -6.596   9.138  -3.474  1.00  0.00     0.029 A 
ATOM     56  N   UNL     1      -7.428   8.209  -1.631  1.00  0.00    -0.354 N 
ATOM     57  N   UNL     1      -7.897   5.165  -3.530  1.00  0.00    -0.248 NA
ATOM     58  C   UNL     1      -9.351   3.466  -4.044  1.00  0.00     0.031 C 
ATOM     59  C   UNL     1      -7.636   8.260  -3.842  1.00  0.00     0.029 A 
ATOM     60  C   UNL     1      -8.149   7.695  -2.686  1.00  0.00     0.049 A 
ATOM     61  H   UNL     1      -7.569   7.977  -0.685  1.00  0.00     0.167 HD
ATOM     62  C   UNL     1      -9.113   5.572  -3.093  1.00  0.00     0.074 A 
ATOM     63  C   UNL     1     -10.002   4.487  -3.456  1.00  0.00     0.031 C 
ATOM     64  C   UNL     1      -9.241   6.767  -2.455  1.00  0.00     0.037 A 
BRANCH  51  65
ATOM     65  C   UNL     1      -5.146  11.101  -1.133  1.00  0.00     0.064 A 
ATOM     66  C   UNL     1      -5.852  12.037  -1.937  1.00  0.00     0.173 A 
ATOM     67  C   UNL     1      -4.261  11.695  -0.210  1.00  0.00     0.173 A 
ATOM     68  F   UNL     1      -6.808  11.655  -2.793  1.00  0.00    -0.203 F 
ATOM     69  C   UNL     1      -5.636  13.420  -1.879  1.00  0.00     0.198 A 
ATOM     70  C   UNL     1      -4.034  13.083  -0.163  1.00  0.00     0.198 A 
ATOM     71  F   UNL     1      -3.626  10.957   0.710  1.00  0.00    -0.203 F 
ATOM     72  F   UNL     1      -6.343  14.238  -2.673  1.00  0.00    -0.200 F 
ATOM     73  C   UNL     1      -4.717  13.944  -1.000  1.00  0.00     0.200 A 
ATOM     74  F   UNL     1      -3.159  13.586   0.720  1.00  0.00    -0.200 F 
ATOM     75  F   UNL     1      -4.515  15.268  -0.939  1.00  0.00    -0.200 F 
ENDBRANCH  51  65
BRANCH  52  76
ATOM     76  C   UNL     1      -6.399   1.854  -4.164  1.00  0.00     0.064 A 
ATOM     77  C   UNL     1      -5.567   1.163  -5.073  1.00  0.00     0.173 A 
ATOM     78  C   UNL     1      -6.214   1.616  -2.796  1.00  0.00     0.173 A 
ATOM     79  F   UNL     1      -5.714   1.355  -6.393  1.00  0.00    -0.203 F 
ATOM     80  C   UNL     1      -4.443   0.477  -4.628  1.00  0.00     0.198 A 
ATOM     81  C   UNL     1      -5.069   0.962  -2.360  1.00  0.00     0.198 A 
ATOM     82  F   UNL     1      -6.969   2.247  -1.885  1.00  0.00    -0.203 F 
ATOM     83  F   UNL     1      -3.551  -0.001  -5.509  1.00  0.00    -0.200 F 
ATOM     84  C   UNL     1      -4.164   0.429  -3.276  1.00  0.00     0.200 A 
ATOM     85  F   UNL     1      -4.808   1.001  -1.049  1.00  0.00    -0.200 F 
ATOM     86  F   UNL     1      -2.985  -0.075  -2.898  1.00  0.00    -0.200 F 
ENDBRANCH  52  76
BRANCH  64  87
ATOM     87  C   UNL     1     -10.436   7.207  -1.671  1.00  0.00     0.064 A 
ATOM     88  C   UNL     1     -11.358   6.313  -1.111  1.00  0.00     0.173 A 
ATOM     89  C   UNL     1     -10.632   8.573  -1.355  1.00  0.00     0.173 A 
ATOM     90  F   UNL     1     -11.179   4.987  -1.178  1.00  0.00    -0.203 F 
ATOM     91  C   UNL     1     -12.473   6.756  -0.406  1.00  0.00     0.198 A 
ATOM     92  C   UNL     1     -11.701   9.005  -0.579  1.00  0.00     0.198 A 
ATOM     93  F   UNL     1      -9.782   9.526  -1.764  1.00  0.00    -0.203 F 
ATOM     94  F   UNL     1     -13.373   5.865   0.029  1.00  0.00    -0.200 F 
ATOM     95  C   UNL     1     -12.643   8.101  -0.137  1.00  0.00     0.200 A 
ATOM     96  F   UNL     1     -11.803  10.301  -0.254  1.00  0.00    -0.200 F 
ATOM     97  F   UNL     1     -13.700   8.520   0.568  1.00  0.00    -0.200 F 
ENDBRANCH  64  87
ENDBRANCH  38  39
ENDBRANCH  31  33
ENDBRANCH  30  31
ENDBRANCH  29  30
ENDBRANCH   1  29
TORSDOF 14
