REMARK SMILES O=C(CNS(=O)(=O)c1ccc(F)c(F)c1)OCCOC(=O)c1ccc(-c2c3nc(c(-c4c(F)c(F)c(F)c(F)c4F)c4ccc([nH]4)c(-c4c(F)c(F)c(F)c(F)c4F)c4nc(c(-c5c(F)c(F)c(F)c(F)c5F)c5ccc2[nH]5)C=C4)C=C3)cc1
REMARK SMILES IDX 17 1 16 2 2 3 1 4 3 5 4 6 5 8 6 9 7 10 8 11 9 12 15 13 10 14
REMARK SMILES IDX 13 15 11 16 14 17 12 18 18 19 19 20 20 21 21 22 22 23 23 24
REMARK SMILES IDX 84 25 24 26 83 27 25 28 26 29 27 30 77 31 28 32 82 33 76 34
REMARK SMILES IDX 78 35 29 36 81 37 75 38 74 39 30 41 62 42 42 43 61 44 43 45
REMARK SMILES IDX 46 46 60 47 79 48 44 49 45 50 59 52 80 53 47 54 31 55 32 56
REMARK SMILES IDX 40 57 33 58 34 59 38 60 41 61 35 62 36 63 39 64 37 65 63 66
REMARK SMILES IDX 64 67 72 68 65 69 66 70 70 71 73 72 67 73 68 74 71 75 69 76
REMARK SMILES IDX 48 77 49 78 57 79 50 80 51 81 55 82 58 83 52 84 53 85 56 86
REMARK SMILES IDX 54 87
REMARK H PARENT 4 7 78 40 46 51
REMARK Flexibility Score: inf
ROOT
ATOM      1  C   UNL     1       4.416  -0.423  -0.831  1.00  0.00     0.274 C 
ENDROOT
BRANCH   1   2
ATOM      2  O   UNL     1       3.095  -0.847  -0.440  1.00  0.00    -0.461 OA
BRANCH   2   3
ATOM      3  C   UNL     1       2.474  -0.563   0.727  1.00  0.00     0.321 C 
ATOM      4  O   UNL     1       1.390  -1.089   0.981  1.00  0.00    -0.251 OA
BRANCH   3   5
ATOM      5  C   UNL     1       3.073   0.439   1.686  1.00  0.00     0.221 C 
BRANCH   5   6
ATOM      6  N   UNL     1       4.372   0.112   2.289  1.00  0.00    -0.200 NA
ATOM      7  H   UNL     1       5.017  -0.123   1.535  1.00  0.00     0.142 HD
BRANCH   6   8
ATOM      8  S   UNL     1       5.078   1.338   3.214  1.00  0.00     0.241 S 
ATOM      9  O   UNL     1       4.009   2.107   3.802  1.00  0.00    -0.207 OA
ATOM     10  O   UNL     1       6.108   0.704   4.007  1.00  0.00    -0.207 OA
BRANCH   8  11
ATOM     11  C   UNL     1       5.903   2.346   2.007  1.00  0.00     0.085 A 
ATOM     12  C   UNL     1       6.776   1.757   1.084  1.00  0.00     0.025 A 
ATOM     13  C   UNL     1       5.670   3.725   1.989  1.00  0.00     0.064 A 
ATOM     14  C   UNL     1       7.391   2.549   0.110  1.00  0.00     0.044 A 
ATOM     15  C   UNL     1       6.299   4.501   1.021  1.00  0.00     0.160 A 
ATOM     16  C   UNL     1       7.143   3.918   0.082  1.00  0.00     0.158 A 
ATOM     17  F   UNL     1       6.052   5.818   0.977  1.00  0.00    -0.204 F 
ATOM     18  F   UNL     1       7.719   4.670  -0.866  1.00  0.00    -0.204 F 
ENDBRANCH   8  11
ENDBRANCH   6   8
ENDBRANCH   5   6
ENDBRANCH   3   5
ENDBRANCH   2   3
ENDBRANCH   1   2
BRANCH   1  19
ATOM     19  C   UNL     1       4.385   0.773  -1.782  1.00  0.00     0.275 C 
BRANCH  19  20
ATOM     20  O   UNL     1       3.861   1.936  -1.116  1.00  0.00    -0.458 OA
BRANCH  20  21
ATOM     21  C   UNL     1       2.565   2.234  -1.393  1.00  0.00     0.338 C 
ATOM     22  O   UNL     1       1.839   1.671  -2.190  1.00  0.00    -0.246 OA
BRANCH  21  23
ATOM     23  C   UNL     1       2.086   3.223  -0.403  1.00  0.00     0.060 A 
ATOM     24  C   UNL     1       0.845   2.997   0.202  1.00  0.00     0.016 A 
ATOM     25  C   UNL     1       2.865   4.317  -0.018  1.00  0.00     0.016 A 
ATOM     26  C   UNL     1       0.375   3.877   1.179  1.00  0.00     0.010 A 
ATOM     27  C   UNL     1       2.404   5.183   0.981  1.00  0.00     0.010 A 
ATOM     28  C   UNL     1       1.142   4.987   1.566  1.00  0.00    -0.014 A 
BRANCH  28  29
ATOM     29  C   UNL     1       0.554   5.998   2.485  1.00  0.00     0.031 A 
ATOM     30  C   UNL     1       0.087   7.316   1.930  1.00  0.00     0.074 A 
ATOM     31  C   UNL     1       0.380   5.729   3.793  1.00  0.00     0.049 A 
ATOM     32  N   UNL     1      -0.559   8.286   2.528  1.00  0.00    -0.248 NA
ATOM     33  C   UNL     1       0.392   7.582   0.516  1.00  0.00     0.031 C 
ATOM     34  C   UNL     1       0.798   4.501   4.464  1.00  0.00     0.029 A 
ATOM     35  N   UNL     1      -0.211   6.473   4.787  1.00  0.00    -0.354 N 
ATOM     36  C   UNL     1      -0.747   9.264   1.562  1.00  0.00     0.074 A 
ATOM     37  C   UNL     1      -0.094   8.803   0.357  1.00  0.00     0.031 C 
ATOM     38  C   UNL     1       0.421   4.560   5.753  1.00  0.00     0.029 A 
ATOM     39  C   UNL     1      -0.247   5.838   6.004  1.00  0.00     0.049 A 
ATOM     40  H   UNL     1      -0.575   7.376   4.640  1.00  0.00     0.167 HD
ATOM     41  C   UNL     1      -1.428  10.430   1.658  1.00  0.00     0.037 A 
ATOM     42  C   UNL     1      -0.769   6.233   7.184  1.00  0.00     0.037 A 
ATOM     43  C   UNL     1      -2.084  10.892   2.852  1.00  0.00     0.049 A 
ATOM     44  C   UNL     1      -1.478   7.559   7.286  1.00  0.00     0.074 A 
ATOM     45  C   UNL     1      -2.835  12.041   3.028  1.00  0.00     0.029 A 
ATOM     46  N   UNL     1      -2.057  10.238   4.074  1.00  0.00    -0.354 N 
ATOM     47  N   UNL     1      -1.717   8.442   6.347  1.00  0.00    -0.248 NA
ATOM     48  C   UNL     1      -1.999   7.942   8.608  1.00  0.00     0.031 C 
ATOM     49  C   UNL     1      -3.209  12.115   4.371  1.00  0.00     0.029 A 
ATOM     50  C   UNL     1      -2.748  10.979   5.018  1.00  0.00     0.049 A 
ATOM     51  H   UNL     1      -1.613   9.377   4.245  1.00  0.00     0.167 HD
ATOM     52  C   UNL     1      -2.437   9.465   6.953  1.00  0.00     0.074 A 
ATOM     53  C   UNL     1      -2.600   9.096   8.343  1.00  0.00     0.031 C 
ATOM     54  C   UNL     1      -2.921  10.602   6.398  1.00  0.00     0.037 A 
BRANCH  41  55
ATOM     55  C   UNL     1      -1.503  11.296   0.435  1.00  0.00     0.064 A 
ATOM     56  C   UNL     1      -0.854  12.539   0.401  1.00  0.00     0.173 A 
ATOM     57  C   UNL     1      -2.266  10.922  -0.682  1.00  0.00     0.173 A 
ATOM     58  F   UNL     1      -0.118  12.947   1.446  1.00  0.00    -0.203 F 
ATOM     59  C   UNL     1      -0.973  13.378  -0.703  1.00  0.00     0.198 A 
ATOM     60  C   UNL     1      -2.356  11.750  -1.797  1.00  0.00     0.198 A 
ATOM     61  F   UNL     1      -2.898   9.739  -0.703  1.00  0.00    -0.203 F 
ATOM     62  F   UNL     1      -0.369  14.575  -0.701  1.00  0.00    -0.200 F 
ATOM     63  C   UNL     1      -1.717  12.981  -1.803  1.00  0.00     0.200 A 
ATOM     64  F   UNL     1      -3.054  11.352  -2.870  1.00  0.00    -0.200 F 
ATOM     65  F   UNL     1      -1.817  13.783  -2.872  1.00  0.00    -0.200 F 
ENDBRANCH  41  55
BRANCH  42  66
ATOM     66  C   UNL     1      -0.676   5.326   8.359  1.00  0.00     0.064 A 
ATOM     67  C   UNL     1       0.552   5.065   8.984  1.00  0.00     0.173 A 
ATOM     68  C   UNL     1      -1.812   4.672   8.855  1.00  0.00     0.173 A 
ATOM     69  F   UNL     1       1.667   5.671   8.551  1.00  0.00    -0.203 F 
ATOM     70  C   UNL     1       0.645   4.161  10.040  1.00  0.00     0.198 A 
ATOM     71  C   UNL     1      -1.722   3.787   9.928  1.00  0.00     0.198 A 
ATOM     72  F   UNL     1      -3.014   4.910   8.309  1.00  0.00    -0.203 F 
ATOM     73  F   UNL     1       1.837   3.902  10.595  1.00  0.00    -0.200 F 
ATOM     74  C   UNL     1      -0.492   3.523  10.511  1.00  0.00     0.200 A 
ATOM     75  F   UNL     1      -2.827   3.192  10.398  1.00  0.00    -0.200 F 
ATOM     76  F   UNL     1      -0.404   2.657  11.530  1.00  0.00    -0.200 F 
ENDBRANCH  42  66
BRANCH  54  77
ATOM     77  C   UNL     1      -3.705  11.547   7.265  1.00  0.00     0.064 A 
ATOM     78  C   UNL     1      -5.081  11.730   7.045  1.00  0.00     0.173 A 
ATOM     79  C   UNL     1      -3.076  12.371   8.207  1.00  0.00     0.173 A 
ATOM     80  F   UNL     1      -5.728  10.974   6.145  1.00  0.00    -0.203 F 
ATOM     81  C   UNL     1      -5.788  12.726   7.712  1.00  0.00     0.198 A 
ATOM     82  C   UNL     1      -3.793  13.350   8.893  1.00  0.00     0.198 A 
ATOM     83  F   UNL     1      -1.766  12.231   8.460  1.00  0.00    -0.203 F 
ATOM     84  F   UNL     1      -7.087  12.919   7.444  1.00  0.00    -0.200 F 
ATOM     85  C   UNL     1      -5.143  13.537   8.633  1.00  0.00     0.200 A 
ATOM     86  F   UNL     1      -3.174  14.122   9.796  1.00  0.00    -0.200 F 
ATOM     87  F   UNL     1      -5.822  14.503   9.268  1.00  0.00    -0.200 F 
ENDBRANCH  54  77
ENDBRANCH  28  29
ENDBRANCH  21  23
ENDBRANCH  20  21
ENDBRANCH  19  20
ENDBRANCH   1  19
TORSDOF 14
