REMARK SMILES Cc1ccc(C(N)=O)c(NCc2ccc(C(=O)OCCOC(=O)c3ccc(-c4c5nc(c(-c6c(F)c(F)c(F)c(F)c6F)c6ccc([nH]6)c(-c6c(F)c(F)c(F)c(F)c6F)c6nc(c(-c7c(F)c(F)c(F)c(F)c7F)c7ccc4[nH]7)C=C6)C=C5)cc3)o2)n1
REMARK SMILES IDX 19 1 18 2 16 3 17 4 15 5 12 6 13 7 87 8 14 9 11 10 10 11
REMARK SMILES IDX 9 13 1 14 2 15 3 16 88 17 4 18 5 19 6 20 7 21 8 22 20 25
REMARK SMILES IDX 21 26 22 27 23 28 24 29 25 30 86 31 26 32 85 33 27 34 28 35
REMARK SMILES IDX 29 36 79 37 30 38 84 39 78 40 80 41 31 42 83 43 77 44 76 45
REMARK SMILES IDX 32 47 64 48 44 49 63 50 45 51 48 52 62 53 81 54 46 55 47 56
REMARK SMILES IDX 61 58 82 59 49 60 33 61 34 62 42 63 35 64 36 65 40 66 43 67
REMARK SMILES IDX 37 68 38 69 41 70 39 71 65 72 66 73 74 74 67 75 68 76 72 77
REMARK SMILES IDX 75 78 69 79 70 80 73 81 71 82 50 83 51 84 59 85 52 86 53 87
REMARK SMILES IDX 57 88 60 89 54 90 55 91 58 92 56 93
REMARK H PARENT 10 12 7 23 7 24 80 46 48 57
REMARK Flexibility Score: inf
ROOT
ATOM      1  C   UNL     1      -0.963   9.142  -4.761  1.00  0.00     0.275 C 
ENDROOT
BRANCH   1   2
ATOM      2  O   UNL     1      -1.050   7.734  -4.477  1.00  0.00    -0.456 OA
BRANCH   2   3
ATOM      3  C   UNL     1      -0.281   7.291  -3.438  1.00  0.00     0.374 C 
ATOM      4  O   UNL     1       0.535   7.983  -2.839  1.00  0.00    -0.242 OA
BRANCH   3   5
ATOM      5  C   UNL     1      -0.649   5.940  -3.084  1.00  0.00     0.211 A 
ATOM      6  C   UNL     1      -0.831   4.269  -1.648  1.00  0.00     0.124 A 
ATOM      7  C   UNL     1      -1.511   3.882  -2.784  1.00  0.00     0.048 A 
ATOM      8  O   UNL     1      -0.256   5.486  -1.852  1.00  0.00    -0.452 OA
ATOM      9  C   UNL     1      -1.408   4.961  -3.700  1.00  0.00     0.058 A 
BRANCH   6  10
ATOM     10  C   UNL     1      -0.647   3.692  -0.283  1.00  0.00     0.190 C 
BRANCH  10  11
ATOM     11  N   UNL     1      -1.513   2.564   0.027  1.00  0.00    -0.362 N 
ATOM     12  H   UNL     1      -2.454   2.716   0.274  1.00  0.00     0.162 HD
BRANCH  11  13
ATOM     13  C   UNL     1      -1.005   1.271  -0.025  1.00  0.00     0.139 A 
ATOM     14  C   UNL     1       2.394  -0.147  -0.130  1.00  0.00     0.067 C 
ATOM     15  C   UNL     1       0.897  -0.095  -0.098  1.00  0.00     0.040 A 
ATOM     16  C   UNL     1       0.137  -1.250  -0.019  1.00  0.00     0.024 A 
ATOM     17  N   UNL     1       0.340   1.139  -0.115  1.00  0.00    -0.236 NA
ATOM     18  C   UNL     1      -1.246  -1.125   0.039  1.00  0.00     0.019 A 
ATOM     19  C   UNL     1      -1.838   0.145   0.029  1.00  0.00     0.081 A 
BRANCH  19  20
ATOM     20  C   UNL     1      -3.324   0.196   0.077  1.00  0.00     0.252 C 
ATOM     21  N   UNL     1      -3.946   1.329  -0.365  1.00  0.00    -0.365 N 
ATOM     22  O   UNL     1      -3.986  -0.759   0.469  1.00  0.00    -0.269 OA
ATOM     23  H   UNL     1      -3.410   2.094  -0.679  1.00  0.00     0.159 HD
ATOM     24  H   UNL     1      -4.929   1.382  -0.370  1.00  0.00     0.159 HD
ENDBRANCH  19  20
ENDBRANCH  11  13
ENDBRANCH  10  11
ENDBRANCH   6  10
ENDBRANCH   3   5
ENDBRANCH   2   3
ENDBRANCH   1   2
BRANCH   1  25
ATOM     25  C   UNL     1      -2.087   9.928  -4.075  1.00  0.00     0.275 C 
BRANCH  25  26
ATOM     26  O   UNL     1      -1.907  10.004  -2.646  1.00  0.00    -0.458 OA
BRANCH  26  27
ATOM     27  C   UNL     1      -2.535   9.041  -1.930  1.00  0.00     0.338 C 
ATOM     28  O   UNL     1      -3.242   8.148  -2.365  1.00  0.00    -0.246 OA
BRANCH  27  29
ATOM     29  C   UNL     1      -2.136   9.123  -0.512  1.00  0.00     0.060 A 
ATOM     30  C   UNL     1      -1.635   7.965   0.086  1.00  0.00     0.016 A 
ATOM     31  C   UNL     1      -2.304  10.287   0.242  1.00  0.00     0.016 A 
ATOM     32  C   UNL     1      -1.287   7.960   1.434  1.00  0.00     0.010 A 
ATOM     33  C   UNL     1      -1.967  10.280   1.602  1.00  0.00     0.010 A 
ATOM     34  C   UNL     1      -1.462   9.115   2.206  1.00  0.00    -0.014 A 
BRANCH  34  35
ATOM     35  C   UNL     1      -1.157   9.068   3.655  1.00  0.00     0.031 A 
ATOM     36  C   UNL     1      -2.270   8.914   4.650  1.00  0.00     0.074 A 
ATOM     37  C   UNL     1       0.121   9.111   4.073  1.00  0.00     0.049 A 
ATOM     38  N   UNL     1      -2.212   8.860   5.957  1.00  0.00    -0.248 NA
ATOM     39  C   UNL     1      -3.629   8.801   4.101  1.00  0.00     0.031 C 
ATOM     40  C   UNL     1       1.289   9.213   3.199  1.00  0.00     0.029 A 
ATOM     41  N   UNL     1       0.649   9.068   5.339  1.00  0.00    -0.354 N 
ATOM     42  C   UNL     1      -3.523   8.714   6.387  1.00  0.00     0.074 A 
ATOM     43  C   UNL     1      -4.359   8.707   5.205  1.00  0.00     0.031 C 
ATOM     44  C   UNL     1       2.399   9.223   3.955  1.00  0.00     0.029 A 
ATOM     45  C   UNL     1       2.018   9.162   5.365  1.00  0.00     0.049 A 
ATOM     46  H   UNL     1       0.099   8.979   6.150  1.00  0.00     0.167 HD
ATOM     47  C   UNL     1      -3.985   8.593   7.655  1.00  0.00     0.037 A 
ATOM     48  C   UNL     1       2.867   9.209   6.410  1.00  0.00     0.037 A 
ATOM     49  C   UNL     1      -3.154   8.593   8.830  1.00  0.00     0.049 A 
ATOM     50  C   UNL     1       2.321   9.130   7.809  1.00  0.00     0.074 A 
ATOM     51  C   UNL     1      -3.532   8.465  10.156  1.00  0.00     0.029 A 
ATOM     52  N   UNL     1      -1.774   8.732   8.820  1.00  0.00    -0.354 N 
ATOM     53  N   UNL     1       1.080   8.988   8.207  1.00  0.00    -0.248 NA
ATOM     54  C   UNL     1       3.295   9.222   8.907  1.00  0.00     0.031 C 
ATOM     55  C   UNL     1      -2.384   8.563  10.950  1.00  0.00     0.029 A 
ATOM     56  C   UNL     1      -1.287   8.713  10.117  1.00  0.00     0.049 A 
ATOM     57  H   UNL     1      -1.222   8.829   8.011  1.00  0.00     0.167 HD
ATOM     58  C   UNL     1       1.125   8.955   9.594  1.00  0.00     0.074 A 
ATOM     59  C   UNL     1       2.517   9.078   9.971  1.00  0.00     0.031 C 
ATOM     60  C   UNL     1       0.102   8.835  10.475  1.00  0.00     0.037 A 
BRANCH  47  61
ATOM     61  C   UNL     1      -5.468   8.475   7.839  1.00  0.00     0.064 A 
ATOM     62  C   UNL     1      -6.153   7.289   7.538  1.00  0.00     0.173 A 
ATOM     63  C   UNL     1      -6.206   9.550   8.355  1.00  0.00     0.173 A 
ATOM     64  F   UNL     1      -5.493   6.238   7.028  1.00  0.00    -0.203 F 
ATOM     65  C   UNL     1      -7.529   7.190   7.730  1.00  0.00     0.198 A 
ATOM     66  C   UNL     1      -7.578   9.440   8.566  1.00  0.00     0.198 A 
ATOM     67  F   UNL     1      -5.595  10.704   8.661  1.00  0.00    -0.203 F 
ATOM     68  F   UNL     1      -8.171   6.061   7.401  1.00  0.00    -0.200 F 
ATOM     69  C   UNL     1      -8.239   8.263   8.249  1.00  0.00     0.200 A 
ATOM     70  F   UNL     1      -8.261  10.475   9.075  1.00  0.00    -0.200 F 
ATOM     71  F   UNL     1      -9.562   8.166   8.437  1.00  0.00    -0.200 F 
ENDBRANCH  47  61
BRANCH  48  72
ATOM     72  C   UNL     1       4.325   9.352   6.170  1.00  0.00     0.064 A 
ATOM     73  C   UNL     1       5.207   8.294   6.427  1.00  0.00     0.173 A 
ATOM     74  C   UNL     1       4.865  10.552   5.684  1.00  0.00     0.173 A 
ATOM     75  F   UNL     1       4.740   7.137   6.919  1.00  0.00    -0.203 F 
ATOM     76  C   UNL     1       6.577   8.435   6.218  1.00  0.00     0.198 A 
ATOM     77  C   UNL     1       6.231  10.684   5.453  1.00  0.00     0.198 A 
ATOM     78  F   UNL     1       4.061  11.595   5.429  1.00  0.00    -0.203 F 
ATOM     79  F   UNL     1       7.405   7.422   6.509  1.00  0.00    -0.200 F 
ATOM     80  C   UNL     1       7.088   9.627   5.725  1.00  0.00     0.200 A 
ATOM     81  F   UNL     1       6.720  11.834   4.970  1.00  0.00    -0.200 F 
ATOM     82  F   UNL     1       8.405   9.761   5.522  1.00  0.00    -0.200 F 
ENDBRANCH  48  72
BRANCH  60  83
ATOM     83  C   UNL     1       0.453   8.810  11.933  1.00  0.00     0.064 A 
ATOM     84  C   UNL     1       0.830   9.976  12.614  1.00  0.00     0.173 A 
ATOM     85  C   UNL     1       0.376   7.615  12.664  1.00  0.00     0.173 A 
ATOM     86  F   UNL     1       0.934  11.140  11.954  1.00  0.00    -0.203 F 
ATOM     87  C   UNL     1       1.135   9.943  13.973  1.00  0.00     0.198 A 
ATOM     88  C   UNL     1       0.659   7.590  14.026  1.00  0.00     0.198 A 
ATOM     89  F   UNL     1       0.016   6.474  12.057  1.00  0.00    -0.203 F 
ATOM     90  F   UNL     1       1.530  11.062  14.596  1.00  0.00    -0.200 F 
ATOM     91  C   UNL     1       1.043   8.752  14.678  1.00  0.00     0.200 A 
ATOM     92  F   UNL     1       0.561   6.441  14.709  1.00  0.00    -0.200 F 
ATOM     93  F   UNL     1       1.333   8.724  15.986  1.00  0.00    -0.200 F 
ENDBRANCH  60  83
ENDBRANCH  34  35
ENDBRANCH  27  29
ENDBRANCH  26  27
ENDBRANCH  25  26
ENDBRANCH   1  25
TORSDOF 15
