REMARK SMILES COc1ccc2c(c1)C=C(C(=O)OCCOC(=O)c1ccc(-c3c4nc(c(-c5c(F)c(F)c(F)c(F)c5F)c5ccc([nH]5)c(-c5c(F)c(F)c(F)c(F)c5F)c5nc(c(-c6c(F)c(F)c(F)c(F)c6F)c6ccc3[nH]6)C=C5)C=C4)cc1)[C@H](C(F)(F)F)O2
REMARK SMILES IDX 15 1 14 2 13 3 11 4 12 5 10 6 3 7 4 8 8 9 5 10 7 11 6 12
REMARK SMILES IDX 9 13 87 14 82 15 2 16 1 17 83 18 84 19 85 20 86 21 16 22
REMARK SMILES IDX 17 23 18 24 19 25 20 26 81 27 21 28 80 29 22 30 23 31 24 32
REMARK SMILES IDX 74 33 25 34 79 35 73 36 75 37 26 38 78 39 72 40 71 41 27 43
REMARK SMILES IDX 59 44 39 45 58 46 40 47 43 48 57 49 76 50 41 51 42 52 56 54
REMARK SMILES IDX 77 55 44 56 28 57 29 58 37 59 30 60 31 61 35 62 38 63 32 64
REMARK SMILES IDX 33 65 36 66 34 67 60 68 61 69 69 70 62 71 63 72 67 73 70 74
REMARK SMILES IDX 64 75 65 76 68 77 66 78 45 79 46 80 54 81 47 82 48 83 52 84
REMARK SMILES IDX 55 85 49 86 50 87 53 88 51 89
REMARK H PARENT 75 42 43 53
REMARK Flexibility Score: inf
ROOT
ATOM      1  C   UNL     1      -3.466   8.995  -3.409  1.00  0.00     0.275 C 
ENDROOT
BRANCH   1   2
ATOM      2  C   UNL     1      -3.025   7.958  -4.447  1.00  0.00     0.275 C 
BRANCH   2   3
ATOM      3  O   UNL     1      -2.103   6.996  -3.893  1.00  0.00    -0.459 OA
BRANCH   3   4
ATOM      4  C   UNL     1      -0.811   7.103  -4.303  1.00  0.00     0.338 C 
ATOM      5  O   UNL     1      -0.387   7.947  -5.066  1.00  0.00    -0.246 OA
BRANCH   4   6
ATOM      6  C   UNL     1       0.058   6.081  -3.668  1.00  0.00     0.087 C 
ATOM      7  C   UNL     1       0.846   1.825  -1.512  1.00  0.00     0.119 A 
ATOM      8  C   UNL     1       2.214   2.102  -1.483  1.00  0.00     0.050 A 
ATOM      9  C   UNL     1      -0.033   2.729  -2.124  1.00  0.00     0.058 A 
ATOM     10  C   UNL     1       2.700   3.269  -2.075  1.00  0.00     0.051 A 
ATOM     11  C   UNL     1       0.444   3.916  -2.690  1.00  0.00     0.021 A 
ATOM     12  C   UNL     1       1.817   4.166  -2.672  1.00  0.00     0.128 A 
ATOM     13  C   UNL     1      -0.446   4.879  -3.334  1.00  0.00     0.027 C 
ATOM     14  O   UNL     1       2.368   5.247  -3.299  1.00  0.00    -0.475 OA
ATOM     15  C   UNL     1       1.513   6.422  -3.384  1.00  0.00     0.316 C 
BRANCH   7  16
ATOM     16  O   UNL     1       0.263   0.685  -1.031  1.00  0.00    -0.497 OA
ATOM     17  C   UNL     1       0.957   0.009   0.013  1.00  0.00     0.278 C 
ENDBRANCH   7  16
BRANCH  15  18
ATOM     18  C   UNL     1       2.235   7.436  -4.293  1.00  0.00     0.430 C 
ATOM     19  F   UNL     1       1.780   8.698  -4.117  1.00  0.00    -0.167 F 
ATOM     20  F   UNL     1       3.558   7.490  -3.975  1.00  0.00    -0.167 F 
ATOM     21  F   UNL     1       2.160   7.118  -5.601  1.00  0.00    -0.167 F 
ENDBRANCH  15  18
ENDBRANCH   4   6
ENDBRANCH   3   4
ENDBRANCH   2   3
ENDBRANCH   1   2
BRANCH   1  22
ATOM     22  O   UNL     1      -2.353   9.777  -2.938  1.00  0.00    -0.458 OA
BRANCH  22  23
ATOM     23  C   UNL     1      -1.795   9.335  -1.786  1.00  0.00     0.338 C 
ATOM     24  O   UNL     1      -2.177   8.404  -1.095  1.00  0.00    -0.246 OA
BRANCH  23  25
ATOM     25  C   UNL     1      -0.506  10.015  -1.556  1.00  0.00     0.060 A 
ATOM     26  C   UNL     1       0.578   9.200  -1.220  1.00  0.00     0.016 A 
ATOM     27  C   UNL     1      -0.344  11.399  -1.638  1.00  0.00     0.016 A 
ATOM     28  C   UNL     1       1.845   9.748  -1.035  1.00  0.00     0.010 A 
ATOM     29  C   UNL     1       0.919  11.959  -1.397  1.00  0.00     0.010 A 
ATOM     30  C   UNL     1       2.020  11.135  -1.105  1.00  0.00    -0.014 A 
BRANCH  30  31
ATOM     31  C   UNL     1       3.337  11.710  -0.743  1.00  0.00     0.031 A 
ATOM     32  C   UNL     1       3.625  12.017   0.697  1.00  0.00     0.074 A 
ATOM     33  C   UNL     1       4.287  11.902  -1.675  1.00  0.00     0.049 A 
ATOM     34  N   UNL     1       4.700  12.526   1.242  1.00  0.00    -0.248 NA
ATOM     35  C   UNL     1       2.558  11.691   1.656  1.00  0.00     0.031 C 
ATOM     36  C   UNL     1       4.162  11.566  -3.091  1.00  0.00     0.029 A 
ATOM     37  N   UNL     1       5.551  12.429  -1.562  1.00  0.00    -0.354 N 
ATOM     38  C   UNL     1       4.445  12.573   2.605  1.00  0.00     0.074 A 
ATOM     39  C   UNL     1       3.106  12.060   2.804  1.00  0.00     0.031 C 
ATOM     40  C   UNL     1       5.298  11.913  -3.722  1.00  0.00     0.029 A 
ATOM     41  C   UNL     1       6.215  12.524  -2.760  1.00  0.00     0.049 A 
ATOM     42  H   UNL     1       5.943  12.711  -0.705  1.00  0.00     0.167 HD
ATOM     43  C   UNL     1       5.255  13.005   3.601  1.00  0.00     0.037 A 
ATOM     44  C   UNL     1       7.415  13.068  -3.046  1.00  0.00     0.037 A 
ATOM     45  C   UNL     1       6.573  13.546   3.400  1.00  0.00     0.049 A 
ATOM     46  C   UNL     1       8.247  13.657  -1.933  1.00  0.00     0.074 A 
ATOM     47  C   UNL     1       7.460  14.031   4.345  1.00  0.00     0.029 A 
ATOM     48  N   UNL     1       7.188  13.690   2.164  1.00  0.00    -0.354 N 
ATOM     49  N   UNL     1       8.006  13.691  -0.644  1.00  0.00    -0.248 NA
ATOM     50  C   UNL     1       9.521  14.283  -2.316  1.00  0.00     0.031 C 
ATOM     51  C   UNL     1       8.586  14.523   3.676  1.00  0.00     0.029 A 
ATOM     52  C   UNL     1       8.430  14.284   2.320  1.00  0.00     0.049 A 
ATOM     53  H   UNL     1       6.799  13.410   1.304  1.00  0.00     0.167 HD
ATOM     54  C   UNL     1       9.110  14.305  -0.063  1.00  0.00     0.074 A 
ATOM     55  C   UNL     1      10.026  14.620  -1.138  1.00  0.00     0.031 C 
ATOM     56  C   UNL     1       9.343  14.580   1.244  1.00  0.00     0.037 A 
BRANCH  43  57
ATOM     57  C   UNL     1       4.710  12.956   4.997  1.00  0.00     0.064 A 
ATOM     58  C   UNL     1       4.529  11.742   5.677  1.00  0.00     0.173 A 
ATOM     59  C   UNL     1       4.378  14.142   5.669  1.00  0.00     0.173 A 
ATOM     60  F   UNL     1       4.815  10.579   5.072  1.00  0.00    -0.203 F 
ATOM     61  C   UNL     1       4.010  11.717   6.969  1.00  0.00     0.198 A 
ATOM     62  C   UNL     1       3.888  14.115   6.971  1.00  0.00     0.198 A 
ATOM     63  F   UNL     1       4.533  15.329   5.063  1.00  0.00    -0.203 F 
ATOM     64  F   UNL     1       3.798  10.544   7.582  1.00  0.00    -0.200 F 
ATOM     65  C   UNL     1       3.696  12.903   7.617  1.00  0.00     0.200 A 
ATOM     66  F   UNL     1       3.595  15.262   7.599  1.00  0.00    -0.200 F 
ATOM     67  F   UNL     1       3.199  12.877   8.861  1.00  0.00    -0.200 F 
ENDBRANCH  43  57
BRANCH  44  68
ATOM     68  C   UNL     1       7.900  13.116  -4.452  1.00  0.00     0.064 A 
ATOM     69  C   UNL     1       9.034  12.398  -4.856  1.00  0.00     0.173 A 
ATOM     70  C   UNL     1       7.268  13.926  -5.409  1.00  0.00     0.173 A 
ATOM     71  F   UNL     1       9.695  11.637  -3.971  1.00  0.00    -0.203 F 
ATOM     72  C   UNL     1       9.532  12.507  -6.154  1.00  0.00     0.198 A 
ATOM     73  C   UNL     1       7.748  14.009  -6.714  1.00  0.00     0.198 A 
ATOM     74  F   UNL     1       6.187  14.644  -5.073  1.00  0.00    -0.203 F 
ATOM     75  F   UNL     1      10.655  11.860  -6.495  1.00  0.00    -0.200 F 
ATOM     76  C   UNL     1       8.886  13.309  -7.083  1.00  0.00     0.200 A 
ATOM     77  F   UNL     1       7.118  14.782  -7.609  1.00  0.00    -0.200 F 
ATOM     78  F   UNL     1       9.370  13.420  -8.327  1.00  0.00    -0.200 F 
ENDBRANCH  44  68
BRANCH  56  79
ATOM     79  C   UNL     1      10.662  15.207   1.601  1.00  0.00     0.064 A 
ATOM     80  C   UNL     1      10.966  16.536   1.272  1.00  0.00     0.173 A 
ATOM     81  C   UNL     1      11.617  14.479   2.330  1.00  0.00     0.173 A 
ATOM     82  F   UNL     1      10.095  17.273   0.566  1.00  0.00    -0.203 F 
ATOM     83  C   UNL     1      12.185  17.105   1.636  1.00  0.00     0.198 A 
ATOM     84  C   UNL     1      12.819  15.061   2.721  1.00  0.00     0.198 A 
ATOM     85  F   UNL     1      11.375  13.207   2.679  1.00  0.00    -0.203 F 
ATOM     86  F   UNL     1      12.472  18.361   1.269  1.00  0.00    -0.200 F 
ATOM     87  C   UNL     1      13.106  16.370   2.367  1.00  0.00     0.200 A 
ATOM     88  F   UNL     1      13.700  14.354   3.443  1.00  0.00    -0.200 F 
ATOM     89  F   UNL     1      14.273  16.923   2.727  1.00  0.00    -0.200 F 
ENDBRANCH  56  79
ENDBRANCH  30  31
ENDBRANCH  23  25
ENDBRANCH  22  23
ENDBRANCH   1  22
TORSDOF 13
