REMARK SMILES CCC(CC)(NC(=O)c1ccc(NC(C)=O)cc1)C(=O)OCCOC(=O)c1ccc(-c2c3nc(c(-c4c(F)c(F)c(F)c(F)c4F)c4ccc([nH]4)c(-c4c(F)c(F)c(F)c(F)c4F)c4nc(c(-c5c(F)c(F)c(F)c(F)c5F)c5ccc2[nH]5)C=C4)C=C3)cc1
REMARK SMILES IDX 22 1 21 2 19 3 20 4 3 5 2 6 1 7 4 8 5 9 6 10 7 11 8 13 9 14
REMARK SMILES IDX 10 15 18 16 11 17 17 18 12 19 13 20 14 21 15 23 16 24 23 25
REMARK SMILES IDX 24 26 25 27 26 28 27 29 28 30 89 31 29 32 88 33 30 34 31 35
REMARK SMILES IDX 32 36 82 37 33 38 87 39 81 40 83 41 34 42 86 43 80 44 79 45
REMARK SMILES IDX 35 47 67 48 47 49 66 50 48 51 51 52 65 53 84 54 49 55 50 56
REMARK SMILES IDX 64 58 85 59 52 60 36 61 37 62 45 63 38 64 39 65 43 66 46 67
REMARK SMILES IDX 40 68 41 69 44 70 42 71 68 72 69 73 77 74 70 75 71 76 75 77
REMARK SMILES IDX 78 78 72 79 73 80 76 81 74 82 53 83 54 84 62 85 55 86 56 87
REMARK SMILES IDX 60 88 63 89 57 90 58 91 61 92 59 93
REMARK H PARENT 6 12 13 22 83 46 51 57
REMARK Flexibility Score: inf
ROOT
ATOM      1  C   UNL     1       4.631  -0.688  -2.305  1.00  0.00     0.274 C 
ENDROOT
BRANCH   1   2
ATOM      2  O   UNL     1       3.353  -0.231  -2.810  1.00  0.00    -0.460 OA
BRANCH   2   3
ATOM      3  C   UNL     1       2.260  -0.621  -2.119  1.00  0.00     0.331 C 
ATOM      4  O   UNL     1       2.334  -1.266  -1.076  1.00  0.00    -0.249 OA
BRANCH   3   5
ATOM      5  C   UNL     1       0.895  -0.328  -2.830  1.00  0.00     0.137 C 
BRANCH   5   6
ATOM      6  C   UNL     1      -0.056   0.336  -1.764  1.00  0.00     0.037 C 
ATOM      7  C   UNL     1      -0.267  -0.351  -0.419  1.00  0.00     0.007 C 
ENDBRANCH   5   6
BRANCH   5   8
ATOM      8  C   UNL     1       0.386  -1.733  -3.274  1.00  0.00     0.037 C 
ATOM      9  C   UNL     1      -1.111  -1.850  -3.543  1.00  0.00     0.007 C 
ENDBRANCH   5   8
BRANCH   5  10
ATOM     10  N   UNL     1       0.779   0.620  -4.000  1.00  0.00    -0.336 N 
ATOM     11  C   UNL     1       1.384   0.806  -5.211  1.00  0.00     0.252 C 
ATOM     12  H   UNL     1       0.071   1.287  -3.849  1.00  0.00     0.165 HD
ATOM     13  O   UNL     1       0.696   1.159  -6.166  1.00  0.00    -0.269 OA
BRANCH  11  14
ATOM     14  C   UNL     1       2.840   0.858  -5.360  1.00  0.00     0.039 A 
ATOM     15  C   UNL     1       3.462   2.104  -5.234  1.00  0.00     0.016 A 
ATOM     16  C   UNL     1       3.583  -0.261  -5.726  1.00  0.00     0.016 A 
ATOM     17  C   UNL     1       4.851   2.209  -5.347  1.00  0.00     0.027 A 
ATOM     18  C   UNL     1       4.977  -0.151  -5.825  1.00  0.00     0.027 A 
ATOM     19  C   UNL     1       5.625   1.071  -5.578  1.00  0.00     0.041 A 
BRANCH  19  20
ATOM     20  N   UNL     1       7.031   1.046  -5.440  1.00  0.00    -0.326 N 
ATOM     21  C   UNL     1       7.845   2.089  -5.026  1.00  0.00     0.221 C 
ATOM     22  H   UNL     1       7.480   0.198  -5.660  1.00  0.00     0.169 HD
ATOM     23  C   UNL     1       9.206   1.616  -4.578  1.00  0.00     0.114 C 
ATOM     24  O   UNL     1       7.560   3.280  -4.988  1.00  0.00    -0.275 OA
ENDBRANCH  19  20
ENDBRANCH  11  14
ENDBRANCH   5  10
ENDBRANCH   3   5
ENDBRANCH   2   3
ENDBRANCH   1   2
BRANCH   1  25
ATOM     25  C   UNL     1       5.518   0.499  -1.958  1.00  0.00     0.275 C 
BRANCH  25  26
ATOM     26  O   UNL     1       4.835   1.295  -0.984  1.00  0.00    -0.458 OA
BRANCH  26  27
ATOM     27  C   UNL     1       4.591   2.576  -1.342  1.00  0.00     0.338 C 
ATOM     28  O   UNL     1       5.010   3.194  -2.300  1.00  0.00    -0.246 OA
BRANCH  27  29
ATOM     29  C   UNL     1       3.687   3.149  -0.344  1.00  0.00     0.060 A 
ATOM     30  C   UNL     1       2.475   2.514  -0.078  1.00  0.00     0.016 A 
ATOM     31  C   UNL     1       4.033   4.333   0.300  1.00  0.00     0.016 A 
ATOM     32  C   UNL     1       1.583   3.075   0.824  1.00  0.00     0.010 A 
ATOM     33  C   UNL     1       3.177   4.850   1.271  1.00  0.00     0.010 A 
ATOM     34  C   UNL     1       1.947   4.224   1.539  1.00  0.00    -0.014 A 
BRANCH  34  35
ATOM     35  C   UNL     1       1.051   4.745   2.596  1.00  0.00     0.031 A 
ATOM     36  C   UNL     1       0.439   6.106   2.463  1.00  0.00     0.074 A 
ATOM     37  C   UNL     1       0.800   3.979   3.675  1.00  0.00     0.049 A 
ATOM     38  N   UNL     1      -0.245   6.793   3.341  1.00  0.00    -0.248 NA
ATOM     39  C   UNL     1       0.631   6.794   1.177  1.00  0.00     0.031 C 
ATOM     40  C   UNL     1       1.329   2.631   3.894  1.00  0.00     0.029 A 
ATOM     41  N   UNL     1       0.033   4.217   4.785  1.00  0.00    -0.354 N 
ATOM     42  C   UNL     1      -0.532   8.006   2.731  1.00  0.00     0.074 A 
ATOM     43  C   UNL     1       0.056   7.966   1.409  1.00  0.00     0.031 C 
ATOM     44  C   UNL     1       0.841   2.147   5.045  1.00  0.00     0.029 A 
ATOM     45  C   UNL     1       0.029   3.177   5.681  1.00  0.00     0.049 A 
ATOM     46  H   UNL     1      -0.468   5.053   4.926  1.00  0.00     0.167 HD
ATOM     47  C   UNL     1      -1.220   9.056   3.239  1.00  0.00     0.037 A 
ATOM     48  C   UNL     1      -0.537   3.078   6.897  1.00  0.00     0.037 A 
ATOM     49  C   UNL     1      -1.810   9.071   4.552  1.00  0.00     0.049 A 
ATOM     50  C   UNL     1      -1.302   4.255   7.430  1.00  0.00     0.074 A 
ATOM     51  C   UNL     1      -2.487  10.096   5.188  1.00  0.00     0.029 A 
ATOM     52  N   UNL     1      -1.804   7.993   5.427  1.00  0.00    -0.354 N 
ATOM     53  N   UNL     1      -1.510   5.423   6.873  1.00  0.00    -0.248 NA
ATOM     54  C   UNL     1      -1.898   4.107   8.763  1.00  0.00     0.031 C 
ATOM     55  C   UNL     1      -2.876   9.644   6.456  1.00  0.00     0.029 A 
ATOM     56  C   UNL     1      -2.471   8.326   6.595  1.00  0.00     0.049 A 
ATOM     57  H   UNL     1      -1.386   7.120   5.245  1.00  0.00     0.167 HD
ATOM     58  C   UNL     1      -2.254   6.153   7.786  1.00  0.00     0.074 A 
ATOM     59  C   UNL     1      -2.494   5.280   8.918  1.00  0.00     0.031 C 
ATOM     60  C   UNL     1      -2.686   7.436   7.706  1.00  0.00     0.037 A 
BRANCH  47  61
ATOM     61  C   UNL     1      -1.338  10.281   2.381  1.00  0.00     0.064 A 
ATOM     62  C   UNL     1      -2.182  10.318   1.262  1.00  0.00     0.173 A 
ATOM     63  C   UNL     1      -0.607  11.438   2.691  1.00  0.00     0.173 A 
ATOM     64  F   UNL     1      -2.887   9.231   0.913  1.00  0.00    -0.203 F 
ATOM     65  C   UNL     1      -2.273  11.461   0.471  1.00  0.00     0.198 A 
ATOM     66  C   UNL     1      -0.719  12.587   1.912  1.00  0.00     0.198 A 
ATOM     67  F   UNL     1       0.215  11.456   3.751  1.00  0.00    -0.203 F 
ATOM     68  F   UNL     1      -3.054  11.460  -0.619  1.00  0.00    -0.200 F 
ATOM     69  C   UNL     1      -1.546  12.596   0.799  1.00  0.00     0.200 A 
ATOM     70  F   UNL     1      -0.021  13.685   2.235  1.00  0.00    -0.200 F 
ATOM     71  F   UNL     1      -1.637  13.695   0.038  1.00  0.00    -0.200 F 
ENDBRANCH  47  61
BRANCH  48  72
ATOM     72  C   UNL     1      -0.375   1.832   7.689  1.00  0.00     0.064 A 
ATOM     73  C   UNL     1      -1.462   0.981   7.928  1.00  0.00     0.173 A 
ATOM     74  C   UNL     1       0.875   1.454   8.203  1.00  0.00     0.173 A 
ATOM     75  F   UNL     1      -2.681   1.309   7.475  1.00  0.00    -0.203 F 
ATOM     76  C   UNL     1      -1.307  -0.197   8.657  1.00  0.00     0.198 A 
ATOM     77  C   UNL     1       1.035   0.262   8.905  1.00  0.00     0.198 A 
ATOM     78  F   UNL     1       1.949   2.231   7.998  1.00  0.00    -0.203 F 
ATOM     79  F   UNL     1      -2.370  -0.975   8.902  1.00  0.00    -0.200 F 
ATOM     80  C   UNL     1      -0.057  -0.560   9.137  1.00  0.00     0.200 A 
ATOM     81  F   UNL     1       2.248  -0.094   9.351  1.00  0.00    -0.200 F 
ATOM     82  F   UNL     1       0.093  -1.699   9.827  1.00  0.00    -0.200 F 
ENDBRANCH  48  72
BRANCH  60  83
ATOM     83  C   UNL     1      -3.463   7.952   8.878  1.00  0.00     0.064 A 
ATOM     84  C   UNL     1      -2.828   8.277  10.086  1.00  0.00     0.173 A 
ATOM     85  C   UNL     1      -4.851   8.127   8.790  1.00  0.00     0.173 A 
ATOM     86  F   UNL     1      -1.504   8.107  10.220  1.00  0.00    -0.203 F 
ATOM     87  C   UNL     1      -3.562   8.732  11.177  1.00  0.00     0.198 A 
ATOM     88  C   UNL     1      -5.578   8.605   9.876  1.00  0.00     0.198 A 
ATOM     89  F   UNL     1      -5.499   7.831   7.654  1.00  0.00    -0.203 F 
ATOM     90  F   UNL     1      -2.945   8.988  12.338  1.00  0.00    -0.200 F 
ATOM     91  C   UNL     1      -4.935   8.899  11.070  1.00  0.00     0.200 A 
ATOM     92  F   UNL     1      -6.904   8.770   9.771  1.00  0.00    -0.200 F 
ATOM     93  F   UNL     1      -5.642   9.331  12.123  1.00  0.00    -0.200 F 
ENDBRANCH  60  83
ENDBRANCH  34  35
ENDBRANCH  27  29
ENDBRANCH  26  27
ENDBRANCH  25  26
ENDBRANCH   1  25
TORSDOF 16
