REMARK SMILES C[C@@]([NH3+])(C(=O)Nc1cc(C(=O)OCCOC(=O)c2ccc(-c3c4nc(c(-c5c(F)c(F)c(F)c(F)c5F)c5ccc([nH]5)c(-c5c(F)c(F)c(F)c(F)c5F)c5nc(c(-c6c(F)c(F)c(F)c(F)c6F)c6ccc3[nH]6)C=C5)C=C4)cc2)ccc1F)C(F)(F)F
REMARK SMILES IDX 13 1 12 2 10 3 11 4 9 5 7 6 8 7 83 8 82 9 84 10 81 11 6 12
REMARK SMILES IDX 4 13 5 14 2 16 1 17 3 18 85 22 86 23 87 24 88 25 14 26 15 27
REMARK SMILES IDX 16 28 17 29 18 30 19 31 80 32 20 33 79 34 21 35 22 36 23 37
REMARK SMILES IDX 73 38 24 39 78 40 72 41 74 42 25 43 77 44 71 45 70 46 26 48
REMARK SMILES IDX 58 49 38 50 57 51 39 52 42 53 56 54 75 55 40 56 41 57 55 59
REMARK SMILES IDX 76 60 43 61 27 62 28 63 36 64 29 65 30 66 34 67 37 68 31 69
REMARK SMILES IDX 32 70 35 71 33 72 59 73 60 74 68 75 61 76 62 77 66 78 69 79
REMARK SMILES IDX 63 80 64 81 67 82 65 83 44 84 45 85 53 86 46 87 47 88 51 89
REMARK SMILES IDX 54 90 48 91 49 92 52 93 50 94
REMARK H PARENT 6 15 3 19 3 20 3 21 74 47 42 58
REMARK Flexibility Score: inf
ROOT
ATOM      1  C   UNL     1      -0.067  -8.116   0.397  1.00  0.00     0.275 C 
ENDROOT
BRANCH   1   2
ATOM      2  O   UNL     1       0.231  -6.767   0.808  1.00  0.00    -0.458 OA
BRANCH   2   3
ATOM      3  C   UNL     1       0.191  -5.819  -0.158  1.00  0.00     0.338 C 
ATOM      4  O   UNL     1      -0.002  -6.002  -1.350  1.00  0.00    -0.246 OA
BRANCH   3   5
ATOM      5  C   UNL     1       0.254  -4.465   0.451  1.00  0.00     0.062 A 
ATOM      6  C   UNL     1      -0.400  -2.135   0.311  1.00  0.00     0.078 A 
ATOM      7  C   UNL     1      -0.318  -3.400  -0.263  1.00  0.00     0.045 A 
ATOM      8  C   UNL     1       0.097  -1.932   1.599  1.00  0.00     0.146 A 
ATOM      9  C   UNL     1       0.720  -2.966   2.293  1.00  0.00     0.042 A 
ATOM     10  F   UNL     1      -0.025  -0.734   2.187  1.00  0.00    -0.205 F 
ATOM     11  C   UNL     1       0.793  -4.239   1.724  1.00  0.00     0.019 A 
BRANCH   6  12
ATOM     12  N   UNL     1      -1.138  -1.144  -0.342  1.00  0.00    -0.318 N 
ATOM     13  C   UNL     1      -0.695  -0.103  -1.116  1.00  0.00     0.295 C 
ATOM     14  O   UNL     1      -1.572   0.632  -1.580  1.00  0.00    -0.267 OA
ATOM     15  H   UNL     1      -2.114  -1.201  -0.229  1.00  0.00     0.170 HD
BRANCH  13  16
ATOM     16  C   UNL     1       0.804   0.092  -1.444  1.00  0.00     0.267 C 
ATOM     17  C   UNL     1       1.638   0.390  -0.192  1.00  0.00     0.100 C 
BRANCH  16  18
ATOM     18  N   UNL     1       1.337  -1.167  -2.091  1.00  0.00    -0.337 N 
ATOM     19  H   UNL     1       1.255  -1.946  -1.437  1.00  0.00     0.345 HD
ATOM     20  H   UNL     1       2.317  -1.033  -2.339  1.00  0.00     0.345 HD
ATOM     21  H   UNL     1       0.798  -1.371  -2.932  1.00  0.00     0.345 HD
ENDBRANCH  16  18
BRANCH  16  22
ATOM     22  C   UNL     1       0.893   1.331  -2.379  1.00  0.00     0.453 C 
ATOM     23  F   UNL     1       0.474   2.473  -1.797  1.00  0.00    -0.164 F 
ATOM     24  F   UNL     1       2.194   1.530  -2.738  1.00  0.00    -0.164 F 
ATOM     25  F   UNL     1       0.217   1.149  -3.536  1.00  0.00    -0.164 F 
ENDBRANCH  16  22
ENDBRANCH  13  16
ENDBRANCH   6  12
ENDBRANCH   3   5
ENDBRANCH   2   3
ENDBRANCH   1   2
BRANCH   1  26
ATOM     26  C   UNL     1      -1.466  -8.515   0.866  1.00  0.00     0.275 C 
BRANCH  26  27
ATOM     27  O   UNL     1      -2.464  -7.778   0.133  1.00  0.00    -0.458 OA
BRANCH  27  28
ATOM     28  C   UNL     1      -3.150  -6.848   0.836  1.00  0.00     0.338 C 
ATOM     29  O   UNL     1      -3.058  -6.582   2.020  1.00  0.00    -0.246 OA
BRANCH  28  30
ATOM     30  C   UNL     1      -4.019  -6.101  -0.084  1.00  0.00     0.060 A 
ATOM     31  C   UNL     1      -3.449  -5.088  -0.849  1.00  0.00     0.016 A 
ATOM     32  C   UNL     1      -5.394  -6.318  -0.119  1.00  0.00     0.016 A 
ATOM     33  C   UNL     1      -4.250  -4.246  -1.614  1.00  0.00     0.010 A 
ATOM     34  C   UNL     1      -6.193  -5.523  -0.953  1.00  0.00     0.010 A 
ATOM     35  C   UNL     1      -5.632  -4.467  -1.696  1.00  0.00    -0.014 A 
BRANCH  35  36
ATOM     36  C   UNL     1      -6.477  -3.595  -2.558  1.00  0.00     0.031 A 
ATOM     37  C   UNL     1      -7.578  -2.764  -1.958  1.00  0.00     0.074 A 
ATOM     38  C   UNL     1      -6.244  -3.527  -3.884  1.00  0.00     0.049 A 
ATOM     39  N   UNL     1      -8.507  -2.062  -2.558  1.00  0.00    -0.248 NA
ATOM     40  C   UNL     1      -7.648  -2.720  -0.490  1.00  0.00     0.031 C 
ATOM     41  C   UNL     1      -5.175  -4.234  -4.590  1.00  0.00     0.029 A 
ATOM     42  N   UNL     1      -6.882  -2.821  -4.875  1.00  0.00    -0.354 N 
ATOM     43  C   UNL     1      -9.293  -1.528  -1.546  1.00  0.00     0.074 A 
ATOM     44  C   UNL     1      -8.739  -1.992  -0.292  1.00  0.00     0.031 C 
ATOM     45  C   UNL     1      -5.201  -3.892  -5.886  1.00  0.00     0.029 A 
ATOM     46  C   UNL     1      -6.343  -3.015  -6.123  1.00  0.00     0.049 A 
ATOM     47  H   UNL     1      -7.653  -2.232  -4.706  1.00  0.00     0.167 HD
ATOM     48  C   UNL     1     -10.376  -0.722  -1.657  1.00  0.00     0.037 A 
ATOM     49  C   UNL     1      -6.743  -2.575  -7.333  1.00  0.00     0.037 A 
ATOM     50  C   UNL     1     -10.897  -0.226  -2.905  1.00  0.00     0.049 A 
ATOM     51  C   UNL     1      -7.987  -1.742  -7.437  1.00  0.00     0.074 A 
ATOM     52  C   UNL     1     -11.981   0.609  -3.115  1.00  0.00     0.029 A 
ATOM     53  N   UNL     1     -10.363  -0.509  -4.154  1.00  0.00    -0.354 N 
ATOM     54  N   UNL     1      -8.762  -1.295  -6.480  1.00  0.00    -0.248 NA
ATOM     55  C   UNL     1      -8.432  -1.377  -8.790  1.00  0.00     0.031 C 
ATOM     56  C   UNL     1     -12.129   0.796  -4.493  1.00  0.00     0.029 A 
ATOM     57  C   UNL     1     -11.111   0.115  -5.140  1.00  0.00     0.049 A 
ATOM     58  H   UNL     1      -9.569  -1.069  -4.316  1.00  0.00     0.167 HD
ATOM     59  C   UNL     1      -9.783  -0.598  -7.109  1.00  0.00     0.074 A 
ATOM     60  C   UNL     1      -9.520  -0.663  -8.532  1.00  0.00     0.031 C 
ATOM     61  C   UNL     1     -10.845   0.033  -6.553  1.00  0.00     0.037 A 
BRANCH  48  62
ATOM     62  C   UNL     1     -11.100  -0.342  -0.398  1.00  0.00     0.064 A 
ATOM     63  C   UNL     1     -12.375  -0.865  -0.133  1.00  0.00     0.173 A 
ATOM     64  C   UNL     1     -10.569   0.584   0.511  1.00  0.00     0.173 A 
ATOM     65  F   UNL     1     -12.932  -1.749  -0.975  1.00  0.00    -0.203 F 
ATOM     66  C   UNL     1     -13.095  -0.468   0.990  1.00  0.00     0.198 A 
ATOM     67  C   UNL     1     -11.281   0.960   1.648  1.00  0.00     0.198 A 
ATOM     68  F   UNL     1      -9.349   1.105   0.309  1.00  0.00    -0.203 F 
ATOM     69  F   UNL     1     -14.322  -0.960   1.207  1.00  0.00    -0.200 F 
ATOM     70  C   UNL     1     -12.546   0.441   1.882  1.00  0.00     0.200 A 
ATOM     71  F   UNL     1     -10.740   1.820   2.522  1.00  0.00    -0.200 F 
ATOM     72  F   UNL     1     -13.234   0.813   2.970  1.00  0.00    -0.200 F 
ENDBRANCH  48  62
BRANCH  49  73
ATOM     73  C   UNL     1      -5.964  -2.956  -8.540  1.00  0.00     0.064 A 
ATOM     74  C   UNL     1      -5.919  -4.285  -8.990  1.00  0.00     0.173 A 
ATOM     75  C   UNL     1      -5.206  -2.005  -9.236  1.00  0.00     0.173 A 
ATOM     76  F   UNL     1      -6.630  -5.231  -8.360  1.00  0.00    -0.203 F 
ATOM     77  C   UNL     1      -5.113  -4.654 -10.063  1.00  0.00     0.198 A 
ATOM     78  C   UNL     1      -4.422  -2.372 -10.328  1.00  0.00     0.198 A 
ATOM     79  F   UNL     1      -5.240  -0.718  -8.862  1.00  0.00    -0.203 F 
ATOM     80  F   UNL     1      -5.050  -5.939 -10.439  1.00  0.00    -0.200 F 
ATOM     81  C   UNL     1      -4.366  -3.698 -10.732  1.00  0.00     0.200 A 
ATOM     82  F   UNL     1      -3.720  -1.441 -10.988  1.00  0.00    -0.200 F 
ATOM     83  F   UNL     1      -3.591  -4.053 -11.766  1.00  0.00    -0.200 F 
ENDBRANCH  49  73
BRANCH  61  84
ATOM     84  C   UNL     1     -11.815   0.705  -7.479  1.00  0.00     0.064 A 
ATOM     85  C   UNL     1     -11.874   2.104  -7.558  1.00  0.00     0.173 A 
ATOM     86  C   UNL     1     -12.740  -0.038  -8.226  1.00  0.00     0.173 A 
ATOM     87  F   UNL     1     -11.013   2.857  -6.857  1.00  0.00    -0.203 F 
ATOM     88  C   UNL     1     -12.838   2.736  -8.337  1.00  0.00     0.198 A 
ATOM     89  C   UNL     1     -13.689   0.598  -9.022  1.00  0.00     0.198 A 
ATOM     90  F   UNL     1     -12.713  -1.379  -8.194  1.00  0.00    -0.203 F 
ATOM     91  F   UNL     1     -12.899   4.075  -8.371  1.00  0.00    -0.200 F 
ATOM     92  C   UNL     1     -13.744   1.983  -9.069  1.00  0.00     0.200 A 
ATOM     93  F   UNL     1     -14.550  -0.131  -9.746  1.00  0.00    -0.200 F 
ATOM     94  F   UNL     1     -14.670   2.593  -9.822  1.00  0.00    -0.200 F 
ENDBRANCH  61  84
ENDBRANCH  35  36
ENDBRANCH  28  30
ENDBRANCH  27  28
ENDBRANCH  26  27
ENDBRANCH   1  26
TORSDOF 15
