REMARK SMILES COc1ccc(C(=O)N2CCC[C@H](C(=O)OCCOC(=O)c3ccc(-c4c5nc(c(-c6c(F)c(F)c(F)c(F)c6F)c6ccc([nH]6)c(-c6c(F)c(F)c(F)c(F)c6F)c6nc(c(-c7c(F)c(F)c(F)c(F)c7F)c7ccc4[nH]7)C=C6)C=C5)cc3)C2)cc1
REMARK SMILES IDX 17 1 16 2 14 3 15 4 13 5 9 6 10 7 85 8 11 9 12 10 7 11 8 12
REMARK SMILES IDX 6 13 3 14 4 15 87 16 5 17 86 18 2 19 1 20 18 21 19 22 20 23
REMARK SMILES IDX 21 24 22 25 23 26 84 27 24 28 83 29 25 30 26 31 27 32 77 33
REMARK SMILES IDX 28 34 82 35 76 36 78 37 29 38 81 39 75 40 74 41 30 43 62 44
REMARK SMILES IDX 42 45 61 46 43 47 46 48 60 49 79 50 44 51 45 52 59 54 80 55
REMARK SMILES IDX 47 56 31 57 32 58 40 59 33 60 34 61 38 62 41 63 35 64 36 65
REMARK SMILES IDX 39 66 37 67 63 68 64 69 72 70 65 71 66 72 70 73 73 74 67 75
REMARK SMILES IDX 68 76 71 77 69 78 48 79 49 80 57 81 50 82 51 83 55 84 58 85
REMARK SMILES IDX 52 86 53 87 56 88 54 89
REMARK H PARENT 78 42 46 53
REMARK Flexibility Score: inf
ROOT
ATOM      1  C   UNL     1       2.658  -6.373   7.794  1.00  0.00     0.274 C 
ENDROOT
BRANCH   1   2
ATOM      2  O   UNL     1       3.503  -6.498   6.635  1.00  0.00    -0.462 OA
BRANCH   2   3
ATOM      3  C   UNL     1       4.182  -5.399   6.233  1.00  0.00     0.310 C 
ATOM      4  O   UNL     1       4.132  -4.303   6.783  1.00  0.00    -0.252 OA
BRANCH   3   5
ATOM      5  C   UNL     1       5.033  -5.638   4.996  1.00  0.00     0.119 C 
ATOM      6  N   UNL     1       3.295  -5.821   3.256  1.00  0.00    -0.338 N 
ATOM      7  C   UNL     1       3.652  -7.196   2.927  1.00  0.00     0.120 C 
ATOM      8  C   UNL     1       4.365  -4.983   3.790  1.00  0.00     0.135 C 
ATOM      9  C   UNL     1       4.297  -7.920   4.099  1.00  0.00     0.022 C 
ATOM     10  C   UNL     1       5.424  -7.096   4.723  1.00  0.00     0.019 C 
BRANCH   6  11
ATOM     11  C   UNL     1       1.967  -5.421   3.150  1.00  0.00     0.253 C 
ATOM     12  O   UNL     1       1.028  -6.208   3.241  1.00  0.00    -0.269 OA
BRANCH  11  13
ATOM     13  C   UNL     1       1.667  -4.004   2.805  1.00  0.00     0.040 A 
ATOM     14  C   UNL     1       0.904  -1.467   1.882  1.00  0.00     0.118 A 
ATOM     15  C   UNL     1       0.100  -2.159   2.791  1.00  0.00     0.047 A 
ATOM     16  C   UNL     1       2.113  -2.025   1.468  1.00  0.00     0.047 A 
ATOM     17  C   UNL     1       0.471  -3.429   3.245  1.00  0.00     0.017 A 
ATOM     18  C   UNL     1       2.484  -3.297   1.912  1.00  0.00     0.017 A 
BRANCH  14  19
ATOM     19  O   UNL     1       0.415  -0.261   1.459  1.00  0.00    -0.497 OA
ATOM     20  C   UNL     1       0.879   0.171   0.182  1.00  0.00     0.278 C 
ENDBRANCH  14  19
ENDBRANCH  11  13
ENDBRANCH   6  11
ENDBRANCH   3   5
ENDBRANCH   2   3
ENDBRANCH   1   2
BRANCH   1  21
ATOM     21  C   UNL     1       3.299  -7.047   9.008  1.00  0.00     0.275 C 
BRANCH  21  22
ATOM     22  O   UNL     1       4.475  -6.333   9.432  1.00  0.00    -0.458 OA
BRANCH  22  23
ATOM     23  C   UNL     1       5.641  -6.796   8.926  1.00  0.00     0.338 C 
ATOM     24  O   UNL     1       5.816  -7.774   8.223  1.00  0.00    -0.246 OA
BRANCH  23  25
ATOM     25  C   UNL     1       6.713  -5.841   9.233  1.00  0.00     0.060 A 
ATOM     26  C   UNL     1       7.273  -5.124   8.174  1.00  0.00     0.016 A 
ATOM     27  C   UNL     1       7.222  -5.719  10.525  1.00  0.00     0.016 A 
ATOM     28  C   UNL     1       8.354  -4.279   8.395  1.00  0.00     0.010 A 
ATOM     29  C   UNL     1       8.311  -4.871  10.748  1.00  0.00     0.010 A 
ATOM     30  C   UNL     1       8.890  -4.159   9.682  1.00  0.00    -0.014 A 
BRANCH  30  31
ATOM     31  C   UNL     1      10.107  -3.344   9.892  1.00  0.00     0.031 A 
ATOM     32  C   UNL     1      11.427  -4.028  10.091  1.00  0.00     0.074 A 
ATOM     33  C   UNL     1      10.029  -2.002   9.876  1.00  0.00     0.049 A 
ATOM     34  N   UNL     1      12.591  -3.513  10.392  1.00  0.00    -0.248 NA
ATOM     35  C   UNL     1      11.437  -5.491   9.929  1.00  0.00     0.031 C 
ATOM     36  C   UNL     1       8.811  -1.231   9.632  1.00  0.00     0.029 A 
ATOM     37  N   UNL     1      10.997  -1.051  10.075  1.00  0.00    -0.354 N 
ATOM     38  C   UNL     1      13.465  -4.587  10.483  1.00  0.00     0.074 A 
ATOM     39  C   UNL     1      12.698  -5.784  10.211  1.00  0.00     0.031 C 
ATOM     40  C   UNL     1       9.104   0.078   9.700  1.00  0.00     0.029 A 
ATOM     41  C   UNL     1      10.516   0.234  10.039  1.00  0.00     0.049 A 
ATOM     42  H   UNL     1      11.945  -1.269  10.228  1.00  0.00     0.167 HD
ATOM     43  C   UNL     1      14.788  -4.571  10.769  1.00  0.00     0.037 A 
ATOM     44  C   UNL     1      11.140   1.400  10.286  1.00  0.00     0.037 A 
ATOM     45  C   UNL     1      15.547  -3.374  11.019  1.00  0.00     0.049 A 
ATOM     46  C   UNL     1      12.600   1.387  10.651  1.00  0.00     0.074 A 
ATOM     47  C   UNL     1      16.893  -3.249  11.315  1.00  0.00     0.029 A 
ATOM     48  N   UNL     1      15.021  -2.090  10.998  1.00  0.00    -0.354 N 
ATOM     49  N   UNL     1      13.416   0.367  10.759  1.00  0.00    -0.248 NA
ATOM     50  C   UNL     1      13.222   2.687  10.938  1.00  0.00     0.031 C 
ATOM     51  C   UNL     1      17.174  -1.891  11.506  1.00  0.00     0.029 A 
ATOM     52  C   UNL     1      16.012  -1.167  11.289  1.00  0.00     0.049 A 
ATOM     53  H   UNL     1      14.081  -1.868  10.803  1.00  0.00     0.167 HD
ATOM     54  C   UNL     1      14.650   0.900  11.107  1.00  0.00     0.074 A 
ATOM     55  C   UNL     1      14.478   2.337  11.178  1.00  0.00     0.031 C 
ATOM     56  C   UNL     1      15.819   0.259  11.348  1.00  0.00     0.037 A 
BRANCH  43  57
ATOM     57  C   UNL     1      15.491  -5.891  10.862  1.00  0.00     0.064 A 
ATOM     58  C   UNL     1      15.798  -6.647   9.722  1.00  0.00     0.173 A 
ATOM     59  C   UNL     1      15.883  -6.396  12.112  1.00  0.00     0.173 A 
ATOM     60  F   UNL     1      15.428  -6.216   8.507  1.00  0.00    -0.203 F 
ATOM     61  C   UNL     1      16.455  -7.870   9.831  1.00  0.00     0.198 A 
ATOM     62  C   UNL     1      16.561  -7.607  12.214  1.00  0.00     0.198 A 
ATOM     63  F   UNL     1      15.613  -5.710  13.232  1.00  0.00    -0.203 F 
ATOM     64  F   UNL     1      16.703  -8.596   8.731  1.00  0.00    -0.200 F 
ATOM     65  C   UNL     1      16.841  -8.346  11.075  1.00  0.00     0.200 A 
ATOM     66  F   UNL     1      16.940  -8.062  13.417  1.00  0.00    -0.200 F 
ATOM     67  F   UNL     1      17.476  -9.522  11.177  1.00  0.00    -0.200 F 
ENDBRANCH  43  57
BRANCH  44  68
ATOM     68  C   UNL     1      10.380   2.674  10.220  1.00  0.00     0.064 A 
ATOM     69  C   UNL     1      10.614   3.603   9.198  1.00  0.00     0.173 A 
ATOM     70  C   UNL     1       9.404   2.986  11.178  1.00  0.00     0.173 A 
ATOM     71  F   UNL     1      11.556   3.359   8.275  1.00  0.00    -0.203 F 
ATOM     72  C   UNL     1       9.908   4.803   9.143  1.00  0.00     0.198 A 
ATOM     73  C   UNL     1       8.680   4.174  11.106  1.00  0.00     0.198 A 
ATOM     74  F   UNL     1       9.145   2.131  12.178  1.00  0.00    -0.203 F 
ATOM     75  F   UNL     1      10.178   5.692   8.177  1.00  0.00    -0.200 F 
ATOM     76  C   UNL     1       8.937   5.084  10.092  1.00  0.00     0.200 A 
ATOM     77  F   UNL     1       7.737   4.438  12.020  1.00  0.00    -0.200 F 
ATOM     78  F   UNL     1       8.255   6.236  10.035  1.00  0.00    -0.200 F 
ENDBRANCH  44  68
BRANCH  56  79
ATOM     79  C   UNL     1      17.009   1.108  11.679  1.00  0.00     0.064 A 
ATOM     80  C   UNL     1      17.149   1.715  12.935  1.00  0.00     0.173 A 
ATOM     81  C   UNL     1      18.038   1.284  10.742  1.00  0.00     0.173 A 
ATOM     82  F   UNL     1      16.183   1.588  13.857  1.00  0.00    -0.203 F 
ATOM     83  C   UNL     1      18.269   2.485  13.235  1.00  0.00     0.198 A 
ATOM     84  C   UNL     1      19.168   2.034  11.054  1.00  0.00     0.198 A 
ATOM     85  F   UNL     1      17.952   0.718   9.529  1.00  0.00    -0.203 F 
ATOM     86  F   UNL     1      18.365   3.090  14.427  1.00  0.00    -0.200 F 
ATOM     87  C   UNL     1      19.280   2.639  12.297  1.00  0.00     0.200 A 
ATOM     88  F   UNL     1      20.148   2.174  10.151  1.00  0.00    -0.200 F 
ATOM     89  F   UNL     1      20.360   3.377  12.589  1.00  0.00    -0.200 F 
ENDBRANCH  56  79
ENDBRANCH  30  31
ENDBRANCH  23  25
ENDBRANCH  22  23
ENDBRANCH  21  22
ENDBRANCH   1  21
TORSDOF 14
