REMARK SMILES CC(C)C(=O)Nc1ccc2c([C@H](C(=O)OCCOC(=O)c3ccc(-c4c5nc(c(-c6c(F)c(F)c(F)c(F)c6F)c6ccc([nH]6)c(-c6c(F)c(F)c(F)c(F)c6F)c6nc(c(-c7c(F)c(F)c(F)c(F)c7F)c7ccc4[nH]7)C=C6)C=C5)cc3)[NH+]3CC[NH+](CC(=O)N(C)C)CC3)c[nH]c2c1
REMARK SMILES IDX 16 1 15 2 13 3 14 4 12 5 11 6 7 7 8 8 99 9 9 10 98 11 10 12
REMARK SMILES IDX 97 13 96 14 6 16 4 17 5 18 2 20 1 21 3 22 84 23 85 24 95 25
REMARK SMILES IDX 86 27 94 28 87 29 88 31 89 32 90 33 91 34 92 35 93 36 17 37
REMARK SMILES IDX 18 38 19 39 20 40 21 41 22 42 83 43 23 44 82 45 24 46 25 47
REMARK SMILES IDX 26 48 76 49 27 50 81 51 75 52 77 53 28 54 80 55 74 56 73 57
REMARK SMILES IDX 29 59 61 60 41 61 60 62 42 63 45 64 59 65 78 66 43 67 44 68
REMARK SMILES IDX 58 70 79 71 46 72 30 73 31 74 39 75 32 76 33 77 37 78 40 79
REMARK SMILES IDX 34 80 35 81 38 82 36 83 62 84 63 85 71 86 64 87 65 88 69 89
REMARK SMILES IDX 72 90 66 91 67 92 70 93 68 94 47 95 48 96 56 97 49 98 50 99
REMARK SMILES IDX 54 100 57 101 51 102 52 103 55 104 53 105
REMARK H PARENT 97 15 6 19 84 26 87 30 77 58 45 69
REMARK Flexibility Score: inf
ROOT
ATOM      1  C   UNL     1      -0.554   4.670   0.320  1.00  0.00     0.274 C 
ENDROOT
BRANCH   1   2
ATOM      2  O   UNL     1       0.684   4.777  -0.415  1.00  0.00    -0.457 OA
BRANCH   2   3
ATOM      3  C   UNL     1       0.546   5.224  -1.697  1.00  0.00     0.370 C 
ATOM      4  O   UNL     1      -0.566   5.409  -2.192  1.00  0.00    -0.245 OA
BRANCH   3   5
ATOM      5  C   UNL     1       1.876   5.339  -2.498  1.00  0.00     0.328 C 
BRANCH   5   6
ATOM      6  C   UNL     1       1.882   6.502  -3.514  1.00  0.00     0.046 A 
ATOM      7  C   UNL     1       4.699   7.978  -6.263  1.00  0.00     0.043 A 
ATOM      8  C   UNL     1       5.219   7.183  -5.257  1.00  0.00     0.027 A 
ATOM      9  C   UNL     1       3.402   8.490  -6.172  1.00  0.00     0.052 A 
ATOM     10  C   UNL     1       4.383   6.623  -4.301  1.00  0.00     0.013 A 
ATOM     11  C   UNL     1       2.578   7.942  -5.176  1.00  0.00     0.048 A 
ATOM     12  C   UNL     1       3.015   6.958  -4.287  1.00  0.00     0.009 A 
ATOM     13  N   UNL     1       1.258   8.173  -4.888  1.00  0.00    -0.361 N 
ATOM     14  C   UNL     1       0.831   7.318  -3.906  1.00  0.00     0.094 A 
ATOM     15  H   UNL     1       0.697   8.856  -5.323  1.00  0.00     0.166 HD
BRANCH   7  16
ATOM     16  N   UNL     1       5.450   8.232  -7.411  1.00  0.00    -0.326 N 
ATOM     17  C   UNL     1       6.170   7.344  -8.167  1.00  0.00     0.226 C 
ATOM     18  O   UNL     1       6.894   7.811  -9.055  1.00  0.00    -0.274 OA
ATOM     19  H   UNL     1       5.465   9.167  -7.717  1.00  0.00     0.169 HD
BRANCH  17  20
ATOM     20  C   UNL     1       6.035   5.810  -8.034  1.00  0.00     0.072 C 
ATOM     21  C   UNL     1       6.895   5.162  -6.953  1.00  0.00     0.018 C 
ATOM     22  C   UNL     1       4.596   5.293  -8.026  1.00  0.00     0.018 C 
ENDBRANCH  17  20
ENDBRANCH   7  16
ENDBRANCH   5   6
BRANCH   5  23
ATOM     23  N   UNL     1       3.155   5.330  -1.752  1.00  0.00    -0.310 N 
ATOM     24  C   UNL     1       3.581   6.559  -1.105  1.00  0.00     0.325 C 
ATOM     25  C   UNL     1       3.523   4.148  -0.978  1.00  0.00     0.325 C 
ATOM     26  H   UNL     1       3.724   5.253  -2.595  1.00  0.00     0.349 HD
ATOM     27  C   UNL     1       3.084   6.654   0.320  1.00  0.00     0.325 C 
ATOM     28  C   UNL     1       3.397   4.230   0.571  1.00  0.00     0.325 C 
ATOM     29  N   UNL     1       3.425   5.545   1.204  1.00  0.00    -0.318 N 
ATOM     30  H   UNL     1       2.644   5.463   1.855  1.00  0.00     0.348 HD
BRANCH  29  31
ATOM     31  C   UNL     1       4.550   5.829   2.096  1.00  0.00     0.364 C 
BRANCH  31  32
ATOM     32  C   UNL     1       5.817   6.265   1.354  1.00  0.00     0.277 C 
ATOM     33  O   UNL     1       5.965   7.454   1.048  1.00  0.00    -0.268 OA
ATOM     34  N   UNL     1       6.734   5.302   0.974  1.00  0.00    -0.344 N 
ATOM     35  C   UNL     1       6.854   3.980   1.560  1.00  0.00     0.146 C 
ATOM     36  C   UNL     1       7.732   5.662  -0.017  1.00  0.00     0.146 C 
ENDBRANCH  31  32
ENDBRANCH  29  31
ENDBRANCH   5  23
ENDBRANCH   3   5
ENDBRANCH   2   3
ENDBRANCH   1   2
BRANCH   1  37
ATOM     37  C   UNL     1      -0.302   4.441   1.818  1.00  0.00     0.275 C 
BRANCH  37  38
ATOM     38  O   UNL     1       0.471   5.481   2.448  1.00  0.00    -0.458 OA
BRANCH  38  39
ATOM     39  C   UNL     1      -0.122   6.690   2.578  1.00  0.00     0.338 C 
ATOM     40  O   UNL     1      -1.264   6.985   2.273  1.00  0.00    -0.246 OA
BRANCH  39  41
ATOM     41  C   UNL     1       0.919   7.670   2.951  1.00  0.00     0.060 A 
ATOM     42  C   UNL     1       1.302   8.573   1.972  1.00  0.00     0.016 A 
ATOM     43  C   UNL     1       1.589   7.652   4.177  1.00  0.00     0.016 A 
ATOM     44  C   UNL     1       2.450   9.343   2.167  1.00  0.00     0.010 A 
ATOM     45  C   UNL     1       2.647   8.557   4.418  1.00  0.00     0.010 A 
ATOM     46  C   UNL     1       3.120   9.408   3.405  1.00  0.00    -0.014 A 
BRANCH  46  47
ATOM     47  C   UNL     1       4.256  10.387   3.588  1.00  0.00     0.031 A 
ATOM     48  C   UNL     1       5.585  10.017   4.220  1.00  0.00     0.074 A 
ATOM     49  C   UNL     1       4.128  11.650   3.117  1.00  0.00     0.049 A 
ATOM     50  N   UNL     1       6.581  10.800   4.578  1.00  0.00    -0.248 NA
ATOM     51  C   UNL     1       5.842   8.597   4.488  1.00  0.00     0.031 C 
ATOM     52  C   UNL     1       2.947  12.184   2.435  1.00  0.00     0.029 A 
ATOM     53  N   UNL     1       5.007  12.710   3.101  1.00  0.00    -0.354 N 
ATOM     54  C   UNL     1       7.557   9.973   5.127  1.00  0.00     0.074 A 
ATOM     55  C   UNL     1       7.045   8.622   5.049  1.00  0.00     0.031 C 
ATOM     56  C   UNL     1       3.219  13.399   1.952  1.00  0.00     0.029 A 
ATOM     57  C   UNL     1       4.505  13.828   2.478  1.00  0.00     0.049 A 
ATOM     58  H   UNL     1       5.907  12.671   3.498  1.00  0.00     0.167 HD
ATOM     59  C   UNL     1       8.757  10.307   5.668  1.00  0.00     0.037 A 
ATOM     60  C   UNL     1       4.950  15.096   2.407  1.00  0.00     0.037 A 
ATOM     61  C   UNL     1       9.279  11.651   5.747  1.00  0.00     0.049 A 
ATOM     62  C   UNL     1       6.202  15.471   3.131  1.00  0.00     0.074 A 
ATOM     63  C   UNL     1      10.460  12.089   6.326  1.00  0.00     0.029 A 
ATOM     64  N   UNL     1       8.658  12.774   5.223  1.00  0.00    -0.354 N 
ATOM     65  N   UNL     1       7.040  14.703   3.779  1.00  0.00    -0.248 NA
ATOM     66  C   UNL     1       6.539  16.900   3.165  1.00  0.00     0.031 C 
ATOM     67  C   UNL     1      10.527  13.482   6.198  1.00  0.00     0.029 A 
ATOM     68  C   UNL     1       9.415  13.905   5.491  1.00  0.00     0.049 A 
ATOM     69  H   UNL     1       7.804  12.769   4.733  1.00  0.00     0.167 HD
ATOM     70  C   UNL     1       7.998  15.551   4.308  1.00  0.00     0.074 A 
ATOM     71  C   UNL     1       7.654  16.892   3.881  1.00  0.00     0.031 C 
ATOM     72  C   UNL     1       9.061  15.241   5.088  1.00  0.00     0.037 A 
BRANCH  59  73
ATOM     73  C   UNL     1       9.581   9.214   6.292  1.00  0.00     0.064 A 
ATOM     74  C   UNL     1      10.312   8.296   5.525  1.00  0.00     0.173 A 
ATOM     75  C   UNL     1       9.701   9.140   7.690  1.00  0.00     0.173 A 
ATOM     76  F   UNL     1      10.228   8.314   4.187  1.00  0.00    -0.203 F 
ATOM     77  C   UNL     1      11.124   7.340   6.135  1.00  0.00     0.198 A 
ATOM     78  C   UNL     1      10.531   8.200   8.295  1.00  0.00     0.198 A 
ATOM     79  F   UNL     1       9.029  10.000   8.472  1.00  0.00    -0.203 F 
ATOM     80  F   UNL     1      11.794   6.454   5.385  1.00  0.00    -0.200 F 
ATOM     81  C   UNL     1      11.240   7.299   7.517  1.00  0.00     0.200 A 
ATOM     82  F   UNL     1      10.650   8.172   9.630  1.00  0.00    -0.200 F 
ATOM     83  F   UNL     1      12.032   6.387   8.100  1.00  0.00    -0.200 F 
ENDBRANCH  59  73
BRANCH  60  84
ATOM     84  C   UNL     1       4.108  16.120   1.732  1.00  0.00     0.064 A 
ATOM     85  C   UNL     1       4.518  16.733   0.542  1.00  0.00     0.173 A 
ATOM     86  C   UNL     1       2.838  16.452   2.236  1.00  0.00     0.173 A 
ATOM     87  F   UNL     1       5.737  16.481   0.043  1.00  0.00    -0.203 F 
ATOM     88  C   UNL     1       3.678  17.617  -0.133  1.00  0.00     0.198 A 
ATOM     89  C   UNL     1       1.984  17.298   1.537  1.00  0.00     0.198 A 
ATOM     90  F   UNL     1       2.403  15.901   3.379  1.00  0.00    -0.203 F 
ATOM     91  F   UNL     1       4.097  18.208  -1.259  1.00  0.00    -0.200 F 
ATOM     92  C   UNL     1       2.405  17.881   0.353  1.00  0.00     0.200 A 
ATOM     93  F   UNL     1       0.747  17.526   1.999  1.00  0.00    -0.200 F 
ATOM     94  F   UNL     1       1.583  18.698  -0.320  1.00  0.00    -0.200 F 
ENDBRANCH  60  84
BRANCH  72  95
ATOM     95  C   UNL     1       9.937  16.379   5.512  1.00  0.00     0.064 A 
ATOM     96  C   UNL     1       9.520  17.301   6.484  1.00  0.00     0.173 A 
ATOM     97  C   UNL     1      11.196  16.565   4.924  1.00  0.00     0.173 A 
ATOM     98  F   UNL     1       8.314  17.177   7.059  1.00  0.00    -0.203 F 
ATOM     99  C   UNL     1      10.319  18.389   6.826  1.00  0.00     0.198 A 
ATOM    100  C   UNL     1      12.003  17.640   5.287  1.00  0.00     0.198 A 
ATOM    101  F   UNL     1      11.640  15.710   3.991  1.00  0.00    -0.203 F 
ATOM    102  F   UNL     1       9.876  19.290   7.713  1.00  0.00    -0.200 F 
ATOM    103  C   UNL     1      11.559  18.556   6.229  1.00  0.00     0.200 A 
ATOM    104  F   UNL     1      13.204  17.798   4.713  1.00  0.00    -0.200 F 
ATOM    105  F   UNL     1      12.322  19.610   6.551  1.00  0.00    -0.200 F 
ENDBRANCH  72  95
ENDBRANCH  46  47
ENDBRANCH  39  41
ENDBRANCH  38  39
ENDBRANCH  37  38
ENDBRANCH   1  37
TORSDOF 17
