REMARK SMILES O=C(OCCOC(=O)c1c(C(=O)N2CCc3ccccc32)cccc1[N+](=O)[O-])c1ccc(-c2c3nc(c(-c4c(F)c(F)c(F)c(F)c4F)c4ccc([nH]4)c(-c4c(F)c(F)c(F)c(F)c4F)c4nc(c(-c5c(F)c(F)c(F)c(F)c5F)c5ccc2[nH]5)C=C4)C=C3)cc1
REMARK SMILES IDX 4 1 3 2 2 3 1 4 29 5 30 6 91 7 31 8 90 9 32 10 33 11 34 12
REMARK SMILES IDX 84 13 35 14 89 15 83 16 85 17 36 18 88 19 82 20 81 21 37 23
REMARK SMILES IDX 69 24 49 25 68 26 50 27 53 28 67 29 86 30 51 31 52 32 66 34
REMARK SMILES IDX 87 35 54 36 38 37 39 38 47 39 40 40 41 41 45 42 48 43 42 44
REMARK SMILES IDX 43 45 46 46 44 47 70 48 71 49 79 50 72 51 73 52 77 53 80 54
REMARK SMILES IDX 74 55 75 56 78 57 76 58 55 59 56 60 64 61 57 62 58 63 62 64
REMARK SMILES IDX 65 65 59 66 60 67 63 68 61 69 5 70 6 71 7 72 8 73 9 74 10 75
REMARK SMILES IDX 25 76 22 77 24 78 23 79 11 80 12 81 13 82 14 83 21 84 15 85
REMARK SMILES IDX 16 86 20 87 17 88 19 89 18 90 26 91 27 92 28 93
REMARK H PARENT 85 22 53 33
REMARK Flexibility Score: inf
ROOT
ATOM      1  C   UNL     1       4.812   0.585   1.720  1.00  0.00     0.275 C 
ENDROOT
BRANCH   1   2
ATOM      2  O   UNL     1       5.000   1.082   0.382  1.00  0.00    -0.458 OA
BRANCH   2   3
ATOM      3  C   UNL     1       4.064   0.803  -0.538  1.00  0.00     0.338 C 
ATOM      4  O   UNL     1       2.954   1.312  -0.584  1.00  0.00    -0.246 OA
BRANCH   3   5
ATOM      5  C   UNL     1       4.547  -0.269  -1.448  1.00  0.00     0.060 A 
ATOM      6  C   UNL     1       5.638  -1.072  -1.084  1.00  0.00     0.016 A 
ATOM      7  C   UNL     1       3.797  -0.589  -2.580  1.00  0.00     0.016 A 
ATOM      8  C   UNL     1       5.965  -2.195  -1.827  1.00  0.00     0.010 A 
ATOM      9  C   UNL     1       4.098  -1.740  -3.307  1.00  0.00     0.010 A 
ATOM     10  C   UNL     1       5.193  -2.539  -2.936  1.00  0.00    -0.014 A 
BRANCH  10  11
ATOM     11  C   UNL     1       5.637  -3.652  -3.798  1.00  0.00     0.031 A 
ATOM     12  C   UNL     1       6.242  -3.305  -5.120  1.00  0.00     0.074 A 
ATOM     13  C   UNL     1       5.551  -4.928  -3.380  1.00  0.00     0.049 A 
ATOM     14  N   UNL     1       6.725  -4.101  -6.033  1.00  0.00    -0.248 NA
ATOM     15  C   UNL     1       6.356  -1.872  -5.445  1.00  0.00     0.031 C 
ATOM     16  C   UNL     1       5.105  -5.352  -2.057  1.00  0.00     0.029 A 
ATOM     17  N   UNL     1       5.814  -6.108  -4.024  1.00  0.00    -0.354 N 
ATOM     18  C   UNL     1       7.236  -3.266  -7.013  1.00  0.00     0.074 A 
ATOM     19  C   UNL     1       6.928  -1.907  -6.637  1.00  0.00     0.031 C 
ATOM     20  C   UNL     1       5.013  -6.691  -2.019  1.00  0.00     0.029 A 
ATOM     21  C   UNL     1       5.429  -7.219  -3.309  1.00  0.00     0.049 A 
ATOM     22  H   UNL     1       6.237  -6.157  -4.911  1.00  0.00     0.167 HD
ATOM     23  C   UNL     1       7.951  -3.615  -8.104  1.00  0.00     0.037 A 
ATOM     24  C   UNL     1       5.414  -8.515  -3.670  1.00  0.00     0.037 A 
ATOM     25  C   UNL     1       8.254  -4.975  -8.444  1.00  0.00     0.049 A 
ATOM     26  C   UNL     1       6.063  -8.875  -4.978  1.00  0.00     0.074 A 
ATOM     27  C   UNL     1       9.014  -5.453  -9.493  1.00  0.00     0.029 A 
ATOM     28  N   UNL     1       7.792  -6.079  -7.739  1.00  0.00    -0.354 N 
ATOM     29  N   UNL     1       6.626  -8.081  -5.858  1.00  0.00    -0.248 NA
ATOM     30  C   UNL     1       6.132 -10.300  -5.322  1.00  0.00     0.031 C 
ATOM     31  C   UNL     1       8.949  -6.849  -9.466  1.00  0.00     0.029 A 
ATOM     32  C   UNL     1       8.197  -7.242  -8.368  1.00  0.00     0.049 A 
ATOM     33  H   UNL     1       7.255  -6.040  -6.915  1.00  0.00     0.167 HD
ATOM     34  C   UNL     1       7.165  -8.908  -6.829  1.00  0.00     0.074 A 
ATOM     35  C   UNL     1       6.859 -10.268  -6.430  1.00  0.00     0.031 C 
ATOM     36  C   UNL     1       7.867  -8.578  -7.941  1.00  0.00     0.037 A 
BRANCH  23  37
ATOM     37  C   UNL     1       8.432  -2.512  -8.993  1.00  0.00     0.064 A 
ATOM     38  C   UNL     1       9.456  -1.636  -8.597  1.00  0.00     0.173 A 
ATOM     39  C   UNL     1       7.865  -2.332 -10.261  1.00  0.00     0.173 A 
ATOM     40  F   UNL     1      10.009  -1.750  -7.380  1.00  0.00    -0.203 F 
ATOM     41  C   UNL     1       9.881  -0.609  -9.434  1.00  0.00     0.198 A 
ATOM     42  C   UNL     1       8.311  -1.321 -11.106  1.00  0.00     0.198 A 
ATOM     43  F   UNL     1       6.875  -3.135 -10.678  1.00  0.00    -0.203 F 
ATOM     44  F   UNL     1      10.827   0.245  -9.018  1.00  0.00    -0.200 F 
ATOM     45  C   UNL     1       9.315  -0.458 -10.691  1.00  0.00     0.200 A 
ATOM     46  F   UNL     1       7.764  -1.176 -12.321  1.00  0.00    -0.200 F 
ATOM     47  F   UNL     1       9.729   0.528 -11.499  1.00  0.00    -0.200 F 
ENDBRANCH  23  37
BRANCH  24  48
ATOM     48  C   UNL     1       4.777  -9.542  -2.802  1.00  0.00     0.064 A 
ATOM     49  C   UNL     1       5.522 -10.553  -2.182  1.00  0.00     0.173 A 
ATOM     50  C   UNL     1       3.384  -9.559  -2.618  1.00  0.00     0.173 A 
ATOM     51  F   UNL     1       6.854 -10.589  -2.332  1.00  0.00    -0.203 F 
ATOM     52  C   UNL     1       4.899 -11.566  -1.451  1.00  0.00     0.198 A 
ATOM     53  C   UNL     1       2.764 -10.558  -1.869  1.00  0.00     0.198 A 
ATOM     54  F   UNL     1       2.621  -8.607  -3.176  1.00  0.00    -0.203 F 
ATOM     55  F   UNL     1       5.633 -12.555  -0.923  1.00  0.00    -0.200 F 
ATOM     56  C   UNL     1       3.521 -11.569  -1.298  1.00  0.00     0.200 A 
ATOM     57  F   UNL     1       1.433 -10.551  -1.718  1.00  0.00    -0.200 F 
ATOM     58  F   UNL     1       2.922 -12.554  -0.614  1.00  0.00    -0.200 F 
ENDBRANCH  24  48
BRANCH  36  59
ATOM     59  C   UNL     1       8.355  -9.707  -8.794  1.00  0.00     0.064 A 
ATOM     60  C   UNL     1       7.472 -10.460  -9.579  1.00  0.00     0.173 A 
ATOM     61  C   UNL     1       9.726  -9.993  -8.875  1.00  0.00     0.173 A 
ATOM     62  F   UNL     1       6.151 -10.232  -9.518  1.00  0.00    -0.203 F 
ATOM     63  C   UNL     1       7.944 -11.472 -10.407  1.00  0.00     0.198 A 
ATOM     64  C   UNL     1      10.197 -10.982  -9.730  1.00  0.00     0.198 A 
ATOM     65  F   UNL     1      10.608  -9.294  -8.146  1.00  0.00    -0.203 F 
ATOM     66  F   UNL     1       7.080 -12.209 -11.118  1.00  0.00    -0.200 F 
ATOM     67  C   UNL     1       9.306 -11.725 -10.491  1.00  0.00     0.200 A 
ATOM     68  F   UNL     1      11.514 -11.212  -9.825  1.00  0.00    -0.200 F 
ATOM     69  F   UNL     1       9.759 -12.687 -11.304  1.00  0.00    -0.200 F 
ENDBRANCH  36  59
ENDBRANCH  10  11
ENDBRANCH   3   5
ENDBRANCH   2   3
ENDBRANCH   1   2
BRANCH   1  70
ATOM     70  C   UNL     1       3.782  -0.530   2.022  1.00  0.00     0.275 C 
BRANCH  70  71
ATOM     71  O   UNL     1       3.325  -1.262   0.872  1.00  0.00    -0.458 OA
BRANCH  71  72
ATOM     72  C   UNL     1       2.092  -1.817   0.967  1.00  0.00     0.346 C 
ATOM     73  O   UNL     1       1.367  -1.809   1.944  1.00  0.00    -0.246 OA
BRANCH  72  74
ATOM     74  C   UNL     1       1.835  -2.661  -0.222  1.00  0.00     0.150 A 
ATOM     75  C   UNL     1       0.980  -2.262  -1.283  1.00  0.00     0.061 A 
ATOM     76  C   UNL     1       2.296  -3.988  -0.194  1.00  0.00     0.284 A 
ATOM     77  C   UNL     1       0.599  -3.216  -2.237  1.00  0.00     0.015 A 
ATOM     78  C   UNL     1       1.962  -4.901  -1.206  1.00  0.00     0.086 A 
ATOM     79  C   UNL     1       1.129  -4.506  -2.240  1.00  0.00     0.008 A 
BRANCH  75  80
ATOM     80  C   UNL     1       0.243  -0.979  -1.228  1.00  0.00     0.259 C 
ATOM     81  O   UNL     1      -0.417  -0.819  -0.199  1.00  0.00    -0.269 OA
BRANCH  80  82
ATOM     82  N   UNL     1       0.358   0.041  -2.172  1.00  0.00    -0.308 N 
ATOM     83  C   UNL     1       0.111   1.416  -1.681  1.00  0.00     0.131 C 
ATOM     84  C   UNL     1       0.293   0.121  -3.591  1.00  0.00     0.047 A 
ATOM     85  C   UNL     1       0.556   2.357  -2.789  1.00  0.00     0.059 C 
ATOM     86  C   UNL     1       0.258   1.480  -3.964  1.00  0.00    -0.022 A 
ATOM     87  C   UNL     1       0.114  -0.828  -4.578  1.00  0.00     0.026 A 
ATOM     88  C   UNL     1      -0.050   1.908  -5.250  1.00  0.00     0.006 A 
ATOM     89  C   UNL     1      -0.223  -0.412  -5.880  1.00  0.00     0.002 A 
ATOM     90  C   UNL     1      -0.332   0.944  -6.207  1.00  0.00     0.000 A 
ENDBRANCH  80  82
ENDBRANCH  75  80
BRANCH  76  91
ATOM     91  N   UNL     1       3.102  -4.502   0.907  1.00  0.00     0.063 N 
ATOM     92  O   UNL     1       2.776  -5.602   1.375  1.00  0.00    -0.258 OA
ATOM     93  O   UNL     1       4.117  -3.872   1.225  1.00  0.00    -0.258 OA
ENDBRANCH  76  91
ENDBRANCH  72  74
ENDBRANCH  71  72
ENDBRANCH  70  71
ENDBRANCH   1  70
TORSDOF 14
