REMARK SMILES O=C(CN1C(=O)/C(=C2/Sc3ccccc3N2CCCS(=O)(=O)[O-])SC1=S)OCCOC(=O)c1ccc(-c2c3nc(c(-c4c(F)c(F)c(F)c(F)c4F)c4ccc([nH]4)c(-c4c(F)c(F)c(F)c(F)c4F)c4nc(c(-c5c(F)c(F)c(F)c(F)c5F)c5ccc2[nH]5)C=C4)C=C3)cc1
REMARK SMILES IDX 27 1 2 2 1 3 3 4 4 5 5 6 25 7 6 8 7 9 24 10 26 11 8 12 9 13
REMARK SMILES IDX 16 14 10 15 15 16 11 17 14 18 12 19 13 20 17 21 18 22 19 23
REMARK SMILES IDX 20 24 21 25 22 26 23 27 28 28 29 29 30 30 31 31 32 32 33 33
REMARK SMILES IDX 34 34 95 35 35 36 94 37 36 38 37 39 38 40 88 41 39 42 93 43
REMARK SMILES IDX 87 44 89 45 40 46 92 47 86 48 85 49 41 51 73 52 53 53 72 54
REMARK SMILES IDX 54 55 57 56 71 57 90 58 55 59 56 60 70 62 91 63 58 64 42 65
REMARK SMILES IDX 43 66 51 67 44 68 45 69 49 70 52 71 46 72 47 73 50 74 48 75
REMARK SMILES IDX 74 76 75 77 83 78 76 79 77 80 81 81 84 82 78 83 79 84 82 85
REMARK SMILES IDX 80 86 59 87 60 88 68 89 61 90 62 91 66 92 69 93 63 94 64 95
REMARK SMILES IDX 67 96 65 97
REMARK H PARENT 89 50 57 61
REMARK Flexibility Score: inf
ROOT
ATOM      1  O   UNL     1       3.064   0.612   0.348  1.00  0.00    -0.461 OA
ENDROOT
BRANCH   1   2
ATOM      2  C   UNL     1       2.650  -0.635   0.012  1.00  0.00     0.326 C 
ATOM      3  O   UNL     1       2.076  -0.927  -1.025  1.00  0.00    -0.250 OA
BRANCH   2   4
ATOM      4  C   UNL     1       3.085  -1.616   1.128  1.00  0.00     0.250 C 
BRANCH   4   5
ATOM      5  N   UNL     1       3.548  -2.904   0.581  1.00  0.00    -0.281 N 
ATOM      6  C   UNL     1       4.843  -3.050   0.131  1.00  0.00     0.269 C 
ATOM      7  C   UNL     1       2.888  -4.101   0.656  1.00  0.00     0.148 C 
ATOM      8  O   UNL     1       5.830  -2.530   0.630  1.00  0.00    -0.268 OA
ATOM      9  C   UNL     1       4.907  -4.112  -0.895  1.00  0.00     0.111 C 
ATOM     10  S   UNL     1       3.775  -5.309  -0.288  1.00  0.00    -0.052 SA
ATOM     11  S   UNL     1       1.518  -4.461   1.534  1.00  0.00    -0.052 S 
ATOM     12  C   UNL     1       5.497  -4.094  -2.122  1.00  0.00     0.100 C 
ATOM     13  S   UNL     1       5.410  -5.665  -3.056  1.00  0.00    -0.068 SA
ATOM     14  N   UNL     1       6.149  -3.084  -2.894  1.00  0.00    -0.334 N 
ATOM     15  C   UNL     1       6.175  -4.881  -4.448  1.00  0.00     0.037 A 
ATOM     16  C   UNL     1       6.418  -3.518  -4.227  1.00  0.00     0.056 A 
ATOM     17  C   UNL     1       6.524  -5.512  -5.635  1.00  0.00     0.017 A 
ATOM     18  C   UNL     1       6.897  -2.751  -5.293  1.00  0.00     0.027 A 
ATOM     19  C   UNL     1       7.072  -4.750  -6.664  1.00  0.00     0.001 A 
ATOM     20  C   UNL     1       7.228  -3.370  -6.505  1.00  0.00     0.002 A 
BRANCH  14  21
ATOM     21  C   UNL     1       6.908  -1.898  -2.481  1.00  0.00     0.124 C 
BRANCH  21  22
ATOM     22  C   UNL     1       6.092  -0.613  -2.574  1.00  0.00     0.037 C 
BRANCH  22  23
ATOM     23  C   UNL     1       5.563  -0.218  -1.231  1.00  0.00     0.124 C 
BRANCH  23  24
ATOM     24  S   UNL     1       6.630   0.610  -0.085  1.00  0.00     0.095 S 
ATOM     25  O   UNL     1       7.124   1.823  -0.709  1.00  0.00    -0.243 OA
ATOM     26  O   UNL     1       6.015   0.629   1.215  1.00  0.00    -0.243 OA
ATOM     27  O   UNL     1       7.871  -0.412  -0.038  1.00  0.00    -0.748 OA
ENDBRANCH  23  24
ENDBRANCH  22  23
ENDBRANCH  21  22
ENDBRANCH  14  21
ENDBRANCH   4   5
ENDBRANCH   2   4
ENDBRANCH   1   2
BRANCH   1  28
ATOM     28  C   UNL     1       2.873   1.804  -0.468  1.00  0.00     0.274 C 
BRANCH  28  29
ATOM     29  C   UNL     1       3.520   2.969   0.319  1.00  0.00     0.275 C 
BRANCH  29  30
ATOM     30  O   UNL     1       3.451   2.732   1.737  1.00  0.00    -0.458 OA
BRANCH  30  31
ATOM     31  C   UNL     1       2.187   2.549   2.179  1.00  0.00     0.338 C 
ATOM     32  O   UNL     1       1.175   2.945   1.622  1.00  0.00    -0.246 OA
BRANCH  31  33
ATOM     33  C   UNL     1       2.168   1.583   3.300  1.00  0.00     0.060 A 
ATOM     34  C   UNL     1       3.230   1.442   4.197  1.00  0.00     0.016 A 
ATOM     35  C   UNL     1       1.012   0.804   3.448  1.00  0.00     0.016 A 
ATOM     36  C   UNL     1       3.083   0.604   5.304  1.00  0.00     0.010 A 
ATOM     37  C   UNL     1       0.859  -0.018   4.561  1.00  0.00     0.010 A 
ATOM     38  C   UNL     1       1.873  -0.079   5.523  1.00  0.00    -0.014 A 
BRANCH  38  39
ATOM     39  C   UNL     1       1.596  -0.674   6.850  1.00  0.00     0.031 A 
ATOM     40  C   UNL     1       1.555  -2.151   7.063  1.00  0.00     0.074 A 
ATOM     41  C   UNL     1       1.345   0.170   7.870  1.00  0.00     0.049 A 
ATOM     42  N   UNL     1       1.438  -2.812   8.186  1.00  0.00    -0.248 NA
ATOM     43  C   UNL     1       1.645  -2.998   5.867  1.00  0.00     0.031 C 
ATOM     44  C   UNL     1       1.294   1.629   7.752  1.00  0.00     0.029 A 
ATOM     45  N   UNL     1       1.098  -0.065   9.197  1.00  0.00    -0.354 N 
ATOM     46  C   UNL     1       1.475  -4.153   7.839  1.00  0.00     0.074 A 
ATOM     47  C   UNL     1       1.560  -4.213   6.394  1.00  0.00     0.031 C 
ATOM     48  C   UNL     1       1.076   2.160   8.963  1.00  0.00     0.029 A 
ATOM     49  C   UNL     1       0.940   1.082   9.936  1.00  0.00     0.049 A 
ATOM     50  H   UNL     1       1.038  -0.969   9.584  1.00  0.00     0.167 HD
ATOM     51  C   UNL     1       1.463  -5.229   8.661  1.00  0.00     0.037 A 
ATOM     52  C   UNL     1       0.721   1.248  11.254  1.00  0.00     0.037 A 
ATOM     53  C   UNL     1       1.338  -5.148  10.094  1.00  0.00     0.049 A 
ATOM     54  C   UNL     1       0.655   0.036  12.137  1.00  0.00     0.074 A 
ATOM     55  C   UNL     1       1.359  -6.176  11.020  1.00  0.00     0.029 A 
ATOM     56  N   UNL     1       1.139  -3.973  10.808  1.00  0.00    -0.354 N 
ATOM     57  N   UNL     1       0.815  -1.225  11.817  1.00  0.00    -0.248 NA
ATOM     58  C   UNL     1       0.382   0.265  13.562  1.00  0.00     0.031 C 
ATOM     59  C   UNL     1       1.100  -5.633  12.282  1.00  0.00     0.029 A 
ATOM     60  C   UNL     1       0.984  -4.258  12.156  1.00  0.00     0.049 A 
ATOM     61  H   UNL     1       1.112  -3.071  10.414  1.00  0.00     0.167 HD
ATOM     62  C   UNL     1       0.677  -1.940  12.998  1.00  0.00     0.074 A 
ATOM     63  C   UNL     1       0.440  -0.969  14.047  1.00  0.00     0.031 C 
ATOM     64  C   UNL     1       0.740  -3.281  13.190  1.00  0.00     0.037 A 
BRANCH  51  65
ATOM     65  C   UNL     1       1.591  -6.586   8.033  1.00  0.00     0.064 A 
ATOM     66  C   UNL     1       2.792  -7.005   7.440  1.00  0.00     0.173 A 
ATOM     67  C   UNL     1       0.528  -7.500   8.078  1.00  0.00     0.173 A 
ATOM     68  F   UNL     1       3.839  -6.169   7.369  1.00  0.00    -0.203 F 
ATOM     69  C   UNL     1       2.916  -8.281   6.895  1.00  0.00     0.198 A 
ATOM     70  C   UNL     1       0.665  -8.785   7.558  1.00  0.00     0.198 A 
ATOM     71  F   UNL     1      -0.639  -7.155   8.643  1.00  0.00    -0.203 F 
ATOM     72  F   UNL     1       4.061  -8.646   6.302  1.00  0.00    -0.200 F 
ATOM     73  C   UNL     1       1.856  -9.172   6.962  1.00  0.00     0.200 A 
ATOM     74  F   UNL     1      -0.354  -9.652   7.642  1.00  0.00    -0.200 F 
ATOM     75  F   UNL     1       1.982 -10.405   6.453  1.00  0.00    -0.200 F 
ENDBRANCH  51  65
BRANCH  52  76
ATOM     76  C   UNL     1       0.602   2.624  11.800  1.00  0.00     0.064 A 
ATOM     77  C   UNL     1       1.615   3.170  12.600  1.00  0.00     0.173 A 
ATOM     78  C   UNL     1      -0.489   3.445  11.477  1.00  0.00     0.173 A 
ATOM     79  F   UNL     1       2.671   2.420  12.946  1.00  0.00    -0.203 F 
ATOM     80  C   UNL     1       1.542   4.485  13.054  1.00  0.00     0.198 A 
ATOM     81  C   UNL     1      -0.548   4.768  11.908  1.00  0.00     0.198 A 
ATOM     82  F   UNL     1      -1.480   2.973  10.707  1.00  0.00    -0.203 F 
ATOM     83  F   UNL     1       2.515   4.977  13.832  1.00  0.00    -0.200 F 
ATOM     84  C   UNL     1       0.467   5.287  12.698  1.00  0.00     0.200 A 
ATOM     85  F   UNL     1      -1.577   5.545  11.545  1.00  0.00    -0.200 F 
ATOM     86  F   UNL     1       0.410   6.559  13.115  1.00  0.00    -0.200 F 
ENDBRANCH  52  76
BRANCH  64  87
ATOM     87  C   UNL     1       0.540  -3.796  14.586  1.00  0.00     0.064 A 
ATOM     88  C   UNL     1      -0.725  -3.790  15.191  1.00  0.00     0.173 A 
ATOM     89  C   UNL     1       1.600  -4.396  15.283  1.00  0.00     0.173 A 
ATOM     90  F   UNL     1      -1.767  -3.214  14.574  1.00  0.00    -0.203 F 
ATOM     91  C   UNL     1      -0.921  -4.367  16.443  1.00  0.00     0.198 A 
ATOM     92  C   UNL     1       1.393  -5.000  16.520  1.00  0.00     0.198 A 
ATOM     93  F   UNL     1       2.829  -4.433  14.745  1.00  0.00    -0.203 F 
ATOM     94  F   UNL     1      -2.133  -4.330  17.013  1.00  0.00    -0.200 F 
ATOM     95  C   UNL     1       0.134  -4.984  17.099  1.00  0.00     0.200 A 
ATOM     96  F   UNL     1       2.410  -5.612  17.143  1.00  0.00    -0.200 F 
ATOM     97  F   UNL     1      -0.064  -5.566  18.290  1.00  0.00    -0.200 F 
ENDBRANCH  64  87
ENDBRANCH  38  39
ENDBRANCH  31  33
ENDBRANCH  30  31
ENDBRANCH  29  30
ENDBRANCH  28  29
ENDBRANCH   1  28
TORSDOF 16
