REMARK SMILES O=C(CCN1C(=O)S/C(=C\c2ccc(F)cc2)C1=O)Nc1ccc(O)cc1C(=O)OCCOC(=O)c1ccc(-c2c3nc(c(-c4c(F)c(F)c(F)c(F)c4F)c4ccc([nH]4)c(-c4c(F)c(F)c(F)c(F)c4F)c4nc(c(-c5c(F)c(F)c(F)c(F)c5F)c5ccc2[nH]5)C=C4)C=C3)cc1
REMARK SMILES IDX 30 1 28 2 29 3 27 4 21 5 22 6 23 7 26 8 24 9 20 10 1 11 2 12
REMARK SMILES IDX 3 14 4 15 5 16 6 17 18 18 7 19 8 20 9 21 19 22 10 23 11 24
REMARK SMILES IDX 12 25 17 26 13 27 16 28 14 29 15 30 25 31 31 33 32 34 33 35
REMARK SMILES IDX 34 36 35 37 36 38 37 39 98 40 38 41 97 42 39 43 40 44 41 45
REMARK SMILES IDX 91 46 42 47 96 48 90 49 92 50 43 51 95 52 89 53 88 54 44 56
REMARK SMILES IDX 76 57 56 58 75 59 57 60 60 61 74 62 93 63 58 64 59 65 73 67
REMARK SMILES IDX 94 68 61 69 45 70 46 71 54 72 47 73 48 74 52 75 55 76 49 77
REMARK SMILES IDX 50 78 53 79 51 80 77 81 78 82 86 83 79 84 80 85 84 86 87 87
REMARK SMILES IDX 81 88 82 89 85 90 83 91 62 92 63 93 71 94 64 95 65 96 69 97
REMARK SMILES IDX 72 98 66 99 67 100 70 101 68 102
REMARK H PARENT 20 13 25 32 92 55 60 66
REMARK Flexibility Score: inf
ROOT
ATOM      1  O   UNL     1       3.902   0.698  -3.178  1.00  0.00    -0.458 OA
ENDROOT
BRANCH   1   2
ATOM      2  C   UNL     1       3.886   2.043  -2.971  1.00  0.00     0.340 C 
ATOM      3  O   UNL     1       4.764   2.824  -3.298  1.00  0.00    -0.246 OA
BRANCH   2   4
ATOM      4  C   UNL     1       2.595   2.481  -2.371  1.00  0.00     0.087 A 
ATOM      5  C   UNL     1       1.906   1.756  -1.376  1.00  0.00     0.056 A 
ATOM      6  C   UNL     1       0.696   2.282  -0.895  1.00  0.00     0.031 A 
ATOM      7  C   UNL     1       0.154   3.466  -1.413  1.00  0.00     0.048 A 
ATOM      8  C   UNL     1       2.076   3.704  -2.832  1.00  0.00     0.064 A 
ATOM      9  C   UNL     1       0.846   4.161  -2.390  1.00  0.00     0.116 A 
BRANCH   5  10
ATOM     10  N   UNL     1       2.488   0.581  -0.838  1.00  0.00    -0.325 N 
ATOM     11  O   UNL     1       0.795  -0.271   0.486  1.00  0.00    -0.275 OA
ATOM     12  C   UNL     1       1.966  -0.268   0.110  1.00  0.00     0.226 C 
ATOM     13  H   UNL     1       3.378   0.343  -1.185  1.00  0.00     0.169 HD
BRANCH  12  14
ATOM     14  C   UNL     1       2.960  -1.213   0.780  1.00  0.00     0.122 C 
BRANCH  14  15
ATOM     15  C   UNL     1       4.130  -1.748  -0.041  1.00  0.00     0.140 C 
BRANCH  15  16
ATOM     16  N   UNL     1       5.320  -0.914  -0.246  1.00  0.00    -0.268 N 
ATOM     17  C   UNL     1       5.522   0.333   0.277  1.00  0.00     0.293 C 
ATOM     18  C   UNL     1       6.353  -1.413  -1.023  1.00  0.00     0.268 C 
ATOM     19  O   UNL     1       4.805   0.944   1.054  1.00  0.00    -0.261 OA
ATOM     20  S   UNL     1       6.971   1.049  -0.384  1.00  0.00    -0.022 SA
ATOM     21  C   UNL     1       7.343  -0.335  -1.324  1.00  0.00     0.083 C 
ATOM     22  O   UNL     1       6.400  -2.534  -1.510  1.00  0.00    -0.268 OA
ATOM     23  C   UNL     1       8.196  -0.456  -2.357  1.00  0.00     0.029 C 
BRANCH  23  24
ATOM     24  C   UNL     1       8.965   0.613  -3.026  1.00  0.00    -0.024 A 
ATOM     25  C   UNL     1       9.591   1.663  -2.342  1.00  0.00     0.011 A 
ATOM     26  C   UNL     1       9.041   0.593  -4.432  1.00  0.00     0.011 A 
ATOM     27  C   UNL     1      10.193   2.713  -3.042  1.00  0.00     0.040 A 
ATOM     28  C   UNL     1       9.661   1.632  -5.132  1.00  0.00     0.040 A 
ATOM     29  C   UNL     1      10.214   2.693  -4.429  1.00  0.00     0.123 A 
ATOM     30  F   UNL     1      10.777   3.708  -5.097  1.00  0.00    -0.207 F 
ENDBRANCH  23  24
ENDBRANCH  15  16
ENDBRANCH  14  15
ENDBRANCH  12  14
ENDBRANCH   5  10
BRANCH   9  31
ATOM     31  O   UNL     1       0.354   5.301  -2.950  1.00  0.00    -0.508 OA
ATOM     32  H   UNL     1      -0.476   5.638  -2.674  1.00  0.00     0.293 HD
ENDBRANCH   9  31
ENDBRANCH   2   4
ENDBRANCH   1   2
BRANCH   1  33
ATOM     33  C   UNL     1       5.053   0.157  -3.864  1.00  0.00     0.275 C 
BRANCH  33  34
ATOM     34  C   UNL     1       4.722  -0.483  -5.208  1.00  0.00     0.275 C 
BRANCH  34  35
ATOM     35  O   UNL     1       4.352   0.521  -6.154  1.00  0.00    -0.458 OA
BRANCH  35  36
ATOM     36  C   UNL     1       3.022   0.738  -6.219  1.00  0.00     0.338 C 
ATOM     37  O   UNL     1       2.129   0.129  -5.659  1.00  0.00    -0.246 OA
BRANCH  36  38
ATOM     38  C   UNL     1       2.803   1.975  -6.960  1.00  0.00     0.060 A 
ATOM     39  C   UNL     1       2.826   3.156  -6.229  1.00  0.00     0.016 A 
ATOM     40  C   UNL     1       2.474   1.971  -8.308  1.00  0.00     0.016 A 
ATOM     41  C   UNL     1       2.413   4.343  -6.805  1.00  0.00     0.010 A 
ATOM     42  C   UNL     1       2.171   3.187  -8.921  1.00  0.00     0.010 A 
ATOM     43  C   UNL     1       2.116   4.377  -8.169  1.00  0.00    -0.014 A 
BRANCH  43  44
ATOM     44  C   UNL     1       1.762   5.661  -8.815  1.00  0.00     0.031 A 
ATOM     45  C   UNL     1       0.441   5.801  -9.509  1.00  0.00     0.074 A 
ATOM     46  C   UNL     1       2.641   6.681  -8.790  1.00  0.00     0.049 A 
ATOM     47  N   UNL     1       0.039   6.729 -10.335  1.00  0.00    -0.248 NA
ATOM     48  C   UNL     1      -0.556   4.747  -9.255  1.00  0.00     0.031 C 
ATOM     49  C   UNL     1       3.924   6.677  -8.082  1.00  0.00     0.029 A 
ATOM     50  N   UNL     1       2.597   7.918  -9.383  1.00  0.00    -0.354 N 
ATOM     51  C   UNL     1      -1.233   6.347 -10.739  1.00  0.00     0.074 A 
ATOM     52  C   UNL     1      -1.537   5.099 -10.075  1.00  0.00     0.031 C 
ATOM     53  C   UNL     1       4.533   7.857  -8.262  1.00  0.00     0.029 A 
ATOM     54  C   UNL     1       3.740   8.654  -9.188  1.00  0.00     0.049 A 
ATOM     55  H   UNL     1       1.823   8.245  -9.896  1.00  0.00     0.167 HD
ATOM     56  C   UNL     1      -2.059   6.993 -11.593  1.00  0.00     0.037 A 
ATOM     57  C   UNL     1       4.140   9.812  -9.746  1.00  0.00     0.037 A 
ATOM     58  C   UNL     1      -1.740   8.257 -12.204  1.00  0.00     0.049 A 
ATOM     59  C   UNL     1       3.241  10.467 -10.753  1.00  0.00     0.074 A 
ATOM     60  C   UNL     1      -2.512   9.014 -13.066  1.00  0.00     0.029 A 
ATOM     61  N   UNL     1      -0.553   8.951 -12.011  1.00  0.00    -0.354 N 
ATOM     62  N   UNL     1       2.056  10.086 -11.166  1.00  0.00    -0.248 NA
ATOM     63  C   UNL     1       3.736  11.693 -11.390  1.00  0.00     0.031 C 
ATOM     64  C   UNL     1      -1.769  10.134 -13.442  1.00  0.00     0.029 A 
ATOM     65  C   UNL     1      -0.559  10.112 -12.765  1.00  0.00     0.049 A 
ATOM     66  H   UNL     1       0.183   8.661 -11.424  1.00  0.00     0.167 HD
ATOM     67  C   UNL     1       1.655  11.030 -12.097  1.00  0.00     0.074 A 
ATOM     68  C   UNL     1       2.719  12.011 -12.181  1.00  0.00     0.031 C 
ATOM     69  C   UNL     1       0.511  11.077 -12.820  1.00  0.00     0.037 A 
BRANCH  56  70
ATOM     70  C   UNL     1      -3.367   6.349 -11.946  1.00  0.00     0.064 A 
ATOM     71  C   UNL     1      -3.592   5.886 -13.253  1.00  0.00     0.173 A 
ATOM     72  C   UNL     1      -4.426   6.265 -11.031  1.00  0.00     0.173 A 
ATOM     73  F   UNL     1      -2.614   5.945 -14.169  1.00  0.00    -0.203 F 
ATOM     74  C   UNL     1      -4.834   5.388 -13.636  1.00  0.00     0.198 A 
ATOM     75  C   UNL     1      -5.659   5.737 -11.410  1.00  0.00     0.198 A 
ATOM     76  F   UNL     1      -4.261   6.680  -9.767  1.00  0.00    -0.203 F 
ATOM     77  F   UNL     1      -5.036   4.993 -14.901  1.00  0.00    -0.200 F 
ATOM     78  C   UNL     1      -5.866   5.312 -12.714  1.00  0.00     0.200 A 
ATOM     79  F   UNL     1      -6.649   5.641 -10.511  1.00  0.00    -0.200 F 
ATOM     80  F   UNL     1      -7.061   4.828 -13.082  1.00  0.00    -0.200 F 
ENDBRANCH  56  70
BRANCH  57  81
ATOM     81  C   UNL     1       5.468  10.376  -9.387  1.00  0.00     0.064 A 
ATOM     82  C   UNL     1       6.660   9.710  -9.716  1.00  0.00     0.173 A 
ATOM     83  C   UNL     1       5.568  11.563  -8.651  1.00  0.00     0.173 A 
ATOM     84  F   UNL     1       6.622   8.568 -10.417  1.00  0.00    -0.203 F 
ATOM     85  C   UNL     1       7.896  10.189  -9.288  1.00  0.00     0.198 A 
ATOM     86  C   UNL     1       6.808  12.060  -8.253  1.00  0.00     0.198 A 
ATOM     87  F   UNL     1       4.460  12.247  -8.331  1.00  0.00    -0.203 F 
ATOM     88  F   UNL     1       9.013   9.503  -9.569  1.00  0.00    -0.200 F 
ATOM     89  C   UNL     1       7.970  11.366  -8.559  1.00  0.00     0.200 A 
ATOM     90  F   UNL     1       6.877  13.211  -7.571  1.00  0.00    -0.200 F 
ATOM     91  F   UNL     1       9.159  11.832  -8.154  1.00  0.00    -0.200 F 
ENDBRANCH  57  81
BRANCH  69  92
ATOM     92  C   UNL     1       0.325  12.234 -13.754  1.00  0.00     0.064 A 
ATOM     93  C   UNL     1      -0.645  13.212 -13.483  1.00  0.00     0.173 A 
ATOM     94  C   UNL     1       1.014  12.306 -14.972  1.00  0.00     0.173 A 
ATOM     95  F   UNL     1      -1.335  13.178 -12.333  1.00  0.00    -0.203 F 
ATOM     96  C   UNL     1      -0.944  14.198 -14.416  1.00  0.00     0.198 A 
ATOM     97  C   UNL     1       0.734  13.313 -15.890  1.00  0.00     0.198 A 
ATOM     98  F   UNL     1       1.961  11.402 -15.266  1.00  0.00    -0.203 F 
ATOM     99  F   UNL     1      -1.914  15.087 -14.161  1.00  0.00    -0.200 F 
ATOM    100  C   UNL     1      -0.256  14.247 -15.618  1.00  0.00     0.200 A 
ATOM    101  F   UNL     1       1.414  13.374 -17.043  1.00  0.00    -0.200 F 
ATOM    102  F   UNL     1      -0.549  15.194 -16.520  1.00  0.00    -0.200 F 
ENDBRANCH  69  92
ENDBRANCH  43  44
ENDBRANCH  36  38
ENDBRANCH  35  36
ENDBRANCH  34  35
ENDBRANCH  33  34
ENDBRANCH   1  33
TORSDOF 17
