REMARK SMILES O=C(C[C@H]1CN(C(=O)c2sccc2Br)CCO1)OCCOC(=O)c1ccc(-c2c3nc(c(-c4c(F)c(F)c(F)c(F)c4F)c4ccc([nH]4)c(-c4c(F)c(F)c(F)c(F)c4F)c4nc(c(-c5c(F)c(F)c(F)c(F)c5F)c5ccc2[nH]5)C=C4)C=C3)cc1
REMARK SMILES IDX 19 1 18 2 2 3 1 4 3 5 4 6 5 7 17 8 6 9 16 10 15 11 7 12 8 13
REMARK SMILES IDX 9 14 10 15 13 16 11 17 12 18 14 19 20 20 21 21 22 22 23 23
REMARK SMILES IDX 24 24 25 25 86 26 26 27 85 28 27 29 28 30 29 31 79 32 30 33
REMARK SMILES IDX 84 34 78 35 80 36 31 37 83 38 77 39 76 40 32 42 64 43 44 44
REMARK SMILES IDX 63 45 45 46 48 47 62 48 81 49 46 50 47 51 61 53 82 54 49 55
REMARK SMILES IDX 33 56 34 57 42 58 35 59 36 60 40 61 43 62 37 63 38 64 41 65
REMARK SMILES IDX 39 66 65 67 66 68 74 69 67 70 68 71 72 72 75 73 69 74 70 75
REMARK SMILES IDX 73 76 71 77 50 78 51 79 59 80 52 81 53 82 57 83 60 84 54 85
REMARK SMILES IDX 55 86 58 87 56 88
REMARK H PARENT 80 41 48 52
REMARK Flexibility Score: inf
ROOT
ATOM      1  C   UNL     1       4.636   2.066  -1.218  1.00  0.00     0.274 C 
ENDROOT
BRANCH   1   2
ATOM      2  O   UNL     1       5.018   2.925  -0.122  1.00  0.00    -0.462 OA
BRANCH   2   3
ATOM      3  C   UNL     1       4.994   2.591   1.189  1.00  0.00     0.308 C 
ATOM      4  O   UNL     1       5.380   3.393   2.037  1.00  0.00    -0.252 OA
BRANCH   3   5
ATOM      5  C   UNL     1       4.531   1.214   1.582  1.00  0.00     0.156 C 
BRANCH   5   6
ATOM      6  C   UNL     1       3.111   1.198   2.141  1.00  0.00     0.148 C 
ATOM      7  C   UNL     1       2.597  -0.243   2.348  1.00  0.00     0.152 C 
ATOM      8  O   UNL     1       3.001   1.907   3.388  1.00  0.00    -0.374 OA
ATOM      9  N   UNL     1       3.383  -0.933   3.359  1.00  0.00    -0.333 N 
ATOM     10  C   UNL     1       3.744   1.297   4.452  1.00  0.00     0.182 C 
ATOM     11  C   UNL     1       3.391  -0.184   4.632  1.00  0.00     0.148 C 
BRANCH   9  12
ATOM     12  C   UNL     1       3.707  -2.298   3.421  1.00  0.00     0.265 C 
ATOM     13  O   UNL     1       3.764  -2.755   4.573  1.00  0.00    -0.268 OA
BRANCH  12  14
ATOM     14  C   UNL     1       4.046  -3.178   2.273  1.00  0.00     0.106 A 
ATOM     15  S   UNL     1       4.599  -4.774   2.825  1.00  0.00    -0.137 S 
ATOM     16  C   UNL     1       4.125  -3.184   0.884  1.00  0.00     0.041 A 
ATOM     17  C   UNL     1       4.953  -5.333   1.269  1.00  0.00     0.067 A 
ATOM     18  C   UNL     1       4.644  -4.398   0.321  1.00  0.00     0.028 A 
ATOM     19  Br  UNL     1       3.706  -1.906  -0.450  1.00  0.00    -0.049 Br
ENDBRANCH  12  14
ENDBRANCH   9  12
ENDBRANCH   5   6
ENDBRANCH   3   5
ENDBRANCH   2   3
ENDBRANCH   1   2
BRANCH   1  20
ATOM     20  C   UNL     1       5.832   1.293  -1.786  1.00  0.00     0.275 C 
BRANCH  20  21
ATOM     21  O   UNL     1       6.345   0.339  -0.834  1.00  0.00    -0.458 OA
BRANCH  21  22
ATOM     22  C   UNL     1       7.462   0.712  -0.154  1.00  0.00     0.338 C 
ATOM     23  O   UNL     1       8.112   1.722  -0.334  1.00  0.00    -0.246 OA
BRANCH  22  24
ATOM     24  C   UNL     1       7.703  -0.227   0.973  1.00  0.00     0.060 A 
ATOM     25  C   UNL     1       8.211   0.296   2.169  1.00  0.00     0.016 A 
ATOM     26  C   UNL     1       7.433  -1.594   0.881  1.00  0.00     0.016 A 
ATOM     27  C   UNL     1       8.466  -0.544   3.259  1.00  0.00     0.010 A 
ATOM     28  C   UNL     1       7.675  -2.431   1.980  1.00  0.00     0.010 A 
ATOM     29  C   UNL     1       8.214  -1.921   3.174  1.00  0.00    -0.014 A 
BRANCH  29  30
ATOM     30  C   UNL     1       8.593  -2.832   4.293  1.00  0.00     0.031 A 
ATOM     31  C   UNL     1       9.758  -3.773   4.138  1.00  0.00     0.074 A 
ATOM     32  C   UNL     1       7.916  -2.831   5.458  1.00  0.00     0.049 A 
ATOM     33  N   UNL     1      10.269  -4.613   5.006  1.00  0.00    -0.248 NA
ATOM     34  C   UNL     1      10.438  -3.773   2.834  1.00  0.00     0.031 C 
ATOM     35  C   UNL     1       6.755  -2.000   5.755  1.00  0.00     0.029 A 
ATOM     36  N   UNL     1       8.093  -3.575   6.602  1.00  0.00    -0.354 N 
ATOM     37  C   UNL     1      11.345  -5.211   4.367  1.00  0.00     0.074 A 
ATOM     38  C   UNL     1      11.365  -4.703   3.011  1.00  0.00     0.031 C 
ATOM     39  C   UNL     1       6.296  -2.304   6.981  1.00  0.00     0.029 A 
ATOM     40  C   UNL     1       7.136  -3.348   7.562  1.00  0.00     0.049 A 
ATOM     41  H   UNL     1       8.836  -4.210   6.722  1.00  0.00     0.167 HD
ATOM     42  C   UNL     1      12.264  -6.068   4.871  1.00  0.00     0.037 A 
ATOM     43  C   UNL     1       6.951  -3.917   8.769  1.00  0.00     0.037 A 
ATOM     44  C   UNL     1      12.261  -6.586   6.214  1.00  0.00     0.049 A 
ATOM     45  C   UNL     1       7.942  -4.929   9.282  1.00  0.00     0.074 A 
ATOM     46  C   UNL     1      13.187  -7.420   6.819  1.00  0.00     0.029 A 
ATOM     47  N   UNL     1      11.280  -6.332   7.158  1.00  0.00    -0.354 N 
ATOM     48  N   UNL     1       9.018  -5.403   8.705  1.00  0.00    -0.248 NA
ATOM     49  C   UNL     1       7.708  -5.460  10.635  1.00  0.00     0.031 C 
ATOM     50  C   UNL     1      12.746  -7.701   8.116  1.00  0.00     0.029 A 
ATOM     51  C   UNL     1      11.567  -7.009   8.334  1.00  0.00     0.049 A 
ATOM     52  H   UNL     1      10.494  -5.755   7.015  1.00  0.00     0.167 HD
ATOM     53  C   UNL     1       9.611  -6.245   9.636  1.00  0.00     0.074 A 
ATOM     54  C   UNL     1       8.779  -6.218  10.819  1.00  0.00     0.031 C 
ATOM     55  C   UNL     1      10.752  -6.968   9.519  1.00  0.00     0.037 A 
BRANCH  42  56
ATOM     56  C   UNL     1      13.387  -6.475   3.965  1.00  0.00     0.064 A 
ATOM     57  C   UNL     1      14.405  -5.571   3.627  1.00  0.00     0.173 A 
ATOM     58  C   UNL     1      13.475  -7.783   3.470  1.00  0.00     0.173 A 
ATOM     59  F   UNL     1      14.358  -4.304   4.068  1.00  0.00    -0.203 F 
ATOM     60  C   UNL     1      15.461  -5.956   2.807  1.00  0.00     0.198 A 
ATOM     61  C   UNL     1      14.546  -8.172   2.670  1.00  0.00     0.198 A 
ATOM     62  F   UNL     1      12.529  -8.686   3.769  1.00  0.00    -0.203 F 
ATOM     63  F   UNL     1      16.400  -5.064   2.463  1.00  0.00    -0.200 F 
ATOM     64  C   UNL     1      15.534  -7.258   2.335  1.00  0.00     0.200 A 
ATOM     65  F   UNL     1      14.623  -9.433   2.223  1.00  0.00    -0.200 F 
ATOM     66  F   UNL     1      16.555  -7.630   1.551  1.00  0.00    -0.200 F 
ENDBRANCH  42  56
BRANCH  43  67
ATOM     67  C   UNL     1       5.785  -3.534   9.607  1.00  0.00     0.064 A 
ATOM     68  C   UNL     1       5.949  -2.783  10.779  1.00  0.00     0.173 A 
ATOM     69  C   UNL     1       4.491  -3.971   9.285  1.00  0.00     0.173 A 
ATOM     70  F   UNL     1       7.173  -2.374  11.145  1.00  0.00    -0.203 F 
ATOM     71  C   UNL     1       4.869  -2.509  11.614  1.00  0.00     0.198 A 
ATOM     72  C   UNL     1       3.407  -3.672  10.107  1.00  0.00     0.198 A 
ATOM     73  F   UNL     1       4.286  -4.708   8.184  1.00  0.00    -0.203 F 
ATOM     74  F   UNL     1       5.064  -1.845  12.762  1.00  0.00    -0.200 F 
ATOM     75  C   UNL     1       3.598  -2.951  11.277  1.00  0.00     0.200 A 
ATOM     76  F   UNL     1       2.180  -4.102   9.781  1.00  0.00    -0.200 F 
ATOM     77  F   UNL     1       2.562  -2.699  12.089  1.00  0.00    -0.200 F 
ENDBRANCH  43  67
BRANCH  55  78
ATOM     78  C   UNL     1      11.205  -7.747  10.721  1.00  0.00     0.064 A 
ATOM     79  C   UNL     1      10.531  -8.897  11.156  1.00  0.00     0.173 A 
ATOM     80  C   UNL     1      12.344  -7.345  11.436  1.00  0.00     0.173 A 
ATOM     81  F   UNL     1       9.427  -9.315  10.518  1.00  0.00    -0.203 F 
ATOM     82  C   UNL     1      10.962  -9.598  12.280  1.00  0.00     0.198 A 
ATOM     83  C   UNL     1      12.790  -8.066  12.541  1.00  0.00     0.198 A 
ATOM     84  F   UNL     1      13.031  -6.256  11.059  1.00  0.00    -0.203 F 
ATOM     85  F   UNL     1      10.271 -10.665  12.707  1.00  0.00    -0.200 F 
ATOM     86  C   UNL     1      12.094  -9.186  12.967  1.00  0.00     0.200 A 
ATOM     87  F   UNL     1      13.891  -7.673  13.196  1.00  0.00    -0.200 F 
ATOM     88  F   UNL     1      12.508  -9.864  14.046  1.00  0.00    -0.200 F 
ENDBRANCH  55  78
ENDBRANCH  29  30
ENDBRANCH  22  24
ENDBRANCH  21  22
ENDBRANCH  20  21
ENDBRANCH   1  20
TORSDOF 14
