REMARK SMILES CCn1cc(S(=O)(=O)N2CCC(CCc3ccc(C(=O)OCCOC(=O)c4ccc(-c5c6nc(c(-c7c(F)c(F)c(F)c(F)c7F)c7ccc([nH]7)c(-c7c(F)c(F)c(F)c(F)c7F)c7nc(c(-c8c(F)c(F)c(F)c(F)c8F)c8ccc5[nH]8)C=C7)C=C6)cc4)cc3)CC2)cn1
REMARK SMILES IDX 19 1 20 2 18 3 15 4 16 5 91 6 17 7 90 8 14 9 13 10 12 11
REMARK SMILES IDX 9 12 10 13 93 14 11 15 92 16 6 17 7 18 8 19 5 20 3 21 4 22
REMARK SMILES IDX 95 23 94 24 2 25 1 26 21 27 22 28 23 29 24 30 25 31 26 32
REMARK SMILES IDX 27 33 28 34 89 35 29 36 88 37 30 38 31 39 32 40 82 41 33 42
REMARK SMILES IDX 87 43 81 44 83 45 34 46 86 47 80 48 79 49 35 51 67 52 47 53
REMARK SMILES IDX 66 54 48 55 51 56 65 57 84 58 49 59 50 60 64 62 85 63 52 64
REMARK SMILES IDX 36 65 37 66 45 67 38 68 39 69 43 70 46 71 40 72 41 73 44 74
REMARK SMILES IDX 42 75 68 76 69 77 77 78 70 79 71 80 75 81 78 82 72 83 73 84
REMARK SMILES IDX 76 85 74 86 53 87 54 88 62 89 55 90 56 91 60 92 63 93 57 94
REMARK SMILES IDX 58 95 61 96 59 97
REMARK H PARENT 83 50 51 61
REMARK Flexibility Score: inf
ROOT
ATOM      1  C   UNL     1      -2.061   6.170   1.928  1.00  0.00     0.338 C 
ATOM      2  O   UNL     1      -2.659   6.793   2.791  1.00  0.00    -0.246 OA
ENDROOT
BRANCH   1   3
ATOM      3  C   UNL     1      -1.531   6.793   0.692  1.00  0.00     0.060 A 
ATOM      4  C   UNL     1      -0.466   8.002  -1.620  1.00  0.00    -0.048 A 
ATOM      5  C   UNL     1      -0.675   8.755  -0.456  1.00  0.00     0.004 A 
ATOM      6  C   UNL     1      -0.844   6.651  -1.612  1.00  0.00     0.004 A 
ATOM      7  C   UNL     1      -1.220   8.159   0.688  1.00  0.00     0.016 A 
ATOM      8  C   UNL     1      -1.333   6.037  -0.460  1.00  0.00     0.016 A 
BRANCH   4   9
ATOM      9  C   UNL     1       0.117   8.647  -2.861  1.00  0.00     0.036 C 
BRANCH   9  10
ATOM     10  C   UNL     1       1.540   8.192  -3.254  1.00  0.00     0.008 C 
BRANCH  10  11
ATOM     11  C   UNL     1       1.682   6.704  -3.617  1.00  0.00    -0.008 C 
ATOM     12  N   UNL     1       2.208   4.258  -5.083  1.00  0.00    -0.198 NA
ATOM     13  C   UNL     1       0.827   4.782  -4.972  1.00  0.00     0.103 C 
ATOM     14  C   UNL     1       3.197   4.771  -4.098  1.00  0.00     0.103 C 
ATOM     15  C   UNL     1       0.810   6.294  -4.809  1.00  0.00     0.020 C 
ATOM     16  C   UNL     1       3.120   6.293  -3.946  1.00  0.00     0.020 C 
BRANCH  12  17
ATOM     17  S   UNL     1       2.294   2.574  -5.381  1.00  0.00     0.246 S 
ATOM     18  O   UNL     1       3.680   2.191  -5.490  1.00  0.00    -0.207 OA
ATOM     19  O   UNL     1       1.323   2.245  -6.409  1.00  0.00    -0.207 OA
BRANCH  17  20
ATOM     20  C   UNL     1       1.734   1.691  -4.019  1.00  0.00     0.120 A 
ATOM     21  N   UNL     1       0.979   1.012  -2.080  1.00  0.00    -0.272 N 
ATOM     22  C   UNL     1       1.319   2.136  -2.782  1.00  0.00     0.130 A 
ATOM     23  N   UNL     1       1.115  -0.122  -2.795  1.00  0.00    -0.180 NA
ATOM     24  C   UNL     1       1.596   0.296  -3.971  1.00  0.00     0.156 A 
BRANCH  21  25
ATOM     25  C   UNL     1       0.453   0.979  -0.727  1.00  0.00     0.141 C 
ATOM     26  C   UNL     1       0.992  -0.158   0.124  1.00  0.00     0.029 C 
ENDBRANCH  21  25
ENDBRANCH  17  20
ENDBRANCH  12  17
ENDBRANCH  10  11
ENDBRANCH   9  10
ENDBRANCH   4   9
ENDBRANCH   1   3
BRANCH   1  27
ATOM     27  O   UNL     1      -1.673   4.867   1.990  1.00  0.00    -0.458 OA
BRANCH  27  28
ATOM     28  C   UNL     1      -1.861   4.210   3.255  1.00  0.00     0.275 C 
BRANCH  28  29
ATOM     29  C   UNL     1      -0.666   4.412   4.175  1.00  0.00     0.275 C 
BRANCH  29  30
ATOM     30  O   UNL     1      -0.543   5.776   4.564  1.00  0.00    -0.458 OA
BRANCH  30  31
ATOM     31  C   UNL     1       0.301   6.511   3.808  1.00  0.00     0.338 C 
ATOM     32  O   UNL     1       0.759   6.234   2.712  1.00  0.00    -0.246 OA
BRANCH  31  33
ATOM     33  C   UNL     1       0.806   7.614   4.622  1.00  0.00     0.060 A 
ATOM     34  C   UNL     1       1.573   8.597   3.986  1.00  0.00     0.016 A 
ATOM     35  C   UNL     1       0.782   7.468   6.015  1.00  0.00     0.016 A 
ATOM     36  C   UNL     1       2.457   9.331   4.747  1.00  0.00     0.010 A 
ATOM     37  C   UNL     1       1.681   8.175   6.765  1.00  0.00     0.010 A 
ATOM     38  C   UNL     1       2.552   9.046   6.112  1.00  0.00    -0.014 A 
BRANCH  38  39
ATOM     39  C   UNL     1       3.478   9.801   6.929  1.00  0.00     0.031 A 
ATOM     40  C   UNL     1       3.007  11.194   7.136  1.00  0.00     0.074 A 
ATOM     41  C   UNL     1       4.494   9.175   7.559  1.00  0.00     0.049 A 
ATOM     42  N   UNL     1       3.627  12.291   6.858  1.00  0.00    -0.248 NA
ATOM     43  C   UNL     1       1.597  11.399   7.535  1.00  0.00     0.031 C 
ATOM     44  C   UNL     1       4.777   7.732   7.549  1.00  0.00     0.029 A 
ATOM     45  N   UNL     1       5.406   9.654   8.451  1.00  0.00    -0.354 N 
ATOM     46  C   UNL     1       2.774  13.313   7.274  1.00  0.00     0.074 A 
ATOM     47  C   UNL     1       1.482  12.725   7.468  1.00  0.00     0.031 C 
ATOM     48  C   UNL     1       5.617   7.429   8.563  1.00  0.00     0.029 A 
ATOM     49  C   UNL     1       6.027   8.662   9.209  1.00  0.00     0.049 A 
ATOM     50  H   UNL     1       5.607  10.612   8.551  1.00  0.00     0.167 HD
ATOM     51  C   UNL     1       3.297  14.466   7.769  1.00  0.00     0.037 A 
ATOM     52  C   UNL     1       6.759   8.855  10.334  1.00  0.00     0.037 A 
ATOM     53  C   UNL     1       4.666  14.612   7.349  1.00  0.00     0.049 A 
ATOM     54  C   UNL     1       7.158  10.281  10.355  1.00  0.00     0.074 A 
ATOM     55  C   UNL     1       5.316  14.893   6.168  1.00  0.00     0.029 A 
ATOM     56  N   UNL     1       5.567  14.007   8.184  1.00  0.00    -0.354 N 
ATOM     57  N   UNL     1       7.987  10.807   9.496  1.00  0.00    -0.248 NA
ATOM     58  C   UNL     1       6.338  11.234  11.094  1.00  0.00     0.031 C 
ATOM     59  C   UNL     1       6.588  14.253   6.260  1.00  0.00     0.029 A 
ATOM     60  C   UNL     1       6.702  13.649   7.511  1.00  0.00     0.049 A 
ATOM     61  H   UNL     1       5.418  13.850   9.144  1.00  0.00     0.167 HD
ATOM     62  C   UNL     1       7.494  12.079   9.277  1.00  0.00     0.074 A 
ATOM     63  C   UNL     1       6.601  12.344  10.399  1.00  0.00     0.031 C 
ATOM     64  C   UNL     1       7.606  12.656   8.045  1.00  0.00     0.037 A 
BRANCH  51  65
ATOM     65  C   UNL     1       2.798  15.131   9.041  1.00  0.00     0.064 A 
ATOM     66  C   UNL     1       3.409  16.333   9.453  1.00  0.00     0.173 A 
ATOM     67  C   UNL     1       2.012  14.488  10.026  1.00  0.00     0.173 A 
ATOM     68  F   UNL     1       4.194  17.022   8.612  1.00  0.00    -0.203 F 
ATOM     69  C   UNL     1       3.308  16.803  10.767  1.00  0.00     0.198 A 
ATOM     70  C   UNL     1       1.875  14.986  11.320  1.00  0.00     0.198 A 
ATOM     71  F   UNL     1       1.437  13.297   9.828  1.00  0.00    -0.203 F 
ATOM     72  F   UNL     1       4.009  17.881  11.144  1.00  0.00    -0.200 F 
ATOM     73  C   UNL     1       2.547  16.125  11.701  1.00  0.00     0.200 A 
ATOM     74  F   UNL     1       1.153  14.297  12.216  1.00  0.00    -0.200 F 
ATOM     75  F   UNL     1       2.500  16.537  12.975  1.00  0.00    -0.200 F 
ENDBRANCH  51  65
BRANCH  52  76
ATOM     76  C   UNL     1       6.885   7.979  11.524  1.00  0.00     0.064 A 
ATOM     77  C   UNL     1       7.941   8.135  12.438  1.00  0.00     0.173 A 
ATOM     78  C   UNL     1       5.820   7.155  11.935  1.00  0.00     0.173 A 
ATOM     79  F   UNL     1       8.973   8.938  12.144  1.00  0.00    -0.203 F 
ATOM     80  C   UNL     1       7.919   7.523  13.697  1.00  0.00     0.198 A 
ATOM     81  C   UNL     1       5.801   6.542  13.189  1.00  0.00     0.198 A 
ATOM     82  F   UNL     1       4.731   7.008  11.167  1.00  0.00    -0.203 F 
ATOM     83  F   UNL     1       8.915   7.744  14.566  1.00  0.00    -0.200 F 
ATOM     84  C   UNL     1       6.843   6.736  14.075  1.00  0.00     0.200 A 
ATOM     85  F   UNL     1       4.736   5.815  13.556  1.00  0.00    -0.200 F 
ATOM     86  F   UNL     1       6.791   6.202  15.303  1.00  0.00    -0.200 F 
ENDBRANCH  52  76
BRANCH  64  87
ATOM     87  C   UNL     1       8.652  12.104   7.126  1.00  0.00     0.064 A 
ATOM     88  C   UNL     1       8.620  10.820   6.559  1.00  0.00     0.173 A 
ATOM     89  C   UNL     1       9.690  12.960   6.737  1.00  0.00     0.173 A 
ATOM     90  F   UNL     1       7.612   9.976   6.817  1.00  0.00    -0.203 F 
ATOM     91  C   UNL     1       9.612  10.401   5.674  1.00  0.00     0.198 A 
ATOM     92  C   UNL     1      10.655  12.553   5.824  1.00  0.00     0.198 A 
ATOM     93  F   UNL     1       9.741  14.213   7.215  1.00  0.00    -0.203 F 
ATOM     94  F   UNL     1       9.574   9.163   5.158  1.00  0.00    -0.200 F 
ATOM     95  C   UNL     1      10.624  11.271   5.302  1.00  0.00     0.200 A 
ATOM     96  F   UNL     1      11.604  13.416   5.433  1.00  0.00    -0.200 F 
ATOM     97  F   UNL     1      11.557  10.882   4.422  1.00  0.00    -0.200 F 
ENDBRANCH  64  87
ENDBRANCH  38  39
ENDBRANCH  31  33
ENDBRANCH  30  31
ENDBRANCH  29  30
ENDBRANCH  28  29
ENDBRANCH  27  28
ENDBRANCH   1  27
TORSDOF 17
