REMARK SMILES COC(=O)c1ccc(C[N@@H+](CC(=O)OCCOC(=O)c2ccc(-c3c4nc(c(-c5c(F)c(F)c(F)c(F)c5F)c5ccc([nH]5)c(-c5c(F)c(F)c(F)c(F)c5F)c5nc(c(-c6c(F)c(F)c(F)c(F)c6F)c6ccc3[nH]6)C=C5)C=C4)cc2)C(C)(C)C)cc1
REMARK SMILES IDX 14 1 12 2 13 3 11 4 10 5 9 7 8 8 5 9 6 10 88 11 7 12 87 13
REMARK SMILES IDX 3 14 4 15 2 16 1 17 83 18 84 19 85 20 86 21 15 22 16 23
REMARK SMILES IDX 17 24 18 25 19 26 20 27 21 28 82 29 22 30 81 31 23 32 24 33
REMARK SMILES IDX 25 34 75 35 26 36 80 37 74 38 76 39 27 40 79 41 73 42 72 43
REMARK SMILES IDX 28 45 60 46 40 47 59 48 41 49 44 50 58 51 77 52 42 53 43 54
REMARK SMILES IDX 57 56 78 57 45 58 29 59 30 60 38 61 31 62 32 63 36 64 39 65
REMARK SMILES IDX 33 66 34 67 37 68 35 69 61 70 62 71 70 72 63 73 64 74 68 75
REMARK SMILES IDX 71 76 65 77 66 78 69 79 67 80 46 81 47 82 55 83 48 84 49 85
REMARK SMILES IDX 53 86 56 87 50 88 51 89 54 90 52 91
REMARK H PARENT 10 6 76 44 44 55
REMARK Flexibility Score: inf
ROOT
ATOM      1  O   UNL     1      -3.366  -2.129  -8.836  1.00  0.00    -0.458 OA
ENDROOT
BRANCH   1   2
ATOM      2  C   UNL     1      -2.518  -1.798  -9.842  1.00  0.00     0.361 C 
ATOM      3  O   UNL     1      -2.725  -2.105 -11.017  1.00  0.00    -0.245 OA
BRANCH   2   4
ATOM      4  C   UNL     1      -1.228  -1.057  -9.451  1.00  0.00     0.387 C 
BRANCH   4   5
ATOM      5  N   UNL     1      -1.042  -0.485  -8.092  1.00  0.00    -0.318 N 
ATOM      6  H   UNL     1      -0.086  -0.132  -8.059  1.00  0.00     0.349 HD
BRANCH   5   7
ATOM      7  C   UNL     1      -1.101  -1.542  -7.074  1.00  0.00     0.299 C 
BRANCH   7   8
ATOM      8  C   UNL     1      -0.430  -1.220  -5.766  1.00  0.00     0.006 A 
ATOM      9  C   UNL     1       0.711  -0.363  -3.364  1.00  0.00     0.060 A 
ATOM     10  C   UNL     1       1.497  -0.440  -4.519  1.00  0.00     0.016 A 
ATOM     11  C   UNL     1      -0.633  -0.755  -3.398  1.00  0.00     0.016 A 
ATOM     12  C   UNL     1       0.934  -0.895  -5.712  1.00  0.00     0.010 A 
ATOM     13  C   UNL     1      -1.199  -1.182  -4.594  1.00  0.00     0.010 A 
BRANCH   9  14
ATOM     14  C   UNL     1       1.321   0.187  -2.129  1.00  0.00     0.337 C 
ATOM     15  O   UNL     1       2.275   0.930  -2.115  1.00  0.00    -0.246 OA
BRANCH  14  16
ATOM     16  O   UNL     1       0.657  -0.306  -1.050  1.00  0.00    -0.465 OA
ATOM     17  C   UNL     1       1.182   0.123   0.203  1.00  0.00     0.282 C 
ENDBRANCH  14  16
ENDBRANCH   9  14
ENDBRANCH   7   8
ENDBRANCH   5   7
BRANCH   5  18
ATOM     18  C   UNL     1      -1.534   0.896  -7.787  1.00  0.00     0.090 C 
ATOM     19  C   UNL     1      -2.866   0.964  -6.994  1.00  0.00     0.078 C 
ATOM     20  C   UNL     1      -0.494   1.669  -6.923  1.00  0.00     0.078 C 
ATOM     21  C   UNL     1      -1.619   1.798  -9.049  1.00  0.00     0.078 C 
ENDBRANCH   5  18
ENDBRANCH   4   5
ENDBRANCH   2   4
ENDBRANCH   1   2
BRANCH   1  22
ATOM     22  C   UNL     1      -4.624  -2.756  -9.203  1.00  0.00     0.274 C 
BRANCH  22  23
ATOM     23  C   UNL     1      -5.815  -1.788  -9.088  1.00  0.00     0.275 C 
BRANCH  23  24
ATOM     24  O   UNL     1      -5.906  -0.894 -10.223  1.00  0.00    -0.458 OA
BRANCH  24  25
ATOM     25  C   UNL     1      -5.061   0.144 -10.099  1.00  0.00     0.338 C 
ATOM     26  O   UNL     1      -4.326   0.343  -9.150  1.00  0.00    -0.246 OA
BRANCH  25  27
ATOM     27  C   UNL     1      -4.994   1.087 -11.204  1.00  0.00     0.060 A 
ATOM     28  C   UNL     1      -3.798   1.123 -11.927  1.00  0.00     0.016 A 
ATOM     29  C   UNL     1      -5.887   2.159 -11.235  1.00  0.00     0.016 A 
ATOM     30  C   UNL     1      -3.472   2.258 -12.656  1.00  0.00     0.010 A 
ATOM     31  C   UNL     1      -5.595   3.264 -12.035  1.00  0.00     0.010 A 
ATOM     32  C   UNL     1      -4.387   3.318 -12.750  1.00  0.00    -0.014 A 
BRANCH  32  33
ATOM     33  C   UNL     1      -4.139   4.401 -13.727  1.00  0.00     0.031 A 
ATOM     34  C   UNL     1      -3.903   5.818 -13.307  1.00  0.00     0.074 A 
ATOM     35  C   UNL     1      -4.176   4.061 -15.029  1.00  0.00     0.049 A 
ATOM     36  N   UNL     1      -3.818   6.891 -14.052  1.00  0.00    -0.248 NA
ATOM     37  C   UNL     1      -3.749   6.069 -11.868  1.00  0.00     0.031 C 
ATOM     38  C   UNL     1      -4.391   2.701 -15.531  1.00  0.00     0.029 A 
ATOM     39  N   UNL     1      -4.045   4.817 -16.161  1.00  0.00    -0.354 N 
ATOM     40  C   UNL     1      -3.625   7.950 -13.176  1.00  0.00     0.074 A 
ATOM     41  C   UNL     1      -3.613   7.389 -11.839  1.00  0.00     0.031 C 
ATOM     42  C   UNL     1      -4.362   2.715 -16.868  1.00  0.00     0.029 A 
ATOM     43  C   UNL     1      -4.215   4.093 -17.314  1.00  0.00     0.049 A 
ATOM     44  H   UNL     1      -3.849   5.782 -16.151  1.00  0.00     0.167 HD
ATOM     45  C   UNL     1      -3.479   9.265 -13.474  1.00  0.00     0.037 A 
ATOM     46  C   UNL     1      -4.298   4.495 -18.593  1.00  0.00     0.037 A 
ATOM     47  C   UNL     1      -3.495   9.793 -14.818  1.00  0.00     0.049 A 
ATOM     48  C   UNL     1      -4.169   5.955 -18.891  1.00  0.00     0.074 A 
ATOM     49  C   UNL     1      -3.347  11.104 -15.237  1.00  0.00     0.029 A 
ATOM     50  N   UNL     1      -3.672   9.028 -15.965  1.00  0.00    -0.354 N 
ATOM     51  N   UNL     1      -4.002   6.953 -18.057  1.00  0.00    -0.248 NA
ATOM     52  C   UNL     1      -4.243   6.348 -20.301  1.00  0.00     0.031 C 
ATOM     53  C   UNL     1      -3.480  11.138 -16.630  1.00  0.00     0.029 A 
ATOM     54  C   UNL     1      -3.659   9.842 -17.088  1.00  0.00     0.049 A 
ATOM     55  H   UNL     1      -3.791   8.051 -15.979  1.00  0.00     0.167 HD
ATOM     56  C   UNL     1      -3.945   8.095 -18.837  1.00  0.00     0.074 A 
ATOM     57  C   UNL     1      -4.072   7.660 -20.216  1.00  0.00     0.031 C 
ATOM     58  C   UNL     1      -3.803   9.386 -18.449  1.00  0.00     0.037 A 
BRANCH  45  59
ATOM     59  C   UNL     1      -3.332  10.228 -12.329  1.00  0.00     0.064 A 
ATOM     60  C   UNL     1      -2.170  10.280 -11.545  1.00  0.00     0.173 A 
ATOM     61  C   UNL     1      -4.361  11.135 -12.027  1.00  0.00     0.173 A 
ATOM     62  F   UNL     1      -1.157   9.433 -11.784  1.00  0.00    -0.203 F 
ATOM     63  C   UNL     1      -2.055  11.179 -10.486  1.00  0.00     0.198 A 
ATOM     64  C   UNL     1      -4.233  12.051 -10.986  1.00  0.00     0.198 A 
ATOM     65  F   UNL     1      -5.493  11.138 -12.748  1.00  0.00    -0.203 F 
ATOM     66  F   UNL     1      -0.954  11.177  -9.722  1.00  0.00    -0.200 F 
ATOM     67  C   UNL     1      -3.084  12.067 -10.210  1.00  0.00     0.200 A 
ATOM     68  F   UNL     1      -5.224  12.917 -10.729  1.00  0.00    -0.200 F 
ATOM     69  F   UNL     1      -2.973  12.931  -9.191  1.00  0.00    -0.200 F 
ENDBRANCH  45  59
BRANCH  46  70
ATOM     70  C   UNL     1      -4.546   3.485 -19.649  1.00  0.00     0.064 A 
ATOM     71  C   UNL     1      -3.535   3.112 -20.541  1.00  0.00     0.173 A 
ATOM     72  C   UNL     1      -5.774   2.807 -19.726  1.00  0.00     0.173 A 
ATOM     73  F   UNL     1      -2.350   3.739 -20.510  1.00  0.00    -0.203 F 
ATOM     74  C   UNL     1      -3.741   2.097 -21.473  1.00  0.00     0.198 A 
ATOM     75  C   UNL     1      -5.968   1.772 -20.636  1.00  0.00     0.198 A 
ATOM     76  F   UNL     1      -6.767   3.116 -18.879  1.00  0.00    -0.203 F 
ATOM     77  F   UNL     1      -2.764   1.770 -22.330  1.00  0.00    -0.200 F 
ATOM     78  C   UNL     1      -4.952   1.420 -21.512  1.00  0.00     0.200 A 
ATOM     79  F   UNL     1      -7.129   1.104 -20.651  1.00  0.00    -0.200 F 
ATOM     80  F   UNL     1      -5.138   0.426 -22.390  1.00  0.00    -0.200 F 
ENDBRANCH  46  70
BRANCH  58  81
ATOM     81  C   UNL     1      -3.765  10.410 -19.542  1.00  0.00     0.064 A 
ATOM     82  C   UNL     1      -4.921  10.766 -20.253  1.00  0.00     0.173 A 
ATOM     83  C   UNL     1      -2.561  11.047 -19.877  1.00  0.00     0.173 A 
ATOM     84  F   UNL     1      -6.091  10.167 -19.984  1.00  0.00    -0.203 F 
ATOM     85  C   UNL     1      -4.866  11.704 -21.280  1.00  0.00     0.198 A 
ATOM     86  C   UNL     1      -2.516  12.004 -20.885  1.00  0.00     0.198 A 
ATOM     87  F   UNL     1      -1.430  10.739 -19.225  1.00  0.00    -0.203 F 
ATOM     88  F   UNL     1      -5.971  11.992 -21.982  1.00  0.00    -0.200 F 
ATOM     89  C   UNL     1      -3.666  12.327 -21.590  1.00  0.00     0.200 A 
ATOM     90  F   UNL     1      -1.357  12.610 -21.179  1.00  0.00    -0.200 F 
ATOM     91  F   UNL     1      -3.615  13.230 -22.579  1.00  0.00    -0.200 F 
ENDBRANCH  58  81
ENDBRANCH  32  33
ENDBRANCH  25  27
ENDBRANCH  24  25
ENDBRANCH  23  24
ENDBRANCH  22  23
ENDBRANCH   1  22
TORSDOF 17
