REMARK SMILES Cc1oc2c(c1C(=O)OCCOC(=O)c1ccc(-c3c4nc(c(-c5c(F)c(F)c(F)c(F)c5F)c5ccc([nH]5)c(-c5c(F)c(F)c(F)c(F)c5F)c5nc(c(-c6c(F)c(F)c(F)c(F)c6F)c6ccc3[nH]6)C=C5)C=C4)cc1)C(=O)C[C@H](c1ccco1)C2
REMARK SMILES IDX 11 1 10 2 9 3 7 4 8 5 6 6 1 7 2 8 3 9 4 10 5 11 87 12 78 13
REMARK SMILES IDX 81 14 79 15 80 16 82 17 83 18 86 19 84 20 85 21 12 22 13 23
REMARK SMILES IDX 14 24 15 25 16 26 77 27 17 28 76 29 18 30 19 31 20 32 70 33
REMARK SMILES IDX 21 34 75 35 69 36 71 37 22 38 74 39 68 40 67 41 23 43 55 44
REMARK SMILES IDX 35 45 54 46 36 47 39 48 53 49 72 50 37 51 38 52 52 54 73 55
REMARK SMILES IDX 40 56 24 57 25 58 33 59 26 60 27 61 31 62 34 63 28 64 29 65
REMARK SMILES IDX 32 66 30 67 56 68 57 69 65 70 58 71 59 72 63 73 66 74 60 75
REMARK SMILES IDX 61 76 64 77 62 78 41 79 42 80 50 81 43 82 44 83 48 84 51 85
REMARK SMILES IDX 45 86 46 87 49 88 47 89
REMARK H PARENT 71 42 39 53
REMARK Flexibility Score: inf
ROOT
ATOM      1  C   UNL     1       4.024   4.213   1.546  1.00  0.00     0.275 C 
ENDROOT
BRANCH   1   2
ATOM      2  C   UNL     1       2.680   3.655   2.015  1.00  0.00     0.275 C 
BRANCH   2   3
ATOM      3  O   UNL     1       1.982   2.909   0.986  1.00  0.00    -0.458 OA
BRANCH   3   4
ATOM      4  C   UNL     1       1.143   3.607   0.143  1.00  0.00     0.342 C 
ATOM      5  O   UNL     1       0.885   4.792   0.290  1.00  0.00    -0.246 OA
BRANCH   4   6
ATOM      6  C   UNL     1       0.584   2.796  -0.948  1.00  0.00     0.112 A 
ATOM      7  C   UNL     1       0.953   0.319  -0.088  1.00  0.00     0.088 C 
ATOM      8  C   UNL     1       0.503   1.405  -0.989  1.00  0.00     0.116 A 
ATOM      9  O   UNL     1      -0.157   0.980  -2.110  1.00  0.00    -0.465 OA
ATOM     10  C   UNL     1      -0.466   2.083  -2.820  1.00  0.00     0.116 A 
ATOM     11  C   UNL     1      -0.011   3.221  -2.190  1.00  0.00     0.074 A 
ATOM     12  C   UNL     1      -1.194   1.967  -4.120  1.00  0.00     0.088 C 
ATOM     13  C   UNL     1      -0.185   4.486  -2.885  1.00  0.00     0.168 C 
ATOM     14  C   UNL     1      -0.961   3.269  -4.932  1.00  0.00     0.071 C 
ATOM     15  O   UNL     1       0.463   5.495  -2.637  1.00  0.00    -0.294 OA
ATOM     16  C   UNL     1      -1.203   4.486  -4.019  1.00  0.00     0.093 C 
BRANCH  14  17
ATOM     17  C   UNL     1      -1.795   3.402  -6.168  1.00  0.00     0.107 A 
ATOM     18  C   UNL     1      -1.798   4.340  -7.185  1.00  0.00     0.046 A 
ATOM     19  O   UNL     1      -2.785   2.492  -6.378  1.00  0.00    -0.469 OA
ATOM     20  C   UNL     1      -2.865   3.996  -8.046  1.00  0.00     0.042 A 
ATOM     21  C   UNL     1      -3.428   2.859  -7.517  1.00  0.00     0.195 A 
ENDBRANCH  14  17
ENDBRANCH   4   6
ENDBRANCH   3   4
ENDBRANCH   2   3
ENDBRANCH   1   2
BRANCH   1  22
ATOM     22  O   UNL     1       3.859   5.286   0.614  1.00  0.00    -0.458 OA
BRANCH  22  23
ATOM     23  C   UNL     1       3.741   4.914  -0.673  1.00  0.00     0.338 C 
ATOM     24  O   UNL     1       3.600   3.757  -1.116  1.00  0.00    -0.246 OA
BRANCH  23  25
ATOM     25  C   UNL     1       4.099   6.022  -1.534  1.00  0.00     0.060 A 
ATOM     26  C   UNL     1       3.583   6.175  -2.816  1.00  0.00     0.016 A 
ATOM     27  C   UNL     1       5.306   6.630  -1.232  1.00  0.00     0.016 A 
ATOM     28  C   UNL     1       4.480   6.582  -3.823  1.00  0.00     0.010 A 
ATOM     29  C   UNL     1       5.817   7.490  -2.157  1.00  0.00     0.010 A 
ATOM     30  C   UNL     1       5.795   7.021  -3.457  1.00  0.00    -0.014 A 
BRANCH  30  31
ATOM     31  C   UNL     1       6.777   7.795  -4.322  1.00  0.00     0.031 A 
ATOM     32  C   UNL     1       5.736   8.883  -4.958  1.00  0.00     0.074 A 
ATOM     33  C   UNL     1       8.220   7.636  -4.379  1.00  0.00     0.049 A 
ATOM     34  N   UNL     1       5.253   8.818  -6.165  1.00  0.00    -0.248 NA
ATOM     35  C   UNL     1       4.793   9.804  -4.183  1.00  0.00     0.031 C 
ATOM     36  C   UNL     1       9.272   6.664  -3.776  1.00  0.00     0.029 A 
ATOM     37  N   UNL     1       9.197   8.364  -5.122  1.00  0.00    -0.354 N 
ATOM     38  C   UNL     1       4.519   9.997  -6.377  1.00  0.00     0.074 A 
ATOM     39  C   UNL     1       4.045  10.411  -5.114  1.00  0.00     0.031 C 
ATOM     40  C   UNL     1      10.575   7.126  -3.876  1.00  0.00     0.029 A 
ATOM     41  C   UNL     1      10.600   8.329  -4.679  1.00  0.00     0.049 A 
ATOM     42  H   UNL     1       8.937   8.881  -5.918  1.00  0.00     0.167 HD
ATOM     43  C   UNL     1       4.793  10.726  -7.491  1.00  0.00     0.037 A 
ATOM     44  C   UNL     1      11.718   9.035  -5.169  1.00  0.00     0.037 A 
ATOM     45  C   UNL     1       5.486   9.855  -8.408  1.00  0.00     0.049 A 
ATOM     46  C   UNL     1      11.231   9.638  -6.439  1.00  0.00     0.074 A 
ATOM     47  C   UNL     1       5.138   8.688  -9.059  1.00  0.00     0.029 A 
ATOM     48  N   UNL     1       6.817   9.760  -8.100  1.00  0.00    -0.354 N 
ATOM     49  N   UNL     1      10.928   8.873  -7.456  1.00  0.00    -0.248 NA
ATOM     50  C   UNL     1      10.432  10.845  -6.235  1.00  0.00     0.031 C 
ATOM     51  C   UNL     1       6.270   7.823  -8.957  1.00  0.00     0.029 A 
ATOM     52  C   UNL     1       7.335   8.546  -8.436  1.00  0.00     0.049 A 
ATOM     53  H   UNL     1       7.338  10.484  -7.685  1.00  0.00     0.167 HD
ATOM     54  C   UNL     1       9.607   9.195  -7.717  1.00  0.00     0.074 A 
ATOM     55  C   UNL     1       9.358  10.437  -6.926  1.00  0.00     0.031 C 
ATOM     56  C   UNL     1       8.717   8.253  -8.185  1.00  0.00     0.037 A 
BRANCH  43  57
ATOM     57  C   UNL     1       5.004  12.228  -7.515  1.00  0.00     0.064 A 
ATOM     58  C   UNL     1       5.168  12.836  -8.773  1.00  0.00     0.173 A 
ATOM     59  C   UNL     1       5.341  13.038  -6.403  1.00  0.00     0.173 A 
ATOM     60  F   UNL     1       4.897  12.149  -9.893  1.00  0.00    -0.203 F 
ATOM     61  C   UNL     1       5.669  14.133  -8.915  1.00  0.00     0.198 A 
ATOM     62  C   UNL     1       5.783  14.358  -6.546  1.00  0.00     0.198 A 
ATOM     63  F   UNL     1       5.350  12.565  -5.151  1.00  0.00    -0.203 F 
ATOM     64  F   UNL     1       5.906  14.622 -10.139  1.00  0.00    -0.200 F 
ATOM     65  C   UNL     1       5.966  14.898  -7.803  1.00  0.00     0.200 A 
ATOM     66  F   UNL     1       6.088  15.081  -5.457  1.00  0.00    -0.200 F 
ATOM     67  F   UNL     1       6.454  16.138  -7.940  1.00  0.00    -0.200 F 
ENDBRANCH  43  57
BRANCH  44  68
ATOM     68  C   UNL     1      12.894   9.700  -4.408  1.00  0.00     0.064 A 
ATOM     69  C   UNL     1      14.145  10.239  -4.869  1.00  0.00     0.173 A 
ATOM     70  C   UNL     1      12.589  10.066  -3.090  1.00  0.00     0.173 A 
ATOM     71  F   UNL     1      14.564  10.065  -6.133  1.00  0.00    -0.203 F 
ATOM     72  C   UNL     1      15.001  11.022  -4.029  1.00  0.00     0.198 A 
ATOM     73  C   UNL     1      13.413  10.854  -2.278  1.00  0.00     0.198 A 
ATOM     74  F   UNL     1      11.400   9.730  -2.579  1.00  0.00    -0.203 F 
ATOM     75  F   UNL     1      16.177  11.502  -4.475  1.00  0.00    -0.200 F 
ATOM     76  C   UNL     1      14.621  11.332  -2.735  1.00  0.00     0.200 A 
ATOM     77  F   UNL     1      12.987  11.176  -1.050  1.00  0.00    -0.200 F 
ATOM     78  F   UNL     1      15.381  12.107  -1.944  1.00  0.00    -0.200 F 
ENDBRANCH  44  68
BRANCH  56  79
ATOM     79  C   UNL     1       9.186   6.857  -8.555  1.00  0.00     0.064 A 
ATOM     80  C   UNL     1       9.404   5.761  -7.689  1.00  0.00     0.173 A 
ATOM     81  C   UNL     1       9.233   6.570  -9.919  1.00  0.00     0.173 A 
ATOM     82  F   UNL     1       9.139   5.846  -6.383  1.00  0.00    -0.203 F 
ATOM     83  C   UNL     1       9.799   4.502  -8.165  1.00  0.00     0.198 A 
ATOM     84  C   UNL     1       9.552   5.302 -10.397  1.00  0.00     0.198 A 
ATOM     85  F   UNL     1       8.879   7.517 -10.800  1.00  0.00    -0.203 F 
ATOM     86  F   UNL     1      10.065   3.501  -7.309  1.00  0.00    -0.200 F 
ATOM     87  C   UNL     1       9.878   4.278  -9.525  1.00  0.00     0.200 A 
ATOM     88  F   UNL     1       9.510   5.070 -11.714  1.00  0.00    -0.200 F 
ATOM     89  F   UNL     1      10.223   3.072  -9.997  1.00  0.00    -0.200 F 
ENDBRANCH  56  79
ENDBRANCH  30  31
ENDBRANCH  23  25
ENDBRANCH  22  23
ENDBRANCH   1  22
TORSDOF 12
