REMARK SMILES C[C@@H](Oc1ccc(-c2ccccc2)cc1)C(=O)N1CCC[C@H](C(=O)OCCOC(=O)c2ccc(-c3c4nc(c(-c5c(F)c(F)c(F)c(F)c5F)c5ccc([nH]5)c(-c5c(F)c(F)c(F)c(F)c5F)c5nc(c(-c6c(F)c(F)c(F)c(F)c6F)c6ccc3[nH]6)C=C5)C=C4)cc2)C1
REMARK SMILES IDX 25 1 23 2 24 3 22 4 18 5 19 6 94 7 20 8 21 9 16 10 17 11
REMARK SMILES IDX 2 12 1 13 3 14 4 15 5 16 15 17 6 18 14 19 7 20 8 21 9 22
REMARK SMILES IDX 13 23 10 24 12 25 11 26 26 27 27 28 28 29 29 30 30 31 31 32
REMARK SMILES IDX 32 33 93 34 33 35 92 36 34 37 35 38 36 39 86 40 37 41 91 42
REMARK SMILES IDX 85 43 87 44 38 45 90 46 84 47 83 48 39 50 71 51 51 52 70 53
REMARK SMILES IDX 52 54 55 55 69 56 88 57 53 58 54 59 68 61 89 62 56 63 40 64
REMARK SMILES IDX 41 65 49 66 42 67 43 68 47 69 50 70 44 71 45 72 48 73 46 74
REMARK SMILES IDX 72 75 73 76 81 77 74 78 75 79 79 80 82 81 76 82 77 83 80 84
REMARK SMILES IDX 78 85 57 86 58 87 66 88 59 89 60 90 64 91 67 92 61 93 62 94
REMARK SMILES IDX 65 95 63 96
REMARK H PARENT 87 49 55 60
REMARK Flexibility Score: inf
ROOT
ATOM      1  O   UNL     1      -3.173   0.879   0.587  1.00  0.00    -0.462 OA
ENDROOT
BRANCH   1   2
ATOM      2  C   UNL     1      -2.270   0.288   1.404  1.00  0.00     0.310 C 
ATOM      3  O   UNL     1      -1.399   0.885   2.029  1.00  0.00    -0.252 OA
BRANCH   2   4
ATOM      4  C   UNL     1      -2.409  -1.227   1.453  1.00  0.00     0.119 C 
ATOM      5  N   UNL     1      -1.621  -1.680  -0.817  1.00  0.00    -0.339 N 
ATOM      6  C   UNL     1      -2.883  -2.278  -1.245  1.00  0.00     0.119 C 
ATOM      7  C   UNL     1      -1.315  -1.858   0.599  1.00  0.00     0.134 C 
ATOM      8  C   UNL     1      -4.067  -1.775  -0.425  1.00  0.00     0.022 C 
ATOM      9  C   UNL     1      -3.789  -1.781   1.081  1.00  0.00     0.019 C 
BRANCH   5  10
ATOM     10  C   UNL     1      -0.842  -0.981  -1.732  1.00  0.00     0.263 C 
ATOM     11  O   UNL     1      -1.312  -0.599  -2.810  1.00  0.00    -0.271 OA
BRANCH  10  12
ATOM     12  C   UNL     1       0.643  -0.692  -1.417  1.00  0.00     0.259 C 
ATOM     13  C   UNL     1       0.824   0.518  -0.503  1.00  0.00     0.064 C 
BRANCH  12  14
ATOM     14  O   UNL     1       1.212  -1.879  -0.851  1.00  0.00    -0.481 OA
BRANCH  14  15
ATOM     15  C   UNL     1       2.537  -2.029  -1.128  1.00  0.00     0.120 A 
ATOM     16  C   UNL     1       2.936  -2.748  -2.251  1.00  0.00     0.047 A 
ATOM     17  C   UNL     1       3.468  -1.600  -0.192  1.00  0.00     0.047 A 
ATOM     18  C   UNL     1       4.291  -3.040  -2.436  1.00  0.00     0.012 A 
ATOM     19  C   UNL     1       4.818  -1.887  -0.383  1.00  0.00     0.012 A 
ATOM     20  C   UNL     1       5.253  -2.630  -1.496  1.00  0.00    -0.018 A 
BRANCH  20  21
ATOM     21  C   UNL     1       6.670  -3.007  -1.627  1.00  0.00    -0.018 A 
ATOM     22  C   UNL     1       7.393  -2.761  -2.803  1.00  0.00     0.009 A 
ATOM     23  C   UNL     1       7.342  -3.626  -0.556  1.00  0.00     0.009 A 
ATOM     24  C   UNL     1       8.744  -3.108  -2.900  1.00  0.00     0.001 A 
ATOM     25  C   UNL     1       8.691  -3.972  -0.651  1.00  0.00     0.001 A 
ATOM     26  C   UNL     1       9.393  -3.709  -1.823  1.00  0.00     0.000 A 
ENDBRANCH  20  21
ENDBRANCH  14  15
ENDBRANCH  12  14
ENDBRANCH  10  12
ENDBRANCH   5  10
ENDBRANCH   2   4
ENDBRANCH   1   2
BRANCH   1  27
ATOM     27  C   UNL     1      -3.111   2.309   0.433  1.00  0.00     0.274 C 
BRANCH  27  28
ATOM     28  C   UNL     1      -4.239   2.990   1.211  1.00  0.00     0.275 C 
BRANCH  28  29
ATOM     29  O   UNL     1      -4.029   2.866   2.630  1.00  0.00    -0.458 OA
BRANCH  29  30
ATOM     30  C   UNL     1      -4.638   1.806   3.207  1.00  0.00     0.338 C 
ATOM     31  O   UNL     1      -5.397   1.005   2.691  1.00  0.00    -0.246 OA
BRANCH  30  32
ATOM     32  C   UNL     1      -4.121   1.642   4.572  1.00  0.00     0.060 A 
ATOM     33  C   UNL     1      -3.340   0.516   4.840  1.00  0.00     0.016 A 
ATOM     34  C   UNL     1      -4.460   2.534   5.589  1.00  0.00     0.016 A 
ATOM     35  C   UNL     1      -2.889   0.269   6.131  1.00  0.00     0.010 A 
ATOM     36  C   UNL     1      -4.010   2.284   6.888  1.00  0.00     0.010 A 
ATOM     37  C   UNL     1      -3.233   1.145   7.166  1.00  0.00    -0.014 A 
BRANCH  37  38
ATOM     38  C   UNL     1      -2.833   0.818   8.552  1.00  0.00     0.031 A 
ATOM     39  C   UNL     1      -3.853   0.276   9.508  1.00  0.00     0.074 A 
ATOM     40  C   UNL     1      -1.553   0.971   8.933  1.00  0.00     0.049 A 
ATOM     41  N   UNL     1      -3.731  -0.008  10.779  1.00  0.00    -0.248 NA
ATOM     42  C   UNL     1      -5.193   0.017   8.958  1.00  0.00     0.031 C 
ATOM     43  C   UNL     1      -0.467   1.437   8.072  1.00  0.00     0.029 A 
ATOM     44  N   UNL     1      -0.951   0.749  10.145  1.00  0.00    -0.354 N 
ATOM     45  C   UNL     1      -4.980  -0.456  11.187  1.00  0.00     0.074 A 
ATOM     46  C   UNL     1      -5.851  -0.396  10.032  1.00  0.00     0.031 C 
ATOM     47  C   UNL     1       0.672   1.468   8.783  1.00  0.00     0.029 A 
ATOM     48  C   UNL     1       0.385   1.067  10.158  1.00  0.00     0.049 A 
ATOM     49  H   UNL     1      -1.429   0.397  10.930  1.00  0.00     0.167 HD
ATOM     50  C   UNL     1      -5.360  -0.879  12.415  1.00  0.00     0.037 A 
ATOM     51  C   UNL     1       1.267   1.060  11.175  1.00  0.00     0.037 A 
ATOM     52  C   UNL     1      -4.483  -0.949  13.554  1.00  0.00     0.049 A 
ATOM     53  C   UNL     1       0.805   0.633  12.541  1.00  0.00     0.074 A 
ATOM     54  C   UNL     1      -4.769  -1.366  14.842  1.00  0.00     0.029 A 
ATOM     55  N   UNL     1      -3.142  -0.593  13.538  1.00  0.00    -0.354 N 
ATOM     56  N   UNL     1      -0.381   0.226  12.925  1.00  0.00    -0.248 NA
ATOM     57  C   UNL     1       1.804   0.668  13.618  1.00  0.00     0.031 C 
ATOM     58  C   UNL     1      -3.611  -1.227  15.615  1.00  0.00     0.029 A 
ATOM     59  C   UNL     1      -2.591  -0.765  14.798  1.00  0.00     0.049 A 
ATOM     60  H   UNL     1      -2.654  -0.265  12.748  1.00  0.00     0.167 HD
ATOM     61  C   UNL     1      -0.268  -0.060  14.278  1.00  0.00     0.074 A 
ATOM     62  C   UNL     1       1.108   0.204  14.646  1.00  0.00     0.031 C 
ATOM     63  C   UNL     1      -1.218  -0.499  15.140  1.00  0.00     0.037 A 
BRANCH  50  64
ATOM     64  C   UNL     1      -6.797  -1.266  12.597  1.00  0.00     0.064 A 
ATOM     65  C   UNL     1      -7.315  -2.457  12.068  1.00  0.00     0.173 A 
ATOM     66  C   UNL     1      -7.663  -0.442  13.332  1.00  0.00     0.173 A 
ATOM     67  F   UNL     1      -6.532  -3.269  11.342  1.00  0.00    -0.203 F 
ATOM     68  C   UNL     1      -8.653  -2.799  12.249  1.00  0.00     0.198 A 
ATOM     69  C   UNL     1      -8.994  -0.799  13.533  1.00  0.00     0.198 A 
ATOM     70  F   UNL     1      -7.217   0.708  13.860  1.00  0.00    -0.203 F 
ATOM     71  F   UNL     1      -9.137  -3.921  11.699  1.00  0.00    -0.200 F 
ATOM     72  C   UNL     1      -9.489  -1.973  12.986  1.00  0.00     0.200 A 
ATOM     73  F   UNL     1      -9.798  -0.004  14.252  1.00  0.00    -0.200 F 
ATOM     74  F   UNL     1     -10.775  -2.306  13.163  1.00  0.00    -0.200 F 
ENDBRANCH  50  64
BRANCH  51  75
ATOM     75  C   UNL     1       2.668   1.491  10.940  1.00  0.00     0.064 A 
ATOM     76  C   UNL     1       3.725   0.572  10.990  1.00  0.00     0.173 A 
ATOM     77  C   UNL     1       2.979   2.830  10.664  1.00  0.00     0.173 A 
ATOM     78  F   UNL     1       3.479  -0.715  11.276  1.00  0.00    -0.203 F 
ATOM     79  C   UNL     1       5.041   0.979  10.785  1.00  0.00     0.198 A 
ATOM     80  C   UNL     1       4.293   3.231  10.432  1.00  0.00     0.198 A 
ATOM     81  F   UNL     1       2.004   3.749  10.608  1.00  0.00    -0.203 F 
ATOM     82  F   UNL     1       6.038   0.087  10.878  1.00  0.00    -0.200 F 
ATOM     83  C   UNL     1       5.324   2.306  10.499  1.00  0.00     0.200 A 
ATOM     84  F   UNL     1       4.560   4.513  10.146  1.00  0.00    -0.200 F 
ATOM     85  F   UNL     1       6.590   2.696  10.296  1.00  0.00    -0.200 F 
ENDBRANCH  51  75
BRANCH  63  86
ATOM     86  C   UNL     1      -0.790  -0.748  16.556  1.00  0.00     0.064 A 
ATOM     87  C   UNL     1      -0.525   0.309  17.439  1.00  0.00     0.173 A 
ATOM     88  C   UNL     1      -0.671  -2.058  17.041  1.00  0.00     0.173 A 
ATOM     89  F   UNL     1      -0.610   1.579  17.016  1.00  0.00    -0.203 F 
ATOM     90  C   UNL     1      -0.132   0.062  18.751  1.00  0.00     0.198 A 
ATOM     91  C   UNL     1      -0.303  -2.302  18.361  1.00  0.00     0.198 A 
ATOM     92  F   UNL     1      -0.919  -3.103  16.237  1.00  0.00    -0.203 F 
ATOM     93  F   UNL     1       0.161   1.085  19.565  1.00  0.00    -0.200 F 
ATOM     94  C   UNL     1      -0.027  -1.242  19.213  1.00  0.00     0.200 A 
ATOM     95  F   UNL     1      -0.212  -3.562  18.809  1.00  0.00    -0.200 F 
ATOM     96  F   UNL     1       0.350  -1.478  20.477  1.00  0.00    -0.200 F 
ENDBRANCH  63  86
ENDBRANCH  37  38
ENDBRANCH  30  32
ENDBRANCH  29  30
ENDBRANCH  28  29
ENDBRANCH  27  28
ENDBRANCH   1  27
TORSDOF 16
