REMARK SMILES C[N@H+]1CCCN(C(=O)N[C@@H]2CCCCC[C@@H]2C(=O)OCCOC(=O)c2ccc(-c3c4nc(c(-c5c(F)c(F)c(F)c(F)c5F)c5ccc([nH]5)c(-c5c(F)c(F)c(F)c(F)c5F)c5nc(c(-c6c(F)c(F)c(F)c(F)c6F)c6ccc3[nH]6)C=C5)C=C4)cc2)CC1
REMARK SMILES IDX 17 1 18 2 16 3 10 5 9 6 7 7 8 8 6 10 88 11 89 12 2 13 1 14
REMARK SMILES IDX 3 16 5 18 4 19 11 21 12 22 13 23 14 24 15 25 19 27 20 28
REMARK SMILES IDX 21 29 22 30 23 31 24 32 25 33 26 34 87 35 27 36 86 37 28 38
REMARK SMILES IDX 29 39 30 40 80 41 31 42 85 43 79 44 81 45 32 46 84 47 78 48
REMARK SMILES IDX 77 49 33 51 65 52 45 53 64 54 46 55 49 56 63 57 82 58 47 59
REMARK SMILES IDX 48 60 62 62 83 63 50 64 34 65 35 66 43 67 36 68 37 69 41 70
REMARK SMILES IDX 44 71 38 72 39 73 42 74 40 75 66 76 67 77 75 78 68 79 69 80
REMARK SMILES IDX 73 81 76 82 70 83 71 84 74 85 72 86 51 87 52 88 60 89 53 90
REMARK SMILES IDX 54 91 58 92 61 93 55 94 56 95 59 96 57 97
REMARK H PARENT 9 9 2 15 81 50 49 61
REMARK Flexibility Score: 180.00
ROOT
ATOM      1  C   UNL     1       1.479  -6.711   1.353  1.00  0.00     0.311 C 
ATOM      2  O   UNL     1       2.166  -6.992   0.377  1.00  0.00    -0.252 OA
ENDROOT
BRANCH   1   3
ATOM      3  C   UNL     1       2.064  -6.428   2.741  1.00  0.00     0.121 CG1
ATOM      4  G   UNL     1       3.596  -6.653   2.699  1.00  0.00     0.000 G1
BRANCH   3   5
ATOM      5  C   UNL     1       1.588  -5.153   3.507  1.00  0.00     0.098 C 
BRANCH   5   6
ATOM      6  N   UNL     1       0.114  -5.000   3.451  1.00  0.00    -0.334 N 
ATOM      7  C   UNL     1      -0.912  -4.144   3.352  1.00  0.00     0.317 C 
ATOM      8  O   UNL     1      -1.993  -4.645   3.692  1.00  0.00    -0.249 OA
ATOM      9  H   UNL     1      -0.272  -5.904   3.513  1.00  0.00     0.165 HD
BRANCH   7  10
ATOM     10  N   UNL     1      -0.841  -2.854   2.912  1.00  0.00    -0.319 N 
BRANCH  10  11
ATOM     11  C   UNL     1       0.248  -2.301   2.130  1.00  0.00     0.182 C 
BRANCH  11  12
ATOM     12  C   UNL     1      -0.074  -1.296   1.012  1.00  0.00     0.283 C 
BRANCH  12  13
ATOM     13  N   UNL     1      -0.305   0.091   1.449  1.00  0.00    -0.336 N 
ATOM     14  C   UNL     1      -0.162   0.991   0.295  1.00  0.00     0.332 C 
ATOM     15  H   UNL     1       0.381   0.321   2.167  1.00  0.00     0.347 HD
BRANCH  13  16
ATOM     16  C   UNL     1      -1.647   0.252   2.021  1.00  0.00     0.263 CG0
ATOM     17  G   UNL     1      -1.885  -0.570   3.286  1.00  0.00     0.000 G0
ENDBRANCH  13  16
ENDBRANCH  12  13
ENDBRANCH  11  12
ENDBRANCH  10  11
BRANCH  10  18
ATOM     18  C   UNL     1      -2.070  -2.061   3.023  1.00  0.00     0.127 C 
BRANCH  18  19
ATOM     19  C   UNL     1      -1.885  -0.570   3.286  1.00  0.00     0.083 CG0
ATOM     20  G   UNL     1      -1.647   0.252   2.021  1.00  0.00     0.000 G0
ENDBRANCH  18  19
ENDBRANCH  10  18
ENDBRANCH   7  10
ENDBRANCH   5   6
BRANCH   5  21
ATOM     21  C   UNL     1       2.449  -3.884   3.458  1.00  0.00     0.026 C 
BRANCH  21  22
ATOM     22  C   UNL     1       3.882  -4.041   3.970  1.00  0.00     0.002 C 
BRANCH  22  23
ATOM     23  C   UNL     1       4.864  -4.437   2.873  1.00  0.00     0.000 C 
BRANCH  23  24
ATOM     24  C   UNL     1       4.374  -5.558   1.969  1.00  0.00     0.001 C 
BRANCH  24  25
ATOM     25  C   UNL     1       3.596  -6.653   2.699  1.00  0.00     0.017 CG1
ATOM     26  G   UNL     1       2.064  -6.428   2.741  1.00  0.00     0.000 G1
ENDBRANCH  24  25
ENDBRANCH  23  24
ENDBRANCH  22  23
ENDBRANCH  21  22
ENDBRANCH   5  21
ENDBRANCH   3   5
ENDBRANCH   1   3
BRANCH   1  27
ATOM     27  O   UNL     1       0.122  -6.815   1.370  1.00  0.00    -0.462 OA
BRANCH  27  28
ATOM     28  C   UNL     1      -0.481  -7.384   0.187  1.00  0.00     0.274 C 
BRANCH  28  29
ATOM     29  C   UNL     1      -0.922  -6.312  -0.807  1.00  0.00     0.275 C 
BRANCH  29  30
ATOM     30  O   UNL     1       0.222  -5.564  -1.255  1.00  0.00    -0.458 OA
BRANCH  30  31
ATOM     31  C   UNL     1       0.050  -4.226  -1.334  1.00  0.00     0.338 C 
ATOM     32  O   UNL     1      -0.998  -3.620  -1.187  1.00  0.00    -0.246 OA
BRANCH  31  33
ATOM     33  C   UNL     1       1.339  -3.526  -1.565  1.00  0.00     0.060 A 
ATOM     34  C   UNL     1       2.555  -4.069  -1.154  1.00  0.00     0.016 A 
ATOM     35  C   UNL     1       1.313  -2.224  -2.074  1.00  0.00     0.016 A 
ATOM     36  C   UNL     1       3.711  -3.286  -1.146  1.00  0.00     0.010 A 
ATOM     37  C   UNL     1       2.487  -1.463  -2.135  1.00  0.00     0.010 A 
ATOM     38  C   UNL     1       3.698  -1.976  -1.645  1.00  0.00    -0.014 A 
BRANCH  38  39
ATOM     39  C   UNL     1       4.937  -1.150  -1.671  1.00  0.00     0.031 A 
ATOM     40  C   UNL     1       5.003   0.170  -0.949  1.00  0.00     0.074 A 
ATOM     41  C   UNL     1       6.022  -1.578  -2.344  1.00  0.00     0.049 A 
ATOM     42  N   UNL     1       5.881   1.135  -1.067  1.00  0.00    -0.248 NA
ATOM     43  C   UNL     1       3.943   0.442   0.032  1.00  0.00     0.031 C 
ATOM     44  C   UNL     1       6.138  -2.862  -3.033  1.00  0.00     0.029 A 
ATOM     45  N   UNL     1       7.240  -0.978  -2.553  1.00  0.00    -0.354 N 
ATOM     46  C   UNL     1       5.445   2.153  -0.229  1.00  0.00     0.074 A 
ATOM     47  C   UNL     1       4.235   1.679   0.412  1.00  0.00     0.031 C 
ATOM     48  C   UNL     1       7.372  -2.977  -3.545  1.00  0.00     0.029 A 
ATOM     49  C   UNL     1       8.095  -1.731  -3.318  1.00  0.00     0.049 A 
ATOM     50  H   UNL     1       7.477  -0.095  -2.189  1.00  0.00     0.167 HD
ATOM     51  C   UNL     1       6.001   3.372  -0.027  1.00  0.00     0.037 A 
ATOM     52  C   UNL     1       9.303  -1.438  -3.837  1.00  0.00     0.037 A 
ATOM     53  C   UNL     1       7.242   3.813  -0.616  1.00  0.00     0.049 A 
ATOM     54  C   UNL     1       9.884  -0.072  -3.631  1.00  0.00     0.074 A 
ATOM     55  C   UNL     1       7.882   5.034  -0.474  1.00  0.00     0.029 A 
ATOM     56  N   UNL     1       8.047   3.038  -1.437  1.00  0.00    -0.354 N 
ATOM     57  N   UNL     1       9.396   0.938  -2.953  1.00  0.00    -0.248 NA
ATOM     58  C   UNL     1      11.164   0.208  -4.295  1.00  0.00     0.031 C 
ATOM     59  C   UNL     1       9.061   5.005  -1.228  1.00  0.00     0.029 A 
ATOM     60  C   UNL     1       9.174   3.754  -1.810  1.00  0.00     0.049 A 
ATOM     61  H   UNL     1       7.847   2.115  -1.714  1.00  0.00     0.167 HD
ATOM     62  C   UNL     1      10.299   1.977  -3.119  1.00  0.00     0.074 A 
ATOM     63  C   UNL     1      11.381   1.467  -3.937  1.00  0.00     0.031 C 
ATOM     64  C   UNL     1      10.230   3.243  -2.643  1.00  0.00     0.037 A 
BRANCH  51  65
ATOM     65  C   UNL     1       5.262   4.350   0.839  1.00  0.00     0.064 A 
ATOM     66  C   UNL     1       5.253   4.249   2.236  1.00  0.00     0.173 A 
ATOM     67  C   UNL     1       4.624   5.457   0.255  1.00  0.00     0.173 A 
ATOM     68  F   UNL     1       5.840   3.205   2.840  1.00  0.00    -0.203 F 
ATOM     69  C   UNL     1       4.628   5.218   3.019  1.00  0.00     0.198 A 
ATOM     70  C   UNL     1       4.021   6.435   1.041  1.00  0.00     0.198 A 
ATOM     71  F   UNL     1       4.611   5.604  -1.078  1.00  0.00    -0.203 F 
ATOM     72  F   UNL     1       4.616   5.094   4.353  1.00  0.00    -0.200 F 
ATOM     73  C   UNL     1       4.022   6.314   2.422  1.00  0.00     0.200 A 
ATOM     74  F   UNL     1       3.449   7.500   0.462  1.00  0.00    -0.200 F 
ATOM     75  F   UNL     1       3.440   7.256   3.178  1.00  0.00    -0.200 F 
ENDBRANCH  51  65
BRANCH  52  76
ATOM     76  C   UNL     1      10.002  -2.458  -4.656  1.00  0.00     0.064 A 
ATOM     77  C   UNL     1      11.132  -3.122  -4.164  1.00  0.00     0.173 A 
ATOM     78  C   UNL     1       9.515  -2.833  -5.917  1.00  0.00     0.173 A 
ATOM     79  F   UNL     1      11.648  -2.775  -2.975  1.00  0.00    -0.203 F 
ATOM     80  C   UNL     1      11.742  -4.137  -4.898  1.00  0.00     0.198 A 
ATOM     81  C   UNL     1      10.107  -3.867  -6.636  1.00  0.00     0.198 A 
ATOM     82  F   UNL     1       8.436  -2.224  -6.428  1.00  0.00    -0.203 F 
ATOM     83  F   UNL     1      12.831  -4.749  -4.414  1.00  0.00    -0.200 F 
ATOM     84  C   UNL     1      11.220  -4.518  -6.126  1.00  0.00     0.200 A 
ATOM     85  F   UNL     1       9.589  -4.244  -7.812  1.00  0.00    -0.200 F 
ATOM     86  F   UNL     1      11.789  -5.515  -6.817  1.00  0.00    -0.200 F 
ENDBRANCH  52  76
BRANCH  64  87
ATOM     87  C   UNL     1      11.359   4.161  -3.001  1.00  0.00     0.064 A 
ATOM     88  C   UNL     1      11.462   4.722  -4.282  1.00  0.00     0.173 A 
ATOM     89  C   UNL     1      12.345   4.482  -2.058  1.00  0.00     0.173 A 
ATOM     90  F   UNL     1      10.551   4.427  -5.223  1.00  0.00    -0.203 F 
ATOM     91  C   UNL     1      12.528   5.553  -4.614  1.00  0.00     0.198 A 
ATOM     92  C   UNL     1      13.399   5.330  -2.387  1.00  0.00     0.198 A 
ATOM     93  F   UNL     1      12.288   3.971  -0.819  1.00  0.00    -0.203 F 
ATOM     94  F   UNL     1      12.632   6.043  -5.857  1.00  0.00    -0.200 F 
ATOM     95  C   UNL     1      13.493   5.859  -3.666  1.00  0.00     0.200 A 
ATOM     96  F   UNL     1      14.330   5.627  -1.470  1.00  0.00    -0.200 F 
ATOM     97  F   UNL     1      14.524   6.653  -3.990  1.00  0.00    -0.200 F 
ENDBRANCH  64  87
ENDBRANCH  38  39
ENDBRANCH  31  33
ENDBRANCH  30  31
ENDBRANCH  29  30
ENDBRANCH  28  29
ENDBRANCH  27  28
ENDBRANCH   1  27
TORSDOF 13
