REMARK SMILES Cc1ccc([C@H](C)[N@@H+](CC(=O)OCCOC(=O)c2ccc(-c3c4nc(c(-c5c(F)c(F)c(F)c(F)c5F)c5ccc([nH]5)c(-c5c(F)c(F)c(F)c(F)c5F)c5nc(c(-c6c(F)c(F)c(F)c(F)c6F)c6ccc3[nH]6)C=C5)C=C4)cc2)CC(F)(F)F)cc1
REMARK SMILES IDX 13 1 12 2 10 3 11 4 9 5 8 6 6 8 7 9 5 10 1 11 2 12 3 13
REMARK SMILES IDX 87 14 4 15 86 16 81 17 82 18 83 19 84 20 85 21 14 22 15 23
REMARK SMILES IDX 16 24 17 25 18 26 19 27 80 28 20 29 79 30 21 31 22 32 23 33
REMARK SMILES IDX 73 34 24 35 78 36 72 37 74 38 25 39 77 40 71 41 70 42 26 44
REMARK SMILES IDX 58 45 38 46 57 47 39 48 42 49 56 50 75 51 40 52 41 53 55 55
REMARK SMILES IDX 76 56 43 57 27 58 28 59 36 60 29 61 30 62 34 63 37 64 31 65
REMARK SMILES IDX 32 66 35 67 33 68 59 69 60 70 68 71 61 72 62 73 66 74 69 75
REMARK SMILES IDX 63 76 64 77 67 78 65 79 44 80 45 81 53 82 46 83 47 84 51 85
REMARK SMILES IDX 54 86 48 87 49 88 52 89 50 90
REMARK H PARENT 8 7 74 43 42 54
REMARK Flexibility Score: inf
ROOT
ATOM      1  C   UNL     1      -5.421  -3.022  -2.751  1.00  0.00     0.274 C 
ENDROOT
BRANCH   1   2
ATOM      2  O   UNL     1      -5.080  -1.764  -2.162  1.00  0.00    -0.458 OA
BRANCH   2   3
ATOM      3  C   UNL     1      -4.004  -1.786  -1.357  1.00  0.00     0.361 C 
ATOM      4  O   UNL     1      -3.267  -2.754  -1.274  1.00  0.00    -0.245 OA
BRANCH   3   5
ATOM      5  C   UNL     1      -3.866  -0.517  -0.530  1.00  0.00     0.387 C 
BRANCH   5   6
ATOM      6  N   UNL     1      -2.502  -0.385   0.007  1.00  0.00    -0.312 N 
ATOM      7  H   UNL     1      -2.445   0.431   0.616  1.00  0.00     0.349 HD
BRANCH   6   8
ATOM      8  C   UNL     1      -1.502   0.132  -0.958  1.00  0.00     0.212 C 
ATOM      9  C   UNL     1      -0.053   0.107  -0.475  1.00  0.00     0.081 C 
BRANCH   8  10
ATOM     10  C   UNL     1      -1.682  -0.360  -2.405  1.00  0.00     0.009 A 
ATOM     11  C   UNL     1      -3.435  -2.201  -5.905  1.00  0.00     0.044 C 
ATOM     12  C   UNL     1      -2.731  -1.520  -4.767  1.00  0.00    -0.051 A 
ATOM     13  C   UNL     1      -3.007  -0.188  -4.455  1.00  0.00     0.004 A 
ATOM     14  C   UNL     1      -1.812  -2.218  -3.975  1.00  0.00     0.004 A 
ATOM     15  C   UNL     1      -2.485   0.388  -3.291  1.00  0.00     0.010 A 
ATOM     16  C   UNL     1      -1.275  -1.637  -2.815  1.00  0.00     0.010 A 
ENDBRANCH   8  10
ENDBRANCH   6   8
BRANCH   6  17
ATOM     17  C   UNL     1      -2.168  -1.377   1.070  1.00  0.00     0.380 C 
BRANCH  17  18
ATOM     18  C   UNL     1      -1.518  -2.792   0.943  1.00  0.00     0.438 C 
ATOM     19  F   UNL     1      -0.464  -2.822   0.104  1.00  0.00    -0.165 F 
ATOM     20  F   UNL     1      -1.038  -3.149   2.169  1.00  0.00    -0.165 F 
ATOM     21  F   UNL     1      -2.368  -3.774   0.597  1.00  0.00    -0.165 F 
ENDBRANCH  17  18
ENDBRANCH   6  17
ENDBRANCH   5   6
ENDBRANCH   3   5
ENDBRANCH   2   3
ENDBRANCH   1   2
BRANCH   1  22
ATOM     22  C   UNL     1      -5.289  -4.347  -1.920  1.00  0.00     0.275 C 
BRANCH  22  23
ATOM     23  O   UNL     1      -5.159  -4.457  -0.434  1.00  0.00    -0.458 OA
BRANCH  23  24
ATOM     24  C   UNL     1      -5.551  -3.880   0.743  1.00  0.00     0.338 C 
ATOM     25  O   UNL     1      -5.112  -4.214   1.816  1.00  0.00    -0.246 OA
BRANCH  24  26
ATOM     26  C   UNL     1      -6.501  -2.754   0.681  1.00  0.00     0.060 A 
ATOM     27  C   UNL     1      -6.703  -1.771   1.665  1.00  0.00     0.016 A 
ATOM     28  C   UNL     1      -7.159  -2.626  -0.494  1.00  0.00     0.016 A 
ATOM     29  C   UNL     1      -7.508  -0.653   1.352  1.00  0.00     0.010 A 
ATOM     30  C   UNL     1      -7.385  -1.358  -0.919  1.00  0.00     0.010 A 
ATOM     31  C   UNL     1      -7.845  -0.459   0.013  1.00  0.00    -0.014 A 
BRANCH  31  32
ATOM     32  C   UNL     1      -8.881   0.357  -0.617  1.00  0.00     0.031 A 
ATOM     33  C   UNL     1      -8.777   1.800  -0.775  1.00  0.00     0.074 A 
ATOM     34  C   UNL     1      -9.811  -0.344  -1.326  1.00  0.00     0.049 A 
ATOM     35  N   UNL     1      -9.721   2.622  -0.473  1.00  0.00    -0.248 NA
ATOM     36  C   UNL     1      -7.614   2.418  -1.404  1.00  0.00     0.031 C 
ATOM     37  C   UNL     1     -10.839   0.068  -2.260  1.00  0.00     0.029 A 
ATOM     38  N   UNL     1      -9.969  -1.749  -1.295  1.00  0.00    -0.354 N 
ATOM     39  C   UNL     1      -9.438   3.780  -1.163  1.00  0.00     0.074 A 
ATOM     40  C   UNL     1      -8.054   3.670  -1.583  1.00  0.00     0.031 C 
ATOM     41  C   UNL     1     -11.710  -0.958  -2.401  1.00  0.00     0.029 A 
ATOM     42  C   UNL     1     -11.308  -2.038  -1.498  1.00  0.00     0.049 A 
ATOM     43  H   UNL     1      -9.252  -2.408  -1.153  1.00  0.00     0.167 HD
ATOM     44  C   UNL     1     -10.451   4.583  -1.604  1.00  0.00     0.037 A 
ATOM     45  C   UNL     1     -11.962  -2.567  -0.425  1.00  0.00     0.037 A 
ATOM     46  C   UNL     1     -11.728   3.865  -1.536  1.00  0.00     0.049 A 
ATOM     47  C   UNL     1     -12.900  -1.552   0.164  1.00  0.00     0.074 A 
ATOM     48  C   UNL     1     -12.451   3.221  -2.529  1.00  0.00     0.029 A 
ATOM     49  N   UNL     1     -12.235   3.398  -0.326  1.00  0.00    -0.354 N 
ATOM     50  N   UNL     1     -12.884  -0.292  -0.158  1.00  0.00    -0.248 NA
ATOM     51  C   UNL     1     -13.882  -1.858   1.196  1.00  0.00     0.031 C 
ATOM     52  C   UNL     1     -13.350   2.319  -1.913  1.00  0.00     0.029 A 
ATOM     53  C   UNL     1     -13.188   2.414  -0.543  1.00  0.00     0.049 A 
ATOM     54  H   UNL     1     -11.956   3.721   0.561  1.00  0.00     0.167 HD
ATOM     55  C   UNL     1     -13.755   0.391   0.629  1.00  0.00     0.074 A 
ATOM     56  C   UNL     1     -14.390  -0.636   1.434  1.00  0.00     0.031 C 
ATOM     57  C   UNL     1     -13.846   1.749   0.572  1.00  0.00     0.037 A 
BRANCH  44  58
ATOM     58  C   UNL     1     -10.237   5.825  -2.443  1.00  0.00     0.064 A 
ATOM     59  C   UNL     1     -11.210   6.286  -3.356  1.00  0.00     0.173 A 
ATOM     60  C   UNL     1      -9.090   6.640  -2.341  1.00  0.00     0.173 A 
ATOM     61  F   UNL     1     -12.398   5.683  -3.482  1.00  0.00    -0.203 F 
ATOM     62  C   UNL     1     -11.010   7.402  -4.172  1.00  0.00     0.198 A 
ATOM     63  C   UNL     1      -8.877   7.743  -3.178  1.00  0.00     0.198 A 
ATOM     64  F   UNL     1      -8.158   6.407  -1.405  1.00  0.00    -0.203 F 
ATOM     65  F   UNL     1     -11.970   7.778  -5.028  1.00  0.00    -0.200 F 
ATOM     66  C   UNL     1      -9.833   8.117  -4.101  1.00  0.00     0.200 A 
ATOM     67  F   UNL     1      -7.737   8.442  -3.082  1.00  0.00    -0.200 F 
ATOM     68  F   UNL     1      -9.634   9.175  -4.899  1.00  0.00    -0.200 F 
ENDBRANCH  44  58
BRANCH  45  69
ATOM     69  C   UNL     1     -11.125  -3.522   0.393  1.00  0.00     0.064 A 
ATOM     70  C   UNL     1     -10.590  -4.673  -0.228  1.00  0.00     0.173 A 
ATOM     71  C   UNL     1     -10.612  -3.205   1.661  1.00  0.00     0.173 A 
ATOM     72  F   UNL     1     -10.987  -5.013  -1.465  1.00  0.00    -0.203 F 
ATOM     73  C   UNL     1      -9.577  -5.433   0.364  1.00  0.00     0.198 A 
ATOM     74  C   UNL     1      -9.607  -3.978   2.260  1.00  0.00     0.198 A 
ATOM     75  F   UNL     1     -11.025  -2.104   2.304  1.00  0.00    -0.203 F 
ATOM     76  F   UNL     1      -9.035  -6.462  -0.305  1.00  0.00    -0.200 F 
ATOM     77  C   UNL     1      -9.083  -5.083   1.607  1.00  0.00     0.200 A 
ATOM     78  F   UNL     1      -9.103  -3.615   3.449  1.00  0.00    -0.200 F 
ATOM     79  F   UNL     1      -8.076  -5.780   2.150  1.00  0.00    -0.200 F 
ENDBRANCH  45  69
BRANCH  57  80
ATOM     80  C   UNL     1     -14.660   2.561   1.524  1.00  0.00     0.064 A 
ATOM     81  C   UNL     1     -14.795   2.248   2.883  1.00  0.00     0.173 A 
ATOM     82  C   UNL     1     -15.246   3.769   1.091  1.00  0.00     0.173 A 
ATOM     83  F   UNL     1     -14.171   1.188   3.418  1.00  0.00    -0.203 F 
ATOM     84  C   UNL     1     -15.548   3.048   3.739  1.00  0.00     0.198 A 
ATOM     85  C   UNL     1     -15.942   4.597   1.963  1.00  0.00     0.198 A 
ATOM     86  F   UNL     1     -15.142   4.179  -0.182  1.00  0.00    -0.203 F 
ATOM     87  F   UNL     1     -15.707   2.680   5.018  1.00  0.00    -0.200 F 
ATOM     88  C   UNL     1     -16.114   4.224   3.281  1.00  0.00     0.200 A 
ATOM     89  F   UNL     1     -16.436   5.761   1.520  1.00  0.00    -0.200 F 
ATOM     90  F   UNL     1     -16.812   5.006   4.114  1.00  0.00    -0.200 F 
ENDBRANCH  57  80
ENDBRANCH  31  32
ENDBRANCH  24  26
ENDBRANCH  23  24
ENDBRANCH  22  23
ENDBRANCH   1  22
TORSDOF 16
