REMARK SMILES [NH3+][C@H]1CN(C(=O)OCC2c3ccccc3-c3ccccc32)C[C@@H]1C(=O)OCCOC(=O)c1ccc(-c2c3nc(c(-c4c(F)c(F)c(F)c(F)c4F)c4ccc([nH]4)c(-c4c(F)c(F)c(F)c(F)c4F)c4nc(c(-c5c(F)c(F)c(F)c(F)c5F)c5ccc2[nH]5)C=C4)C=C3)cc1
REMARK SMILES IDX 27 1 26 2 24 3 25 4 23 5 2 6 3 7 4 8 22 9 1 10 5 14 6 15
REMARK SMILES IDX 7 16 8 17 9 18 10 19 21 20 11 21 15 22 16 23 20 24 12 25
REMARK SMILES IDX 14 26 17 27 19 28 13 29 18 30 28 31 29 32 30 33 31 34 32 35
REMARK SMILES IDX 33 36 94 37 34 38 93 39 35 40 36 41 37 42 87 43 38 44 92 45
REMARK SMILES IDX 86 46 88 47 39 48 91 49 85 50 84 51 40 53 72 54 52 55 71 56
REMARK SMILES IDX 53 57 56 58 70 59 89 60 54 61 55 62 69 64 90 65 57 66 41 67
REMARK SMILES IDX 42 68 50 69 43 70 44 71 48 72 51 73 45 74 46 75 49 76 47 77
REMARK SMILES IDX 73 78 74 79 82 80 75 81 76 82 80 83 83 84 77 85 78 86 81 87
REMARK SMILES IDX 79 88 58 89 59 90 67 91 60 92 61 93 65 94 68 95 62 96 63 97
REMARK SMILES IDX 66 98 64 99
REMARK H PARENT 1 11 1 12 1 13 88 52 56 63
REMARK Flexibility Score: inf
ROOT
ATOM      1  C   UNL     1       2.435  -2.139   2.939  1.00  0.00     0.274 C 
ENDROOT
BRANCH   1   2
ATOM      2  O   UNL     1       2.170  -1.891   1.541  1.00  0.00    -0.462 OA
BRANCH   2   3
ATOM      3  C   UNL     1       1.408  -2.831   0.914  1.00  0.00     0.317 C 
ATOM      4  O   UNL     1       0.883  -3.776   1.489  1.00  0.00    -0.252 OA
BRANCH   3   5
ATOM      5  C   UNL     1       1.421  -2.641  -0.590  1.00  0.00     0.178 C 
ATOM      6  C   UNL     1       0.864  -1.293  -1.082  1.00  0.00     0.216 C 
ATOM      7  C   UNL     1      -0.636  -1.567  -1.374  1.00  0.00     0.188 C 
ATOM      8  N   UNL     1      -0.771  -3.007  -1.382  1.00  0.00    -0.301 N 
ATOM      9  C   UNL     1       0.513  -3.666  -1.254  1.00  0.00     0.145 C 
BRANCH   6  10
ATOM     10  N   UNL     1       1.558  -0.882  -2.317  1.00  0.00    -0.353 N 
ATOM     11  H   UNL     1       1.183   0.011  -2.637  1.00  0.00     0.344 HD
ATOM     12  H   UNL     1       1.415  -1.589  -3.038  1.00  0.00     0.344 HD
ATOM     13  H   UNL     1       2.556  -0.785  -2.130  1.00  0.00     0.344 HD
ENDBRANCH   6  10
BRANCH   8  14
ATOM     14  C   UNL     1      -1.953  -3.677  -1.207  1.00  0.00     0.410 C 
ATOM     15  O   UNL     1      -2.031  -4.720  -0.575  1.00  0.00    -0.224 OA
BRANCH  14  16
ATOM     16  O   UNL     1      -3.005  -3.061  -1.811  1.00  0.00    -0.448 OA
BRANCH  16  17
ATOM     17  C   UNL     1      -4.292  -3.717  -1.691  1.00  0.00     0.248 C 
BRANCH  17  18
ATOM     18  C   UNL     1      -4.627  -4.655  -2.865  1.00  0.00     0.088 C 
ATOM     19  C   UNL     1      -4.077  -6.076  -2.696  1.00  0.00    -0.029 A 
ATOM     20  C   UNL     1      -6.134  -4.932  -2.926  1.00  0.00    -0.029 A 
ATOM     21  C   UNL     1      -2.764  -6.509  -2.627  1.00  0.00     0.005 A 
ATOM     22  C   UNL     1      -5.131  -7.001  -2.575  1.00  0.00    -0.014 A 
ATOM     23  C   UNL     1      -6.376  -6.316  -2.820  1.00  0.00    -0.014 A 
ATOM     24  C   UNL     1      -7.185  -4.038  -3.083  1.00  0.00     0.005 A 
ATOM     25  C   UNL     1      -2.510  -7.833  -2.262  1.00  0.00     0.000 A 
ATOM     26  C   UNL     1      -4.887  -8.322  -2.227  1.00  0.00     0.009 A 
ATOM     27  C   UNL     1      -7.650  -6.824  -2.989  1.00  0.00     0.009 A 
ATOM     28  C   UNL     1      -8.482  -4.549  -3.180  1.00  0.00     0.000 A 
ATOM     29  C   UNL     1      -3.564  -8.728  -2.038  1.00  0.00     0.001 A 
ATOM     30  C   UNL     1      -8.710  -5.932  -3.159  1.00  0.00     0.001 A 
ENDBRANCH  17  18
ENDBRANCH  16  17
ENDBRANCH  14  16
ENDBRANCH   8  14
ENDBRANCH   3   5
ENDBRANCH   2   3
ENDBRANCH   1   2
BRANCH   1  31
ATOM     31  C   UNL     1       1.612  -1.223   3.841  1.00  0.00     0.275 C 
BRANCH  31  32
ATOM     32  O   UNL     1       0.212  -1.539   3.739  1.00  0.00    -0.458 OA
BRANCH  32  33
ATOM     33  C   UNL     1      -0.554  -0.619   3.114  1.00  0.00     0.338 C 
ATOM     34  O   UNL     1      -0.209   0.459   2.659  1.00  0.00    -0.246 OA
BRANCH  33  35
ATOM     35  C   UNL     1      -1.919  -1.141   2.949  1.00  0.00     0.060 A 
ATOM     36  C   UNL     1      -2.111  -2.167   2.037  1.00  0.00     0.016 A 
ATOM     37  C   UNL     1      -3.020  -0.522   3.545  1.00  0.00     0.016 A 
ATOM     38  C   UNL     1      -3.401  -2.507   1.651  1.00  0.00     0.010 A 
ATOM     39  C   UNL     1      -4.323  -0.918   3.190  1.00  0.00     0.010 A 
ATOM     40  C   UNL     1      -4.530  -1.885   2.192  1.00  0.00    -0.014 A 
BRANCH  40  41
ATOM     41  C   UNL     1      -5.878  -2.196   1.615  1.00  0.00     0.031 A 
ATOM     42  C   UNL     1      -6.655  -1.119   0.899  1.00  0.00     0.074 A 
ATOM     43  C   UNL     1      -6.347  -3.463   1.572  1.00  0.00     0.049 A 
ATOM     44  N   UNL     1      -7.849  -1.172   0.359  1.00  0.00    -0.248 NA
ATOM     45  C   UNL     1      -5.989   0.184   0.735  1.00  0.00     0.031 C 
ATOM     46  C   UNL     1      -5.611  -4.639   2.031  1.00  0.00     0.029 A 
ATOM     47  N   UNL     1      -7.513  -3.989   1.058  1.00  0.00    -0.354 N 
ATOM     48  C   UNL     1      -8.100   0.099  -0.142  1.00  0.00     0.074 A 
ATOM     49  C   UNL     1      -6.924   0.897   0.122  1.00  0.00     0.031 C 
ATOM     50  C   UNL     1      -6.289  -5.743   1.688  1.00  0.00     0.029 A 
ATOM     51  C   UNL     1      -7.584  -5.365   1.131  1.00  0.00     0.049 A 
ATOM     52  H   UNL     1      -8.229  -3.434   0.674  1.00  0.00     0.167 HD
ATOM     53  C   UNL     1      -9.219   0.561  -0.750  1.00  0.00     0.037 A 
ATOM     54  C   UNL     1      -8.586  -6.221   0.825  1.00  0.00     0.037 A 
ATOM     55  C   UNL     1     -10.368  -0.246  -1.069  1.00  0.00     0.049 A 
ATOM     56  C   UNL     1      -9.873  -5.642   0.288  1.00  0.00     0.074 A 
ATOM     57  C   UNL     1     -11.558   0.147  -1.657  1.00  0.00     0.029 A 
ATOM     58  N   UNL     1     -10.467  -1.610  -0.838  1.00  0.00    -0.354 N 
ATOM     59  N   UNL     1     -10.137  -4.418  -0.107  1.00  0.00    -0.248 NA
ATOM     60  C   UNL     1     -11.015  -6.559   0.167  1.00  0.00     0.031 C 
ATOM     61  C   UNL     1     -12.399  -0.967  -1.730  1.00  0.00     0.029 A 
ATOM     62  C   UNL     1     -11.712  -2.067  -1.243  1.00  0.00     0.049 A 
ATOM     63  H   UNL     1      -9.759  -2.170  -0.444  1.00  0.00     0.167 HD
ATOM     64  C   UNL     1     -11.435  -4.444  -0.601  1.00  0.00     0.074 A 
ATOM     65  C   UNL     1     -11.912  -5.802  -0.448  1.00  0.00     0.031 C 
ATOM     66  C   UNL     1     -12.162  -3.433  -1.139  1.00  0.00     0.037 A 
BRANCH  53  67
ATOM     67  C   UNL     1      -9.301   2.034  -1.028  1.00  0.00     0.064 A 
ATOM     68  C   UNL     1      -8.622   2.642  -2.091  1.00  0.00     0.173 A 
ATOM     69  C   UNL     1     -10.125   2.841  -0.225  1.00  0.00     0.173 A 
ATOM     70  F   UNL     1      -7.811   1.918  -2.877  1.00  0.00    -0.203 F 
ATOM     71  C   UNL     1      -8.752   4.009  -2.331  1.00  0.00     0.198 A 
ATOM     72  C   UNL     1     -10.271   4.200  -0.483  1.00  0.00     0.198 A 
ATOM     73  F   UNL     1     -10.800   2.304   0.802  1.00  0.00    -0.203 F 
ATOM     74  F   UNL     1      -8.067   4.580  -3.332  1.00  0.00    -0.200 F 
ATOM     75  C   UNL     1      -9.581   4.785  -1.533  1.00  0.00     0.200 A 
ATOM     76  F   UNL     1     -11.081   4.943   0.284  1.00  0.00    -0.200 F 
ATOM     77  F   UNL     1      -9.710   6.097  -1.771  1.00  0.00    -0.200 F 
ENDBRANCH  53  67
BRANCH  54  78
ATOM     78  C   UNL     1      -8.409  -7.704   1.003  1.00  0.00     0.064 A 
ATOM     79  C   UNL     1      -8.637  -8.608  -0.047  1.00  0.00     0.173 A 
ATOM     80  C   UNL     1      -7.988  -8.269   2.219  1.00  0.00     0.173 A 
ATOM     81  F   UNL     1      -9.198  -8.193  -1.188  1.00  0.00    -0.203 F 
ATOM     82  C   UNL     1      -8.369  -9.971   0.074  1.00  0.00     0.198 A 
ATOM     83  C   UNL     1      -7.695  -9.629   2.337  1.00  0.00     0.198 A 
ATOM     84  F   UNL     1      -7.841  -7.497   3.306  1.00  0.00    -0.203 F 
ATOM     85  F   UNL     1      -8.608 -10.790  -0.960  1.00  0.00    -0.200 F 
ATOM     86  C   UNL     1      -7.873 -10.478   1.259  1.00  0.00     0.200 A 
ATOM     87  F   UNL     1      -7.235 -10.113   3.499  1.00  0.00    -0.200 F 
ATOM     88  F   UNL     1      -7.596 -11.784   1.371  1.00  0.00    -0.200 F 
ENDBRANCH  54  78
BRANCH  66  89
ATOM     89  C   UNL     1     -13.525  -3.762  -1.684  1.00  0.00     0.064 A 
ATOM     90  C   UNL     1     -14.596  -4.112  -0.849  1.00  0.00     0.173 A 
ATOM     91  C   UNL     1     -13.774  -3.675  -3.063  1.00  0.00     0.173 A 
ATOM     92  F   UNL     1     -14.412  -4.217   0.476  1.00  0.00    -0.203 F 
ATOM     93  C   UNL     1     -15.854  -4.395  -1.376  1.00  0.00     0.198 A 
ATOM     94  C   UNL     1     -15.042  -3.921  -3.583  1.00  0.00     0.198 A 
ATOM     95  F   UNL     1     -12.789  -3.333  -3.908  1.00  0.00    -0.203 F 
ATOM     96  F   UNL     1     -16.847  -4.780  -0.562  1.00  0.00    -0.200 F 
ATOM     97  C   UNL     1     -16.078  -4.291  -2.740  1.00  0.00     0.200 A 
ATOM     98  F   UNL     1     -15.261  -3.800  -4.900  1.00  0.00    -0.200 F 
ATOM     99  F   UNL     1     -17.293  -4.552  -3.243  1.00  0.00    -0.200 F 
ENDBRANCH  66  89
ENDBRANCH  40  41
ENDBRANCH  33  35
ENDBRANCH  32  33
ENDBRANCH  31  32
ENDBRANCH   1  31
TORSDOF 16
