REMARK SMILES C[C@@H](O)[C@@H](NC(=O)CN(C)C(=O)c1cccs1)C(=O)OCCOC(=O)c1ccc(-c2c3nc(c(-c4c(F)c(F)c(F)c(F)c4F)c4ccc([nH]4)c(-c4c(F)c(F)c(F)c(F)c4F)c4nc(c(-c5c(F)c(F)c(F)c(F)c5F)c5ccc2[nH]5)C=C4)C=C3)cc1
REMARK SMILES IDX 20 1 18 2 19 3 4 4 2 5 1 6 3 7 5 9 6 10 7 12 8 13 9 14 10 15
REMARK SMILES IDX 11 16 12 17 13 18 14 19 17 20 15 21 16 22 21 23 22 24 23 25
REMARK SMILES IDX 24 26 25 27 26 28 27 29 88 30 28 31 87 32 29 33 30 34 31 35
REMARK SMILES IDX 81 36 32 37 86 38 80 39 82 40 33 41 85 42 79 43 78 44 34 46
REMARK SMILES IDX 66 47 46 48 65 49 47 50 50 51 64 52 83 53 48 54 49 55 63 57
REMARK SMILES IDX 84 58 51 59 35 60 36 61 44 62 37 63 38 64 42 65 45 66 39 67
REMARK SMILES IDX 40 68 43 69 41 70 67 71 68 72 76 73 69 74 70 75 74 76 77 77
REMARK SMILES IDX 71 78 72 79 75 80 73 81 52 82 53 83 61 84 54 85 55 86 59 87
REMARK SMILES IDX 62 88 56 89 57 90 60 91 58 92
REMARK H PARENT 3 8 5 11 82 45 50 56
REMARK Flexibility Score: inf
ROOT
ATOM      1  O   UNL     1      -2.070  -3.427  -0.699  1.00  0.00    -0.460 OA
ENDROOT
BRANCH   1   2
ATOM      2  C   UNL     1      -2.647  -2.200  -0.729  1.00  0.00     0.331 C 
ATOM      3  O   UNL     1      -3.866  -2.041  -0.766  1.00  0.00    -0.250 OA
BRANCH   2   4
ATOM      4  C   UNL     1      -1.666  -1.013  -0.882  1.00  0.00     0.221 C 
BRANCH   4   5
ATOM      5  C   UNL     1      -0.136  -1.136  -0.671  1.00  0.00     0.145 C 
ATOM      6  C   UNL     1       0.478   0.205  -0.258  1.00  0.00     0.041 C 
BRANCH   5   7
ATOM      7  O   UNL     1       0.210  -2.063   0.339  1.00  0.00    -0.391 OA
ATOM      8  H   UNL     1      -0.137  -1.757   1.192  1.00  0.00     0.211 HD
ENDBRANCH   5   7
ENDBRANCH   4   5
BRANCH   4   9
ATOM      9  N   UNL     1      -1.932  -0.296  -2.142  1.00  0.00    -0.339 N 
ATOM     10  C   UNL     1      -1.705  -0.687  -3.433  1.00  0.00     0.240 C 
ATOM     11  H   UNL     1      -2.333   0.597  -2.039  1.00  0.00     0.164 HD
ATOM     12  O   UNL     1      -1.510   0.214  -4.250  1.00  0.00    -0.273 OA
BRANCH  10  13
ATOM     13  C   UNL     1      -1.709  -2.175  -3.840  1.00  0.00     0.219 C 
BRANCH  13  14
ATOM     14  N   UNL     1      -0.421  -2.863  -3.981  1.00  0.00    -0.332 N 
ATOM     15  C   UNL     1      -0.008  -3.794  -2.939  1.00  0.00     0.147 C 
BRANCH  14  16
ATOM     16  C   UNL     1       0.254  -2.777  -5.209  1.00  0.00     0.264 C 
ATOM     17  O   UNL     1      -0.103  -2.006  -6.095  1.00  0.00    -0.268 OA
BRANCH  16  18
ATOM     18  C   UNL     1       1.360  -3.703  -5.382  1.00  0.00     0.092 A 
ATOM     19  C   UNL     1       1.317  -5.083  -5.463  1.00  0.00     0.025 A 
ATOM     20  S   UNL     1       2.962  -3.112  -5.407  1.00  0.00    -0.139 S 
ATOM     21  C   UNL     1       2.618  -5.661  -5.425  1.00  0.00     0.012 A 
ATOM     22  C   UNL     1       3.604  -4.701  -5.381  1.00  0.00     0.065 A 
ENDBRANCH  16  18
ENDBRANCH  14  16
ENDBRANCH  13  14
ENDBRANCH  10  13
ENDBRANCH   4   9
ENDBRANCH   2   4
ENDBRANCH   1   2
BRANCH   1  23
ATOM     23  C   UNL     1      -2.971  -4.543  -0.889  1.00  0.00     0.274 C 
BRANCH  23  24
ATOM     24  C   UNL     1      -2.260  -5.865  -0.577  1.00  0.00     0.275 C 
BRANCH  24  25
ATOM     25  O   UNL     1      -2.143  -5.991   0.846  1.00  0.00    -0.458 OA
BRANCH  25  26
ATOM     26  C   UNL     1      -1.060  -5.363   1.369  1.00  0.00     0.338 C 
ATOM     27  O   UNL     1      -0.011  -5.111   0.816  1.00  0.00    -0.246 OA
BRANCH  26  28
ATOM     28  C   UNL     1      -1.525  -4.766   2.634  1.00  0.00     0.060 A 
ATOM     29  C   UNL     1      -1.460  -3.376   2.748  1.00  0.00     0.016 A 
ATOM     30  C   UNL     1      -2.105  -5.535   3.642  1.00  0.00     0.016 A 
ATOM     31  C   UNL     1      -1.960  -2.735   3.869  1.00  0.00     0.010 A 
ATOM     32  C   UNL     1      -2.607  -4.895   4.775  1.00  0.00     0.010 A 
ATOM     33  C   UNL     1      -2.527  -3.497   4.891  1.00  0.00    -0.014 A 
BRANCH  33  34
ATOM     34  C   UNL     1      -2.945  -2.826   6.133  1.00  0.00     0.031 A 
ATOM     35  C   UNL     1      -2.006  -2.836   7.297  1.00  0.00     0.074 A 
ATOM     36  C   UNL     1      -4.130  -2.198   6.191  1.00  0.00     0.049 A 
ATOM     37  N   UNL     1      -2.196  -2.411   8.517  1.00  0.00    -0.248 NA
ATOM     38  C   UNL     1      -0.670  -3.404   7.051  1.00  0.00     0.031 C 
ATOM     39  C   UNL     1      -5.075  -2.071   5.082  1.00  0.00     0.029 A 
ATOM     40  N   UNL     1      -4.741  -1.553   7.233  1.00  0.00    -0.354 N 
ATOM     41  C   UNL     1      -1.013  -2.678   9.190  1.00  0.00     0.074 A 
ATOM     42  C   UNL     1      -0.113  -3.306   8.248  1.00  0.00     0.031 C 
ATOM     43  C   UNL     1      -6.159  -1.401   5.510  1.00  0.00     0.029 A 
ATOM     44  C   UNL     1      -5.995  -1.090   6.927  1.00  0.00     0.049 A 
ATOM     45  H   UNL     1      -4.321  -1.434   8.116  1.00  0.00     0.167 HD
ATOM     46  C   UNL     1      -0.715  -2.422  10.484  1.00  0.00     0.037 A 
ATOM     47  C   UNL     1      -6.913  -0.510   7.721  1.00  0.00     0.037 A 
ATOM     48  C   UNL     1      -1.626  -1.804  11.407  1.00  0.00     0.049 A 
ATOM     49  C   UNL     1      -6.577  -0.288   9.171  1.00  0.00     0.074 A 
ATOM     50  C   UNL     1      -1.449  -1.532  12.751  1.00  0.00     0.029 A 
ATOM     51  N   UNL     1      -2.897  -1.358  11.070  1.00  0.00    -0.354 N 
ATOM     52  N   UNL     1      -5.473  -0.578   9.818  1.00  0.00    -0.248 NA
ATOM     53  C   UNL     1      -7.615   0.336  10.002  1.00  0.00     0.031 C 
ATOM     54  C   UNL     1      -2.625  -0.944  13.233  1.00  0.00     0.029 A 
ATOM     55  C   UNL     1      -3.519  -0.818  12.181  1.00  0.00     0.049 A 
ATOM     56  H   UNL     1      -3.296  -1.418  10.172  1.00  0.00     0.167 HD
ATOM     57  C   UNL     1      -5.675  -0.158  11.125  1.00  0.00     0.074 A 
ATOM     58  C   UNL     1      -7.003   0.421  11.175  1.00  0.00     0.031 C 
ATOM     59  C   UNL     1      -4.841  -0.245  12.191  1.00  0.00     0.037 A 
BRANCH  46  60
ATOM     60  C   UNL     1       0.632  -2.860  10.969  1.00  0.00     0.064 A 
ATOM     61  C   UNL     1       1.802  -2.174  10.609  1.00  0.00     0.173 A 
ATOM     62  C   UNL     1       0.757  -3.993  11.786  1.00  0.00     0.173 A 
ATOM     63  F   UNL     1       1.735  -1.102   9.806  1.00  0.00    -0.203 F 
ATOM     64  C   UNL     1       3.051  -2.622  11.031  1.00  0.00     0.198 A 
ATOM     65  C   UNL     1       2.005  -4.425  12.224  1.00  0.00     0.198 A 
ATOM     66  F   UNL     1      -0.332  -4.688  12.148  1.00  0.00    -0.203 F 
ATOM     67  F   UNL     1       4.160  -1.982  10.635  1.00  0.00    -0.200 F 
ATOM     68  C   UNL     1       3.151  -3.744  11.841  1.00  0.00     0.200 A 
ATOM     69  F   UNL     1       2.101  -5.510  13.005  1.00  0.00    -0.200 F 
ATOM     70  F   UNL     1       4.354  -4.178  12.240  1.00  0.00    -0.200 F 
ENDBRANCH  46  60
BRANCH  47  71
ATOM     71  C   UNL     1      -8.234  -0.121   7.168  1.00  0.00     0.064 A 
ATOM     72  C   UNL     1      -8.578   1.226   7.001  1.00  0.00     0.173 A 
ATOM     73  C   UNL     1      -9.180  -1.089   6.797  1.00  0.00     0.173 A 
ATOM     74  F   UNL     1      -7.715   2.187   7.364  1.00  0.00    -0.203 F 
ATOM     75  C   UNL     1      -9.823   1.593   6.495  1.00  0.00     0.198 A 
ATOM     76  C   UNL     1     -10.415  -0.721   6.269  1.00  0.00     0.198 A 
ATOM     77  F   UNL     1      -8.899  -2.392   6.939  1.00  0.00    -0.203 F 
ATOM     78  F   UNL     1     -10.141   2.890   6.380  1.00  0.00    -0.200 F 
ATOM     79  C   UNL     1     -10.739   0.619   6.124  1.00  0.00     0.200 A 
ATOM     80  F   UNL     1     -11.294  -1.666   5.905  1.00  0.00    -0.200 F 
ATOM     81  F   UNL     1     -11.935   0.973   5.635  1.00  0.00    -0.200 F 
ENDBRANCH  47  71
BRANCH  59  82
ATOM     82  C   UNL     1      -5.338   0.325  13.484  1.00  0.00     0.064 A 
ATOM     83  C   UNL     1      -6.293  -0.347  14.259  1.00  0.00     0.173 A 
ATOM     84  C   UNL     1      -4.828   1.539  13.964  1.00  0.00     0.173 A 
ATOM     85  F   UNL     1      -6.819  -1.504  13.830  1.00  0.00    -0.203 F 
ATOM     86  C   UNL     1      -6.738   0.192  15.463  1.00  0.00     0.198 A 
ATOM     87  C   UNL     1      -5.259   2.063  15.179  1.00  0.00     0.198 A 
ATOM     88  F   UNL     1      -3.909   2.213  13.257  1.00  0.00    -0.203 F 
ATOM     89  F   UNL     1      -7.682  -0.444  16.170  1.00  0.00    -0.200 F 
ATOM     90  C   UNL     1      -6.218   1.392  15.924  1.00  0.00     0.200 A 
ATOM     91  F   UNL     1      -4.750   3.219  15.627  1.00  0.00    -0.200 F 
ATOM     92  F   UNL     1      -6.647   1.908  17.083  1.00  0.00    -0.200 F 
ENDBRANCH  59  82
ENDBRANCH  33  34
ENDBRANCH  26  28
ENDBRANCH  25  26
ENDBRANCH  24  25
ENDBRANCH  23  24
ENDBRANCH   1  23
TORSDOF 18
