REMARK SMILES C[NH+]1CCC(C[N@H+](C)[C@H]2CC[C@]([NH3+])(C(=O)OCCOC(=O)c3ccc(-c4c5nc(c(-c6c(F)c(F)c(F)c(F)c6F)c6ccc([nH]6)c(-c6c(F)c(F)c(F)c(F)c6F)c6nc(c(-c7c(F)c(F)c(F)c(F)c7F)c7ccc4[nH]7)C=C6)C=C5)cc3)C2)CC1
REMARK SMILES IDX 17 1 16 2 14 3 15 4 12 5 9 6 10 7 85 8 11 9 7 10 8 11 6 13
REMARK SMILES IDX 5 14 1 15 2 16 3 17 87 18 4 20 86 21 13 22 18 26 19 27 20 28
REMARK SMILES IDX 21 29 22 30 23 31 84 32 24 33 83 34 25 35 26 36 27 37 77 38
REMARK SMILES IDX 28 39 82 40 76 41 78 42 29 43 81 44 75 45 74 46 30 48 62 49
REMARK SMILES IDX 42 50 61 51 43 52 46 53 60 54 79 55 44 56 45 57 59 59 80 60
REMARK SMILES IDX 47 61 31 62 32 63 40 64 33 65 34 66 38 67 41 68 35 69 36 70
REMARK SMILES IDX 39 71 37 72 63 73 64 74 72 75 65 76 66 77 70 78 73 79 67 80
REMARK SMILES IDX 68 81 71 82 69 83 48 84 49 85 57 86 50 87 51 88 55 89 58 90
REMARK SMILES IDX 52 91 53 92 56 93 54 94
REMARK H PARENT 7 12 2 19 13 23 13 24 13 25 78 47 46 58
REMARK Flexibility Score: inf
ROOT
ATOM      1  C   UNL     1       6.353  -7.588   0.862  1.00  0.00     0.274 C 
ENDROOT
BRANCH   1   2
ATOM      2  O   UNL     1       5.717  -6.362   1.259  1.00  0.00    -0.457 OA
BRANCH   2   3
ATOM      3  C   UNL     1       5.539  -5.421   0.277  1.00  0.00     0.368 C 
ATOM      4  O   UNL     1       6.241  -5.298  -0.717  1.00  0.00    -0.245 OA
BRANCH   3   5
ATOM      5  C   UNL     1       4.199  -4.684   0.536  1.00  0.00     0.198 C 
ATOM      6  C   UNL     1       3.232  -2.392   0.307  1.00  0.00     0.191 C 
ATOM      7  C   UNL     1       3.419  -2.706   1.796  1.00  0.00     0.072 C 
ATOM      8  C   UNL     1       3.896  -3.553  -0.469  1.00  0.00     0.145 C 
ATOM      9  C   UNL     1       4.232  -3.989   1.903  1.00  0.00     0.087 C 
BRANCH   6  10
ATOM     10  N   UNL     1       1.851  -1.917   0.026  1.00  0.00    -0.334 N 
ATOM     11  C   UNL     1       1.881  -0.833  -0.970  1.00  0.00     0.332 C 
ATOM     12  H   UNL     1       1.547  -1.621   0.953  1.00  0.00     0.348 HD
BRANCH  10  13
ATOM     13  C   UNL     1       0.820  -2.891  -0.382  1.00  0.00     0.266 C 
BRANCH  13  14
ATOM     14  C   UNL     1       0.475  -4.001   0.616  1.00  0.00     0.055 C 
ATOM     15  C   UNL     1      -0.560  -7.251   3.054  1.00  0.00     0.332 C 
ATOM     16  N   UNL     1      -0.824  -6.083   2.200  1.00  0.00    -0.337 N 
ATOM     17  C   UNL     1      -0.330  -6.366   0.847  1.00  0.00     0.262 C 
ATOM     18  C   UNL     1      -0.249  -4.871   2.814  1.00  0.00     0.262 C 
ATOM     19  H   UNL     1      -1.824  -5.901   2.117  1.00  0.00     0.347 HD
ATOM     20  C   UNL     1      -0.303  -5.137  -0.060  1.00  0.00     0.071 C 
ATOM     21  C   UNL     1      -0.276  -3.635   1.891  1.00  0.00     0.071 C 
ENDBRANCH  13  14
ENDBRANCH  10  13
ENDBRANCH   6  10
BRANCH   5  22
ATOM     22  N   UNL     1       3.177  -5.738   0.460  1.00  0.00    -0.343 N 
ATOM     23  H   UNL     1       2.256  -5.331   0.621  1.00  0.00     0.345 HD
ATOM     24  H   UNL     1       3.365  -6.446   1.170  1.00  0.00     0.345 HD
ATOM     25  H   UNL     1       3.201  -6.169  -0.464  1.00  0.00     0.345 HD
ENDBRANCH   5  22
ENDBRANCH   3   5
ENDBRANCH   2   3
ENDBRANCH   1   2
BRANCH   1  26
ATOM     26  C   UNL     1       5.296  -8.698   0.841  1.00  0.00     0.275 C 
BRANCH  26  27
ATOM     27  O   UNL     1       4.386  -8.497  -0.260  1.00  0.00    -0.458 OA
BRANCH  27  28
ATOM     28  C   UNL     1       3.144  -9.003  -0.073  1.00  0.00     0.338 C 
ATOM     29  O   UNL     1       2.765  -9.652   0.896  1.00  0.00    -0.246 OA
BRANCH  28  30
ATOM     30  C   UNL     1       2.249  -8.705  -1.220  1.00  0.00     0.060 A 
ATOM     31  C   UNL     1       2.377  -7.543  -1.984  1.00  0.00     0.016 A 
ATOM     32  C   UNL     1       1.196  -9.584  -1.491  1.00  0.00     0.016 A 
ATOM     33  C   UNL     1       1.417  -7.224  -2.952  1.00  0.00     0.010 A 
ATOM     34  C   UNL     1       0.306  -9.318  -2.539  1.00  0.00     0.010 A 
ATOM     35  C   UNL     1       0.394  -8.127  -3.279  1.00  0.00    -0.014 A 
BRANCH  35  36
ATOM     36  C   UNL     1      -0.553  -7.888  -4.412  1.00  0.00     0.031 A 
ATOM     37  C   UNL     1      -2.042  -8.008  -4.209  1.00  0.00     0.074 A 
ATOM     38  C   UNL     1      -0.088  -7.653  -5.657  1.00  0.00     0.049 A 
ATOM     39  N   UNL     1      -2.992  -8.183  -5.096  1.00  0.00    -0.248 NA
ATOM     40  C   UNL     1      -2.524  -7.937  -2.822  1.00  0.00     0.031 C 
ATOM     41  C   UNL     1       1.317  -7.469  -6.022  1.00  0.00     0.029 A 
ATOM     42  N   UNL     1      -0.754  -7.562  -6.858  1.00  0.00    -0.354 N 
ATOM     43  C   UNL     1      -4.172  -8.306  -4.372  1.00  0.00     0.074 A 
ATOM     44  C   UNL     1      -3.821  -8.175  -2.973  1.00  0.00     0.031 C 
ATOM     45  C   UNL     1       1.410  -7.281  -7.345  1.00  0.00     0.029 A 
ATOM     46  C   UNL     1       0.088  -7.442  -7.938  1.00  0.00     0.049 A 
ATOM     47  H   UNL     1      -1.735  -7.581  -6.936  1.00  0.00     0.167 HD
ATOM     48  C   UNL     1      -5.429  -8.520  -4.834  1.00  0.00     0.037 A 
ATOM     49  C   UNL     1      -0.147  -7.528  -9.261  1.00  0.00     0.037 A 
ATOM     50  C   UNL     1      -5.786  -8.599  -6.229  1.00  0.00     0.049 A 
ATOM     51  C   UNL     1      -1.536  -7.804  -9.754  1.00  0.00     0.074 A 
ATOM     52  C   UNL     1      -7.036  -8.795  -6.793  1.00  0.00     0.029 A 
ATOM     53  N   UNL     1      -4.893  -8.469  -7.282  1.00  0.00    -0.354 N 
ATOM     54  N   UNL     1      -2.632  -8.000  -9.064  1.00  0.00    -0.248 NA
ATOM     55  C   UNL     1      -1.717  -7.892 -11.210  1.00  0.00     0.031 C 
ATOM     56  C   UNL     1      -6.895  -8.815  -8.185  1.00  0.00     0.029 A 
ATOM     57  C   UNL     1      -5.564  -8.588  -8.490  1.00  0.00     0.049 A 
ATOM     58  H   UNL     1      -3.925  -8.315  -7.186  1.00  0.00     0.167 HD
ATOM     59  C   UNL     1      -3.633  -8.224  -9.998  1.00  0.00     0.074 A 
ATOM     60  C   UNL     1      -3.018  -8.127 -11.305  1.00  0.00     0.031 C 
ATOM     61  C   UNL     1      -4.945  -8.488  -9.786  1.00  0.00     0.037 A 
BRANCH  48  62
ATOM     62  C   UNL     1      -6.523  -8.717  -3.824  1.00  0.00     0.064 A 
ATOM     63  C   UNL     1      -7.039  -7.653  -3.070  1.00  0.00     0.173 A 
ATOM     64  C   UNL     1      -7.105  -9.984  -3.654  1.00  0.00     0.173 A 
ATOM     65  F   UNL     1      -6.514  -6.425  -3.190  1.00  0.00    -0.203 F 
ATOM     66  C   UNL     1      -8.082  -7.854  -2.168  1.00  0.00     0.198 A 
ATOM     67  C   UNL     1      -8.165 -10.176  -2.772  1.00  0.00     0.198 A 
ATOM     68  F   UNL     1      -6.657 -11.034  -4.359  1.00  0.00    -0.203 F 
ATOM     69  F   UNL     1      -8.536  -6.830  -1.433  1.00  0.00    -0.200 F 
ATOM     70  C   UNL     1      -8.649  -9.113  -2.025  1.00  0.00     0.200 A 
ATOM     71  F   UNL     1      -8.721 -11.389  -2.647  1.00  0.00    -0.200 F 
ATOM     72  F   UNL     1      -9.660  -9.301  -1.166  1.00  0.00    -0.200 F 
ENDBRANCH  48  62
BRANCH  49  73
ATOM     73  C   UNL     1       0.993  -7.414 -10.207  1.00  0.00     0.064 A 
ATOM     74  C   UNL     1       1.156  -6.276 -11.005  1.00  0.00     0.173 A 
ATOM     75  C   UNL     1       1.966  -8.422 -10.292  1.00  0.00     0.173 A 
ATOM     76  F   UNL     1       0.236  -5.300 -10.975  1.00  0.00    -0.203 F 
ATOM     77  C   UNL     1       2.254  -6.146 -11.852  1.00  0.00     0.198 A 
ATOM     78  C   UNL     1       3.079  -8.278 -11.117  1.00  0.00     0.198 A 
ATOM     79  F   UNL     1       1.854  -9.530  -9.544  1.00  0.00    -0.203 F 
ATOM     80  F   UNL     1       2.377  -5.058 -12.624  1.00  0.00    -0.200 F 
ATOM     81  C   UNL     1       3.221  -7.141 -11.898  1.00  0.00     0.200 A 
ATOM     82  F   UNL     1       4.018  -9.233 -11.144  1.00  0.00    -0.200 F 
ATOM     83  F   UNL     1       4.288  -7.005 -12.696  1.00  0.00    -0.200 F 
ENDBRANCH  49  73
BRANCH  61  84
ATOM     84  C   UNL     1      -5.814  -8.653 -10.996  1.00  0.00     0.064 A 
ATOM     85  C   UNL     1      -5.777  -9.820 -11.773  1.00  0.00     0.173 A 
ATOM     86  C   UNL     1      -6.714  -7.643 -11.365  1.00  0.00     0.173 A 
ATOM     87  F   UNL     1      -4.919 -10.805 -11.470  1.00  0.00    -0.203 F 
ATOM     88  C   UNL     1      -6.598  -9.960 -12.889  1.00  0.00     0.198 A 
ATOM     89  C   UNL     1      -7.549  -7.796 -12.468  1.00  0.00     0.198 A 
ATOM     90  F   UNL     1      -6.787  -6.509 -10.652  1.00  0.00    -0.203 F 
ATOM     91  F   UNL     1      -6.519 -11.066 -13.642  1.00  0.00    -0.200 F 
ATOM     92  C   UNL     1      -7.486  -8.952 -13.232  1.00  0.00     0.200 A 
ATOM     93  F   UNL     1      -8.411  -6.824 -12.795  1.00  0.00    -0.200 F 
ATOM     94  F   UNL     1      -8.277  -9.090 -14.306  1.00  0.00    -0.200 F 
ENDBRANCH  61  84
ENDBRANCH  35  36
ENDBRANCH  28  30
ENDBRANCH  27  28
ENDBRANCH  26  27
ENDBRANCH   1  26
TORSDOF 15
