REMARK SMILES CC1(C)CC2=NC(=O)[C@H](C(=O)OCCOC(=O)c3ccc(-c4c5nc(c(-c6c(F)c(F)c(F)c(F)c6F)c6ccc([nH]6)c(-c6c(F)c(F)c(F)c(F)c6F)c6nc(c(-c7c(F)c(F)c(F)c(F)c7F)c7ccc4[nH]7)C=C6)C=C5)cc3)C=C2CS1
REMARK SMILES IDX 14 1 13 2 12 3 10 4 11 5 9 6 1 7 2 8 3 9 4 10 84 11 5 12
REMARK SMILES IDX 83 13 6 14 82 15 7 16 81 17 8 18 15 19 16 20 17 21 18 22
REMARK SMILES IDX 19 23 80 24 20 25 79 26 21 27 22 28 23 29 73 30 24 31 78 32
REMARK SMILES IDX 72 33 74 34 25 35 77 36 71 37 70 38 26 40 58 41 38 42 57 43
REMARK SMILES IDX 39 44 42 45 56 46 75 47 40 48 41 49 55 51 76 52 43 53 27 54
REMARK SMILES IDX 28 55 36 56 29 57 30 58 34 59 37 60 31 61 32 62 35 63 33 64
REMARK SMILES IDX 59 65 60 66 68 67 61 68 62 69 66 70 69 71 63 72 64 73 67 74
REMARK SMILES IDX 65 75 44 76 45 77 53 78 46 79 47 80 51 81 54 82 48 83 49 84
REMARK SMILES IDX 52 85 50 86
REMARK H PARENT 74 39 42 50
REMARK Flexibility Score: inf
ROOT
ATOM      1  C   UNL     1      -2.119   7.925  -5.286  1.00  0.00     0.275 C 
ENDROOT
BRANCH   1   2
ATOM      2  C   UNL     1      -1.926   7.838  -3.771  1.00  0.00     0.274 C 
BRANCH   2   3
ATOM      3  O   UNL     1      -0.589   7.420  -3.426  1.00  0.00    -0.461 OA
BRANCH   3   4
ATOM      4  C   UNL     1      -0.448   6.139  -2.987  1.00  0.00     0.322 C 
ATOM      5  O   UNL     1      -1.360   5.321  -2.930  1.00  0.00    -0.251 OA
BRANCH   4   6
ATOM      6  C   UNL     1       0.988   5.836  -2.593  1.00  0.00     0.213 C 
ATOM      7  C   UNL     1       0.862  -0.073   0.493  1.00  0.00     0.023 C 
ATOM      8  C   UNL     1       0.655   1.024  -0.567  1.00  0.00     0.016 C 
ATOM      9  C   UNL     1      -0.813   0.994  -1.016  1.00  0.00     0.023 C 
ATOM     10  C   UNL     1       1.045   2.379   0.020  1.00  0.00     0.074 C 
ATOM     11  S   UNL     1       1.812   0.651  -1.934  1.00  0.00    -0.150 SA
ATOM     12  C   UNL     1       1.093   3.568  -0.934  1.00  0.00     0.049 C 
ATOM     13  C   UNL     1       1.419   2.010  -3.035  1.00  0.00     0.107 C 
ATOM     14  N   UNL     1       1.001   4.727  -0.360  1.00  0.00    -0.217 NA
ATOM     15  C   UNL     1       1.335   3.356  -2.390  1.00  0.00    -0.019 C 
ATOM     16  C   UNL     1       1.108   5.892  -1.086  1.00  0.00     0.264 C 
ATOM     17  C   UNL     1       1.361   4.479  -3.129  1.00  0.00     0.004 C 
ATOM     18  O   UNL     1       1.236   6.981  -0.528  1.00  0.00    -0.271 OA
ENDBRANCH   4   6
ENDBRANCH   3   4
ENDBRANCH   2   3
ENDBRANCH   1   2
BRANCH   1  19
ATOM     19  O   UNL     1      -2.183   6.617  -5.888  1.00  0.00    -0.458 OA
BRANCH  19  20
ATOM     20  C   UNL     1      -1.023   6.169  -6.413  1.00  0.00     0.338 C 
ATOM     21  O   UNL     1       0.058   6.732  -6.431  1.00  0.00    -0.246 OA
BRANCH  20  22
ATOM     22  C   UNL     1      -1.188   4.782  -6.869  1.00  0.00     0.060 A 
ATOM     23  C   UNL     1      -0.778   3.773  -6.002  1.00  0.00     0.016 A 
ATOM     24  C   UNL     1      -1.600   4.476  -8.166  1.00  0.00     0.016 A 
ATOM     25  C   UNL     1      -0.702   2.459  -6.446  1.00  0.00     0.010 A 
ATOM     26  C   UNL     1      -1.589   3.140  -8.591  1.00  0.00     0.010 A 
ATOM     27  C   UNL     1      -1.115   2.123  -7.742  1.00  0.00    -0.014 A 
BRANCH  27  28
ATOM     28  C   UNL     1      -1.019   0.706  -8.183  1.00  0.00     0.031 A 
ATOM     29  C   UNL     1      -0.067   0.309  -9.277  1.00  0.00     0.074 A 
ATOM     30  C   UNL     1      -1.742  -0.240  -7.553  1.00  0.00     0.049 A 
ATOM     31  N   UNL     1       0.097  -0.860  -9.844  1.00  0.00    -0.248 NA
ATOM     32  C   UNL     1       0.816   1.360  -9.805  1.00  0.00     0.031 C 
ATOM     33  C   UNL     1      -2.670   0.002  -6.447  1.00  0.00     0.029 A 
ATOM     34  N   UNL     1      -1.796  -1.599  -7.739  1.00  0.00    -0.354 N 
ATOM     35  C   UNL     1       1.060  -0.674 -10.826  1.00  0.00     0.074 A 
ATOM     36  C   UNL     1       1.458   0.717 -10.771  1.00  0.00     0.031 C 
ATOM     37  C   UNL     1      -3.170  -1.170  -6.026  1.00  0.00     0.029 A 
ATOM     38  C   UNL     1      -2.652  -2.238  -6.875  1.00  0.00     0.049 A 
ATOM     39  H   UNL     1      -1.271  -2.071  -8.425  1.00  0.00     0.167 HD
ATOM     40  C   UNL     1       1.559  -1.581 -11.699  1.00  0.00     0.037 A 
ATOM     41  C   UNL     1      -3.006  -3.535  -6.794  1.00  0.00     0.037 A 
ATOM     42  C   UNL     1       1.213  -2.977 -11.717  1.00  0.00     0.049 A 
ATOM     43  C   UNL     1      -2.434  -4.519  -7.774  1.00  0.00     0.074 A 
ATOM     44  C   UNL     1       1.691  -3.974 -12.550  1.00  0.00     0.029 A 
ATOM     45  N   UNL     1       0.314  -3.577 -10.850  1.00  0.00    -0.354 N 
ATOM     46  N   UNL     1      -1.563  -4.318  -8.732  1.00  0.00    -0.248 NA
ATOM     47  C   UNL     1      -2.917  -5.904  -7.680  1.00  0.00     0.031 C 
ATOM     48  C   UNL     1       1.063  -5.176 -12.202  1.00  0.00     0.029 A 
ATOM     49  C   UNL     1       0.212  -4.929 -11.137  1.00  0.00     0.049 A 
ATOM     50  H   UNL     1      -0.179  -3.112 -10.136  1.00  0.00     0.167 HD
ATOM     51  C   UNL     1      -1.400  -5.544  -9.359  1.00  0.00     0.074 A 
ATOM     52  C   UNL     1      -2.238  -6.492  -8.656  1.00  0.00     0.031 C 
ATOM     53  C   UNL     1      -0.636  -5.853 -10.434  1.00  0.00     0.037 A 
BRANCH  40  54
ATOM     54  C   UNL     1       2.517  -1.089 -12.739  1.00  0.00     0.064 A 
ATOM     55  C   UNL     1       3.869  -0.864 -12.451  1.00  0.00     0.173 A 
ATOM     56  C   UNL     1       2.079  -0.900 -14.059  1.00  0.00     0.173 A 
ATOM     57  F   UNL     1       4.327  -1.019 -11.201  1.00  0.00    -0.203 F 
ATOM     58  C   UNL     1       4.752  -0.460 -13.450  1.00  0.00     0.198 A 
ATOM     59  C   UNL     1       2.967  -0.511 -15.057  1.00  0.00     0.198 A 
ATOM     60  F   UNL     1       0.793  -1.104 -14.380  1.00  0.00    -0.203 F 
ATOM     61  F   UNL     1       6.038  -0.230 -13.153  1.00  0.00    -0.200 F 
ATOM     62  C   UNL     1       4.302  -0.290 -14.752  1.00  0.00     0.200 A 
ATOM     63  F   UNL     1       2.532  -0.352 -16.315  1.00  0.00    -0.200 F 
ATOM     64  F   UNL     1       5.155   0.090 -15.713  1.00  0.00    -0.200 F 
ENDBRANCH  40  54
BRANCH  41  65
ATOM     65  C   UNL     1      -3.990  -3.968  -5.771  1.00  0.00     0.064 A 
ATOM     66  C   UNL     1      -3.597  -4.749  -4.676  1.00  0.00     0.173 A 
ATOM     67  C   UNL     1      -5.342  -3.611  -5.871  1.00  0.00     0.173 A 
ATOM     68  F   UNL     1      -2.319  -5.136  -4.555  1.00  0.00    -0.203 F 
ATOM     69  C   UNL     1      -4.524  -5.163  -3.722  1.00  0.00     0.198 A 
ATOM     70  C   UNL     1      -6.263  -4.005  -4.904  1.00  0.00     0.198 A 
ATOM     71  F   UNL     1      -5.766  -2.867  -6.904  1.00  0.00    -0.203 F 
ATOM     72  F   UNL     1      -4.131  -5.937  -2.702  1.00  0.00    -0.200 F 
ATOM     73  C   UNL     1      -5.854  -4.785  -3.833  1.00  0.00     0.200 A 
ATOM     74  F   UNL     1      -7.545  -3.630  -5.010  1.00  0.00    -0.200 F 
ATOM     75  F   UNL     1      -6.744  -5.179  -2.912  1.00  0.00    -0.200 F 
ENDBRANCH  41  65
BRANCH  53  76
ATOM     76  C   UNL     1      -0.685  -7.268 -10.918  1.00  0.00     0.064 A 
ATOM     77  C   UNL     1      -1.766  -7.732 -11.681  1.00  0.00     0.173 A 
ATOM     78  C   UNL     1       0.365  -8.156 -10.646  1.00  0.00     0.173 A 
ATOM     79  F   UNL     1      -2.799  -6.920 -11.949  1.00  0.00    -0.203 F 
ATOM     80  C   UNL     1      -1.800  -9.044 -12.144  1.00  0.00     0.198 A 
ATOM     81  C   UNL     1       0.335  -9.462 -11.125  1.00  0.00     0.198 A 
ATOM     82  F   UNL     1       1.420  -7.754  -9.921  1.00  0.00    -0.203 F 
ATOM     83  F   UNL     1      -2.857  -9.478 -12.845  1.00  0.00    -0.200 F 
ATOM     84  C   UNL     1      -0.748  -9.906 -11.870  1.00  0.00     0.200 A 
ATOM     85  F   UNL     1       1.353 -10.294 -10.863  1.00  0.00    -0.200 F 
ATOM     86  F   UNL     1      -0.783 -11.169 -12.317  1.00  0.00    -0.200 F 
ENDBRANCH  53  76
ENDBRANCH  27  28
ENDBRANCH  20  22
ENDBRANCH  19  20
ENDBRANCH   1  19
TORSDOF 11
