REMARK SMILES O=C(Cn1cc(C(=O)C(F)(F)F)c2ccccc21)OCCOC(=O)c1ccc(-c2c3nc(c(-c4c(F)c(F)c(F)c(F)c4F)c4ccc([nH]4)c(-c4c(F)c(F)c(F)c(F)c4F)c4nc(c(-c5c(F)c(F)c(F)c(F)c5F)c5ccc2[nH]5)C=C4)C=C3)cc1
REMARK SMILES IDX 20 1 19 2 2 3 1 4 3 5 4 6 5 7 18 8 6 9 13 10 17 11 14 12
REMARK SMILES IDX 16 13 15 14 7 15 8 16 9 17 10 18 11 19 12 20 21 21 22 22
REMARK SMILES IDX 23 23 24 24 25 25 26 26 87 27 27 28 86 29 28 30 29 31 30 32
REMARK SMILES IDX 80 33 31 34 85 35 79 36 81 37 32 38 84 39 78 40 77 41 33 43
REMARK SMILES IDX 65 44 45 45 64 46 46 47 49 48 63 49 82 50 47 51 48 52 62 54
REMARK SMILES IDX 83 55 50 56 34 57 35 58 43 59 36 60 37 61 41 62 44 63 38 64
REMARK SMILES IDX 39 65 42 66 40 67 66 68 67 69 75 70 68 71 69 72 73 73 76 74
REMARK SMILES IDX 70 75 71 76 74 77 72 78 51 79 52 80 60 81 53 82 54 83 58 84
REMARK SMILES IDX 61 85 55 86 56 87 59 88 57 89
REMARK H PARENT 81 42 49 53
REMARK Flexibility Score: inf
ROOT
ATOM      1  C   UNL     1       4.247   1.300  -0.208  1.00  0.00     0.274 C 
ENDROOT
BRANCH   1   2
ATOM      2  O   UNL     1       2.924   0.871  -0.590  1.00  0.00    -0.461 OA
BRANCH   2   3
ATOM      3  C   UNL     1       2.717  -0.405  -1.027  1.00  0.00     0.326 C 
ATOM      4  O   UNL     1       1.992  -0.619  -1.996  1.00  0.00    -0.250 OA
BRANCH   3   5
ATOM      5  C   UNL     1       3.226  -1.514  -0.141  1.00  0.00     0.244 C 
BRANCH   5   6
ATOM      6  N   UNL     1       4.111  -2.480  -0.765  1.00  0.00    -0.335 N 
ATOM      7  C   UNL     1       5.285  -2.144  -1.369  1.00  0.00     0.099 A 
ATOM      8  C   UNL     1       4.030  -3.851  -0.639  1.00  0.00     0.049 A 
ATOM      9  C   UNL     1       5.878  -3.288  -1.862  1.00  0.00     0.053 A 
ATOM     10  C   UNL     1       5.104  -4.387  -1.362  1.00  0.00     0.011 A 
ATOM     11  C   UNL     1       3.112  -4.670   0.041  1.00  0.00     0.027 A 
ATOM     12  C   UNL     1       5.222  -5.792  -1.435  1.00  0.00     0.011 A 
ATOM     13  C   UNL     1       3.283  -6.053  -0.006  1.00  0.00     0.002 A 
ATOM     14  C   UNL     1       4.318  -6.611  -0.745  1.00  0.00     0.001 A 
BRANCH   9  15
ATOM     15  C   UNL     1       7.090  -3.288  -2.686  1.00  0.00     0.268 C 
ATOM     16  O   UNL     1       7.620  -4.344  -3.037  1.00  0.00    -0.284 OA
BRANCH  15  17
ATOM     17  C   UNL     1       7.667  -1.912  -3.052  1.00  0.00     0.454 C 
ATOM     18  F   UNL     1       6.732  -1.061  -3.573  1.00  0.00    -0.163 F 
ATOM     19  F   UNL     1       8.177  -1.263  -1.960  1.00  0.00    -0.163 F 
ATOM     20  F   UNL     1       8.673  -1.960  -3.966  1.00  0.00    -0.163 F 
ENDBRANCH  15  17
ENDBRANCH   9  15
ENDBRANCH   5   6
ENDBRANCH   3   5
ENDBRANCH   2   3
ENDBRANCH   1   2
BRANCH   1  21
ATOM     21  C   UNL     1       4.371   1.659   1.277  1.00  0.00     0.275 C 
BRANCH  21  22
ATOM     22  O   UNL     1       3.669   0.702   2.082  1.00  0.00    -0.458 OA
BRANCH  22  23
ATOM     23  C   UNL     1       2.456   1.115   2.536  1.00  0.00     0.338 C 
ATOM     24  O   UNL     1       2.078   2.265   2.678  1.00  0.00    -0.246 OA
BRANCH  23  25
ATOM     25  C   UNL     1       1.552  -0.052   2.473  1.00  0.00     0.060 A 
ATOM     26  C   UNL     1       1.954  -1.326   2.880  1.00  0.00     0.016 A 
ATOM     27  C   UNL     1       0.354   0.124   1.770  1.00  0.00     0.016 A 
ATOM     28  C   UNL     1       1.207  -2.430   2.469  1.00  0.00     0.010 A 
ATOM     29  C   UNL     1      -0.384  -0.982   1.358  1.00  0.00     0.010 A 
ATOM     30  C   UNL     1       0.079  -2.270   1.635  1.00  0.00    -0.014 A 
BRANCH  30  31
ATOM     31  C   UNL     1      -0.619  -3.478   1.142  1.00  0.00     0.031 A 
ATOM     32  C   UNL     1      -0.983  -4.454   2.215  1.00  0.00     0.074 A 
ATOM     33  C   UNL     1      -1.045  -3.682  -0.129  1.00  0.00     0.049 A 
ATOM     34  N   UNL     1      -0.737  -5.726   2.284  1.00  0.00    -0.248 NA
ATOM     35  C   UNL     1      -1.625  -3.900   3.420  1.00  0.00     0.031 C 
ATOM     36  C   UNL     1      -0.998  -2.751  -1.261  1.00  0.00     0.029 A 
ATOM     37  N   UNL     1      -1.725  -4.752  -0.658  1.00  0.00    -0.354 N 
ATOM     38  C   UNL     1      -1.328  -6.160   3.470  1.00  0.00     0.074 A 
ATOM     39  C   UNL     1      -1.743  -4.982   4.186  1.00  0.00     0.031 C 
ATOM     40  C   UNL     1      -1.829  -3.184  -2.237  1.00  0.00     0.029 A 
ATOM     41  C   UNL     1      -2.371  -4.478  -1.863  1.00  0.00     0.049 A 
ATOM     42  H   UNL     1      -1.753  -5.635  -0.225  1.00  0.00     0.167 HD
ATOM     43  C   UNL     1      -1.623  -7.465   3.716  1.00  0.00     0.037 A 
ATOM     44  C   UNL     1      -3.339  -5.214  -2.471  1.00  0.00     0.037 A 
ATOM     45  C   UNL     1      -0.866  -8.367   2.900  1.00  0.00     0.049 A 
ATOM     46  C   UNL     1      -3.293  -6.582  -1.907  1.00  0.00     0.074 A 
ATOM     47  C   UNL     1       0.472  -8.682   2.769  1.00  0.00     0.029 A 
ATOM     48  N   UNL     1      -1.484  -8.961   1.831  1.00  0.00    -0.354 N 
ATOM     49  N   UNL     1      -2.349  -7.447  -2.134  1.00  0.00    -0.248 NA
ATOM     50  C   UNL     1      -4.137  -6.856  -0.755  1.00  0.00     0.031 C 
ATOM     51  C   UNL     1       0.643  -9.027   1.397  1.00  0.00     0.029 A 
ATOM     52  C   UNL     1      -0.603  -8.908   0.784  1.00  0.00     0.049 A 
ATOM     53  H   UNL     1      -2.388  -9.350   1.819  1.00  0.00     0.167 HD
ATOM     54  C   UNL     1      -2.200  -8.117  -0.933  1.00  0.00     0.074 A 
ATOM     55  C   UNL     1      -3.385  -7.776  -0.152  1.00  0.00     0.031 C 
ATOM     56  C   UNL     1      -1.001  -8.663  -0.579  1.00  0.00     0.037 A 
BRANCH  43  57
ATOM     57  C   UNL     1      -2.840  -7.899   4.490  1.00  0.00     0.064 A 
ATOM     58  C   UNL     1      -2.950  -9.226   4.945  1.00  0.00     0.173 A 
ATOM     59  C   UNL     1      -4.022  -7.128   4.552  1.00  0.00     0.173 A 
ATOM     60  F   UNL     1      -1.899 -10.057   4.888  1.00  0.00    -0.203 F 
ATOM     61  C   UNL     1      -4.167  -9.750   5.392  1.00  0.00     0.198 A 
ATOM     62  C   UNL     1      -5.218  -7.637   5.051  1.00  0.00     0.198 A 
ATOM     63  F   UNL     1      -4.088  -5.895   4.033  1.00  0.00    -0.203 F 
ATOM     64  F   UNL     1      -4.254 -11.048   5.713  1.00  0.00    -0.200 F 
ATOM     65  C   UNL     1      -5.298  -8.955   5.446  1.00  0.00     0.200 A 
ATOM     66  F   UNL     1      -6.308  -6.857   5.071  1.00  0.00    -0.200 F 
ATOM     67  F   UNL     1      -6.475  -9.469   5.827  1.00  0.00    -0.200 F 
ENDBRANCH  43  57
BRANCH  44  68
ATOM     68  C   UNL     1      -4.522  -4.755  -3.250  1.00  0.00     0.064 A 
ATOM     69  C   UNL     1      -5.292  -5.662  -4.005  1.00  0.00     0.173 A 
ATOM     70  C   UNL     1      -5.103  -3.494  -3.021  1.00  0.00     0.173 A 
ATOM     71  F   UNL     1      -4.841  -6.904  -4.234  1.00  0.00    -0.203 F 
ATOM     72  C   UNL     1      -6.575  -5.339  -4.465  1.00  0.00     0.198 A 
ATOM     73  C   UNL     1      -6.379  -3.169  -3.489  1.00  0.00     0.198 A 
ATOM     74  F   UNL     1      -4.494  -2.586  -2.247  1.00  0.00    -0.203 F 
ATOM     75  F   UNL     1      -7.306  -6.257  -5.112  1.00  0.00    -0.200 F 
ATOM     76  C   UNL     1      -7.121  -4.096  -4.195  1.00  0.00     0.200 A 
ATOM     77  F   UNL     1      -6.912  -1.976  -3.187  1.00  0.00    -0.200 F 
ATOM     78  F   UNL     1      -8.375  -3.809  -4.572  1.00  0.00    -0.200 F 
ENDBRANCH  44  68
BRANCH  56  79
ATOM     79  C   UNL     1       0.065  -8.767  -1.633  1.00  0.00     0.064 A 
ATOM     80  C   UNL     1       0.628  -7.661  -2.295  1.00  0.00     0.173 A 
ATOM     81  C   UNL     1       0.638 -10.024  -1.874  1.00  0.00     0.173 A 
ATOM     82  F   UNL     1       0.200  -6.417  -2.044  1.00  0.00    -0.203 F 
ATOM     83  C   UNL     1       1.688  -7.817  -3.187  1.00  0.00     0.198 A 
ATOM     84  C   UNL     1       1.724 -10.170  -2.731  1.00  0.00     0.198 A 
ATOM     85  F   UNL     1       0.174 -11.108  -1.233  1.00  0.00    -0.203 F 
ATOM     86  F   UNL     1       2.198  -6.752  -3.822  1.00  0.00    -0.200 F 
ATOM     87  C   UNL     1       2.243  -9.070  -3.394  1.00  0.00     0.200 A 
ATOM     88  F   UNL     1       2.288 -11.376  -2.890  1.00  0.00    -0.200 F 
ATOM     89  F   UNL     1       3.297  -9.215  -4.209  1.00  0.00    -0.200 F 
ENDBRANCH  56  79
ENDBRANCH  30  31
ENDBRANCH  23  25
ENDBRANCH  22  23
ENDBRANCH  21  22
ENDBRANCH   1  21
TORSDOF 14
