REMARK SMILES CN(CC(C)(C)O)C(=O)NC[C@@H](C(=O)OCCOC(=O)c1ccc(-c2c3nc(c(-c4c(F)c(F)c(F)c(F)c4F)c4ccc([nH]4)c(-c4c(F)c(F)c(F)c(F)c4F)c4nc(c(-c5c(F)c(F)c(F)c(F)c5F)c5ccc2[nH]5)C=C4)C=C3)cc1)c1ccccc1
REMARK SMILES IDX 13 1 14 2 12 3 11 4 10 5 8 6 9 7 2 9 1 10 3 11 4 12 5 13
REMARK SMILES IDX 6 14 7 15 84 17 85 18 89 19 86 20 88 21 87 22 15 23 16 24
REMARK SMILES IDX 17 25 18 26 19 27 20 28 21 29 22 30 83 31 23 32 82 33 24 34
REMARK SMILES IDX 25 35 26 36 76 37 27 38 81 39 75 40 77 41 28 42 80 43 74 44
REMARK SMILES IDX 73 45 29 47 61 48 41 49 60 50 42 51 45 52 59 53 78 54 43 55
REMARK SMILES IDX 44 56 58 58 79 59 46 60 30 61 31 62 39 63 32 64 33 65 37 66
REMARK SMILES IDX 40 67 34 68 35 69 38 70 36 71 62 72 63 73 71 74 64 75 65 76
REMARK SMILES IDX 69 77 72 78 66 79 67 80 70 81 68 82 47 83 48 84 56 85 49 86
REMARK SMILES IDX 50 87 54 88 57 89 51 90 52 91 55 92 53 93
REMARK H PARENT 10 8 7 16 77 46 45 57
REMARK Flexibility Score: inf
ROOT
ATOM      1  C   UNL     1      -1.558   2.376   5.539  1.00  0.00     0.315 C 
ATOM      2  O   UNL     1      -2.655   2.342   6.089  1.00  0.00    -0.251 OA
ENDROOT
BRANCH   1   3
ATOM      3  C   UNL     1      -1.377   2.582   4.030  1.00  0.00     0.148 C 
BRANCH   3   4
ATOM      4  C   UNL     1       0.100   2.699   3.595  1.00  0.00     0.137 C 
BRANCH   4   5
ATOM      5  N   UNL     1       0.698   1.387   3.388  1.00  0.00    -0.337 N 
ATOM      6  C   UNL     1       0.889   0.537   2.369  1.00  0.00     0.317 C 
ATOM      7  O   UNL     1       1.516  -0.483   2.682  1.00  0.00    -0.249 OA
ATOM      8  H   UNL     1       1.061   1.024   4.228  1.00  0.00     0.165 HD
BRANCH   6   9
ATOM      9  N   UNL     1       0.458   0.743   1.089  1.00  0.00    -0.325 N 
ATOM     10  C   UNL     1       0.921  -0.254   0.126  1.00  0.00     0.148 C 
BRANCH   9  11
ATOM     11  C   UNL     1      -0.452   1.756   0.529  1.00  0.00     0.155 C 
BRANCH  11  12
ATOM     12  C   UNL     1      -1.845   1.247   0.052  1.00  0.00     0.077 C 
ATOM     13  C   UNL     1      -2.610   0.501   1.143  1.00  0.00     0.043 C 
ATOM     14  C   UNL     1      -2.664   2.450  -0.439  1.00  0.00     0.043 C 
BRANCH  12  15
ATOM     15  O   UNL     1      -1.693   0.364  -1.067  1.00  0.00    -0.389 OA
ATOM     16  H   UNL     1      -1.178  -0.413  -0.797  1.00  0.00     0.211 HD
ENDBRANCH  12  15
ENDBRANCH  11  12
ENDBRANCH   9  11
ENDBRANCH   6   9
ENDBRANCH   4   5
ENDBRANCH   3   4
BRANCH   3  17
ATOM     17  C   UNL     1      -2.288   3.681   3.470  1.00  0.00    -0.032 A 
ATOM     18  C   UNL     1      -1.809   4.929   3.039  1.00  0.00     0.004 A 
ATOM     19  C   UNL     1      -3.668   3.428   3.339  1.00  0.00     0.004 A 
ATOM     20  C   UNL     1      -2.665   5.856   2.434  1.00  0.00     0.000 A 
ATOM     21  C   UNL     1      -4.523   4.359   2.744  1.00  0.00     0.000 A 
ATOM     22  C   UNL     1      -4.018   5.568   2.278  1.00  0.00     0.000 A 
ENDBRANCH   3  17
ENDBRANCH   1   3
BRANCH   1  23
ATOM     23  O   UNL     1      -0.381   2.175   6.192  1.00  0.00    -0.462 OA
BRANCH  23  24
ATOM     24  C   UNL     1      -0.444   2.028   7.626  1.00  0.00     0.274 C 
BRANCH  24  25
ATOM     25  C   UNL     1       0.004   3.323   8.300  1.00  0.00     0.275 C 
BRANCH  25  26
ATOM     26  O   UNL     1      -0.924   4.377   7.980  1.00  0.00    -0.458 OA
BRANCH  26  27
ATOM     27  C   UNL     1      -0.443   5.389   7.224  1.00  0.00     0.338 C 
ATOM     28  O   UNL     1       0.707   5.554   6.845  1.00  0.00    -0.246 OA
BRANCH  27  29
ATOM     29  C   UNL     1      -1.541   6.295   6.841  1.00  0.00     0.060 A 
ATOM     30  C   UNL     1      -2.696   5.771   6.272  1.00  0.00     0.016 A 
ATOM     31  C   UNL     1      -1.370   7.678   6.902  1.00  0.00     0.016 A 
ATOM     32  C   UNL     1      -3.618   6.619   5.663  1.00  0.00     0.010 A 
ATOM     33  C   UNL     1      -2.362   8.528   6.390  1.00  0.00     0.010 A 
ATOM     34  C   UNL     1      -3.485   8.013   5.717  1.00  0.00    -0.014 A 
BRANCH  34  35
ATOM     35  C   UNL     1      -4.472   8.910   5.030  1.00  0.00     0.031 A 
ATOM     36  C   UNL     1      -3.995  10.023   4.127  1.00  0.00     0.074 A 
ATOM     37  C   UNL     1      -5.804   8.739   5.169  1.00  0.00     0.049 A 
ATOM     38  N   UNL     1      -4.646  11.074   3.689  1.00  0.00    -0.248 NA
ATOM     39  C   UNL     1      -2.599   9.957   3.666  1.00  0.00     0.031 C 
ATOM     40  C   UNL     1      -6.457   7.678   5.937  1.00  0.00     0.029 A 
ATOM     41  N   UNL     1      -6.859   9.458   4.652  1.00  0.00    -0.354 N 
ATOM     42  C   UNL     1      -3.716  11.841   2.998  1.00  0.00     0.074 A 
ATOM     43  C   UNL     1      -2.463  11.117   3.038  1.00  0.00     0.031 C 
ATOM     44  C   UNL     1      -7.785   7.770   5.784  1.00  0.00     0.029 A 
ATOM     45  C   UNL     1      -8.090   8.978   5.029  1.00  0.00     0.049 A 
ATOM     46  H   UNL     1      -6.742  10.242   4.068  1.00  0.00     0.167 HD
ATOM     47  C   UNL     1      -3.891  13.046   2.403  1.00  0.00     0.037 A 
ATOM     48  C   UNL     1      -9.330   9.479   4.861  1.00  0.00     0.037 A 
ATOM     49  C   UNL     1      -5.160  13.714   2.266  1.00  0.00     0.049 A 
ATOM     50  C   UNL     1      -9.505  10.815   4.200  1.00  0.00     0.074 A 
ATOM     51  C   UNL     1      -5.436  14.928   1.658  1.00  0.00     0.029 A 
ATOM     52  N   UNL     1      -6.371  13.208   2.711  1.00  0.00    -0.354 N 
ATOM     53  N   UNL     1      -8.599  11.605   3.680  1.00  0.00    -0.248 NA
ATOM     54  C   UNL     1     -10.873  11.350   4.145  1.00  0.00     0.031 C 
ATOM     55  C   UNL     1      -6.812  15.167   1.755  1.00  0.00     0.029 A 
ATOM     56  C   UNL     1      -7.396  14.086   2.392  1.00  0.00     0.049 A 
ATOM     57  H   UNL     1      -6.487  12.352   3.183  1.00  0.00     0.167 HD
ATOM     58  C   UNL     1      -9.281  12.735   3.255  1.00  0.00     0.074 A 
ATOM     59  C   UNL     1     -10.683  12.514   3.540  1.00  0.00     0.031 C 
ATOM     60  C   UNL     1      -8.784  13.864   2.694  1.00  0.00     0.037 A 
BRANCH  47  61
ATOM     61  C   UNL     1      -2.676  13.760   1.888  1.00  0.00     0.064 A 
ATOM     62  C   UNL     1      -2.033  13.387   0.701  1.00  0.00     0.173 A 
ATOM     63  C   UNL     1      -2.196  14.891   2.570  1.00  0.00     0.173 A 
ATOM     64  F   UNL     1      -2.445  12.307   0.021  1.00  0.00    -0.203 F 
ATOM     65  C   UNL     1      -0.946  14.114   0.220  1.00  0.00     0.198 A 
ATOM     66  C   UNL     1      -1.125  15.629   2.073  1.00  0.00     0.198 A 
ATOM     67  F   UNL     1      -2.781  15.293   3.708  1.00  0.00    -0.203 F 
ATOM     68  F   UNL     1      -0.326  13.724  -0.903  1.00  0.00    -0.200 F 
ATOM     69  C   UNL     1      -0.499  15.238   0.900  1.00  0.00     0.200 A 
ATOM     70  F   UNL     1      -0.705  16.722   2.726  1.00  0.00    -0.200 F 
ATOM     71  F   UNL     1       0.537  15.944   0.426  1.00  0.00    -0.200 F 
ENDBRANCH  47  61
BRANCH  48  72
ATOM     72  C   UNL     1     -10.499   8.749   5.418  1.00  0.00     0.064 A 
ATOM     73  C   UNL     1     -11.443   8.149   4.575  1.00  0.00     0.173 A 
ATOM     74  C   UNL     1     -10.684   8.622   6.803  1.00  0.00     0.173 A 
ATOM     75  F   UNL     1     -11.328   8.273   3.245  1.00  0.00    -0.203 F 
ATOM     76  C   UNL     1     -12.527   7.446   5.098  1.00  0.00     0.198 A 
ATOM     77  C   UNL     1     -11.747   7.891   7.324  1.00  0.00     0.198 A 
ATOM     78  F   UNL     1      -9.810   9.185   7.652  1.00  0.00    -0.203 F 
ATOM     79  F   UNL     1     -13.436   6.910   4.273  1.00  0.00    -0.200 F 
ATOM     80  C   UNL     1     -12.671   7.307   6.471  1.00  0.00     0.200 A 
ATOM     81  F   UNL     1     -11.871   7.745   8.650  1.00  0.00    -0.200 F 
ATOM     82  F   UNL     1     -13.703   6.614   6.972  1.00  0.00    -0.200 F 
ENDBRANCH  48  72
BRANCH  60  83
ATOM     83  C   UNL     1      -9.766  14.943   2.352  1.00  0.00     0.064 A 
ATOM     84  C   UNL     1     -10.329  15.755   3.348  1.00  0.00     0.173 A 
ATOM     85  C   UNL     1     -10.135  15.178   1.021  1.00  0.00     0.173 A 
ATOM     86  F   UNL     1     -10.019  15.555   4.637  1.00  0.00    -0.203 F 
ATOM     87  C   UNL     1     -11.244  16.753   3.022  1.00  0.00     0.198 A 
ATOM     88  C   UNL     1     -11.035  16.190   0.697  1.00  0.00     0.198 A 
ATOM     89  F   UNL     1      -9.622  14.428   0.034  1.00  0.00    -0.203 F 
ATOM     90  F   UNL     1     -11.802  17.490   3.993  1.00  0.00    -0.200 F 
ATOM     91  C   UNL     1     -11.593  16.972   1.698  1.00  0.00     0.200 A 
ATOM     92  F   UNL     1     -11.367  16.405  -0.583  1.00  0.00    -0.200 F 
ATOM     93  F   UNL     1     -12.476  17.930   1.387  1.00  0.00    -0.200 F 
ENDBRANCH  60  83
ENDBRANCH  34  35
ENDBRANCH  27  29
ENDBRANCH  26  27
ENDBRANCH  25  26
ENDBRANCH  24  25
ENDBRANCH  23  24
ENDBRANCH   1  23
TORSDOF 18
