REMARK SMILES COC(=O)c1ccc2c(c1)=N[C@H](c1cn(CCC(=O)OCCOC(=O)c3ccc(-c4c5nc(c(-c6c(F)c(F)c(F)c(F)c6F)c6ccc([nH]6)c(-c6c(F)c(F)c(F)c(F)c6F)c6nc(c(-c7c(F)c(F)c(F)c(F)c7F)c7ccc4[nH]7)C=C6)C=C5)cc3)c3ccccc13)N=2
REMARK SMILES IDX 20 1 18 2 19 3 17 4 16 5 15 6 13 7 14 8 94 9 89 10 93 11
REMARK SMILES IDX 90 12 92 13 91 14 12 15 5 16 6 17 10 18 7 19 9 20 8 21 11 22
REMARK SMILES IDX 95 23 3 24 4 25 2 26 1 27 21 28 22 29 23 30 24 31 25 32
REMARK SMILES IDX 26 33 27 34 88 35 28 36 87 37 29 38 30 39 31 40 81 41 32 42
REMARK SMILES IDX 86 43 80 44 82 45 33 46 85 47 79 48 78 49 34 51 66 52 46 53
REMARK SMILES IDX 65 54 47 55 50 56 64 57 83 58 48 59 49 60 63 62 84 63 51 64
REMARK SMILES IDX 35 65 36 66 44 67 37 68 38 69 42 70 45 71 39 72 40 73 43 74
REMARK SMILES IDX 41 75 67 76 68 77 76 78 69 79 70 80 74 81 77 82 71 83 72 84
REMARK SMILES IDX 75 85 73 86 52 87 53 88 61 89 54 90 55 91 59 92 62 93 56 94
REMARK SMILES IDX 57 95 60 96 58 97
REMARK H PARENT 82 50 50 61
REMARK Flexibility Score: inf
ROOT
ATOM      1  O   UNL     1      -1.322   9.679  -8.356  1.00  0.00    -0.462 OA
ENDROOT
BRANCH   1   2
ATOM      2  C   UNL     1      -0.702   9.584  -9.551  1.00  0.00     0.307 C 
ATOM      3  O   UNL     1      -1.157   9.998 -10.610  1.00  0.00    -0.252 OA
BRANCH   2   4
ATOM      4  C   UNL     1       0.636   8.881  -9.458  1.00  0.00     0.144 C 
BRANCH   4   5
ATOM      5  C   UNL     1       1.264   8.829  -8.056  1.00  0.00     0.134 C 
BRANCH   5   6
ATOM      6  N   UNL     1       0.875   7.610  -7.363  1.00  0.00    -0.346 N 
ATOM      7  C   UNL     1       0.141   5.540  -7.539  1.00  0.00     0.024 A 
ATOM      8  C   UNL     1       1.233   6.359  -7.791  1.00  0.00     0.094 A 
ATOM      9  C   UNL     1      -0.910   6.410  -7.105  1.00  0.00     0.007 A 
ATOM     10  C   UNL     1      -0.221   7.479  -6.545  1.00  0.00     0.048 A 
ATOM     11  C   UNL     1      -2.280   6.276  -6.839  1.00  0.00     0.011 A 
ATOM     12  C   UNL     1      -0.690   8.150  -5.415  1.00  0.00     0.027 A 
ATOM     13  C   UNL     1      -2.803   6.987  -5.758  1.00  0.00     0.001 A 
ATOM     14  C   UNL     1      -1.982   7.815  -4.991  1.00  0.00     0.002 A 
BRANCH   7  15
ATOM     15  C   UNL     1       0.176   4.042  -7.437  1.00  0.00     0.255 C 
ATOM     16  C   UNL     1       0.322   2.362  -3.245  1.00  0.00     0.062 A 
ATOM     17  C   UNL     1      -1.091   2.151  -3.545  1.00  0.00     0.018 A 
ATOM     18  C   UNL     1       1.164   2.946  -4.115  1.00  0.00     0.046 A 
ATOM     19  C   UNL     1      -1.665   2.530  -4.697  1.00  0.00     0.031 A 
ATOM     20  C   UNL     1       0.631   3.313  -5.431  1.00  0.00     0.087 A 
ATOM     21  C   UNL     1      -0.805   3.137  -5.718  1.00  0.00     0.086 A 
ATOM     22  N   UNL     1       1.274   3.730  -6.465  1.00  0.00    -0.252 NA
ATOM     23  N   UNL     1      -1.111   3.497  -6.916  1.00  0.00    -0.252 NA
BRANCH  16  24
ATOM     24  C   UNL     1       0.927   1.925  -1.948  1.00  0.00     0.337 C 
ATOM     25  O   UNL     1       1.838   2.489  -1.389  1.00  0.00    -0.246 OA
BRANCH  24  26
ATOM     26  O   UNL     1       0.328   0.767  -1.545  1.00  0.00    -0.465 OA
ATOM     27  C   UNL     1       0.884   0.202  -0.356  1.00  0.00     0.282 C 
ENDBRANCH  24  26
ENDBRANCH  16  24
ENDBRANCH   7  15
ENDBRANCH   5   6
ENDBRANCH   4   5
ENDBRANCH   2   4
ENDBRANCH   1   2
BRANCH   1  28
ATOM     28  C   UNL     1      -2.595  10.350  -8.285  1.00  0.00     0.274 C 
BRANCH  28  29
ATOM     29  C   UNL     1      -2.551  11.323  -7.101  1.00  0.00     0.275 C 
BRANCH  29  30
ATOM     30  O   UNL     1      -1.855  12.516  -7.508  1.00  0.00    -0.458 OA
BRANCH  30  31
ATOM     31  C   UNL     1      -0.514  12.503  -7.309  1.00  0.00     0.338 C 
ATOM     32  O   UNL     1       0.078  12.047  -6.346  1.00  0.00    -0.246 OA
BRANCH  31  33
ATOM     33  C   UNL     1       0.123  12.791  -8.616  1.00  0.00     0.060 A 
ATOM     34  C   UNL     1      -0.576  13.445  -9.635  1.00  0.00     0.016 A 
ATOM     35  C   UNL     1       1.339  12.153  -8.888  1.00  0.00     0.016 A 
ATOM     36  C   UNL     1      -0.137  13.322 -10.946  1.00  0.00     0.010 A 
ATOM     37  C   UNL     1       1.758  12.004 -10.205  1.00  0.00     0.010 A 
ATOM     38  C   UNL     1       0.991  12.542 -11.238  1.00  0.00    -0.014 A 
BRANCH  38  39
ATOM     39  C   UNL     1       1.514  12.594 -12.601  1.00  0.00     0.031 A 
ATOM     40  C   UNL     1       2.276  13.848 -12.826  1.00  0.00     0.074 A 
ATOM     41  C   UNL     1       1.433  11.657 -13.568  1.00  0.00     0.049 A 
ATOM     42  N   UNL     1       1.921  14.859 -13.547  1.00  0.00    -0.248 NA
ATOM     43  C   UNL     1       3.476  14.078 -12.007  1.00  0.00     0.031 C 
ATOM     44  C   UNL     1       0.977  10.273 -13.479  1.00  0.00     0.029 A 
ATOM     45  N   UNL     1       1.821  11.766 -14.876  1.00  0.00    -0.354 N 
ATOM     46  C   UNL     1       2.935  15.798 -13.396  1.00  0.00     0.074 A 
ATOM     47  C   UNL     1       3.751  15.346 -12.303  1.00  0.00     0.031 C 
ATOM     48  C   UNL     1       1.296   9.619 -14.625  1.00  0.00     0.029 A 
ATOM     49  C   UNL     1       1.852  10.566 -15.579  1.00  0.00     0.049 A 
ATOM     50  H   UNL     1       2.061  12.628 -15.288  1.00  0.00     0.167 HD
ATOM     51  C   UNL     1       3.158  16.745 -14.344  1.00  0.00     0.037 A 
ATOM     52  C   UNL     1       2.330  10.378 -16.839  1.00  0.00     0.037 A 
ATOM     53  C   UNL     1       1.989  16.934 -15.167  1.00  0.00     0.049 A 
ATOM     54  C   UNL     1       2.326  11.700 -17.511  1.00  0.00     0.074 A 
ATOM     55  C   UNL     1       0.685  17.323 -14.922  1.00  0.00     0.029 A 
ATOM     56  N   UNL     1       1.977  16.361 -16.413  1.00  0.00    -0.354 N 
ATOM     57  N   UNL     1       1.249  12.334 -17.876  1.00  0.00    -0.248 NA
ATOM     58  C   UNL     1       3.535  12.505 -17.436  1.00  0.00     0.031 C 
ATOM     59  C   UNL     1      -0.110  16.549 -15.817  1.00  0.00     0.029 A 
ATOM     60  C   UNL     1       0.754  15.772 -16.590  1.00  0.00     0.049 A 
ATOM     61  H   UNL     1       2.716  16.372 -17.064  1.00  0.00     0.167 HD
ATOM     62  C   UNL     1       1.540  13.668 -17.647  1.00  0.00     0.074 A 
ATOM     63  C   UNL     1       2.989  13.722 -17.480  1.00  0.00     0.031 C 
ATOM     64  C   UNL     1       0.551  14.553 -17.335  1.00  0.00     0.037 A 
BRANCH  51  65
ATOM     65  C   UNL     1       4.539  17.199 -14.760  1.00  0.00     0.064 A 
ATOM     66  C   UNL     1       4.654  18.196 -15.750  1.00  0.00     0.173 A 
ATOM     67  C   UNL     1       5.737  16.512 -14.458  1.00  0.00     0.173 A 
ATOM     68  F   UNL     1       3.583  18.908 -16.132  1.00  0.00    -0.203 F 
ATOM     69  C   UNL     1       5.846  18.417 -16.444  1.00  0.00     0.198 A 
ATOM     70  C   UNL     1       6.938  16.775 -15.114  1.00  0.00     0.198 A 
ATOM     71  F   UNL     1       5.789  15.486 -13.604  1.00  0.00    -0.203 F 
ATOM     72  F   UNL     1       5.865  19.277 -17.470  1.00  0.00    -0.200 F 
ATOM     73  C   UNL     1       6.985  17.701 -16.131  1.00  0.00     0.200 A 
ATOM     74  F   UNL     1       8.026  16.056 -14.802  1.00  0.00    -0.200 F 
ATOM     75  F   UNL     1       8.111  17.864 -16.836  1.00  0.00    -0.200 F 
ENDBRANCH  51  65
BRANCH  52  76
ATOM     76  C   UNL     1       3.033   9.217 -17.449  1.00  0.00     0.064 A 
ATOM     77  C   UNL     1       3.279   9.168 -18.836  1.00  0.00     0.173 A 
ATOM     78  C   UNL     1       3.756   8.303 -16.662  1.00  0.00     0.173 A 
ATOM     79  F   UNL     1       2.662  10.024 -19.665  1.00  0.00    -0.203 F 
ATOM     80  C   UNL     1       4.228   8.301 -19.391  1.00  0.00     0.198 A 
ATOM     81  C   UNL     1       4.697   7.432 -17.218  1.00  0.00     0.198 A 
ATOM     82  F   UNL     1       3.642   8.306 -15.327  1.00  0.00    -0.203 F 
ATOM     83  F   UNL     1       4.491   8.347 -20.705  1.00  0.00    -0.200 F 
ATOM     84  C   UNL     1       4.948   7.445 -18.578  1.00  0.00     0.200 A 
ATOM     85  F   UNL     1       5.414   6.630 -16.417  1.00  0.00    -0.200 F 
ATOM     86  F   UNL     1       5.911   6.668 -19.095  1.00  0.00    -0.200 F 
ENDBRANCH  52  76
BRANCH  64  87
ATOM     87  C   UNL     1      -0.875  14.126 -17.541  1.00  0.00     0.064 A 
ATOM     88  C   UNL     1      -1.492  13.078 -16.836  1.00  0.00     0.173 A 
ATOM     89  C   UNL     1      -1.690  14.932 -18.348  1.00  0.00     0.173 A 
ATOM     90  F   UNL     1      -0.797  12.313 -15.985  1.00  0.00    -0.203 F 
ATOM     91  C   UNL     1      -2.863  12.846 -16.947  1.00  0.00     0.198 A 
ATOM     92  C   UNL     1      -3.063  14.723 -18.425  1.00  0.00     0.198 A 
ATOM     93  F   UNL     1      -1.159  15.971 -19.012  1.00  0.00    -0.203 F 
ATOM     94  F   UNL     1      -3.434  11.845 -16.261  1.00  0.00    -0.200 F 
ATOM     95  C   UNL     1      -3.648  13.679 -17.727  1.00  0.00     0.200 A 
ATOM     96  F   UNL     1      -3.824  15.559 -19.144  1.00  0.00    -0.200 F 
ATOM     97  F   UNL     1      -4.976  13.497 -17.783  1.00  0.00    -0.200 F 
ENDBRANCH  64  87
ENDBRANCH  38  39
ENDBRANCH  31  33
ENDBRANCH  30  31
ENDBRANCH  29  30
ENDBRANCH  28  29
ENDBRANCH   1  28
TORSDOF 16
