REMARK SMILES C[C@H](Nc1ccc2c(c1)Cc1ccccc1-2)[C@@H](C)C(=O)OCCOC(=O)c1ccc(-c2c3nc(c(-c4c(F)c(F)c(F)c(F)c4F)c4ccc([nH]4)c(-c4c(F)c(F)c(F)c(F)c4F)c4nc(c(-c5c(F)c(F)c(F)c(F)c5F)c5ccc2[nH]5)C=C4)C=C3)cc1
REMARK SMILES IDX 22 1 21 2 19 3 20 4 17 5 18 6 2 7 1 8 3 9 4 11 5 12 9 13
REMARK SMILES IDX 6 14 8 15 7 16 10 17 16 18 11 19 15 20 12 21 14 22 13 23
REMARK SMILES IDX 23 24 24 25 25 26 26 27 27 28 28 29 89 30 29 31 88 32 30 33
REMARK SMILES IDX 31 34 32 35 82 36 33 37 87 38 81 39 83 40 34 41 86 42 80 43
REMARK SMILES IDX 79 44 35 46 67 47 47 48 66 49 48 50 51 51 65 52 84 53 49 54
REMARK SMILES IDX 50 55 64 57 85 58 52 59 36 60 37 61 45 62 38 63 39 64 43 65
REMARK SMILES IDX 46 66 40 67 41 68 44 69 42 70 68 71 69 72 77 73 70 74 71 75
REMARK SMILES IDX 75 76 78 77 72 78 73 79 76 80 74 81 53 82 54 83 62 84 55 85
REMARK SMILES IDX 56 86 60 87 63 88 57 89 58 90 61 91 59 92
REMARK H PARENT 3 10 83 45 51 56
REMARK Flexibility Score: inf
ROOT
ATOM      1  C   UNL     1      -1.472  -1.920   4.560  1.00  0.00     0.274 C 
ENDROOT
BRANCH   1   2
ATOM      2  O   UNL     1      -0.792  -1.744   3.298  1.00  0.00    -0.462 OA
BRANCH   2   3
ATOM      3  C   UNL     1      -1.526  -1.137   2.329  1.00  0.00     0.310 C 
ATOM      4  O   UNL     1      -2.728  -0.901   2.413  1.00  0.00    -0.252 OA
BRANCH   3   5
ATOM      5  C   UNL     1      -0.738  -0.809   1.073  1.00  0.00     0.118 C 
ATOM      6  C   UNL     1      -1.056  -1.924   0.071  1.00  0.00     0.022 C 
BRANCH   5   7
ATOM      7  C   UNL     1       0.786  -0.558   1.259  1.00  0.00     0.090 C 
ATOM      8  C   UNL     1       1.070   0.470   2.360  1.00  0.00     0.031 C 
BRANCH   7   9
ATOM      9  N   UNL     1       1.353  -0.171  -0.051  1.00  0.00    -0.382 N 
ATOM     10  H   UNL     1       1.246  -0.839  -0.766  1.00  0.00     0.160 HD
BRANCH   9  11
ATOM     11  C   UNL     1       2.010   0.985  -0.425  1.00  0.00     0.035 A 
ATOM     12  C   UNL     1       3.125   1.490   0.269  1.00  0.00     0.026 A 
ATOM     13  C   UNL     1       1.560   1.684  -1.557  1.00  0.00     0.030 A 
ATOM     14  C   UNL     1       3.778   2.671  -0.117  1.00  0.00     0.011 A 
ATOM     15  C   UNL     1       2.217   2.844  -1.952  1.00  0.00    -0.034 A 
ATOM     16  C   UNL     1       3.317   3.345  -1.231  1.00  0.00    -0.014 A 
ATOM     17  C   UNL     1       1.930   3.728  -3.150  1.00  0.00     0.072 C 
ATOM     18  C   UNL     1       3.796   4.547  -1.879  1.00  0.00    -0.015 A 
ATOM     19  C   UNL     1       3.003   4.791  -3.021  1.00  0.00    -0.036 A 
ATOM     20  C   UNL     1       4.837   5.400  -1.551  1.00  0.00     0.009 A 
ATOM     21  C   UNL     1       3.246   5.872  -3.853  1.00  0.00     0.005 A 
ATOM     22  C   UNL     1       5.085   6.497  -2.383  1.00  0.00     0.001 A 
ATOM     23  C   UNL     1       4.300   6.728  -3.525  1.00  0.00     0.000 A 
ENDBRANCH   9  11
ENDBRANCH   7   9
ENDBRANCH   5   7
ENDBRANCH   3   5
ENDBRANCH   2   3
ENDBRANCH   1   2
BRANCH   1  24
ATOM     24  C   UNL     1      -1.264  -0.699   5.461  1.00  0.00     0.275 C 
BRANCH  24  25
ATOM     25  O   UNL     1      -1.748   0.479   4.794  1.00  0.00    -0.458 OA
BRANCH  25  26
ATOM     26  C   UNL     1      -1.116   1.635   5.100  1.00  0.00     0.338 C 
ATOM     27  O   UNL     1      -0.244   1.791   5.936  1.00  0.00    -0.246 OA
BRANCH  26  28
ATOM     28  C   UNL     1      -1.663   2.733   4.271  1.00  0.00     0.060 A 
ATOM     29  C   UNL     1      -1.993   2.542   2.925  1.00  0.00     0.016 A 
ATOM     30  C   UNL     1      -1.819   3.994   4.849  1.00  0.00     0.016 A 
ATOM     31  C   UNL     1      -2.476   3.601   2.157  1.00  0.00     0.010 A 
ATOM     32  C   UNL     1      -2.359   5.040   4.098  1.00  0.00     0.010 A 
ATOM     33  C   UNL     1      -2.696   4.852   2.746  1.00  0.00    -0.014 A 
BRANCH  33  34
ATOM     34  C   UNL     1      -3.316   5.964   1.983  1.00  0.00     0.031 A 
ATOM     35  C   UNL     1      -2.542   7.222   1.716  1.00  0.00     0.074 A 
ATOM     36  C   UNL     1      -4.601   5.868   1.593  1.00  0.00     0.049 A 
ATOM     37  N   UNL     1      -2.968   8.379   1.276  1.00  0.00    -0.248 NA
ATOM     38  C   UNL     1      -1.099   7.174   1.991  1.00  0.00     0.031 C 
ATOM     39  C   UNL     1      -5.452   4.689   1.765  1.00  0.00     0.029 A 
ATOM     40  N   UNL     1      -5.425   6.788   0.993  1.00  0.00    -0.354 N 
ATOM     41  C   UNL     1      -1.854   9.207   1.256  1.00  0.00     0.074 A 
ATOM     42  C   UNL     1      -0.734   8.423   1.733  1.00  0.00     0.031 C 
ATOM     43  C   UNL     1      -6.677   4.958   1.288  1.00  0.00     0.029 A 
ATOM     44  C   UNL     1      -6.717   6.347   0.842  1.00  0.00     0.049 A 
ATOM     45  H   UNL     1      -5.120   7.678   0.700  1.00  0.00     0.167 HD
ATOM     46  C   UNL     1      -1.780  10.505   0.875  1.00  0.00     0.037 A 
ATOM     47  C   UNL     1      -7.822   7.001   0.439  1.00  0.00     0.037 A 
ATOM     48  C   UNL     1      -2.893  11.271   0.375  1.00  0.00     0.049 A 
ATOM     49  C   UNL     1      -7.725   8.455   0.077  1.00  0.00     0.074 A 
ATOM     50  C   UNL     1      -2.910  12.581  -0.073  1.00  0.00     0.029 A 
ATOM     51  N   UNL     1      -4.190  10.792   0.257  1.00  0.00    -0.354 N 
ATOM     52  N   UNL     1      -6.674   9.238   0.075  1.00  0.00    -0.248 NA
ATOM     53  C   UNL     1      -8.972   9.122  -0.324  1.00  0.00     0.031 C 
ATOM     54  C   UNL     1      -4.225  12.907  -0.425  1.00  0.00     0.029 A 
ATOM     55  C   UNL     1      -5.019  11.788  -0.235  1.00  0.00     0.049 A 
ATOM     56  H   UNL     1      -4.478   9.880   0.488  1.00  0.00     0.167 HD
ATOM     57  C   UNL     1      -7.128  10.484  -0.332  1.00  0.00     0.074 A 
ATOM     58  C   UNL     1      -8.547  10.349  -0.589  1.00  0.00     0.031 C 
ATOM     59  C   UNL     1      -6.431  11.638  -0.475  1.00  0.00     0.037 A 
BRANCH  46  60
ATOM     60  C   UNL     1      -0.454  11.194   1.007  1.00  0.00     0.064 A 
ATOM     61  C   UNL     1       0.608  10.927   0.132  1.00  0.00     0.173 A 
ATOM     62  C   UNL     1      -0.261  12.169   1.997  1.00  0.00     0.173 A 
ATOM     63  F   UNL     1       0.475   9.997  -0.826  1.00  0.00    -0.203 F 
ATOM     64  C   UNL     1       1.823  11.598   0.255  1.00  0.00     0.198 A 
ATOM     65  C   UNL     1       0.946  12.855   2.103  1.00  0.00     0.198 A 
ATOM     66  F   UNL     1      -1.248  12.467   2.856  1.00  0.00    -0.203 F 
ATOM     67  F   UNL     1       2.837  11.303  -0.571  1.00  0.00    -0.200 F 
ATOM     68  C   UNL     1       1.988  12.565   1.235  1.00  0.00     0.200 A 
ATOM     69  F   UNL     1       1.100  13.799   3.042  1.00  0.00    -0.200 F 
ATOM     70  F   UNL     1       3.155  13.216   1.346  1.00  0.00    -0.200 F 
ENDBRANCH  46  60
BRANCH  47  71
ATOM     71  C   UNL     1      -9.125   6.288   0.398  1.00  0.00     0.064 A 
ATOM     72  C   UNL     1      -9.734   5.974  -0.824  1.00  0.00     0.173 A 
ATOM     73  C   UNL     1      -9.779   5.897   1.576  1.00  0.00     0.173 A 
ATOM     74  F   UNL     1      -9.159   6.352  -1.975  1.00  0.00    -0.203 F 
ATOM     75  C   UNL     1     -10.952   5.300  -0.866  1.00  0.00     0.198 A 
ATOM     76  C   UNL     1     -10.984   5.200   1.532  1.00  0.00     0.198 A 
ATOM     77  F   UNL     1      -9.237   6.178   2.770  1.00  0.00    -0.203 F 
ATOM     78  F   UNL     1     -11.531   5.042  -2.046  1.00  0.00    -0.200 F 
ATOM     79  C   UNL     1     -11.572   4.906   0.311  1.00  0.00     0.200 A 
ATOM     80  F   UNL     1     -11.573   4.811   2.671  1.00  0.00    -0.200 F 
ATOM     81  F   UNL     1     -12.739   4.249   0.269  1.00  0.00    -0.200 F 
ENDBRANCH  47  71
BRANCH  59  82
ATOM     82  C   UNL     1      -7.196  12.840  -0.943  1.00  0.00     0.064 A 
ATOM     83  C   UNL     1      -8.071  13.527  -0.089  1.00  0.00     0.173 A 
ATOM     84  C   UNL     1      -7.034  13.323  -2.250  1.00  0.00     0.173 A 
ATOM     85  F   UNL     1      -8.273  13.090   1.163  1.00  0.00    -0.203 F 
ATOM     86  C   UNL     1      -8.774  14.643  -0.534  1.00  0.00     0.198 A 
ATOM     87  C   UNL     1      -7.720  14.454  -2.683  1.00  0.00     0.198 A 
ATOM     88  F   UNL     1      -6.207  12.702  -3.103  1.00  0.00    -0.203 F 
ATOM     89  F   UNL     1      -9.638  15.259   0.284  1.00  0.00    -0.200 F 
ATOM     90  C   UNL     1      -8.593  15.109  -1.828  1.00  0.00     0.200 A 
ATOM     91  F   UNL     1      -7.538  14.909  -3.931  1.00  0.00    -0.200 F 
ATOM     92  F   UNL     1      -9.269  16.185  -2.254  1.00  0.00    -0.200 F 
ENDBRANCH  59  82
ENDBRANCH  33  34
ENDBRANCH  26  28
ENDBRANCH  25  26
ENDBRANCH  24  25
ENDBRANCH   1  24
TORSDOF 14
