REMARK SMILES CC[C@@H]1CCC[C@@H]([NH+]2CC(n3cc(C(=O)OCCOC(=O)c4ccc(-c5c6nc(c(-c7c(F)c(F)c(F)c(F)c7F)c7ccc([nH]7)c(-c7c(F)c(F)c(F)c(F)c7F)c7nc(c(-c8c(F)c(F)c(F)c(F)c8F)c8ccc5[nH]8)C=C7)C=C6)cc4)nn3)C2)C1
REMARK SMILES IDX 17 1 16 2 14 3 15 4 13 5 11 6 12 7 86 8 85 9 10 10 8 11 9 12
REMARK SMILES IDX 87 13 7 15 3 16 4 17 88 18 5 19 6 20 2 21 1 22 18 23 19 24
REMARK SMILES IDX 20 25 21 26 22 27 23 28 84 29 24 30 83 31 25 32 26 33 27 34
REMARK SMILES IDX 77 35 28 36 82 37 76 38 78 39 29 40 81 41 75 42 74 43 30 45
REMARK SMILES IDX 62 46 42 47 61 48 43 49 46 50 60 51 79 52 44 53 45 54 59 56
REMARK SMILES IDX 80 57 47 58 31 59 32 60 40 61 33 62 34 63 38 64 41 65 35 66
REMARK SMILES IDX 36 67 39 68 37 69 63 70 64 71 72 72 65 73 66 74 70 75 73 76
REMARK SMILES IDX 67 77 68 78 71 79 69 80 48 81 49 82 57 83 50 84 51 85 55 86
REMARK SMILES IDX 58 87 52 88 53 89 56 90 54 91
REMARK H PARENT 8 14 78 44 46 55
REMARK Flexibility Score: inf
ROOT
ATOM      1  C   UNL     1       5.883   5.941  -9.127  1.00  0.00     0.275 C 
ENDROOT
BRANCH   1   2
ATOM      2  O   UNL     1       4.805   5.675  -8.221  1.00  0.00    -0.457 OA
BRANCH   2   3
ATOM      3  C   UNL     1       3.938   4.676  -8.582  1.00  0.00     0.360 C 
ATOM      4  O   UNL     1       3.939   4.123  -9.679  1.00  0.00    -0.244 OA
BRANCH   3   5
ATOM      5  C   UNL     1       3.054   4.313  -7.493  1.00  0.00     0.190 A 
ATOM      6  N   UNL     1       2.057   4.164  -5.580  1.00  0.00    -0.237 N 
ATOM      7  C   UNL     1       3.016   4.873  -6.234  1.00  0.00     0.147 A 
ATOM      8  N   UNL     1       1.535   3.208  -6.366  1.00  0.00    -0.066 NA
ATOM      9  N   UNL     1       2.141   3.286  -7.545  1.00  0.00    -0.123 NA
BRANCH   6  10
ATOM     10  C   UNL     1       1.870   4.266  -4.176  1.00  0.00     0.218 C 
ATOM     11  N   UNL     1       0.348   4.390  -2.714  1.00  0.00    -0.329 N 
ATOM     12  C   UNL     1       0.880   3.286  -3.545  1.00  0.00     0.296 C 
ATOM     13  C   UNL     1       0.868   5.348  -3.732  1.00  0.00     0.296 C 
ATOM     14  H   UNL     1      -0.628   4.364  -2.418  1.00  0.00     0.348 HD
BRANCH  11  15
ATOM     15  C   UNL     1       0.917   4.587  -1.359  1.00  0.00     0.184 C 
ATOM     16  C   UNL     1       0.991   2.191  -0.387  1.00  0.00    -0.006 C 
ATOM     17  C   UNL     1       2.518   2.306  -0.226  1.00  0.00     0.004 C 
ATOM     18  C   UNL     1       0.324   3.577  -0.347  1.00  0.00     0.068 C 
ATOM     19  C   UNL     1       3.165   3.341  -1.140  1.00  0.00     0.006 C 
ATOM     20  C   UNL     1       2.438   4.680  -1.113  1.00  0.00     0.065 C 
BRANCH  16  21
ATOM     21  C   UNL     1       0.388   1.249   0.670  1.00  0.00     0.000 C 
ATOM     22  C   UNL     1       0.762  -0.207   0.412  1.00  0.00     0.004 C 
ENDBRANCH  16  21
ENDBRANCH  11  15
ENDBRANCH   6  10
ENDBRANCH   3   5
ENDBRANCH   2   3
ENDBRANCH   1   2
BRANCH   1  23
ATOM     23  C   UNL     1       7.082   5.057  -8.824  1.00  0.00     0.275 C 
BRANCH  23  24
ATOM     24  O   UNL     1       6.796   3.693  -9.116  1.00  0.00    -0.458 OA
BRANCH  24  25
ATOM     25  C   UNL     1       6.410   2.934  -8.065  1.00  0.00     0.338 C 
ATOM     26  O   UNL     1       5.983   3.321  -6.991  1.00  0.00    -0.246 OA
BRANCH  25  27
ATOM     27  C   UNL     1       6.836   1.554  -8.322  1.00  0.00     0.060 A 
ATOM     28  C   UNL     1       6.516   0.578  -7.370  1.00  0.00     0.016 A 
ATOM     29  C   UNL     1       7.782   1.324  -9.330  1.00  0.00     0.016 A 
ATOM     30  C   UNL     1       7.268  -0.578  -7.332  1.00  0.00     0.010 A 
ATOM     31  C   UNL     1       8.556   0.198  -9.264  1.00  0.00     0.010 A 
ATOM     32  C   UNL     1       8.328  -0.710  -8.230  1.00  0.00    -0.014 A 
BRANCH  32  33
ATOM     33  C   UNL     1       9.161  -1.894  -8.188  1.00  0.00     0.031 A 
ATOM     34  C   UNL     1       8.515  -3.076  -8.816  1.00  0.00     0.074 A 
ATOM     35  C   UNL     1      10.456  -1.786  -7.827  1.00  0.00     0.049 A 
ATOM     36  N   UNL     1       8.364  -4.261  -8.323  1.00  0.00    -0.248 NA
ATOM     37  C   UNL     1       7.825  -2.880 -10.108  1.00  0.00     0.031 C 
ATOM     38  C   UNL     1      11.184  -0.559  -7.480  1.00  0.00     0.029 A 
ATOM     39  N   UNL     1      11.441  -2.723  -7.833  1.00  0.00    -0.354 N 
ATOM     40  C   UNL     1       7.740  -5.004  -9.324  1.00  0.00     0.074 A 
ATOM     41  C   UNL     1       7.262  -4.070 -10.302  1.00  0.00     0.031 C 
ATOM     42  C   UNL     1      12.513  -0.792  -7.546  1.00  0.00     0.029 A 
ATOM     43  C   UNL     1      12.729  -2.196  -7.840  1.00  0.00     0.049 A 
ATOM     44  H   UNL     1      11.259  -3.691  -7.832  1.00  0.00     0.167 HD
ATOM     45  C   UNL     1       7.938  -6.345  -9.414  1.00  0.00     0.037 A 
ATOM     46  C   UNL     1      13.862  -2.863  -8.184  1.00  0.00     0.037 A 
ATOM     47  C   UNL     1       8.328  -6.891  -8.139  1.00  0.00     0.049 A 
ATOM     48  C   UNL     1      13.549  -4.317  -8.127  1.00  0.00     0.074 A 
ATOM     49  C   UNL     1       7.748  -6.907  -6.885  1.00  0.00     0.029 A 
ATOM     50  N   UNL     1       9.651  -7.198  -7.940  1.00  0.00    -0.354 N 
ATOM     51  N   UNL     1      13.287  -4.961  -7.023  1.00  0.00    -0.248 NA
ATOM     52  C   UNL     1      13.056  -4.941  -9.347  1.00  0.00     0.031 C 
ATOM     53  C   UNL     1       8.831  -6.733  -5.974  1.00  0.00     0.029 A 
ATOM     54  C   UNL     1      10.011  -6.698  -6.716  1.00  0.00     0.049 A 
ATOM     55  H   UNL     1      10.235  -7.689  -8.563  1.00  0.00     0.167 HD
ATOM     56  C   UNL     1      12.245  -5.815  -7.354  1.00  0.00     0.074 A 
ATOM     57  C   UNL     1      12.192  -5.809  -8.814  1.00  0.00     0.031 C 
ATOM     58  C   UNL     1      11.335  -6.209  -6.416  1.00  0.00     0.037 A 
BRANCH  45  59
ATOM     59  C   UNL     1       8.197  -7.053 -10.726  1.00  0.00     0.064 A 
ATOM     60  C   UNL     1       8.354  -8.452 -10.714  1.00  0.00     0.173 A 
ATOM     61  C   UNL     1       8.607  -6.409 -11.917  1.00  0.00     0.173 A 
ATOM     62  F   UNL     1       8.005  -9.170  -9.636  1.00  0.00    -0.203 F 
ATOM     63  C   UNL     1       8.974  -9.134 -11.765  1.00  0.00     0.198 A 
ATOM     64  C   UNL     1       9.175  -7.100 -12.984  1.00  0.00     0.198 A 
ATOM     65  F   UNL     1       8.586  -5.080 -12.067  1.00  0.00    -0.203 F 
ATOM     66  F   UNL     1       9.233 -10.443 -11.644  1.00  0.00    -0.200 F 
ATOM     67  C   UNL     1       9.395  -8.456 -12.893  1.00  0.00     0.200 A 
ATOM     68  F   UNL     1       9.589  -6.419 -14.063  1.00  0.00    -0.200 F 
ATOM     69  F   UNL     1      10.055  -9.094 -13.868  1.00  0.00    -0.200 F 
ENDBRANCH  45  59
BRANCH  46  70
ATOM     70  C   UNL     1      15.045  -2.335  -8.914  1.00  0.00     0.064 A 
ATOM     71  C   UNL     1      16.237  -3.076  -8.991  1.00  0.00     0.173 A 
ATOM     72  C   UNL     1      14.953  -1.222  -9.775  1.00  0.00     0.173 A 
ATOM     73  F   UNL     1      16.394  -4.179  -8.244  1.00  0.00    -0.203 F 
ATOM     74  C   UNL     1      17.258  -2.740  -9.889  1.00  0.00     0.198 A 
ATOM     75  C   UNL     1      15.976  -0.880 -10.660  1.00  0.00     0.198 A 
ATOM     76  F   UNL     1      13.830  -0.495  -9.850  1.00  0.00    -0.203 F 
ATOM     77  F   UNL     1      18.352  -3.510  -9.978  1.00  0.00    -0.200 F 
ATOM     78  C   UNL     1      17.123  -1.647 -10.728  1.00  0.00     0.200 A 
ATOM     79  F   UNL     1      15.815   0.160 -11.491  1.00  0.00    -0.200 F 
ATOM     80  F   UNL     1      18.073  -1.358 -11.628  1.00  0.00    -0.200 F 
ENDBRANCH  46  70
BRANCH  58  81
ATOM     81  C   UNL     1      11.632  -5.902  -4.975  1.00  0.00     0.064 A 
ATOM     82  C   UNL     1      11.754  -4.601  -4.454  1.00  0.00     0.173 A 
ATOM     83  C   UNL     1      11.640  -6.963  -4.061  1.00  0.00     0.173 A 
ATOM     84  F   UNL     1      11.650  -3.528  -5.247  1.00  0.00    -0.203 F 
ATOM     85  C   UNL     1      11.924  -4.382  -3.088  1.00  0.00     0.198 A 
ATOM     86  C   UNL     1      11.770  -6.739  -2.694  1.00  0.00     0.198 A 
ATOM     87  F   UNL     1      11.469  -8.223  -4.494  1.00  0.00    -0.203 F 
ATOM     88  F   UNL     1      12.051  -3.131  -2.619  1.00  0.00    -0.200 F 
ATOM     89  C   UNL     1      11.923  -5.451  -2.209  1.00  0.00     0.200 A 
ATOM     90  F   UNL     1      11.716  -7.773  -1.843  1.00  0.00    -0.200 F 
ATOM     91  F   UNL     1      12.042  -5.239  -0.891  1.00  0.00    -0.200 F 
ENDBRANCH  58  81
ENDBRANCH  32  33
ENDBRANCH  25  27
ENDBRANCH  24  25
ENDBRANCH  23  24
ENDBRANCH   1  23
TORSDOF 14
