REMARK SMILES CCCN1C(=O)/C(=C\c2ccc(OC)c(OC)c2C(=O)OCCOC(=O)c2ccc(-c3c4nc(c(-c5c(F)c(F)c(F)c(F)c5F)c5ccc([nH]5)c(-c5c(F)c(F)c(F)c(F)c5F)c5nc(c(-c6c(F)c(F)c(F)c(F)c6F)c6ccc3[nH]6)C=C5)C=C4)cc2)S/C1=[NH+]\c1nccs1
REMARK SMILES IDX 22 1 21 2 19 3 20 4 18 5 9 6 10 7 11 8 15 9 12 10 8 11 4 12
REMARK SMILES IDX 5 13 91 14 6 15 7 16 90 17 92 18 3 20 2 21 1 22 93 23 94 24
REMARK SMILES IDX 97 25 95 26 96 27 16 28 17 29 13 30 14 31 23 32 24 33 25 34
REMARK SMILES IDX 26 35 27 36 28 37 89 38 29 39 88 40 30 41 31 42 32 43 82 44
REMARK SMILES IDX 33 45 87 46 81 47 83 48 34 49 86 50 80 51 79 52 35 54 67 55
REMARK SMILES IDX 47 56 66 57 48 58 51 59 65 60 84 61 49 62 50 63 64 65 85 66
REMARK SMILES IDX 52 67 36 68 37 69 45 70 38 71 39 72 43 73 46 74 40 75 41 76
REMARK SMILES IDX 44 77 42 78 68 79 69 80 77 81 70 82 71 83 75 84 78 85 72 86
REMARK SMILES IDX 73 87 76 88 74 89 53 90 54 91 62 92 55 93 56 94 60 95 63 96
REMARK SMILES IDX 57 97 58 98 61 99 59 100
REMARK H PARENT 92 19 83 53 51 64
REMARK Flexibility Score: inf
ROOT
ATOM      1  C   UNL     1      -2.931  -2.474   1.724  1.00  0.00     0.275 C 
ENDROOT
BRANCH   1   2
ATOM      2  O   UNL     1      -2.393  -1.402   2.530  1.00  0.00    -0.458 OA
BRANCH   2   3
ATOM      3  C   UNL     1      -1.554  -0.549   1.891  1.00  0.00     0.342 C 
ATOM      4  O   UNL     1      -1.235  -0.641   0.720  1.00  0.00    -0.246 OA
BRANCH   3   5
ATOM      5  C   UNL     1      -0.975   0.449   2.827  1.00  0.00     0.113 A 
ATOM      6  C   UNL     1      -0.294  -0.062   3.975  1.00  0.00    -0.006 A 
ATOM      7  C   UNL     1       0.229   0.813   4.929  1.00  0.00     0.013 A 
ATOM      8  C   UNL     1       0.159   2.182   4.717  1.00  0.00     0.051 A 
ATOM      9  C   UNL     1      -1.022   1.842   2.591  1.00  0.00     0.175 A 
ATOM     10  C   UNL     1      -0.444   2.695   3.564  1.00  0.00     0.161 A 
BRANCH   6  11
ATOM     11  C   UNL     1      -0.070  -1.501   4.205  1.00  0.00     0.032 C 
ATOM     12  N   UNL     1       1.266  -2.786   1.167  1.00  0.00    -0.219 N 
ATOM     13  C   UNL     1       1.373  -1.832   2.155  1.00  0.00     0.321 C 
ATOM     14  C   UNL     1       0.848  -4.030   1.600  1.00  0.00     0.271 C 
ATOM     15  O   UNL     1       2.043  -0.811   2.130  1.00  0.00    -0.250 OA
ATOM     16  C   UNL     1       0.621  -2.278   3.358  1.00  0.00     0.100 C 
ATOM     17  S   UNL     1       0.522  -3.988   3.336  1.00  0.00    -0.012 SA
ATOM     18  N   UNL     1       0.772  -5.048   0.808  1.00  0.00    -0.228 N 
ATOM     19  H   UNL     1       0.962  -4.959  -0.154  1.00  0.00     0.268 HD
BRANCH  12  20
ATOM     20  C   UNL     1       1.819  -2.562  -0.170  1.00  0.00     0.206 C 
BRANCH  20  21
ATOM     21  C   UNL     1       1.150  -1.476  -1.028  1.00  0.00     0.035 C 
ATOM     22  C   UNL     1       1.545  -0.044  -0.687  1.00  0.00     0.007 C 
ENDBRANCH  20  21
ENDBRANCH  12  20
BRANCH  18  23
ATOM     23  C   UNL     1       0.424  -6.241   1.345  1.00  0.00     0.319 A 
ATOM     24  N   UNL     1      -0.728  -6.573   1.893  1.00  0.00    -0.101 NA
ATOM     25  S   UNL     1       1.593  -7.518   1.308  1.00  0.00    -0.070 S 
ATOM     26  C   UNL     1      -0.675  -7.869   2.370  1.00  0.00     0.219 A 
ATOM     27  C   UNL     1       0.507  -8.537   2.147  1.00  0.00     0.110 A 
ENDBRANCH  18  23
ENDBRANCH   6  11
BRANCH   9  28
ATOM     28  O   UNL     1      -1.607   2.519   1.558  1.00  0.00    -0.492 OA
ATOM     29  C   UNL     1      -1.868   1.940   0.294  1.00  0.00     0.278 C 
ENDBRANCH   9  28
BRANCH  10  30
ATOM     30  O   UNL     1      -0.300   4.060   3.455  1.00  0.00    -0.493 OA
ATOM     31  C   UNL     1      -1.458   4.782   3.057  1.00  0.00     0.278 C 
ENDBRANCH  10  30
ENDBRANCH   3   5
ENDBRANCH   2   3
ENDBRANCH   1   2
BRANCH   1  32
ATOM     32  C   UNL     1      -4.458  -2.434   1.718  1.00  0.00     0.275 C 
BRANCH  32  33
ATOM     33  O   UNL     1      -4.938  -1.137   1.325  1.00  0.00    -0.458 OA
BRANCH  33  34
ATOM     34  C   UNL     1      -5.096  -0.269   2.354  1.00  0.00     0.338 C 
ATOM     35  O   UNL     1      -4.948  -0.495   3.545  1.00  0.00    -0.246 OA
BRANCH  34  36
ATOM     36  C   UNL     1      -5.354   1.080   1.827  1.00  0.00     0.060 A 
ATOM     37  C   UNL     1      -4.660   2.142   2.410  1.00  0.00     0.016 A 
ATOM     38  C   UNL     1      -6.282   1.313   0.807  1.00  0.00     0.016 A 
ATOM     39  C   UNL     1      -4.878   3.440   1.964  1.00  0.00     0.010 A 
ATOM     40  C   UNL     1      -6.526   2.623   0.382  1.00  0.00     0.010 A 
ATOM     41  C   UNL     1      -5.827   3.690   0.967  1.00  0.00    -0.014 A 
BRANCH  41  42
ATOM     42  C   UNL     1      -6.176   5.097   0.680  1.00  0.00     0.031 A 
ATOM     43  C   UNL     1      -7.223   5.757   1.526  1.00  0.00     0.074 A 
ATOM     44  C   UNL     1      -5.496   5.798  -0.242  1.00  0.00     0.049 A 
ATOM     45  N   UNL     1      -7.657   6.990   1.500  1.00  0.00    -0.248 NA
ATOM     46  C   UNL     1      -7.850   4.915   2.557  1.00  0.00     0.031 C 
ATOM     47  C   UNL     1      -4.400   5.278  -1.055  1.00  0.00     0.029 A 
ATOM     48  N   UNL     1      -5.620   7.106  -0.638  1.00  0.00    -0.354 N 
ATOM     49  C   UNL     1      -8.600   7.074   2.515  1.00  0.00     0.074 A 
ATOM     50  C   UNL     1      -8.686   5.767   3.129  1.00  0.00     0.031 C 
ATOM     51  C   UNL     1      -3.951   6.256  -1.859  1.00  0.00     0.029 A 
ATOM     52  C   UNL     1      -4.752   7.459  -1.642  1.00  0.00     0.049 A 
ATOM     53  H   UNL     1      -6.268   7.731  -0.241  1.00  0.00     0.167 HD
ATOM     54  C   UNL     1      -9.332   8.147   2.894  1.00  0.00     0.037 A 
ATOM     55  C   UNL     1      -4.642   8.618  -2.321  1.00  0.00     0.037 A 
ATOM     56  C   UNL     1      -9.269   9.431   2.249  1.00  0.00     0.049 A 
ATOM     57  C   UNL     1      -5.548   9.766  -1.952  1.00  0.00     0.074 A 
ATOM     58  C   UNL     1     -10.001  10.572   2.521  1.00  0.00     0.029 A 
ATOM     59  N   UNL     1      -8.431   9.735   1.185  1.00  0.00    -0.354 N 
ATOM     60  N   UNL     1      -6.443   9.841  -0.997  1.00  0.00    -0.248 NA
ATOM     61  C   UNL     1      -5.431  10.989  -2.759  1.00  0.00     0.031 C 
ATOM     62  C   UNL     1      -9.646  11.549   1.585  1.00  0.00     0.029 A 
ATOM     63  C   UNL     1      -8.651  11.036   0.766  1.00  0.00     0.049 A 
ATOM     64  H   UNL     1      -7.777   9.116   0.786  1.00  0.00     0.167 HD
ATOM     65  C   UNL     1      -6.982  11.119  -1.073  1.00  0.00     0.074 A 
ATOM     66  C   UNL     1      -6.298  11.793  -2.159  1.00  0.00     0.031 C 
ATOM     67  C   UNL     1      -7.955  11.685  -0.317  1.00  0.00     0.037 A 
BRANCH  54  68
ATOM     68  C   UNL     1     -10.310   7.940   4.010  1.00  0.00     0.064 A 
ATOM     69  C   UNL     1      -9.892   7.773   5.339  1.00  0.00     0.173 A 
ATOM     70  C   UNL     1     -11.685   7.880   3.740  1.00  0.00     0.173 A 
ATOM     71  F   UNL     1      -8.586   7.797   5.645  1.00  0.00    -0.203 F 
ATOM     72  C   UNL     1     -10.815   7.521   6.352  1.00  0.00     0.198 A 
ATOM     73  C   UNL     1     -12.606   7.655   4.759  1.00  0.00     0.198 A 
ATOM     74  F   UNL     1     -12.134   8.029   2.485  1.00  0.00    -0.203 F 
ATOM     75  F   UNL     1     -10.390   7.305   7.605  1.00  0.00    -0.200 F 
ATOM     76  C   UNL     1     -12.170   7.465   6.062  1.00  0.00     0.200 A 
ATOM     77  F   UNL     1     -13.915   7.606   4.477  1.00  0.00    -0.200 F 
ATOM     78  F   UNL     1     -13.056   7.214   7.035  1.00  0.00    -0.200 F 
ENDBRANCH  54  68
BRANCH  55  79
ATOM     79  C   UNL     1      -3.667   8.739  -3.438  1.00  0.00     0.064 A 
ATOM     80  C   UNL     1      -2.574   9.613  -3.366  1.00  0.00     0.173 A 
ATOM     81  C   UNL     1      -3.826   7.995  -4.618  1.00  0.00     0.173 A 
ATOM     82  F   UNL     1      -2.392  10.368  -2.273  1.00  0.00    -0.203 F 
ATOM     83  C   UNL     1      -1.689   9.751  -4.434  1.00  0.00     0.198 A 
ATOM     84  C   UNL     1      -2.924   8.110  -5.673  1.00  0.00     0.198 A 
ATOM     85  F   UNL     1      -4.859   7.149  -4.744  1.00  0.00    -0.203 F 
ATOM     86  F   UNL     1      -0.681  10.631  -4.358  1.00  0.00    -0.200 F 
ATOM     87  C   UNL     1      -1.861   8.994  -5.584  1.00  0.00     0.200 A 
ATOM     88  F   UNL     1      -3.090   7.370  -6.777  1.00  0.00    -0.200 F 
ATOM     89  F   UNL     1      -1.009   9.126  -6.611  1.00  0.00    -0.200 F 
ENDBRANCH  55  79
BRANCH  67  90
ATOM     90  C   UNL     1      -8.326  13.107  -0.622  1.00  0.00     0.064 A 
ATOM     91  C   UNL     1      -9.051  13.447  -1.774  1.00  0.00     0.173 A 
ATOM     92  C   UNL     1      -8.002  14.133   0.278  1.00  0.00     0.173 A 
ATOM     93  F   UNL     1      -9.373  12.505  -2.672  1.00  0.00    -0.203 F 
ATOM     94  C   UNL     1      -9.420  14.767  -2.022  1.00  0.00     0.198 A 
ATOM     95  C   UNL     1      -8.398  15.446   0.042  1.00  0.00     0.198 A 
ATOM     96  F   UNL     1      -7.316  13.859   1.398  1.00  0.00    -0.203 F 
ATOM     97  F   UNL     1     -10.077  15.076  -3.148  1.00  0.00    -0.200 F 
ATOM     98  C   UNL     1      -9.102  15.763  -1.110  1.00  0.00     0.200 A 
ATOM     99  F   UNL     1      -8.103  16.404   0.931  1.00  0.00    -0.200 F 
ATOM    100  F   UNL     1      -9.469  17.030  -1.345  1.00  0.00    -0.200 F 
ENDBRANCH  67  90
ENDBRANCH  41  42
ENDBRANCH  34  36
ENDBRANCH  33  34
ENDBRANCH  32  33
ENDBRANCH   1  32
TORSDOF 17
