REMARK SMILES CCC[C@@]1(C(=O)OCCOC(=O)c2ccc(-c3c4nc(c(-c5c(F)c(F)c(F)c(F)c5F)c5ccc([nH]5)c(-c5c(F)c(F)c(F)c(F)c5F)c5nc(c(-c6c(F)c(F)c(F)c(F)c6F)c6ccc3[nH]6)C=C5)C=C4)cc2)CCN(C(=O)[C@@H]2CC[NH2+][C@@H]2C)C1
REMARK SMILES IDX 8 1 7 2 5 3 6 4 4 5 76 6 87 7 77 8 78 9 3 10 2 11 1 12 79 13
REMARK SMILES IDX 80 14 81 15 82 16 85 17 83 18 84 19 86 20 9 23 10 24 11 25
REMARK SMILES IDX 12 26 13 27 14 28 75 29 15 30 74 31 16 32 17 33 18 34 68 35
REMARK SMILES IDX 19 36 73 37 67 38 69 39 20 40 72 41 66 42 65 43 21 45 53 46
REMARK SMILES IDX 33 47 52 48 34 49 37 50 51 51 70 52 35 53 36 54 50 56 71 57
REMARK SMILES IDX 38 58 22 59 23 60 31 61 24 62 25 63 29 64 32 65 26 66 27 67
REMARK SMILES IDX 30 68 28 69 54 70 55 71 63 72 56 73 57 74 61 75 64 76 58 77
REMARK SMILES IDX 59 78 62 79 60 80 39 81 40 82 48 83 41 84 42 85 46 86 49 87
REMARK SMILES IDX 43 88 44 89 47 90 45 91
REMARK H PARENT 84 21 84 22 69 44 37 55
REMARK Flexibility Score: inf
ROOT
ATOM      1  C   UNL     1       2.529  -1.955  -3.210  1.00  0.00     0.274 C 
ENDROOT
BRANCH   1   2
ATOM      2  O   UNL     1       2.077  -2.810  -2.135  1.00  0.00    -0.462 OA
BRANCH   2   3
ATOM      3  C   UNL     1       1.275  -2.208  -1.221  1.00  0.00     0.314 C 
ATOM      4  O   UNL     1       0.847  -1.067  -1.356  1.00  0.00    -0.252 OA
BRANCH   3   5
ATOM      5  C   UNL     1       0.958  -3.058   0.007  1.00  0.00     0.087 C 
ATOM      6  C   UNL     1       1.885  -4.266   0.215  1.00  0.00     0.042 C 
ATOM      7  C   UNL     1      -0.417  -3.727  -0.165  1.00  0.00     0.138 C 
ATOM      8  C   UNL     1       1.211  -5.415  -0.543  1.00  0.00     0.120 C 
ATOM      9  N   UNL     1      -0.209  -5.131  -0.463  1.00  0.00    -0.341 N 
BRANCH   5  10
ATOM     10  C   UNL     1       0.900  -2.128   1.257  1.00  0.00     0.020 C 
BRANCH  10  11
ATOM     11  C   UNL     1       2.115  -1.231   1.543  1.00  0.00    -0.002 C 
ATOM     12  C   UNL     1       2.006   0.181   0.968  1.00  0.00     0.004 C 
ENDBRANCH  10  11
ENDBRANCH   5  10
BRANCH   9  13
ATOM     13  C   UNL     1      -1.327  -5.893  -0.723  1.00  0.00     0.231 C 
ATOM     14  O   UNL     1      -2.451  -5.382  -0.593  1.00  0.00    -0.274 OA
BRANCH  13  15
ATOM     15  C   UNL     1      -1.282  -7.338  -1.210  1.00  0.00     0.142 C 
ATOM     16  C   UNL     1      -0.321  -8.313  -0.558  1.00  0.00     0.081 C 
ATOM     17  C   UNL     1      -1.134  -7.553  -2.722  1.00  0.00     0.192 C 
ATOM     18  C   UNL     1       0.650  -8.671  -1.664  1.00  0.00     0.261 C 
ATOM     19  N   UNL     1      -0.144  -8.640  -2.894  1.00  0.00    -0.343 N 
ATOM     20  C   UNL     1      -0.763  -6.351  -3.575  1.00  0.00     0.076 C 
ATOM     21  H   UNL     1      -0.620  -9.532  -3.030  1.00  0.00     0.346 HD
ATOM     22  H   UNL     1       0.444  -8.479  -3.712  1.00  0.00     0.346 HD
ENDBRANCH  13  15
ENDBRANCH   9  13
ENDBRANCH   3   5
ENDBRANCH   2   3
ENDBRANCH   1   2
BRANCH   1  23
ATOM     23  C   UNL     1       1.596  -1.933  -4.428  1.00  0.00     0.275 C 
BRANCH  23  24
ATOM     24  O   UNL     1       0.366  -1.225  -4.179  1.00  0.00    -0.458 OA
BRANCH  24  25
ATOM     25  C   UNL     1      -0.650  -2.010  -3.753  1.00  0.00     0.338 C 
ATOM     26  O   UNL     1      -0.622  -3.219  -3.606  1.00  0.00    -0.246 OA
BRANCH  25  27
ATOM     27  C   UNL     1      -1.823  -1.208  -3.378  1.00  0.00     0.060 A 
ATOM     28  C   UNL     1      -2.123  -1.059  -2.021  1.00  0.00     0.016 A 
ATOM     29  C   UNL     1      -2.720  -0.764  -4.347  1.00  0.00     0.016 A 
ATOM     30  C   UNL     1      -3.336  -0.532  -1.613  1.00  0.00     0.010 A 
ATOM     31  C   UNL     1      -3.926  -0.188  -3.939  1.00  0.00     0.010 A 
ATOM     32  C   UNL     1      -4.246  -0.094  -2.571  1.00  0.00    -0.014 A 
BRANCH  32  33
ATOM     33  C   UNL     1      -5.564   0.408  -2.138  1.00  0.00     0.031 A 
ATOM     34  C   UNL     1      -6.781  -0.416  -2.410  1.00  0.00     0.074 A 
ATOM     35  C   UNL     1      -5.654   1.580  -1.487  1.00  0.00     0.049 A 
ATOM     36  N   UNL     1      -8.040  -0.071  -2.362  1.00  0.00    -0.248 NA
ATOM     37  C   UNL     1      -6.550  -1.820  -2.788  1.00  0.00     0.031 C 
ATOM     38  C   UNL     1      -4.520   2.400  -1.058  1.00  0.00     0.029 A 
ATOM     39  N   UNL     1      -6.754   2.291  -1.085  1.00  0.00    -0.354 N 
ATOM     40  C   UNL     1      -8.749  -1.195  -2.759  1.00  0.00     0.074 A 
ATOM     41  C   UNL     1      -7.784  -2.241  -3.022  1.00  0.00     0.031 C 
ATOM     42  C   UNL     1      -4.984   3.513  -0.469  1.00  0.00     0.029 A 
ATOM     43  C   UNL     1      -6.440   3.518  -0.556  1.00  0.00     0.049 A 
ATOM     44  H   UNL     1      -7.676   1.955  -1.167  1.00  0.00     0.167 HD
ATOM     45  C   UNL     1     -10.088  -1.321  -2.903  1.00  0.00     0.037 A 
ATOM     46  C   UNL     1      -7.240   4.554  -0.245  1.00  0.00     0.037 A 
ATOM     47  C   UNL     1     -11.024  -0.271  -2.603  1.00  0.00     0.049 A 
ATOM     48  C   UNL     1      -8.718   4.420  -0.486  1.00  0.00     0.074 A 
ATOM     49  C   UNL     1     -12.400  -0.269  -2.740  1.00  0.00     0.029 A 
ATOM     50  N   UNL     1     -10.669   0.969  -2.088  1.00  0.00    -0.354 N 
ATOM     51  N   UNL     1      -9.388   3.395  -0.953  1.00  0.00    -0.248 NA
ATOM     52  C   UNL     1      -9.548   5.592  -0.179  1.00  0.00     0.031 C 
ATOM     53  C   UNL     1     -12.875   0.983  -2.334  1.00  0.00     0.029 A 
ATOM     54  C   UNL     1     -11.799   1.747  -1.908  1.00  0.00     0.049 A 
ATOM     55  H   UNL     1      -9.749   1.252  -1.881  1.00  0.00     0.167 HD
ATOM     56  C   UNL     1     -10.718   3.786  -0.977  1.00  0.00     0.074 A 
ATOM     57  C   UNL     1     -10.761   5.144  -0.473  1.00  0.00     0.031 C 
ATOM     58  C   UNL     1     -11.806   3.087  -1.380  1.00  0.00     0.037 A 
BRANCH  45  59
ATOM     59  C   UNL     1     -10.606  -2.609  -3.464  1.00  0.00     0.064 A 
ATOM     60  C   UNL     1     -10.649  -3.788  -2.707  1.00  0.00     0.173 A 
ATOM     61  C   UNL     1     -11.086  -2.656  -4.782  1.00  0.00     0.173 A 
ATOM     62  F   UNL     1     -10.186  -3.798  -1.448  1.00  0.00    -0.203 F 
ATOM     63  C   UNL     1     -11.137  -4.972  -3.255  1.00  0.00     0.198 A 
ATOM     64  C   UNL     1     -11.595  -3.835  -5.319  1.00  0.00     0.198 A 
ATOM     65  F   UNL     1     -11.067  -1.555  -5.549  1.00  0.00    -0.203 F 
ATOM     66  F   UNL     1     -11.134  -6.097  -2.527  1.00  0.00    -0.200 F 
ATOM     67  C   UNL     1     -11.614  -4.993  -4.558  1.00  0.00     0.200 A 
ATOM     68  F   UNL     1     -12.063  -3.851  -6.575  1.00  0.00    -0.200 F 
ATOM     69  F   UNL     1     -12.088  -6.132  -5.082  1.00  0.00    -0.200 F 
ENDBRANCH  45  59
BRANCH  46  70
ATOM     70  C   UNL     1      -6.646   5.817   0.258  1.00  0.00     0.064 A 
ATOM     71  C   UNL     1      -6.842   6.230   1.582  1.00  0.00     0.173 A 
ATOM     72  C   UNL     1      -5.853   6.629  -0.569  1.00  0.00     0.173 A 
ATOM     73  F   UNL     1      -7.611   5.500   2.403  1.00  0.00    -0.203 F 
ATOM     74  C   UNL     1      -6.273   7.409   2.059  1.00  0.00     0.198 A 
ATOM     75  C   UNL     1      -5.263   7.793  -0.084  1.00  0.00     0.198 A 
ATOM     76  F   UNL     1      -5.635   6.278  -1.845  1.00  0.00    -0.203 F 
ATOM     77  F   UNL     1      -6.503   7.799   3.320  1.00  0.00    -0.200 F 
ATOM     78  C   UNL     1      -5.478   8.185   1.228  1.00  0.00     0.200 A 
ATOM     79  F   UNL     1      -4.484   8.532  -0.886  1.00  0.00    -0.200 F 
ATOM     80  F   UNL     1      -4.923   9.314   1.691  1.00  0.00    -0.200 F 
ENDBRANCH  46  70
BRANCH  58  81
ATOM     81  C   UNL     1     -13.138   3.757  -1.242  1.00  0.00     0.064 A 
ATOM     82  C   UNL     1     -13.565   4.733  -2.153  1.00  0.00     0.173 A 
ATOM     83  C   UNL     1     -14.021   3.365  -0.226  1.00  0.00     0.173 A 
ATOM     84  F   UNL     1     -12.746   5.148  -3.131  1.00  0.00    -0.203 F 
ATOM     85  C   UNL     1     -14.831   5.300  -2.045  1.00  0.00     0.198 A 
ATOM     86  C   UNL     1     -15.293   3.919  -0.134  1.00  0.00     0.198 A 
ATOM     87  F   UNL     1     -13.654   2.432   0.665  1.00  0.00    -0.203 F 
ATOM     88  F   UNL     1     -15.214   6.249  -2.910  1.00  0.00    -0.200 F 
ATOM     89  C   UNL     1     -15.697   4.886  -1.042  1.00  0.00     0.200 A 
ATOM     90  F   UNL     1     -16.131   3.512   0.830  1.00  0.00    -0.200 F 
ATOM     91  F   UNL     1     -16.920   5.424  -0.948  1.00  0.00    -0.200 F 
ENDBRANCH  58  81
ENDBRANCH  32  33
ENDBRANCH  25  27
ENDBRANCH  24  25
ENDBRANCH  23  24
ENDBRANCH   1  23
TORSDOF 15
