REMARK SMILES CC1(C)CC[N@@H+]([C@H](CC(=O)OCCOC(=O)c2ccc(-c3c4nc(c(-c5c(F)c(F)c(F)c(F)c5F)c5ccc([nH]5)c(-c5c(F)c(F)c(F)c(F)c5F)c5nc(c(-c6c(F)c(F)c(F)c(F)c6F)c6ccc3[nH]6)C=C5)C=C4)cc2)C(F)(F)F)C1
REMARK SMILES IDX 12 1 11 2 9 3 10 4 8 5 7 6 6 7 1 8 2 9 3 10 4 11 84 12 5 13
REMARK SMILES IDX 80 15 81 16 82 17 83 18 13 19 14 20 15 21 16 22 17 23 18 24
REMARK SMILES IDX 79 25 19 26 78 27 20 28 21 29 22 30 72 31 23 32 77 33 71 34
REMARK SMILES IDX 73 35 24 36 76 37 70 38 69 39 25 41 57 42 37 43 56 44 38 45
REMARK SMILES IDX 41 46 55 47 74 48 39 49 40 50 54 52 75 53 42 54 26 55 27 56
REMARK SMILES IDX 35 57 28 58 29 59 33 60 36 61 30 62 31 63 34 64 32 65 58 66
REMARK SMILES IDX 59 67 67 68 60 69 61 70 65 71 68 72 62 73 63 74 66 75 64 76
REMARK SMILES IDX 43 77 44 78 52 79 45 80 46 81 50 82 53 83 47 84 48 85 51 86
REMARK SMILES IDX 49 87
REMARK H PARENT 6 14 73 40 41 51
REMARK Flexibility Score: inf
ROOT
ATOM      1  C   UNL     1       2.888  -2.618  -1.237  1.00  0.00     0.274 C 
ENDROOT
BRANCH   1   2
ATOM      2  O   UNL     1       3.182  -1.319  -0.675  1.00  0.00    -0.462 OA
BRANCH   2   3
ATOM      3  C   UNL     1       2.172  -0.421  -0.665  1.00  0.00     0.312 C 
ATOM      4  O   UNL     1       1.013  -0.686  -0.966  1.00  0.00    -0.252 OA
BRANCH   3   5
ATOM      5  C   UNL     1       2.637   1.003  -0.461  1.00  0.00     0.197 C 
BRANCH   5   6
ATOM      6  C   UNL     1       3.602   1.399   0.677  1.00  0.00     0.302 C 
BRANCH   6   7
ATOM      7  N   UNL     1       3.037   1.456   2.044  1.00  0.00    -0.324 N 
ATOM      8  C   UNL     1      -0.130   1.087   1.885  1.00  0.00     0.017 C 
ATOM      9  C   UNL     1       0.837   1.577   2.965  1.00  0.00     0.019 C 
ATOM     10  C   UNL     1       0.031   2.360   4.003  1.00  0.00     0.017 C 
ATOM     11  C   UNL     1       1.588   0.405   3.609  1.00  0.00     0.073 C 
ATOM     12  C   UNL     1       1.968   2.401   2.340  1.00  0.00     0.269 C 
ATOM     13  C   UNL     1       2.824   0.196   2.741  1.00  0.00     0.263 C 
ATOM     14  H   UNL     1       3.871   1.882   2.448  1.00  0.00     0.348 HD
ENDBRANCH   6   7
BRANCH   6  15
ATOM     15  C   UNL     1       4.978   0.690   0.550  1.00  0.00     0.441 C 
ATOM     16  F   UNL     1       5.417   0.723  -0.732  1.00  0.00    -0.165 F 
ATOM     17  F   UNL     1       5.914   1.325   1.298  1.00  0.00    -0.165 F 
ATOM     18  F   UNL     1       4.961  -0.598   0.949  1.00  0.00    -0.165 F 
ENDBRANCH   6  15
ENDBRANCH   5   6
ENDBRANCH   3   5
ENDBRANCH   2   3
ENDBRANCH   1   2
BRANCH   1  19
ATOM     19  C   UNL     1       2.489  -3.649  -0.184  1.00  0.00     0.275 C 
BRANCH  19  20
ATOM     20  O   UNL     1       1.111  -3.472   0.204  1.00  0.00    -0.458 OA
BRANCH  20  21
ATOM     21  C   UNL     1       0.920  -3.145   1.496  1.00  0.00     0.338 C 
ATOM     22  O   UNL     1       1.783  -2.987   2.354  1.00  0.00    -0.246 OA
BRANCH  21  23
ATOM     23  C   UNL     1      -0.505  -3.006   1.829  1.00  0.00     0.060 A 
ATOM     24  C   UNL     1      -1.285  -2.029   1.216  1.00  0.00     0.016 A 
ATOM     25  C   UNL     1      -0.987  -3.688   2.951  1.00  0.00     0.016 A 
ATOM     26  C   UNL     1      -2.477  -1.628   1.826  1.00  0.00     0.010 A 
ATOM     27  C   UNL     1      -2.217  -3.336   3.512  1.00  0.00     0.010 A 
ATOM     28  C   UNL     1      -2.941  -2.249   3.002  1.00  0.00    -0.014 A 
BRANCH  28  29
ATOM     29  C   UNL     1      -4.126  -1.708   3.729  1.00  0.00     0.031 A 
ATOM     30  C   UNL     1      -4.003  -1.185   5.143  1.00  0.00     0.074 A 
ATOM     31  C   UNL     1      -5.316  -1.613   3.106  1.00  0.00     0.049 A 
ATOM     32  N   UNL     1      -4.946  -0.770   5.955  1.00  0.00    -0.248 NA
ATOM     33  C   UNL     1      -2.651  -1.120   5.722  1.00  0.00     0.031 C 
ATOM     34  C   UNL     1      -5.582  -2.034   1.732  1.00  0.00     0.029 A 
ATOM     35  N   UNL     1      -6.513  -1.093   3.534  1.00  0.00    -0.354 N 
ATOM     36  C   UNL     1      -4.313  -0.452   7.151  1.00  0.00     0.074 A 
ATOM     37  C   UNL     1      -2.900  -0.704   6.958  1.00  0.00     0.031 C 
ATOM     38  C   UNL     1      -6.831  -1.676   1.399  1.00  0.00     0.029 A 
ATOM     39  C   UNL     1      -7.480  -1.075   2.561  1.00  0.00     0.049 A 
ATOM     40  H   UNL     1      -6.662  -0.765   4.450  1.00  0.00     0.167 HD
ATOM     41  C   UNL     1      -4.859   0.002   8.305  1.00  0.00     0.037 A 
ATOM     42  C   UNL     1      -8.753  -0.639   2.596  1.00  0.00     0.037 A 
ATOM     43  C   UNL     1      -6.253   0.316   8.492  1.00  0.00     0.049 A 
ATOM     44  C   UNL     1      -9.332  -0.124   3.879  1.00  0.00     0.074 A 
ATOM     45  C   UNL     1      -6.895   0.755   9.639  1.00  0.00     0.029 A 
ATOM     46  N   UNL     1      -7.214   0.258   7.497  1.00  0.00    -0.354 N 
ATOM     47  N   UNL     1      -8.746   0.047   5.037  1.00  0.00    -0.248 NA
ATOM     48  C   UNL     1     -10.762   0.216   3.869  1.00  0.00     0.031 C 
ATOM     49  C   UNL     1      -8.248   0.954   9.339  1.00  0.00     0.029 A 
ATOM     50  C   UNL     1      -8.442   0.656   8.001  1.00  0.00     0.049 A 
ATOM     51  H   UNL     1      -7.049  -0.024   6.568  1.00  0.00     0.167 HD
ATOM     52  C   UNL     1      -9.740   0.478   5.903  1.00  0.00     0.074 A 
ATOM     53  C   UNL     1     -10.957   0.591   5.126  1.00  0.00     0.031 C 
ATOM     54  C   UNL     1      -9.653   0.732   7.230  1.00  0.00     0.037 A 
BRANCH  41  55
ATOM     55  C   UNL     1      -3.957   0.171   9.490  1.00  0.00     0.064 A 
ATOM     56  C   UNL     1      -3.161   1.312   9.650  1.00  0.00     0.173 A 
ATOM     57  C   UNL     1      -3.968  -0.779  10.523  1.00  0.00     0.173 A 
ATOM     58  F   UNL     1      -3.114   2.243   8.686  1.00  0.00    -0.203 F 
ATOM     59  C   UNL     1      -2.406   1.497  10.807  1.00  0.00     0.198 A 
ATOM     60  C   UNL     1      -3.224  -0.584  11.683  1.00  0.00     0.198 A 
ATOM     61  F   UNL     1      -4.722  -1.884  10.417  1.00  0.00    -0.203 F 
ATOM     62  F   UNL     1      -1.645   2.592  10.940  1.00  0.00    -0.200 F 
ATOM     63  C   UNL     1      -2.445   0.555  11.825  1.00  0.00     0.200 A 
ATOM     64  F   UNL     1      -3.271  -1.490  12.669  1.00  0.00    -0.200 F 
ATOM     65  F   UNL     1      -1.732   0.745  12.944  1.00  0.00    -0.200 F 
ENDBRANCH  41  55
BRANCH  42  66
ATOM     66  C   UNL     1      -9.572  -0.701   1.362  1.00  0.00     0.064 A 
ATOM     67  C   UNL     1      -9.869   0.466   0.646  1.00  0.00     0.173 A 
ATOM     68  C   UNL     1     -10.029  -1.923   0.853  1.00  0.00     0.173 A 
ATOM     69  F   UNL     1      -9.472   1.658   1.113  1.00  0.00    -0.203 F 
ATOM     70  C   UNL     1     -10.587   0.409  -0.545  1.00  0.00     0.198 A 
ATOM     71  C   UNL     1     -10.727  -1.980  -0.350  1.00  0.00     0.198 A 
ATOM     72  F   UNL     1      -9.767  -3.063   1.508  1.00  0.00    -0.203 F 
ATOM     73  F   UNL     1     -10.873   1.538  -1.207  1.00  0.00    -0.200 F 
ATOM     74  C   UNL     1     -11.006  -0.815  -1.048  1.00  0.00     0.200 A 
ATOM     75  F   UNL     1     -11.119  -3.165  -0.838  1.00  0.00    -0.200 F 
ATOM     76  F   UNL     1     -11.680  -0.871  -2.204  1.00  0.00    -0.200 F 
ENDBRANCH  42  66
BRANCH  54  77
ATOM     77  C   UNL     1     -10.920   1.107   7.931  1.00  0.00     0.064 A 
ATOM     78  C   UNL     1     -11.856   0.127   8.292  1.00  0.00     0.173 A 
ATOM     79  C   UNL     1     -11.201   2.441   8.254  1.00  0.00     0.173 A 
ATOM     80  F   UNL     1     -11.634  -1.161   7.989  1.00  0.00    -0.203 F 
ATOM     81  C   UNL     1     -13.040   0.473   8.937  1.00  0.00     0.198 A 
ATOM     82  C   UNL     1     -12.380   2.782   8.910  1.00  0.00     0.198 A 
ATOM     83  F   UNL     1     -10.335   3.412   7.927  1.00  0.00    -0.203 F 
ATOM     84  F   UNL     1     -13.936  -0.475   9.243  1.00  0.00    -0.200 F 
ATOM     85  C   UNL     1     -13.300   1.799   9.247  1.00  0.00     0.200 A 
ATOM     86  F   UNL     1     -12.633   4.064   9.209  1.00  0.00    -0.200 F 
ATOM     87  F   UNL     1     -14.444   2.132   9.860  1.00  0.00    -0.200 F 
ENDBRANCH  54  77
ENDBRANCH  28  29
ENDBRANCH  21  23
ENDBRANCH  20  21
ENDBRANCH  19  20
ENDBRANCH   1  19
TORSDOF 14
