REMARK SMILES CC[C@@H](C(=O)OCCOC(=O)c1ccc(-c2c3nc(c(-c4c(F)c(F)c(F)c(F)c4F)c4ccc([nH]4)c(-c4c(F)c(F)c(F)c(F)c4F)c4nc(c(-c5c(F)c(F)c(F)c(F)c5F)c5ccc2[nH]5)C=C4)C=C3)cc1)N1CCN(Cc2cccc(C)c2)C(=O)C1=O
REMARK SMILES IDX 7 1 6 2 4 3 5 4 3 5 2 6 1 7 75 8 76 9 89 10 77 11 87 12
REMARK SMILES IDX 90 13 78 14 88 15 79 16 80 17 81 18 86 19 82 20 84 21 83 22
REMARK SMILES IDX 85 23 8 24 9 25 10 26 11 27 12 28 13 29 74 30 14 31 73 32
REMARK SMILES IDX 15 33 16 34 17 35 67 36 18 37 72 38 66 39 68 40 19 41 71 42
REMARK SMILES IDX 65 43 64 44 20 46 52 47 32 48 51 49 33 50 36 51 50 52 69 53
REMARK SMILES IDX 34 54 35 55 49 57 70 58 37 59 21 60 22 61 30 62 23 63 24 64
REMARK SMILES IDX 28 65 31 66 25 67 26 68 29 69 27 70 53 71 54 72 62 73 55 74
REMARK SMILES IDX 56 75 60 76 63 77 57 78 58 79 61 80 59 81 38 82 39 83 47 84
REMARK SMILES IDX 40 85 41 86 45 87 48 88 42 89 43 90 46 91 44 92
REMARK H PARENT 68 45 36 56
REMARK Flexibility Score: inf
ROOT
ATOM      1  C   UNL     1       0.320  -1.608   3.492  1.00  0.00     0.274 C 
ENDROOT
BRANCH   1   2
ATOM      2  O   UNL     1       0.786  -1.397   2.143  1.00  0.00    -0.461 OA
BRANCH   2   3
ATOM      3  C   UNL     1       1.048  -2.504   1.398  1.00  0.00     0.328 C 
ATOM      4  O   UNL     1       0.907  -3.642   1.831  1.00  0.00    -0.250 OA
BRANCH   3   5
ATOM      5  C   UNL     1       1.625  -2.164  -0.011  1.00  0.00     0.195 C 
BRANCH   5   6
ATOM      6  C   UNL     1       1.110  -0.834  -0.607  1.00  0.00     0.034 C 
ATOM      7  C   UNL     1       1.542   0.445   0.095  1.00  0.00     0.007 C 
ENDBRANCH   5   6
BRANCH   5   8
ATOM      8  N   UNL     1       1.395  -3.319  -0.948  1.00  0.00    -0.319 N 
ATOM      9  C   UNL     1       0.409  -3.270  -2.024  1.00  0.00     0.142 C 
ATOM     10  C   UNL     1       2.083  -4.523  -0.715  1.00  0.00     0.312 C 
ATOM     11  C   UNL     1       0.758  -4.244  -3.146  1.00  0.00     0.142 C 
ATOM     12  C   UNL     1       1.545  -5.805  -1.446  1.00  0.00     0.312 C 
ATOM     13  O   UNL     1       3.059  -4.604   0.020  1.00  0.00    -0.263 OA
ATOM     14  N   UNL     1       0.857  -5.603  -2.651  1.00  0.00    -0.328 N 
ATOM     15  O   UNL     1       1.740  -6.912  -0.957  1.00  0.00    -0.263 OA
BRANCH  14  16
ATOM     16  C   UNL     1       0.651  -6.749  -3.548  1.00  0.00     0.155 C 
BRANCH  16  17
ATOM     17  C   UNL     1      -0.666  -6.773  -4.295  1.00  0.00    -0.028 A 
ATOM     18  C   UNL     1      -1.685  -7.657  -3.918  1.00  0.00     0.005 A 
ATOM     19  C   UNL     1      -0.886  -5.938  -5.405  1.00  0.00     0.009 A 
ATOM     20  C   UNL     1      -2.892  -7.688  -4.621  1.00  0.00     0.001 A 
ATOM     21  C   UNL     1      -2.125  -5.899  -6.057  1.00  0.00    -0.051 A 
ATOM     22  C   UNL     1      -3.119  -6.801  -5.672  1.00  0.00     0.003 A 
ATOM     23  C   UNL     1      -2.375  -4.921  -7.167  1.00  0.00     0.044 C 
ENDBRANCH  16  17
ENDBRANCH  14  16
ENDBRANCH   5   8
ENDBRANCH   3   5
ENDBRANCH   2   3
ENDBRANCH   1   2
BRANCH   1  24
ATOM     24  C   UNL     1      -1.204  -1.500   3.591  1.00  0.00     0.275 C 
BRANCH  24  25
ATOM     25  O   UNL     1      -1.858  -2.673   3.071  1.00  0.00    -0.458 OA
BRANCH  25  26
ATOM     26  C   UNL     1      -2.193  -2.615   1.766  1.00  0.00     0.338 C 
ATOM     27  O   UNL     1      -2.049  -1.674   0.998  1.00  0.00    -0.246 OA
BRANCH  26  28
ATOM     28  C   UNL     1      -2.643  -3.935   1.309  1.00  0.00     0.060 A 
ATOM     29  C   UNL     1      -1.764  -4.668   0.514  1.00  0.00     0.016 A 
ATOM     30  C   UNL     1      -3.936  -4.398   1.538  1.00  0.00     0.016 A 
ATOM     31  C   UNL     1      -2.176  -5.830  -0.117  1.00  0.00     0.010 A 
ATOM     32  C   UNL     1      -4.341  -5.598   0.941  1.00  0.00     0.010 A 
ATOM     33  C   UNL     1      -3.470  -6.307   0.090  1.00  0.00    -0.014 A 
BRANCH  33  34
ATOM     34  C   UNL     1      -3.928  -7.508  -0.644  1.00  0.00     0.031 A 
ATOM     35  C   UNL     1      -4.983  -7.365  -1.699  1.00  0.00     0.074 A 
ATOM     36  C   UNL     1      -3.358  -8.707  -0.418  1.00  0.00     0.049 A 
ATOM     37  N   UNL     1      -5.675  -8.290  -2.312  1.00  0.00    -0.248 NA
ATOM     38  C   UNL     1      -5.294  -5.993  -2.131  1.00  0.00     0.031 C 
ATOM     39  C   UNL     1      -2.232  -8.955   0.482  1.00  0.00     0.029 A 
ATOM     40  N   UNL     1      -3.651  -9.943  -0.936  1.00  0.00    -0.354 N 
ATOM     41  C   UNL     1      -6.531  -7.612  -3.169  1.00  0.00     0.074 A 
ATOM     42  C   UNL     1      -6.270  -6.198  -3.004  1.00  0.00     0.031 C 
ATOM     43  C   UNL     1      -1.928 -10.262   0.454  1.00  0.00     0.029 A 
ATOM     44  C   UNL     1      -2.888 -10.952  -0.400  1.00  0.00     0.049 A 
ATOM     45  H   UNL     1      -4.339 -10.093  -1.623  1.00  0.00     0.167 HD
ATOM     46  C   UNL     1      -7.450  -8.133  -4.015  1.00  0.00     0.037 A 
ATOM     47  C   UNL     1      -2.993 -12.287  -0.539  1.00  0.00     0.037 A 
ATOM     48  C   UNL     1      -7.669  -9.542  -4.197  1.00  0.00     0.049 A 
ATOM     49  C   UNL     1      -4.092 -12.843  -1.401  1.00  0.00     0.074 A 
ATOM     50  C   UNL     1      -8.614 -10.178  -4.983  1.00  0.00     0.029 A 
ATOM     51  N   UNL     1      -6.914 -10.537  -3.593  1.00  0.00    -0.354 N 
ATOM     52  N   UNL     1      -4.981 -12.204  -2.123  1.00  0.00    -0.248 NA
ATOM     53  C   UNL     1      -4.218 -14.306  -1.451  1.00  0.00     0.031 C 
ATOM     54  C   UNL     1      -8.444 -11.559  -4.838  1.00  0.00     0.029 A 
ATOM     55  C   UNL     1      -7.370 -11.783  -3.991  1.00  0.00     0.049 A 
ATOM     56  H   UNL     1      -6.166 -10.381  -2.973  1.00  0.00     0.167 HD
ATOM     57  C   UNL     1      -5.753 -13.184  -2.732  1.00  0.00     0.074 A 
ATOM     58  C   UNL     1      -5.224 -14.461  -2.300  1.00  0.00     0.031 C 
ATOM     59  C   UNL     1      -6.807 -13.039  -3.570  1.00  0.00     0.037 A 
BRANCH  46  60
ATOM     60  C   UNL     1      -8.316  -7.172  -4.771  1.00  0.00     0.064 A 
ATOM     61  C   UNL     1      -7.836  -6.451  -5.872  1.00  0.00     0.173 A 
ATOM     62  C   UNL     1      -9.657  -6.993  -4.400  1.00  0.00     0.173 A 
ATOM     63  F   UNL     1      -6.557  -6.576  -6.255  1.00  0.00    -0.203 F 
ATOM     64  C   UNL     1      -8.663  -5.570  -6.565  1.00  0.00     0.198 A 
ATOM     65  C   UNL     1     -10.488  -6.130  -5.109  1.00  0.00     0.198 A 
ATOM     66  F   UNL     1     -10.164  -7.662  -3.353  1.00  0.00    -0.203 F 
ATOM     67  F   UNL     1      -8.173  -4.862  -7.591  1.00  0.00    -0.200 F 
ATOM     68  C   UNL     1      -9.989  -5.416  -6.187  1.00  0.00     0.200 A 
ATOM     69  F   UNL     1     -11.770  -5.988  -4.747  1.00  0.00    -0.200 F 
ATOM     70  F   UNL     1     -10.784  -4.571  -6.859  1.00  0.00    -0.200 F 
ENDBRANCH  46  60
BRANCH  47  71
ATOM     71  C   UNL     1      -2.072 -13.188   0.201  1.00  0.00     0.064 A 
ATOM     72  C   UNL     1      -1.134 -13.977  -0.477  1.00  0.00     0.173 A 
ATOM     73  C   UNL     1      -2.129 -13.298   1.599  1.00  0.00     0.173 A 
ATOM     74  F   UNL     1      -1.065 -13.932  -1.816  1.00  0.00    -0.203 F 
ATOM     75  C   UNL     1      -0.297 -14.852   0.213  1.00  0.00     0.198 A 
ATOM     76  C   UNL     1      -1.272 -14.151   2.290  1.00  0.00     0.198 A 
ATOM     77  F   UNL     1      -3.017 -12.573   2.295  1.00  0.00    -0.203 F 
ATOM     78  F   UNL     1       0.556 -15.633  -0.464  1.00  0.00    -0.200 F 
ATOM     79  C   UNL     1      -0.362 -14.933   1.596  1.00  0.00     0.200 A 
ATOM     80  F   UNL     1      -1.336 -14.223   3.627  1.00  0.00    -0.200 F 
ATOM     81  F   UNL     1       0.440 -15.778   2.258  1.00  0.00    -0.200 F 
ENDBRANCH  47  71
BRANCH  59  82
ATOM     82  C   UNL     1      -7.418 -14.289  -4.124  1.00  0.00     0.064 A 
ATOM     83  C   UNL     1      -8.257 -15.103  -3.350  1.00  0.00     0.173 A 
ATOM     84  C   UNL     1      -7.198 -14.647  -5.463  1.00  0.00     0.173 A 
ATOM     85  F   UNL     1      -8.482 -14.807  -2.062  1.00  0.00    -0.203 F 
ATOM     86  C   UNL     1      -8.844 -16.241  -3.895  1.00  0.00     0.198 A 
ATOM     87  C   UNL     1      -7.805 -15.773  -6.009  1.00  0.00     0.198 A 
ATOM     88  F   UNL     1      -6.407 -13.895  -6.242  1.00  0.00    -0.203 F 
ATOM     89  F   UNL     1      -9.618 -17.024  -3.131  1.00  0.00    -0.200 F 
ATOM     90  C   UNL     1      -8.624 -16.571  -5.225  1.00  0.00     0.200 A 
ATOM     91  F   UNL     1      -7.600 -16.085  -7.296  1.00  0.00    -0.200 F 
ATOM     92  F   UNL     1      -9.199 -17.662  -5.749  1.00  0.00    -0.200 F 
ENDBRANCH  59  82
ENDBRANCH  33  34
ENDBRANCH  26  28
ENDBRANCH  25  26
ENDBRANCH  24  25
ENDBRANCH   1  24
TORSDOF 15
