REMARK SMILES C[C@H]1CN(C(=O)N2CC[NH+]([C@@H](C)C(=O)OCCOC(=O)c3ccc(-c4c5nc(c(-c6c(F)c(F)c(F)c(F)c6F)c6ccc([nH]6)c(-c6c(F)c(F)c(F)c(F)c6F)c6nc(c(-c7c(F)c(F)c(F)c(F)c7F)c7ccc4[nH]7)C=C6)C=C5)cc3)CC2)C[C@@H]1C
REMARK SMILES IDX 17 1 16 2 15 3 13 4 14 5 11 6 12 7 10 8 1 9 2 10 3 11 87 12
REMARK SMILES IDX 4 13 86 14 88 15 5 16 6 17 7 18 8 19 85 20 9 21 84 22 18 24
REMARK SMILES IDX 19 25 20 26 21 27 22 28 83 29 23 30 82 31 24 32 25 33 26 34
REMARK SMILES IDX 76 35 27 36 81 37 75 38 77 39 28 40 80 41 74 42 73 43 29 45
REMARK SMILES IDX 61 46 41 47 60 48 42 49 45 50 59 51 78 52 43 53 44 54 58 56
REMARK SMILES IDX 79 57 46 58 30 59 31 60 39 61 32 62 33 63 37 64 40 65 34 66
REMARK SMILES IDX 35 67 38 68 36 69 62 70 63 71 71 72 64 73 65 74 69 75 72 76
REMARK SMILES IDX 66 77 67 78 70 79 68 80 47 81 48 82 56 83 49 84 50 85 54 86
REMARK SMILES IDX 57 87 51 88 52 89 55 90 53 91
REMARK H PARENT 10 23 77 44 45 55
REMARK Flexibility Score: inf
ROOT
ATOM      1  C   UNL     1      -9.712   0.113   1.018  1.00  0.00     0.275 C 
ENDROOT
BRANCH   1   2
ATOM      2  C   UNL     1      -9.616  -0.881  -0.139  1.00  0.00     0.274 C 
BRANCH   2   3
ATOM      3  O   UNL     1      -8.362  -0.743  -0.831  1.00  0.00    -0.458 OA
BRANCH   3   4
ATOM      4  C   UNL     1      -8.345   0.007  -1.960  1.00  0.00     0.364 C 
ATOM      5  O   UNL     1      -9.350   0.499  -2.468  1.00  0.00    -0.245 OA
BRANCH   4   6
ATOM      6  C   UNL     1      -6.951   0.147  -2.610  1.00  0.00     0.292 C 
ATOM      7  C   UNL     1      -6.861  -0.786  -3.812  1.00  0.00     0.088 C 
BRANCH   6   8
ATOM      8  N   UNL     1      -5.814   0.231  -1.657  1.00  0.00    -0.321 N 
ATOM      9  C   UNL     1       1.554  -0.143  -2.341  1.00  0.00     0.010 C 
ATOM     10  C   UNL     1       0.747  -0.791  -1.212  1.00  0.00     0.010 C 
ATOM     11  C   UNL     1      -0.757  -0.660  -1.466  1.00  0.00     0.125 C 
ATOM     12  C   UNL     1       0.954  -2.316  -1.165  1.00  0.00     0.010 C 
ATOM     13  N   UNL     1      -1.131  -1.881  -2.173  1.00  0.00    -0.324 N 
ATOM     14  C   UNL     1      -0.017  -2.816  -2.236  1.00  0.00     0.125 C 
ATOM     15  C   UNL     1       0.589  -2.891   0.209  1.00  0.00     0.010 C 
ATOM     16  C   UNL     1      -2.410  -2.330  -2.402  1.00  0.00     0.320 C 
ATOM     17  O   UNL     1      -2.652  -3.491  -2.730  1.00  0.00    -0.248 OA
ATOM     18  N   UNL     1      -3.423  -1.443  -2.104  1.00  0.00    -0.313 N 
ATOM     19  C   UNL     1      -4.624  -2.017  -1.523  1.00  0.00     0.183 C 
ATOM     20  C   UNL     1      -3.642  -0.260  -2.930  1.00  0.00     0.183 C 
ATOM     21  C   UNL     1      -5.482  -0.950  -0.839  1.00  0.00     0.284 C 
ATOM     22  C   UNL     1      -4.568   0.772  -2.249  1.00  0.00     0.284 C 
ATOM     23  H   UNL     1      -6.220   0.897  -1.000  1.00  0.00     0.348 HD
ENDBRANCH   6   8
ENDBRANCH   4   6
ENDBRANCH   3   4
ENDBRANCH   2   3
ENDBRANCH   1   2
BRANCH   1  24
ATOM     24  O   UNL     1      -9.814   1.461   0.524  1.00  0.00    -0.458 OA
BRANCH  24  25
ATOM     25  C   UNL     1      -8.684   2.199   0.592  1.00  0.00     0.338 C 
ATOM     26  O   UNL     1      -7.616   1.894   1.105  1.00  0.00    -0.246 OA
BRANCH  25  27
ATOM     27  C   UNL     1      -8.885   3.436  -0.175  1.00  0.00     0.060 A 
ATOM     28  C   UNL     1      -8.168   3.602  -1.362  1.00  0.00     0.016 A 
ATOM     29  C   UNL     1      -9.740   4.438   0.285  1.00  0.00     0.016 A 
ATOM     30  C   UNL     1      -8.325   4.760  -2.118  1.00  0.00     0.010 A 
ATOM     31  C   UNL     1      -9.885   5.609  -0.465  1.00  0.00     0.010 A 
ATOM     32  C   UNL     1      -9.180   5.775  -1.671  1.00  0.00    -0.014 A 
BRANCH  32  33
ATOM     33  C   UNL     1      -9.300   7.034  -2.442  1.00  0.00     0.031 A 
ATOM     34  C   UNL     1      -8.609   8.271  -1.954  1.00  0.00     0.074 A 
ATOM     35  C   UNL     1     -10.025   7.063  -3.574  1.00  0.00     0.049 A 
ATOM     36  N   UNL     1      -8.681   9.496  -2.409  1.00  0.00    -0.248 NA
ATOM     37  C   UNL     1      -7.716   8.106  -0.797  1.00  0.00     0.031 C 
ATOM     38  C   UNL     1     -10.698   5.911  -4.172  1.00  0.00     0.029 A 
ATOM     39  N   UNL     1     -10.325   8.105  -4.415  1.00  0.00    -0.354 N 
ATOM     40  C   UNL     1      -7.866  10.253  -1.580  1.00  0.00     0.074 A 
ATOM     41  C   UNL     1      -7.313   9.352  -0.590  1.00  0.00     0.031 C 
ATOM     42  C   UNL     1     -11.344   6.311  -5.279  1.00  0.00     0.029 A 
ATOM     43  C   UNL     1     -11.171   7.754  -5.437  1.00  0.00     0.049 A 
ATOM     44  H   UNL     1      -9.967   9.014  -4.298  1.00  0.00     0.167 HD
ATOM     45  C   UNL     1      -7.608  11.581  -1.641  1.00  0.00     0.037 A 
ATOM     46  C   UNL     1     -11.773   8.518  -6.369  1.00  0.00     0.037 A 
ATOM     47  C   UNL     1      -8.148  12.466  -2.639  1.00  0.00     0.049 A 
ATOM     48  C   UNL     1     -11.527  10.002  -6.374  1.00  0.00     0.074 A 
ATOM     49  C   UNL     1      -7.913  13.818  -2.814  1.00  0.00     0.029 A 
ATOM     50  N   UNL     1      -9.041  12.084  -3.630  1.00  0.00    -0.354 N 
ATOM     51  N   UNL     1     -10.756  10.714  -5.589  1.00  0.00    -0.248 NA
ATOM     52  C   UNL     1     -12.246  10.790  -7.385  1.00  0.00     0.031 C 
ATOM     53  C   UNL     1      -8.701  14.264  -3.881  1.00  0.00     0.029 A 
ATOM     54  C   UNL     1      -9.396  13.182  -4.398  1.00  0.00     0.049 A 
ATOM     55  H   UNL     1      -9.375  11.168  -3.768  1.00  0.00     0.167 HD
ATOM     56  C   UNL     1     -10.894  12.030  -6.008  1.00  0.00     0.074 A 
ATOM     57  C   UNL     1     -11.806  12.015  -7.133  1.00  0.00     0.031 C 
ATOM     58  C   UNL     1     -10.322  13.150  -5.502  1.00  0.00     0.037 A 
BRANCH  45  59
ATOM     59  C   UNL     1      -6.734  12.163  -0.571  1.00  0.00     0.064 A 
ATOM     60  C   UNL     1      -5.351  11.932  -0.534  1.00  0.00     0.173 A 
ATOM     61  C   UNL     1      -7.291  12.977   0.427  1.00  0.00     0.173 A 
ATOM     62  F   UNL     1      -4.773  11.148  -1.457  1.00  0.00    -0.203 F 
ATOM     63  C   UNL     1      -4.562  12.473   0.478  1.00  0.00     0.198 A 
ATOM     64  C   UNL     1      -6.496  13.537   1.423  1.00  0.00     0.198 A 
ATOM     65  F   UNL     1      -8.609  13.230   0.435  1.00  0.00    -0.203 F 
ATOM     66  F   UNL     1      -3.251  12.202   0.520  1.00  0.00    -0.200 F 
ATOM     67  C   UNL     1      -5.134  13.278   1.452  1.00  0.00     0.200 A 
ATOM     68  F   UNL     1      -7.049  14.321   2.359  1.00  0.00    -0.200 F 
ATOM     69  F   UNL     1      -4.374  13.798   2.426  1.00  0.00    -0.200 F 
ENDBRANCH  45  59
BRANCH  46  70
ATOM     70  C   UNL     1     -12.705   7.891  -7.340  1.00  0.00     0.064 A 
ATOM     71  C   UNL     1     -12.367   7.771  -8.694  1.00  0.00     0.173 A 
ATOM     72  C   UNL     1     -13.946   7.382  -6.927  1.00  0.00     0.173 A 
ATOM     73  F   UNL     1     -11.204   8.268  -9.140  1.00  0.00    -0.203 F 
ATOM     74  C   UNL     1     -13.236   7.165  -9.600  1.00  0.00     0.198 A 
ATOM     75  C   UNL     1     -14.803   6.755  -7.828  1.00  0.00     0.198 A 
ATOM     76  F   UNL     1     -14.318   7.479  -5.642  1.00  0.00    -0.203 F 
ATOM     77  F   UNL     1     -12.903   7.089 -10.895  1.00  0.00    -0.200 F 
ATOM     78  C   UNL     1     -14.449   6.650  -9.165  1.00  0.00     0.200 A 
ATOM     79  F   UNL     1     -15.968   6.250  -7.402  1.00  0.00    -0.200 F 
ATOM     80  F   UNL     1     -15.278   6.058 -10.034  1.00  0.00    -0.200 F 
ENDBRANCH  46  70
BRANCH  58  81
ATOM     81  C   UNL     1     -10.672  14.453  -6.157  1.00  0.00     0.064 A 
ATOM     82  C   UNL     1     -11.922  15.056  -5.955  1.00  0.00     0.173 A 
ATOM     83  C   UNL     1      -9.739  15.124  -6.960  1.00  0.00     0.173 A 
ATOM     84  F   UNL     1     -12.854  14.443  -5.210  1.00  0.00    -0.203 F 
ATOM     85  C   UNL     1     -12.231  16.277  -6.547  1.00  0.00     0.198 A 
ATOM     86  C   UNL     1     -10.041  16.358  -7.530  1.00  0.00     0.198 A 
ATOM     87  F   UNL     1      -8.528  14.590  -7.180  1.00  0.00    -0.203 F 
ATOM     88  F   UNL     1     -13.444  16.818  -6.372  1.00  0.00    -0.200 F 
ATOM     89  C   UNL     1     -11.288  16.930  -7.327  1.00  0.00     0.200 A 
ATOM     90  F   UNL     1      -9.126  16.992  -8.275  1.00  0.00    -0.200 F 
ATOM     91  F   UNL     1     -11.584  18.110  -7.891  1.00  0.00    -0.200 F 
ENDBRANCH  58  81
ENDBRANCH  32  33
ENDBRANCH  25  27
ENDBRANCH  24  25
ENDBRANCH   1  24
TORSDOF 12
