REMARK SMILES CCOC(=O)c1c(NC(=O)[C@@H]2[C@@H]3CC[C@@H](C3)[C@@H]2C(=O)OCCOC(=O)c2ccc(-c3c4nc(c(-c5c(F)c(F)c(F)c(F)c5F)c5ccc([nH]5)c(-c5c(F)c(F)c(F)c(F)c5F)c5nc(c(-c6c(F)c(F)c(F)c(F)c6F)c6ccc3[nH]6)C=C5)C=C4)cc2)sc2c1CCCC2
REMARK SMILES IDX 20 1 18 2 19 3 17 4 11 5 12 6 13 7 16 8 15 9 14 10 9 11 8 12
REMARK SMILES IDX 10 14 7 15 6 16 91 17 89 18 90 19 92 20 95 21 93 22 94 23
REMARK SMILES IDX 4 24 5 25 3 26 2 27 1 28 21 29 22 30 23 31 24 32 25 33 26 34
REMARK SMILES IDX 27 35 88 36 28 37 87 38 29 39 30 40 31 41 81 42 32 43 86 44
REMARK SMILES IDX 80 45 82 46 33 47 85 48 79 49 78 50 34 52 66 53 46 54 65 55
REMARK SMILES IDX 47 56 50 57 64 58 83 59 48 60 49 61 63 63 84 64 51 65 35 66
REMARK SMILES IDX 36 67 44 68 37 69 38 70 42 71 45 72 39 73 40 74 43 75 41 76
REMARK SMILES IDX 67 77 68 78 76 79 69 80 70 81 74 82 77 83 71 84 72 85 75 86
REMARK SMILES IDX 73 87 52 88 53 89 61 90 54 91 55 92 59 93 62 94 56 95 57 96
REMARK SMILES IDX 60 97 58 98
REMARK H PARENT 8 13 82 51 50 62
REMARK Flexibility Score: inf
ROOT
ATOM      1  O   UNL     1       1.030  -0.609   1.911  1.00  0.00    -0.462 OA
ENDROOT
BRANCH   1   2
ATOM      2  C   UNL     1       1.985  -0.629   0.953  1.00  0.00     0.310 C 
ATOM      3  O   UNL     1       3.037  -1.260   1.016  1.00  0.00    -0.252 OA
BRANCH   2   4
ATOM      4  C   UNL     1       1.582   0.100  -0.309  1.00  0.00     0.115 C 
ATOM      5  C   UNL     1       2.520   1.223  -0.807  1.00  0.00     0.096 C 
ATOM      6  C   UNL     1       1.514   2.316  -1.253  1.00  0.00     0.003 C 
ATOM      7  C   UNL     1       0.824   2.984  -0.049  1.00  0.00     0.005 C 
ATOM      8  C   UNL     1       0.361   1.465  -1.796  1.00  0.00     0.009 C 
ATOM      9  C   UNL     1       0.175   0.709  -0.469  1.00  0.00     0.004 C 
ATOM     10  C   UNL     1      -0.072   1.872   0.501  1.00  0.00     0.005 C 
BRANCH   5  11
ATOM     11  C   UNL     1       3.558   1.746   0.151  1.00  0.00     0.229 C 
ATOM     12  N   UNL     1       4.717   2.316  -0.264  1.00  0.00    -0.317 N 
ATOM     13  H   UNL     1       5.242   2.666   0.492  1.00  0.00     0.170 HD
ATOM     14  O   UNL     1       3.352   1.732   1.370  1.00  0.00    -0.274 OA
BRANCH  12  15
ATOM     15  C   UNL     1       5.348   2.534  -1.468  1.00  0.00     0.110 A 
ATOM     16  C   UNL     1       5.207   2.301  -2.827  1.00  0.00     0.098 A 
ATOM     17  C   UNL     1       6.339   2.832  -3.569  1.00  0.00    -0.017 A 
ATOM     18  S   UNL     1       6.814   3.379  -1.125  1.00  0.00    -0.122 S 
ATOM     19  C   UNL     1       7.245   3.471  -2.754  1.00  0.00     0.011 A 
ATOM     20  C   UNL     1       6.517   2.780  -5.063  1.00  0.00     0.038 C 
ATOM     21  C   UNL     1       8.493   4.158  -3.217  1.00  0.00     0.047 C 
ATOM     22  C   UNL     1       7.931   3.194  -5.495  1.00  0.00     0.005 C 
ATOM     23  C   UNL     1       8.419   4.430  -4.727  1.00  0.00     0.006 C 
BRANCH  16  24
ATOM     24  C   UNL     1       4.122   1.653  -3.538  1.00  0.00     0.341 C 
ATOM     25  O   UNL     1       3.122   2.248  -3.914  1.00  0.00    -0.246 OA
BRANCH  24  26
ATOM     26  O   UNL     1       4.427   0.361  -3.846  1.00  0.00    -0.462 OA
BRANCH  26  27
ATOM     27  C   UNL     1       3.540  -0.310  -4.754  1.00  0.00     0.230 C 
ATOM     28  C   UNL     1       2.919  -1.496  -4.049  1.00  0.00     0.049 C 
ENDBRANCH  26  27
ENDBRANCH  24  26
ENDBRANCH  16  24
ENDBRANCH  12  15
ENDBRANCH   5  11
ENDBRANCH   2   4
ENDBRANCH   1   2
BRANCH   1  29
ATOM     29  C   UNL     1       1.276  -1.410   3.080  1.00  0.00     0.274 C 
BRANCH  29  30
ATOM     30  C   UNL     1       0.440  -2.692   3.044  1.00  0.00     0.275 C 
BRANCH  30  31
ATOM     31  O   UNL     1       0.912  -3.621   2.048  1.00  0.00    -0.458 OA
BRANCH  31  32
ATOM     32  C   UNL     1       0.368  -3.473   0.820  1.00  0.00     0.338 C 
ATOM     33  O   UNL     1      -0.471  -2.662   0.467  1.00  0.00    -0.246 OA
BRANCH  32  34
ATOM     34  C   UNL     1       0.996  -4.406  -0.126  1.00  0.00     0.060 A 
ATOM     35  C   UNL     1       1.718  -3.872  -1.194  1.00  0.00     0.016 A 
ATOM     36  C   UNL     1       0.770  -5.781  -0.039  1.00  0.00     0.016 A 
ATOM     37  C   UNL     1       2.187  -4.706  -2.204  1.00  0.00     0.010 A 
ATOM     38  C   UNL     1       1.258  -6.621  -1.047  1.00  0.00     0.010 A 
ATOM     39  C   UNL     1       1.951  -6.085  -2.147  1.00  0.00    -0.014 A 
BRANCH  39  40
ATOM     40  C   UNL     1       2.385  -6.945  -3.274  1.00  0.00     0.031 A 
ATOM     41  C   UNL     1       1.367  -7.518  -4.218  1.00  0.00     0.074 A 
ATOM     42  C   UNL     1       3.695  -7.174  -3.481  1.00  0.00     0.049 A 
ATOM     43  N   UNL     1       1.535  -8.358  -5.208  1.00  0.00    -0.248 NA
ATOM     44  C   UNL     1      -0.026  -7.085  -4.025  1.00  0.00     0.031 C 
ATOM     45  C   UNL     1       4.785  -6.628  -2.673  1.00  0.00     0.029 A 
ATOM     46  N   UNL     1       4.330  -7.922  -4.441  1.00  0.00    -0.354 N 
ATOM     47  C   UNL     1       0.270  -8.581  -5.733  1.00  0.00     0.074 A 
ATOM     48  C   UNL     1      -0.658  -7.788  -4.954  1.00  0.00     0.031 C 
ATOM     49  C   UNL     1       5.956  -7.050  -3.177  1.00  0.00     0.029 A 
ATOM     50  C   UNL     1       5.696  -7.935  -4.309  1.00  0.00     0.049 A 
ATOM     51  H   UNL     1       3.851  -8.403  -5.154  1.00  0.00     0.167 HD
ATOM     52  C   UNL     1      -0.084  -9.379  -6.769  1.00  0.00     0.037 A 
ATOM     53  C   UNL     1       6.630  -8.608  -5.006  1.00  0.00     0.037 A 
ATOM     54  C   UNL     1       0.840 -10.144  -7.564  1.00  0.00     0.049 A 
ATOM     55  C   UNL     1       6.207  -9.514  -6.128  1.00  0.00     0.074 A 
ATOM     56  C   UNL     1       0.573 -10.979  -8.636  1.00  0.00     0.029 A 
ATOM     57  N   UNL     1       2.214 -10.159  -7.378  1.00  0.00    -0.354 N 
ATOM     58  N   UNL     1       5.005  -9.753  -6.590  1.00  0.00    -0.248 NA
ATOM     59  C   UNL     1       7.274 -10.257  -6.817  1.00  0.00     0.031 C 
ATOM     60  C   UNL     1       1.785 -11.519  -9.082  1.00  0.00     0.029 A 
ATOM     61  C   UNL     1       2.808 -10.997  -8.308  1.00  0.00     0.049 A 
ATOM     62  H   UNL     1       2.696  -9.650  -6.686  1.00  0.00     0.167 HD
ATOM     63  C   UNL     1       5.167 -10.665  -7.623  1.00  0.00     0.074 A 
ATOM     64  C   UNL     1       6.588 -10.922  -7.736  1.00  0.00     0.031 C 
ATOM     65  C   UNL     1       4.222 -11.243  -8.403  1.00  0.00     0.037 A 
BRANCH  52  66
ATOM     66  C   UNL     1      -1.544  -9.490  -7.084  1.00  0.00     0.064 A 
ATOM     67  C   UNL     1      -2.233  -8.472  -7.758  1.00  0.00     0.173 A 
ATOM     68  C   UNL     1      -2.254 -10.650  -6.737  1.00  0.00     0.173 A 
ATOM     69  F   UNL     1      -1.599  -7.339  -8.096  1.00  0.00    -0.203 F 
ATOM     70  C   UNL     1      -3.586  -8.604  -8.059  1.00  0.00     0.198 A 
ATOM     71  C   UNL     1      -3.601 -10.787  -7.057  1.00  0.00     0.198 A 
ATOM     72  F   UNL     1      -1.637 -11.652  -6.093  1.00  0.00    -0.203 F 
ATOM     73  F   UNL     1      -4.234  -7.606  -8.675  1.00  0.00    -0.200 F 
ATOM     74  C   UNL     1      -4.267  -9.763  -7.714  1.00  0.00     0.200 A 
ATOM     75  F   UNL     1      -4.256 -11.909  -6.729  1.00  0.00    -0.200 F 
ATOM     76  F   UNL     1      -5.568  -9.890  -8.009  1.00  0.00    -0.200 F 
ENDBRANCH  52  66
BRANCH  53  77
ATOM     77  C   UNL     1       8.062  -8.470  -4.641  1.00  0.00     0.064 A 
ATOM     78  C   UNL     1       8.952  -7.774  -5.468  1.00  0.00     0.173 A 
ATOM     79  C   UNL     1       8.565  -9.031  -3.458  1.00  0.00     0.173 A 
ATOM     80  F   UNL     1       8.519  -7.244  -6.622  1.00  0.00    -0.203 F 
ATOM     81  C   UNL     1      10.298  -7.651  -5.130  1.00  0.00     0.198 A 
ATOM     82  C   UNL     1       9.906  -8.887  -3.110  1.00  0.00     0.198 A 
ATOM     83  F   UNL     1       7.751  -9.710  -2.637  1.00  0.00    -0.203 F 
ATOM     84  F   UNL     1      11.137  -7.010  -5.955  1.00  0.00    -0.200 F 
ATOM     85  C   UNL     1      10.772  -8.201  -3.948  1.00  0.00     0.200 A 
ATOM     86  F   UNL     1      10.358  -9.414  -1.964  1.00  0.00    -0.200 F 
ATOM     87  F   UNL     1      12.065  -8.079  -3.622  1.00  0.00    -0.200 F 
ENDBRANCH  53  77
BRANCH  65  88
ATOM     88  C   UNL     1       4.699 -12.200  -9.454  1.00  0.00     0.064 A 
ATOM     89  C   UNL     1       5.114 -13.497  -9.122  1.00  0.00     0.173 A 
ATOM     90  C   UNL     1       4.715 -11.825 -10.805  1.00  0.00     0.173 A 
ATOM     91  F   UNL     1       5.131 -13.893  -7.841  1.00  0.00    -0.203 F 
ATOM     92  C   UNL     1       5.548 -14.381 -10.107  1.00  0.00     0.198 A 
ATOM     93  C   UNL     1       5.130 -12.718 -11.788  1.00  0.00     0.198 A 
ATOM     94  F   UNL     1       4.324 -10.595 -11.170  1.00  0.00    -0.203 F 
ATOM     95  F   UNL     1       5.977 -15.604  -9.765  1.00  0.00    -0.200 F 
ATOM     96  C   UNL     1       5.551 -13.992 -11.438  1.00  0.00     0.200 A 
ATOM     97  F   UNL     1       5.128 -12.344 -13.075  1.00  0.00    -0.200 F 
ATOM     98  F   UNL     1       5.969 -14.845 -12.385  1.00  0.00    -0.200 F 
ENDBRANCH  65  88
ENDBRANCH  39  40
ENDBRANCH  32  34
ENDBRANCH  31  32
ENDBRANCH  30  31
ENDBRANCH  29  30
ENDBRANCH   1  29
TORSDOF 16
