REMARK SMILES CC(C)[C@H](NC(=O)CCNC(=O)c1ccoc1)C(=O)OCCOC(=O)c1ccc(-c2c3nc(c(-c4c(F)c(F)c(F)c(F)c4F)c4ccc([nH]4)c(-c4c(F)c(F)c(F)c(F)c4F)c4nc(c(-c5c(F)c(F)c(F)c(F)c5F)c5ccc2[nH]5)C=C4)C=C3)cc1
REMARK SMILES IDX 20 1 18 2 19 3 4 4 2 5 1 6 3 7 5 8 6 9 7 11 8 12 9 13 10 14
REMARK SMILES IDX 11 15 12 17 13 18 14 19 17 20 15 21 16 22 21 23 22 24 23 25
REMARK SMILES IDX 24 26 25 27 26 28 27 29 88 30 28 31 87 32 29 33 30 34 31 35
REMARK SMILES IDX 81 36 32 37 86 38 80 39 82 40 33 41 85 42 79 43 78 44 34 46
REMARK SMILES IDX 66 47 46 48 65 49 47 50 50 51 64 52 83 53 48 54 49 55 63 57
REMARK SMILES IDX 84 58 51 59 35 60 36 61 44 62 37 63 38 64 42 65 45 66 39 67
REMARK SMILES IDX 40 68 43 69 41 70 67 71 68 72 76 73 69 74 70 75 74 76 77 77
REMARK SMILES IDX 71 78 72 79 75 80 73 81 52 82 53 83 61 84 54 85 55 86 59 87
REMARK SMILES IDX 62 88 56 89 57 90 60 91 58 92
REMARK H PARENT 5 10 10 16 82 45 50 56
REMARK Flexibility Score: inf
ROOT
ATOM      1  O   UNL     1      -0.728  -2.981   3.005  1.00  0.00    -0.461 OA
ENDROOT
BRANCH   1   2
ATOM      2  C   UNL     1      -1.419  -3.059   1.827  1.00  0.00     0.329 C 
ATOM      3  O   UNL     1      -2.437  -3.723   1.685  1.00  0.00    -0.250 OA
BRANCH   2   4
ATOM      4  C   UNL     1      -0.929  -1.995   0.817  1.00  0.00     0.194 C 
BRANCH   4   5
ATOM      5  C   UNL     1      -1.300  -2.159  -0.672  1.00  0.00     0.017 C 
ATOM      6  C   UNL     1      -0.380  -3.135  -1.403  1.00  0.00     0.010 C 
ATOM      7  C   UNL     1      -2.767  -2.509  -0.914  1.00  0.00     0.010 C 
ENDBRANCH   4   5
BRANCH   4   8
ATOM      8  N   UNL     1       0.482  -1.609   0.920  1.00  0.00    -0.342 N 
ATOM      9  C   UNL     1       0.996  -0.437   1.374  1.00  0.00     0.222 C 
ATOM     10  H   UNL     1       1.137  -2.282   0.624  1.00  0.00     0.164 HD
ATOM     11  O   UNL     1       2.170  -0.155   1.147  1.00  0.00    -0.275 OA
BRANCH   9  12
ATOM     12  C   UNL     1       0.121   0.416   2.251  1.00  0.00     0.121 C 
BRANCH  12  13
ATOM     13  C   UNL     1      -0.861   1.368   1.569  1.00  0.00     0.126 C 
BRANCH  13  14
ATOM     14  N   UNL     1      -2.280   1.045   1.245  1.00  0.00    -0.351 N 
ATOM     15  C   UNL     1      -3.530   0.694   1.713  1.00  0.00     0.254 C 
ATOM     16  H   UNL     1      -2.361   1.110   0.266  1.00  0.00     0.163 HD
ATOM     17  O   UNL     1      -4.427   0.903   0.890  1.00  0.00    -0.269 OA
BRANCH  15  18
ATOM     18  C   UNL     1      -3.904   0.049   2.970  1.00  0.00     0.077 A 
ATOM     19  C   UNL     1      -4.442   0.580   4.191  1.00  0.00     0.056 A 
ATOM     20  C   UNL     1      -4.258  -1.289   3.053  1.00  0.00     0.208 A 
ATOM     21  C   UNL     1      -4.920  -0.459   4.951  1.00  0.00     0.195 A 
ATOM     22  O   UNL     1      -4.807  -1.609   4.256  1.00  0.00    -0.472 OA
ENDBRANCH  15  18
ENDBRANCH  13  14
ENDBRANCH  12  13
ENDBRANCH   9  12
ENDBRANCH   4   8
ENDBRANCH   2   4
ENDBRANCH   1   2
BRANCH   1  23
ATOM     23  C   UNL     1      -1.355  -3.655   4.120  1.00  0.00     0.274 C 
BRANCH  23  24
ATOM     24  C   UNL     1      -0.947  -2.981   5.433  1.00  0.00     0.275 C 
BRANCH  24  25
ATOM     25  O   UNL     1      -1.407  -1.613   5.439  1.00  0.00    -0.458 OA
BRANCH  25  26
ATOM     26  C   UNL     1      -0.847  -0.800   6.377  1.00  0.00     0.338 C 
ATOM     27  O   UNL     1      -0.033  -1.121   7.221  1.00  0.00    -0.246 OA
BRANCH  26  28
ATOM     28  C   UNL     1      -1.358   0.590   6.210  1.00  0.00     0.060 A 
ATOM     29  C   UNL     1      -1.546   1.090   4.932  1.00  0.00     0.016 A 
ATOM     30  C   UNL     1      -1.630   1.436   7.276  1.00  0.00     0.016 A 
ATOM     31  C   UNL     1      -1.949   2.399   4.677  1.00  0.00     0.010 A 
ATOM     32  C   UNL     1      -2.147   2.729   7.029  1.00  0.00     0.010 A 
ATOM     33  C   UNL     1      -2.322   3.223   5.716  1.00  0.00    -0.014 A 
BRANCH  33  34
ATOM     34  C   UNL     1      -2.814   4.598   5.424  1.00  0.00     0.031 A 
ATOM     35  C   UNL     1      -1.988   5.748   5.893  1.00  0.00     0.074 A 
ATOM     36  C   UNL     1      -3.897   4.888   4.666  1.00  0.00     0.049 A 
ATOM     37  N   UNL     1      -2.305   7.008   6.002  1.00  0.00    -0.248 NA
ATOM     38  C   UNL     1      -0.585   5.436   6.207  1.00  0.00     0.031 C 
ATOM     39  C   UNL     1      -4.616   3.989   3.774  1.00  0.00     0.029 A 
ATOM     40  N   UNL     1      -4.628   6.052   4.572  1.00  0.00    -0.354 N 
ATOM     41  C   UNL     1      -1.142   7.646   6.392  1.00  0.00     0.074 A 
ATOM     42  C   UNL     1      -0.117   6.631   6.529  1.00  0.00     0.031 C 
ATOM     43  C   UNL     1      -5.781   4.537   3.400  1.00  0.00     0.029 A 
ATOM     44  C   UNL     1      -5.861   5.863   3.985  1.00  0.00     0.049 A 
ATOM     45  H   UNL     1      -4.304   6.925   4.891  1.00  0.00     0.167 HD
ATOM     46  C   UNL     1      -0.947   8.967   6.596  1.00  0.00     0.037 A 
ATOM     47  C   UNL     1      -6.949   6.653   3.946  1.00  0.00     0.037 A 
ATOM     48  C   UNL     1      -1.968   9.966   6.454  1.00  0.00     0.049 A 
ATOM     49  C   UNL     1      -6.827   8.050   4.470  1.00  0.00     0.074 A 
ATOM     50  C   UNL     1      -1.896  11.321   6.721  1.00  0.00     0.029 A 
ATOM     51  N   UNL     1      -3.257   9.716   6.002  1.00  0.00    -0.354 N 
ATOM     52  N   UNL     1      -5.769   8.647   4.955  1.00  0.00    -0.248 NA
ATOM     53  C   UNL     1      -8.024   8.897   4.401  1.00  0.00     0.031 C 
ATOM     54  C   UNL     1      -3.156  11.881   6.479  1.00  0.00     0.029 A 
ATOM     55  C   UNL     1      -4.001  10.884   6.017  1.00  0.00     0.049 A 
ATOM     56  H   UNL     1      -3.593   8.836   5.713  1.00  0.00     0.167 HD
ATOM     57  C   UNL     1      -6.145   9.960   5.180  1.00  0.00     0.074 A 
ATOM     58  C   UNL     1      -7.541  10.064   4.805  1.00  0.00     0.031 C 
ATOM     59  C   UNL     1      -5.385  10.987   5.629  1.00  0.00     0.037 A 
BRANCH  46  60
ATOM     60  C   UNL     1       0.411   9.364   7.074  1.00  0.00     0.064 A 
ATOM     61  C   UNL     1       1.524   9.376   6.220  1.00  0.00     0.173 A 
ATOM     62  C   UNL     1       0.610   9.667   8.428  1.00  0.00     0.173 A 
ATOM     63  F   UNL     1       1.385   9.053   4.925  1.00  0.00    -0.203 F 
ATOM     64  C   UNL     1       2.796   9.648   6.715  1.00  0.00     0.198 A 
ATOM     65  C   UNL     1       1.879   9.962   8.914  1.00  0.00     0.198 A 
ATOM     66  F   UNL     1      -0.424   9.650   9.283  1.00  0.00    -0.203 F 
ATOM     67  F   UNL     1       3.857   9.589   5.898  1.00  0.00    -0.200 F 
ATOM     68  C   UNL     1       2.972   9.942   8.059  1.00  0.00     0.200 A 
ATOM     69  F   UNL     1       2.048  10.240  10.213  1.00  0.00    -0.200 F 
ATOM     70  F   UNL     1       4.199  10.185   8.538  1.00  0.00    -0.200 F 
ENDBRANCH  46  60
BRANCH  47  71
ATOM     71  C   UNL     1      -8.241   6.137   3.424  1.00  0.00     0.064 A 
ATOM     72  C   UNL     1      -8.788   6.604   2.223  1.00  0.00     0.173 A 
ATOM     73  C   UNL     1      -8.985   5.200   4.159  1.00  0.00     0.173 A 
ATOM     74  F   UNL     1      -8.124   7.515   1.497  1.00  0.00    -0.203 F 
ATOM     75  C   UNL     1     -10.043   6.178   1.790  1.00  0.00     0.198 A 
ATOM     76  C   UNL     1     -10.232   4.761   3.717  1.00  0.00     0.198 A 
ATOM     77  F   UNL     1      -8.509   4.726   5.321  1.00  0.00    -0.203 F 
ATOM     78  F   UNL     1     -10.567   6.681   0.664  1.00  0.00    -0.200 F 
ATOM     79  C   UNL     1     -10.765   5.258   2.538  1.00  0.00     0.200 A 
ATOM     80  F   UNL     1     -10.926   3.875   4.444  1.00  0.00    -0.200 F 
ATOM     81  F   UNL     1     -11.980   4.867   2.131  1.00  0.00    -0.200 F 
ENDBRANCH  47  71
BRANCH  59  82
ATOM     82  C   UNL     1      -6.029  12.337   5.683  1.00  0.00     0.064 A 
ATOM     83  C   UNL     1      -6.988  12.658   6.652  1.00  0.00     0.173 A 
ATOM     84  C   UNL     1      -5.650  13.333   4.770  1.00  0.00     0.173 A 
ATOM     85  F   UNL     1      -7.400  11.730   7.529  1.00  0.00    -0.203 F 
ATOM     86  C   UNL     1      -7.557  13.927   6.697  1.00  0.00     0.198 A 
ATOM     87  C   UNL     1      -6.200  14.609   4.837  1.00  0.00     0.198 A 
ATOM     88  F   UNL     1      -4.738  13.071   3.822  1.00  0.00    -0.203 F 
ATOM     89  F   UNL     1      -8.504  14.202   7.605  1.00  0.00    -0.200 F 
ATOM     90  C   UNL     1      -7.156  14.904   5.797  1.00  0.00     0.200 A 
ATOM     91  F   UNL     1      -5.803  15.554   3.973  1.00  0.00    -0.200 F 
ATOM     92  F   UNL     1      -7.696  16.129   5.851  1.00  0.00    -0.200 F 
ENDBRANCH  59  82
ENDBRANCH  33  34
ENDBRANCH  26  28
ENDBRANCH  25  26
ENDBRANCH  24  25
ENDBRANCH  23  24
ENDBRANCH   1  23
TORSDOF 17
