REMARK SMILES CC[C@H](C)N1C(=O)c2ccccc2[C@@H](C(=O)OCCOC(=O)c2ccc(-c3c4nc(c(-c5c(F)c(F)c(F)c(F)c5F)c5ccc([nH]5)c(-c5c(F)c(F)c(F)c(F)c5F)c5nc(c(-c6c(F)c(F)c(F)c(F)c6F)c6ccc3[nH]6)C=C5)C=C4)cc2)C12CCCCC2
REMARK SMILES IDX 18 1 17 2 15 3 16 4 14 5 5 6 6 7 86 8 7 9 8 10 87 11 91 12
REMARK SMILES IDX 9 13 13 14 88 15 90 16 10 17 12 18 89 19 11 20 3 21 4 22
REMARK SMILES IDX 2 23 1 24 19 25 20 26 21 27 22 28 23 29 24 30 85 31 25 32
REMARK SMILES IDX 84 33 26 34 27 35 28 36 78 37 29 38 83 39 77 40 79 41 30 42
REMARK SMILES IDX 82 43 76 44 75 45 31 47 63 48 43 49 62 50 44 51 47 52 61 53
REMARK SMILES IDX 80 54 45 55 46 56 60 58 81 59 48 60 32 61 33 62 41 63 34 64
REMARK SMILES IDX 35 65 39 66 42 67 36 68 37 69 40 70 38 71 64 72 65 73 73 74
REMARK SMILES IDX 66 75 67 76 71 77 74 78 68 79 69 80 72 81 70 82 49 83 50 84
REMARK SMILES IDX 58 85 51 86 52 87 56 88 59 89 53 90 54 91 57 92 55 93
REMARK H PARENT 79 46 47 57
REMARK Flexibility Score: inf
ROOT
ATOM      1  C   UNL     1      -0.530  -4.670   7.342  1.00  0.00     0.274 C 
ENDROOT
BRANCH   1   2
ATOM      2  O   UNL     1      -0.492  -3.521   6.454  1.00  0.00    -0.462 OA
BRANCH   2   3
ATOM      3  C   UNL     1       0.732  -3.046   6.138  1.00  0.00     0.315 C 
ATOM      4  O   UNL     1       1.763  -3.570   6.564  1.00  0.00    -0.251 OA
BRANCH   3   5
ATOM      5  C   UNL     1       0.782  -1.669   5.442  1.00  0.00     0.156 C 
ATOM      6  N   UNL     1       0.079   0.227   3.914  1.00  0.00    -0.329 N 
ATOM      7  C   UNL     1      -0.264   1.073   4.988  1.00  0.00     0.254 C 
ATOM      8  C   UNL     1      -0.126  -1.316   4.171  1.00  0.00     0.061 C 
ATOM      9  O   UNL     1      -0.764   2.185   4.864  1.00  0.00    -0.269 OA
ATOM     10  C   UNL     1       0.192   0.654   6.333  1.00  0.00     0.044 A 
ATOM     11  C   UNL     1      -1.654  -1.507   4.445  1.00  0.00     0.030 C 
ATOM     12  C   UNL     1       0.229  -2.087   2.874  1.00  0.00     0.030 C 
ATOM     13  C   UNL     1       0.187   1.626   7.353  1.00  0.00     0.014 A 
ATOM     14  C   UNL     1       0.774  -0.595   6.547  1.00  0.00    -0.019 A 
ATOM     15  C   UNL     1      -2.265  -2.875   4.129  1.00  0.00     0.002 C 
ATOM     16  C   UNL     1      -0.546  -3.273   2.323  1.00  0.00     0.002 C 
ATOM     17  C   UNL     1       0.791   1.380   8.583  1.00  0.00     0.001 A 
ATOM     18  C   UNL     1       1.422  -0.804   7.789  1.00  0.00     0.005 A 
ATOM     19  C   UNL     1      -2.003  -3.345   2.715  1.00  0.00     0.000 C 
ATOM     20  C   UNL     1       1.424   0.166   8.795  1.00  0.00     0.000 A 
BRANCH   6  21
ATOM     21  C   UNL     1       0.875   0.940   2.827  1.00  0.00     0.082 C 
ATOM     22  C   UNL     1       1.627   0.190   1.712  1.00  0.00     0.031 C 
BRANCH  21  23
ATOM     23  C   UNL     1       0.132   2.131   2.150  1.00  0.00     0.021 C 
ATOM     24  C   UNL     1      -1.093   1.751   1.335  1.00  0.00     0.006 C 
ENDBRANCH  21  23
ENDBRANCH   6  21
ENDBRANCH   3   5
ENDBRANCH   2   3
ENDBRANCH   1   2
BRANCH   1  25
ATOM     25  C   UNL     1      -0.360  -6.034   6.649  1.00  0.00     0.275 C 
BRANCH  25  26
ATOM     26  O   UNL     1       0.979  -6.245   6.148  1.00  0.00    -0.458 OA
BRANCH  26  27
ATOM     27  C   UNL     1       1.135  -5.849   4.867  1.00  0.00     0.338 C 
ATOM     28  O   UNL     1       0.236  -5.432   4.152  1.00  0.00    -0.246 OA
BRANCH  27  29
ATOM     29  C   UNL     1       2.537  -5.847   4.427  1.00  0.00     0.060 A 
ATOM     30  C   UNL     1       3.162  -7.038   4.075  1.00  0.00     0.016 A 
ATOM     31  C   UNL     1       3.205  -4.626   4.256  1.00  0.00     0.016 A 
ATOM     32  C   UNL     1       4.488  -7.006   3.635  1.00  0.00     0.010 A 
ATOM     33  C   UNL     1       4.528  -4.591   3.839  1.00  0.00     0.010 A 
ATOM     34  C   UNL     1       5.185  -5.788   3.558  1.00  0.00    -0.014 A 
BRANCH  34  35
ATOM     35  C   UNL     1       6.628  -5.769   3.254  1.00  0.00     0.031 A 
ATOM     36  C   UNL     1       7.610  -5.662   4.381  1.00  0.00     0.074 A 
ATOM     37  C   UNL     1       7.043  -5.842   1.979  1.00  0.00     0.049 A 
ATOM     38  N   UNL     1       8.909  -5.807   4.359  1.00  0.00    -0.248 NA
ATOM     39  C   UNL     1       7.062  -5.336   5.709  1.00  0.00     0.031 C 
ATOM     40  C   UNL     1       6.168  -5.853   0.808  1.00  0.00     0.029 A 
ATOM     41  N   UNL     1       8.308  -5.933   1.460  1.00  0.00    -0.354 N 
ATOM     42  C   UNL     1       9.327  -5.631   5.670  1.00  0.00     0.074 A 
ATOM     43  C   UNL     1       8.159  -5.290   6.451  1.00  0.00     0.031 C 
ATOM     44  C   UNL     1       6.923  -5.985  -0.296  1.00  0.00     0.029 A 
ATOM     45  C   UNL     1       8.327  -6.080   0.096  1.00  0.00     0.049 A 
ATOM     46  H   UNL     1       9.122  -5.896   2.012  1.00  0.00     0.167 HD
ATOM     47  C   UNL     1      10.571  -5.784   6.178  1.00  0.00     0.037 A 
ATOM     48  C   UNL     1       9.364  -6.309  -0.730  1.00  0.00     0.037 A 
ATOM     49  C   UNL     1      11.723  -6.115   5.385  1.00  0.00     0.049 A 
ATOM     50  C   UNL     1      10.739  -6.483  -0.143  1.00  0.00     0.074 A 
ATOM     51  C   UNL     1      13.021  -6.346   5.799  1.00  0.00     0.029 A 
ATOM     52  N   UNL     1      11.708  -6.253   4.004  1.00  0.00    -0.354 N 
ATOM     53  N   UNL     1      11.113  -6.440   1.113  1.00  0.00    -0.248 NA
ATOM     54  C   UNL     1      11.832  -6.758  -1.085  1.00  0.00     0.031 C 
ATOM     55  C   UNL     1      13.801  -6.590   4.663  1.00  0.00     0.029 A 
ATOM     56  C   UNL     1      12.979  -6.548   3.546  1.00  0.00     0.049 A 
ATOM     57  H   UNL     1      10.910  -6.155   3.435  1.00  0.00     0.167 HD
ATOM     58  C   UNL     1      12.475  -6.703   1.117  1.00  0.00     0.074 A 
ATOM     59  C   UNL     1      12.861  -6.919  -0.263  1.00  0.00     0.031 C 
ATOM     60  C   UNL     1      13.332  -6.759   2.166  1.00  0.00     0.037 A 
BRANCH  47  61
ATOM     61  C   UNL     1      10.739  -5.634   7.660  1.00  0.00     0.064 A 
ATOM     62  C   UNL     1      10.248  -6.608   8.544  1.00  0.00     0.173 A 
ATOM     63  C   UNL     1      11.433  -4.544   8.202  1.00  0.00     0.173 A 
ATOM     64  F   UNL     1       9.567  -7.665   8.075  1.00  0.00    -0.203 F 
ATOM     65  C   UNL     1      10.431  -6.486   9.918  1.00  0.00     0.198 A 
ATOM     66  C   UNL     1      11.635  -4.438   9.576  1.00  0.00     0.198 A 
ATOM     67  F   UNL     1      11.924  -3.588   7.400  1.00  0.00    -0.203 F 
ATOM     68  F   UNL     1       9.924  -7.411  10.745  1.00  0.00    -0.200 F 
ATOM     69  C   UNL     1      11.131  -5.405  10.433  1.00  0.00     0.200 A 
ATOM     70  F   UNL     1      12.319  -3.397  10.073  1.00  0.00    -0.200 F 
ATOM     71  F   UNL     1      11.316  -5.295  11.755  1.00  0.00    -0.200 F 
ENDBRANCH  47  61
BRANCH  48  72
ATOM     72  C   UNL     1       9.119  -6.482  -2.183  1.00  0.00     0.064 A 
ATOM     73  C   UNL     1       9.196  -7.749  -2.777  1.00  0.00     0.173 A 
ATOM     74  C   UNL     1       8.773  -5.396  -3.000  1.00  0.00     0.173 A 
ATOM     75  F   UNL     1       9.537  -8.815  -2.037  1.00  0.00    -0.203 F 
ATOM     76  C   UNL     1       8.948  -7.923  -4.136  1.00  0.00     0.198 A 
ATOM     77  C   UNL     1       8.505  -5.575  -4.356  1.00  0.00     0.198 A 
ATOM     78  F   UNL     1       8.678  -4.165  -2.477  1.00  0.00    -0.203 F 
ATOM     79  F   UNL     1       9.056  -9.142  -4.684  1.00  0.00    -0.200 F 
ATOM     80  C   UNL     1       8.596  -6.837  -4.924  1.00  0.00     0.200 A 
ATOM     81  F   UNL     1       8.154  -4.526  -5.112  1.00  0.00    -0.200 F 
ATOM     82  F   UNL     1       8.349  -7.007  -6.230  1.00  0.00    -0.200 F 
ENDBRANCH  48  72
BRANCH  60  83
ATOM     83  C   UNL     1      14.768  -7.068   1.868  1.00  0.00     0.064 A 
ATOM     84  C   UNL     1      15.616  -6.104   1.306  1.00  0.00     0.173 A 
ATOM     85  C   UNL     1      15.319  -8.306   2.228  1.00  0.00     0.173 A 
ATOM     86  F   UNL     1      15.130  -4.910   0.937  1.00  0.00    -0.203 F 
ATOM     87  C   UNL     1      16.966  -6.373   1.104  1.00  0.00     0.198 A 
ATOM     88  C   UNL     1      16.675  -8.563   2.047  1.00  0.00     0.198 A 
ATOM     89  F   UNL     1      14.548  -9.256   2.778  1.00  0.00    -0.203 F 
ATOM     90  F   UNL     1      17.755  -5.448   0.540  1.00  0.00    -0.200 F 
ATOM     91  C   UNL     1      17.496  -7.598   1.484  1.00  0.00     0.200 A 
ATOM     92  F   UNL     1      17.189  -9.741   2.428  1.00  0.00    -0.200 F 
ATOM     93  F   UNL     1      18.800  -7.849   1.305  1.00  0.00    -0.200 F 
ENDBRANCH  60  83
ENDBRANCH  34  35
ENDBRANCH  27  29
ENDBRANCH  26  27
ENDBRANCH  25  26
ENDBRANCH   1  25
TORSDOF 13
