REMARK SMILES Cc1ccc(C(=O)N2CCC3(CCC(=O)N(CC(=O)OCCOC(=O)c4ccc(-c5c6nc(c(-c7c(F)c(F)c(F)c(F)c7F)c7ccc([nH]7)c(-c7c(F)c(F)c(F)c(F)c7F)c7nc(c(-c8c(F)c(F)c(F)c(F)c8F)c8ccc5[nH]8)C=C7)C=C6)cc4)C3)CC2)cc1O
REMARK SMILES IDX 21 1 20 2 18 3 19 4 17 5 16 6 6 7 7 8 8 9 9 10 91 11 10 12
REMARK SMILES IDX 90 13 11 14 12 15 89 16 13 17 14 18 15 19 5 20 1 21 2 22
REMARK SMILES IDX 3 23 93 24 4 25 92 26 94 27 22 29 23 30 24 31 25 32 26 33
REMARK SMILES IDX 27 34 88 35 28 36 87 37 29 38 30 39 31 40 81 41 32 42 86 43
REMARK SMILES IDX 80 44 82 45 33 46 85 47 79 48 78 49 34 51 66 52 46 53 65 54
REMARK SMILES IDX 47 55 50 56 64 57 83 58 48 59 49 60 63 62 84 63 51 64 35 65
REMARK SMILES IDX 36 66 44 67 37 68 38 69 42 70 45 71 39 72 40 73 43 74 41 75
REMARK SMILES IDX 67 76 68 77 76 78 69 79 70 80 74 81 77 82 71 83 72 84 75 85
REMARK SMILES IDX 73 86 52 87 53 88 61 89 54 90 55 91 59 92 62 93 56 94 57 95
REMARK SMILES IDX 60 96 58 97
REMARK H PARENT 94 28 82 50 50 61
REMARK Flexibility Score: inf
ROOT
ATOM      1  C   UNL     1      10.001  -5.335   4.110  1.00  0.00     0.274 C 
ENDROOT
BRANCH   1   2
ATOM      2  O   UNL     1       9.062  -4.556   3.347  1.00  0.00    -0.461 OA
BRANCH   2   3
ATOM      3  C   UNL     1       8.309  -3.688   4.062  1.00  0.00     0.325 C 
ATOM      4  O   UNL     1       8.206  -3.686   5.287  1.00  0.00    -0.250 OA
BRANCH   3   5
ATOM      5  C   UNL     1       7.566  -2.665   3.211  1.00  0.00     0.242 C 
BRANCH   5   6
ATOM      6  N   UNL     1       7.761  -2.598   1.765  1.00  0.00    -0.331 N 
ATOM      7  C   UNL     1       2.928   1.470   0.422  1.00  0.00     0.253 C 
ATOM      8  O   UNL     1       2.798   2.541   1.011  1.00  0.00    -0.269 OA
ATOM      9  N   UNL     1       4.172   0.888   0.201  1.00  0.00    -0.339 N 
ATOM     10  C   UNL     1       5.249   1.165   1.132  1.00  0.00     0.120 C 
ATOM     11  C   UNL     1       4.556   0.181  -1.012  1.00  0.00     0.120 C 
ATOM     12  C   UNL     1       5.850  -0.165   1.590  1.00  0.00     0.030 C 
ATOM     13  C   UNL     1       5.231  -1.146  -0.683  1.00  0.00     0.030 C 
ATOM     14  C   UNL     1       6.334  -1.055   0.410  1.00  0.00    -0.008 C 
ATOM     15  C   UNL     1       7.650  -0.521  -0.208  1.00  0.00     0.019 C 
ATOM     16  C   UNL     1       6.605  -2.495   0.899  1.00  0.00     0.127 C 
ATOM     17  C   UNL     1       8.861  -0.706   0.700  1.00  0.00     0.101 C 
ATOM     18  C   UNL     1       8.970  -2.084   1.320  1.00  0.00     0.223 C 
ATOM     19  O   UNL     1      10.054  -2.564   1.631  1.00  0.00    -0.275 OA
BRANCH   7  20
ATOM     20  C   UNL     1       1.701   0.694   0.087  1.00  0.00     0.043 A 
ATOM     21  C   UNL     1      -2.006  -1.514  -0.181  1.00  0.00     0.048 C 
ATOM     22  C   UNL     1      -0.727  -0.729  -0.136  1.00  0.00    -0.009 A 
ATOM     23  C   UNL     1       0.477  -1.404   0.101  1.00  0.00     0.008 A 
ATOM     24  C   UNL     1      -0.692   0.666  -0.257  1.00  0.00     0.119 A 
ATOM     25  C   UNL     1       1.675  -0.698   0.230  1.00  0.00     0.014 A 
ATOM     26  C   UNL     1       0.507   1.375  -0.158  1.00  0.00     0.060 A 
BRANCH  24  27
ATOM     27  O   UNL     1      -1.820   1.416  -0.438  1.00  0.00    -0.508 OA
ATOM     28  H   UNL     1      -2.655   0.997  -0.511  1.00  0.00     0.293 HD
ENDBRANCH  24  27
ENDBRANCH   7  20
ENDBRANCH   5   6
ENDBRANCH   3   5
ENDBRANCH   2   3
ENDBRANCH   1   2
BRANCH   1  29
ATOM     29  C   UNL     1      11.337  -4.601   4.217  1.00  0.00     0.275 C 
BRANCH  29  30
ATOM     30  O   UNL     1      11.153  -3.376   4.952  1.00  0.00    -0.458 OA
BRANCH  30  31
ATOM     31  C   UNL     1      11.770  -2.292   4.432  1.00  0.00     0.338 C 
ATOM     32  O   UNL     1      12.524  -2.244   3.477  1.00  0.00    -0.246 OA
BRANCH  31  33
ATOM     33  C   UNL     1      11.506  -1.114   5.277  1.00  0.00     0.060 A 
ATOM     34  C   UNL     1      10.210  -0.659   5.531  1.00  0.00     0.016 A 
ATOM     35  C   UNL     1      12.611  -0.396   5.738  1.00  0.00     0.016 A 
ATOM     36  C   UNL     1      10.022   0.557   6.192  1.00  0.00     0.010 A 
ATOM     37  C   UNL     1      12.421   0.787   6.450  1.00  0.00     0.010 A 
ATOM     38  C   UNL     1      11.127   1.292   6.652  1.00  0.00    -0.014 A 
BRANCH  38  39
ATOM     39  C   UNL     1      10.950   2.600   7.329  1.00  0.00     0.031 A 
ATOM     40  C   UNL     1      11.430   3.862   6.667  1.00  0.00     0.074 A 
ATOM     41  C   UNL     1      10.395   2.647   8.554  1.00  0.00     0.049 A 
ATOM     42  N   UNL     1      11.494   5.077   7.149  1.00  0.00    -0.248 NA
ATOM     43  C   UNL     1      11.914   3.740   5.282  1.00  0.00     0.031 C 
ATOM     44  C   UNL     1       9.889   1.492   9.295  1.00  0.00     0.029 A 
ATOM     45  N   UNL     1      10.179   3.707   9.398  1.00  0.00    -0.354 N 
ATOM     46  C   UNL     1      12.054   5.855   6.144  1.00  0.00     0.074 A 
ATOM     47  C   UNL     1      12.316   4.977   5.024  1.00  0.00     0.031 C 
ATOM     48  C   UNL     1       9.418   1.905  10.482  1.00  0.00     0.029 A 
ATOM     49  C   UNL     1       9.637   3.343  10.605  1.00  0.00     0.049 A 
ATOM     50  H   UNL     1      10.393   4.638   9.160  1.00  0.00     0.167 HD
ATOM     51  C   UNL     1      12.323   7.182   6.159  1.00  0.00     0.037 A 
ATOM     52  C   UNL     1       9.375   4.080  11.700  1.00  0.00     0.037 A 
ATOM     53  C   UNL     1      12.026   8.060   7.260  1.00  0.00     0.049 A 
ATOM     54  C   UNL     1       9.683   5.550  11.688  1.00  0.00     0.074 A 
ATOM     55  C   UNL     1      12.224   9.427   7.354  1.00  0.00     0.029 A 
ATOM     56  N   UNL     1      11.462   7.654   8.460  1.00  0.00    -0.354 N 
ATOM     57  N   UNL     1      10.208   6.275  10.731  1.00  0.00    -0.248 NA
ATOM     58  C   UNL     1       9.369   6.303  12.910  1.00  0.00     0.031 C 
ATOM     59  C   UNL     1      11.806   9.844   8.622  1.00  0.00     0.029 A 
ATOM     60  C   UNL     1      11.317   8.742   9.305  1.00  0.00     0.049 A 
ATOM     61  H   UNL     1      11.202   6.730   8.679  1.00  0.00     0.167 HD
ATOM     62  C   UNL     1      10.278   7.568  11.227  1.00  0.00     0.074 A 
ATOM     63  C   UNL     1       9.725   7.534  12.566  1.00  0.00     0.031 C 
ATOM     64  C   UNL     1      10.763   8.684  10.632  1.00  0.00     0.037 A 
BRANCH  51  65
ATOM     65  C   UNL     1      12.989   7.776   4.954  1.00  0.00     0.064 A 
ATOM     66  C   UNL     1      12.279   8.036   3.774  1.00  0.00     0.173 A 
ATOM     67  C   UNL     1      14.338   8.156   5.008  1.00  0.00     0.173 A 
ATOM     68  F   UNL     1      10.989   7.681   3.669  1.00  0.00    -0.203 F 
ATOM     69  C   UNL     1      12.899   8.648   2.687  1.00  0.00     0.198 A 
ATOM     70  C   UNL     1      14.950   8.785   3.928  1.00  0.00     0.198 A 
ATOM     71  F   UNL     1      15.059   7.932   6.118  1.00  0.00    -0.203 F 
ATOM     72  F   UNL     1      12.208   8.868   1.560  1.00  0.00    -0.200 F 
ATOM     73  C   UNL     1      14.230   9.029   2.768  1.00  0.00     0.200 A 
ATOM     74  F   UNL     1      16.234   9.161   4.011  1.00  0.00    -0.200 F 
ATOM     75  F   UNL     1      14.821   9.631   1.726  1.00  0.00    -0.200 F 
ENDBRANCH  51  65
BRANCH  52  76
ATOM     76  C   UNL     1       8.810   3.427  12.907  1.00  0.00     0.064 A 
ATOM     77  C   UNL     1       7.485   3.655  13.298  1.00  0.00     0.173 A 
ATOM     78  C   UNL     1       9.583   2.554  13.687  1.00  0.00     0.173 A 
ATOM     79  F   UNL     1       6.716   4.501  12.596  1.00  0.00    -0.203 F 
ATOM     80  C   UNL     1       6.955   3.042  14.431  1.00  0.00     0.198 A 
ATOM     81  C   UNL     1       9.044   1.921  14.805  1.00  0.00     0.198 A 
ATOM     82  F   UNL     1      10.857   2.303  13.353  1.00  0.00    -0.203 F 
ATOM     83  F   UNL     1       5.695   3.304  14.805  1.00  0.00    -0.200 F 
ATOM     84  C   UNL     1       7.732   2.170  15.179  1.00  0.00     0.200 A 
ATOM     85  F   UNL     1       9.795   1.071  15.518  1.00  0.00    -0.200 F 
ATOM     86  F   UNL     1       7.220   1.576  16.265  1.00  0.00    -0.200 F 
ENDBRANCH  52  76
BRANCH  64  87
ATOM     87  C   UNL     1      10.698   9.957  11.418  1.00  0.00     0.064 A 
ATOM     88  C   UNL     1      11.596  10.214  12.464  1.00  0.00     0.173 A 
ATOM     89  C   UNL     1       9.750  10.941  11.103  1.00  0.00     0.173 A 
ATOM     90  F   UNL     1      12.510   9.294  12.810  1.00  0.00    -0.203 F 
ATOM     91  C   UNL     1      11.534  11.405  13.181  1.00  0.00     0.198 A 
ATOM     92  C   UNL     1       9.704  12.139  11.809  1.00  0.00     0.198 A 
ATOM     93  F   UNL     1       8.873  10.741  10.108  1.00  0.00    -0.203 F 
ATOM     94  F   UNL     1      12.376  11.615  14.202  1.00  0.00    -0.200 F 
ATOM     95  C   UNL     1      10.591  12.368  12.850  1.00  0.00     0.200 A 
ATOM     96  F   UNL     1       8.798  13.072  11.485  1.00  0.00    -0.200 F 
ATOM     97  F   UNL     1      10.533  13.514  13.542  1.00  0.00    -0.200 F 
ENDBRANCH  64  87
ENDBRANCH  38  39
ENDBRANCH  31  33
ENDBRANCH  30  31
ENDBRANCH  29  30
ENDBRANCH   1  29
TORSDOF 14
