REMARK SMILES O=C(OCCOC(=O)[C@H](c1c[nH]c2cc(F)ccc12)[NH+]1CCN(c2ccccc2)CC1)c1ccc(-c2c3nc(c(-c4c(F)c(F)c(F)c(F)c4F)c4ccc([nH]4)c(-c4c(F)c(F)c(F)c(F)c4F)c4nc(c(-c5c(F)c(F)c(F)c(F)c5F)c5ccc2[nH]5)C=C4)C=C3)cc1
REMARK SMILES IDX 4 1 3 2 2 3 1 4 32 5 33 6 94 7 34 8 93 9 35 10 36 11 37 12
REMARK SMILES IDX 87 13 38 14 92 15 86 16 88 17 39 18 91 19 85 20 84 21 40 23
REMARK SMILES IDX 72 24 52 25 71 26 53 27 56 28 70 29 89 30 54 31 55 32 69 34
REMARK SMILES IDX 90 35 57 36 41 37 42 38 50 39 43 40 44 41 48 42 51 43 45 44
REMARK SMILES IDX 46 45 49 46 47 47 73 48 74 49 82 50 75 51 76 52 80 53 83 54
REMARK SMILES IDX 77 55 78 56 81 57 79 58 58 59 59 60 67 61 60 62 61 63 65 64
REMARK SMILES IDX 68 65 62 66 63 67 66 68 64 69 5 70 6 71 7 72 8 73 9 74 20 75
REMARK SMILES IDX 21 76 31 77 22 79 30 80 23 81 24 82 25 83 29 84 26 85 28 86
REMARK SMILES IDX 27 87 10 88 11 89 19 90 12 91 13 92 18 93 14 95 17 96 15 97
REMARK SMILES IDX 16 98
REMARK H PARENT 88 22 56 33 20 78 12 94
REMARK Flexibility Score: inf
ROOT
ATOM      1  C   UNL     1       4.917  -2.669   4.093  1.00  0.00     0.275 C 
ENDROOT
BRANCH   1   2
ATOM      2  O   UNL     1       5.992  -2.260   3.244  1.00  0.00    -0.458 OA
BRANCH   2   3
ATOM      3  C   UNL     1       5.850  -1.569   2.096  1.00  0.00     0.338 C 
ATOM      4  O   UNL     1       6.728  -0.752   1.795  1.00  0.00    -0.246 OA
BRANCH   3   5
ATOM      5  C   UNL     1       4.701  -1.776   1.141  1.00  0.00     0.060 A 
ATOM      6  C   UNL     1       3.501  -2.472   1.345  1.00  0.00     0.016 A 
ATOM      7  C   UNL     1       4.815  -1.073  -0.053  1.00  0.00     0.016 A 
ATOM      8  C   UNL     1       2.420  -2.376   0.446  1.00  0.00     0.010 A 
ATOM      9  C   UNL     1       3.708  -0.898  -0.883  1.00  0.00     0.010 A 
ATOM     10  C   UNL     1       2.475  -1.525  -0.654  1.00  0.00    -0.014 A 
BRANCH  10  11
ATOM     11  C   UNL     1       1.314  -1.288  -1.582  1.00  0.00     0.031 A 
ATOM     12  C   UNL     1       1.585  -1.140  -3.065  1.00  0.00     0.074 A 
ATOM     13  C   UNL     1       0.056  -1.047  -1.146  1.00  0.00     0.049 A 
ATOM     14  N   UNL     1       0.873  -0.554  -3.994  1.00  0.00    -0.248 NA
ATOM     15  C   UNL     1       2.909  -1.578  -3.534  1.00  0.00     0.031 C 
ATOM     16  C   UNL     1      -0.395  -0.988   0.248  1.00  0.00     0.029 A 
ATOM     17  N   UNL     1      -1.087  -0.760  -1.859  1.00  0.00    -0.354 N 
ATOM     18  C   UNL     1       1.742  -0.388  -5.066  1.00  0.00     0.074 A 
ATOM     19  C   UNL     1       3.042  -0.835  -4.620  1.00  0.00     0.031 C 
ATOM     20  C   UNL     1      -1.714  -0.726   0.284  1.00  0.00     0.029 A 
ATOM     21  C   UNL     1      -2.205  -0.571  -1.080  1.00  0.00     0.049 A 
ATOM     22  H   UNL     1      -1.103  -0.695  -2.841  1.00  0.00     0.167 HD
ATOM     23  C   UNL     1       1.476   0.013  -6.334  1.00  0.00     0.037 A 
ATOM     24  C   UNL     1      -3.479  -0.311  -1.433  1.00  0.00     0.037 A 
ATOM     25  C   UNL     1       0.137   0.158  -6.833  1.00  0.00     0.049 A 
ATOM     26  C   UNL     1      -3.819  -0.183  -2.895  1.00  0.00     0.074 A 
ATOM     27  C   UNL     1      -0.289   0.293  -8.141  1.00  0.00     0.029 A 
ATOM     28  N   UNL     1      -1.000   0.103  -6.041  1.00  0.00    -0.354 N 
ATOM     29  N   UNL     1      -3.014  -0.109  -3.925  1.00  0.00    -0.248 NA
ATOM     30  C   UNL     1      -5.246  -0.138  -3.248  1.00  0.00     0.031 C 
ATOM     31  C   UNL     1      -1.689   0.291  -8.144  1.00  0.00     0.029 A 
ATOM     32  C   UNL     1      -2.129   0.135  -6.838  1.00  0.00     0.049 A 
ATOM     33  H   UNL     1      -1.002   0.049  -5.058  1.00  0.00     0.167 HD
ATOM     34  C   UNL     1      -3.830  -0.062  -5.047  1.00  0.00     0.074 A 
ATOM     35  C   UNL     1      -5.196  -0.115  -4.573  1.00  0.00     0.031 C 
ATOM     36  C   UNL     1      -3.478   0.015  -6.353  1.00  0.00     0.037 A 
BRANCH  23  37
ATOM     37  C   UNL     1       2.633   0.213  -7.278  1.00  0.00     0.064 A 
ATOM     38  C   UNL     1       3.512  -0.826  -7.626  1.00  0.00     0.173 A 
ATOM     39  C   UNL     1       2.877   1.477  -7.839  1.00  0.00     0.173 A 
ATOM     40  F   UNL     1       3.320  -2.066  -7.149  1.00  0.00    -0.203 F 
ATOM     41  C   UNL     1       4.642  -0.588  -8.402  1.00  0.00     0.198 A 
ATOM     42  C   UNL     1       3.975   1.698  -8.670  1.00  0.00     0.198 A 
ATOM     43  F   UNL     1       2.056   2.506  -7.580  1.00  0.00    -0.203 F 
ATOM     44  F   UNL     1       5.527  -1.573  -8.610  1.00  0.00    -0.200 F 
ATOM     45  C   UNL     1       4.871   0.673  -8.928  1.00  0.00     0.200 A 
ATOM     46  F   UNL     1       4.176   2.909  -9.207  1.00  0.00    -0.200 F 
ATOM     47  F   UNL     1       5.960   0.900  -9.674  1.00  0.00    -0.200 F 
ENDBRANCH  23  37
BRANCH  24  48
ATOM     48  C   UNL     1      -4.557  -0.268  -0.410  1.00  0.00     0.064 A 
ATOM     49  C   UNL     1      -5.449  -1.345  -0.283  1.00  0.00     0.173 A 
ATOM     50  C   UNL     1      -4.752   0.840   0.422  1.00  0.00     0.173 A 
ATOM     51  F   UNL     1      -5.310  -2.423  -1.070  1.00  0.00    -0.203 F 
ATOM     52  C   UNL     1      -6.520  -1.297   0.606  1.00  0.00     0.198 A 
ATOM     53  C   UNL     1      -5.813   0.878   1.329  1.00  0.00     0.198 A 
ATOM     54  F   UNL     1      -3.918   1.887   0.353  1.00  0.00    -0.203 F 
ATOM     55  F   UNL     1      -7.388  -2.316   0.661  1.00  0.00    -0.200 F 
ATOM     56  C   UNL     1      -6.703  -0.184   1.411  1.00  0.00     0.200 A 
ATOM     57  F   UNL     1      -5.982   1.950   2.116  1.00  0.00    -0.200 F 
ATOM     58  F   UNL     1      -7.740  -0.132   2.257  1.00  0.00    -0.200 F 
ENDBRANCH  24  48
BRANCH  36  59
ATOM     59  C   UNL     1      -4.571  -0.063  -7.374  1.00  0.00     0.064 A 
ATOM     60  C   UNL     1      -5.437   1.010  -7.617  1.00  0.00     0.173 A 
ATOM     61  C   UNL     1      -4.704  -1.214  -8.166  1.00  0.00     0.173 A 
ATOM     62  F   UNL     1      -5.357   2.124  -6.873  1.00  0.00    -0.203 F 
ATOM     63  C   UNL     1      -6.409   0.930  -8.609  1.00  0.00     0.198 A 
ATOM     64  C   UNL     1      -5.659  -1.281  -9.175  1.00  0.00     0.198 A 
ATOM     65  F   UNL     1      -3.895  -2.267  -7.972  1.00  0.00    -0.203 F 
ATOM     66  F   UNL     1      -7.251   1.954  -8.804  1.00  0.00    -0.200 F 
ATOM     67  C   UNL     1      -6.513  -0.211  -9.393  1.00  0.00     0.200 A 
ATOM     68  F   UNL     1      -5.750  -2.379  -9.938  1.00  0.00    -0.200 F 
ATOM     69  F   UNL     1      -7.440  -0.280 -10.358  1.00  0.00    -0.200 F 
ENDBRANCH  36  59
ENDBRANCH  10  11
ENDBRANCH   3   5
ENDBRANCH   2   3
ENDBRANCH   1   2
BRANCH   1  70
ATOM     70  C   UNL     1       3.999  -1.531   4.557  1.00  0.00     0.274 C 
BRANCH  70  71
ATOM     71  O   UNL     1       3.685  -0.546   3.541  1.00  0.00    -0.457 OA
BRANCH  71  72
ATOM     72  C   UNL     1       3.056   0.549   4.048  1.00  0.00     0.370 C 
ATOM     73  O   UNL     1       2.733   0.595   5.240  1.00  0.00    -0.245 OA
BRANCH  72  74
ATOM     74  C   UNL     1       2.642   1.672   3.059  1.00  0.00     0.328 C 
BRANCH  74  75
ATOM     75  N   UNL     1       2.846   2.955   3.774  1.00  0.00    -0.316 N 
ATOM     76  C   UNL     1       4.011   3.791   3.449  1.00  0.00     0.284 C 
ATOM     77  C   UNL     1       1.636   3.768   3.950  1.00  0.00     0.284 C 
ATOM     78  H   UNL     1       3.107   2.558   4.676  1.00  0.00     0.349 HD
ATOM     79  C   UNL     1       3.791   4.821   2.316  1.00  0.00     0.178 C 
ATOM     80  C   UNL     1       1.344   4.768   2.809  1.00  0.00     0.178 C 
ATOM     81  N   UNL     1       2.543   5.554   2.534  1.00  0.00    -0.360 N 
BRANCH  81  82
ATOM     82  C   UNL     1       2.437   6.745   1.840  1.00  0.00     0.037 A 
ATOM     83  C   UNL     1       2.312   6.814   0.449  1.00  0.00     0.026 A 
ATOM     84  C   UNL     1       2.603   7.927   2.566  1.00  0.00     0.026 A 
ATOM     85  C   UNL     1       2.409   8.046  -0.203  1.00  0.00     0.002 A 
ATOM     86  C   UNL     1       2.704   9.155   1.921  1.00  0.00     0.002 A 
ATOM     87  C   UNL     1       2.621   9.213   0.532  1.00  0.00     0.000 A 
ENDBRANCH  81  82
ENDBRANCH  74  75
BRANCH  74  88
ATOM     88  C   UNL     1       3.119   1.748   1.619  1.00  0.00     0.046 A 
ATOM     89  C   UNL     1       4.415   1.780   1.128  1.00  0.00     0.094 A 
ATOM     90  C   UNL     1       2.268   2.019   0.471  1.00  0.00     0.009 A 
ATOM     91  N   UNL     1       4.387   2.155  -0.194  1.00  0.00    -0.361 N 
ATOM     92  C   UNL     1       3.090   2.284  -0.628  1.00  0.00     0.049 A 
ATOM     93  C   UNL     1       0.870   2.124   0.281  1.00  0.00     0.014 A 
ATOM     94  H   UNL     1       5.184   2.308  -0.751  1.00  0.00     0.166 HD
ATOM     95  C   UNL     1       2.591   2.616  -1.897  1.00  0.00     0.065 A 
ATOM     96  C   UNL     1       0.353   2.461  -0.978  1.00  0.00     0.040 A 
ATOM     97  C   UNL     1       1.208   2.695  -2.042  1.00  0.00     0.125 A 
ATOM     98  F   UNL     1       0.695   3.017  -3.237  1.00  0.00    -0.207 F 
ENDBRANCH  74  88
ENDBRANCH  72  74
ENDBRANCH  71  72
ENDBRANCH  70  71
ENDBRANCH   1  70
TORSDOF 14
