REMARK SMILES CCc1cccc(CC)c1NC(=O)C[C@@](C)(C(=O)OCCOC(=O)c1ccc(-c2c3nc(c(-c4c(F)c(F)c(F)c(F)c4F)c4ccc([nH]4)c(-c4c(F)c(F)c(F)c(F)c4F)c4nc(c(-c5c(F)c(F)c(F)c(F)c5F)c5ccc2[nH]5)C=C4)C=C3)cc1)c1ccccc1
REMARK SMILES IDX 20 1 19 2 17 3 18 4 15 5 16 6 14 7 12 8 11 9 13 11 10 12
REMARK SMILES IDX 3 13 4 14 5 15 7 16 6 17 2 18 1 19 8 20 9 21 88 22 89 23
REMARK SMILES IDX 93 24 90 25 92 26 91 27 21 28 22 29 23 30 24 31 25 32 26 33
REMARK SMILES IDX 87 34 27 35 86 36 28 37 29 38 30 39 80 40 31 41 85 42 79 43
REMARK SMILES IDX 81 44 32 45 84 46 78 47 77 48 33 50 65 51 45 52 64 53 46 54
REMARK SMILES IDX 49 55 63 56 82 57 47 58 48 59 62 61 83 62 50 63 34 64 35 65
REMARK SMILES IDX 43 66 36 67 37 68 41 69 44 70 38 71 39 72 42 73 40 74 66 75
REMARK SMILES IDX 67 76 75 77 68 78 69 79 73 80 76 81 70 82 71 83 74 84 72 85
REMARK SMILES IDX 51 86 52 87 60 88 53 89 54 90 58 91 61 92 55 93 56 94 59 95
REMARK SMILES IDX 57 96
REMARK H PARENT 11 10 81 49 49 60
REMARK Flexibility Score: inf
ROOT
ATOM      1  C   UNL     1       1.606   8.185  -3.851  1.00  0.00     0.274 C 
ENDROOT
BRANCH   1   2
ATOM      2  O   UNL     1       1.093   7.731  -2.577  1.00  0.00    -0.461 OA
BRANCH   2   3
ATOM      3  C   UNL     1       1.985   7.172  -1.704  1.00  0.00     0.316 C 
ATOM      4  O   UNL     1       3.200   7.311  -1.804  1.00  0.00    -0.251 OA
BRANCH   3   5
ATOM      5  C   UNL     1       1.305   6.295  -0.618  1.00  0.00     0.099 C 
ATOM      6  C   UNL     1       2.237   5.064  -0.494  1.00  0.00     0.029 C 
BRANCH   5   7
ATOM      7  C   UNL     1      -0.108   5.881  -1.127  1.00  0.00     0.123 C 
BRANCH   7   8
ATOM      8  C   UNL     1      -0.661   4.550  -0.723  1.00  0.00     0.225 C 
ATOM      9  N   UNL     1      -0.278   3.324  -1.123  1.00  0.00    -0.326 N 
ATOM     10  H   UNL     1      -0.811   2.674  -0.609  1.00  0.00     0.169 HD
ATOM     11  O   UNL     1      -1.576   4.544   0.118  1.00  0.00    -0.275 OA
BRANCH   9  12
ATOM     12  C   UNL     1       0.575   2.578  -1.977  1.00  0.00     0.047 A 
ATOM     13  C   UNL     1       0.836   1.247  -1.473  1.00  0.00    -0.024 A 
ATOM     14  C   UNL     1       1.545   0.312  -2.247  1.00  0.00     0.006 A 
ATOM     15  C   UNL     1       2.021   0.644  -3.497  1.00  0.00     0.001 A 
ATOM     16  C   UNL     1       1.127   2.927  -3.234  1.00  0.00    -0.024 A 
ATOM     17  C   UNL     1       1.813   1.925  -3.974  1.00  0.00     0.006 A 
BRANCH  13  18
ATOM     18  C   UNL     1       0.377   0.831  -0.071  1.00  0.00     0.034 C 
ATOM     19  C   UNL     1       0.926  -0.469   0.508  1.00  0.00     0.009 C 
ENDBRANCH  13  18
BRANCH  16  20
ATOM     20  C   UNL     1       1.028   4.223  -3.999  1.00  0.00     0.034 C 
ATOM     21  C   UNL     1       2.392   4.829  -4.357  1.00  0.00     0.009 C 
ENDBRANCH  16  20
ENDBRANCH   9  12
ENDBRANCH   7   8
ENDBRANCH   5   7
BRANCH   5  22
ATOM     22  C   UNL     1       1.225   7.048   0.740  1.00  0.00    -0.030 A 
ATOM     23  C   UNL     1       1.987   6.667   1.866  1.00  0.00     0.005 A 
ATOM     24  C   UNL     1       0.356   8.142   0.911  1.00  0.00     0.005 A 
ATOM     25  C   UNL     1       1.873   7.324   3.097  1.00  0.00     0.000 A 
ATOM     26  C   UNL     1       0.224   8.784   2.151  1.00  0.00     0.000 A 
ATOM     27  C   UNL     1       0.984   8.379   3.242  1.00  0.00     0.000 A 
ENDBRANCH   5  22
ENDBRANCH   3   5
ENDBRANCH   2   3
ENDBRANCH   1   2
BRANCH   1  28
ATOM     28  C   UNL     1       1.295   9.656  -4.087  1.00  0.00     0.275 C 
BRANCH  28  29
ATOM     29  O   UNL     1       2.006  10.404  -3.098  1.00  0.00    -0.458 OA
BRANCH  29  30
ATOM     30  C   UNL     1       1.269  11.262  -2.368  1.00  0.00     0.338 C 
ATOM     31  O   UNL     1       0.154  11.698  -2.631  1.00  0.00    -0.246 OA
BRANCH  30  32
ATOM     32  C   UNL     1       1.961  11.518  -1.093  1.00  0.00     0.060 A 
ATOM     33  C   UNL     1       2.609  10.466  -0.445  1.00  0.00     0.016 A 
ATOM     34  C   UNL     1       1.816  12.745  -0.454  1.00  0.00     0.016 A 
ATOM     35  C   UNL     1       2.978  10.585   0.887  1.00  0.00     0.010 A 
ATOM     36  C   UNL     1       2.285  12.896   0.854  1.00  0.00     0.010 A 
ATOM     37  C   UNL     1       2.800  11.795   1.565  1.00  0.00    -0.014 A 
BRANCH  37  38
ATOM     38  C   UNL     1       2.994  11.871   3.039  1.00  0.00     0.031 A 
ATOM     39  C   UNL     1       1.849  12.338   3.902  1.00  0.00     0.074 A 
ATOM     40  C   UNL     1       4.137  11.475   3.631  1.00  0.00     0.049 A 
ATOM     41  N   UNL     1       1.856  12.749   5.144  1.00  0.00    -0.248 NA
ATOM     42  C   UNL     1       0.517  12.360   3.275  1.00  0.00     0.031 C 
ATOM     43  C   UNL     1       5.295  10.893   2.953  1.00  0.00     0.029 A 
ATOM     44  N   UNL     1       4.504  11.494   4.955  1.00  0.00    -0.354 N 
ATOM     45  C   UNL     1       0.559  13.170   5.408  1.00  0.00     0.074 A 
ATOM     46  C   UNL     1      -0.221  12.929   4.215  1.00  0.00     0.031 C 
ATOM     47  C   UNL     1       6.220  10.563   3.867  1.00  0.00     0.029 A 
ATOM     48  C   UNL     1       5.771  11.015   5.179  1.00  0.00     0.049 A 
ATOM     49  H   UNL     1       3.915  11.820   5.673  1.00  0.00     0.167 HD
ATOM     50  C   UNL     1       0.074  13.732   6.540  1.00  0.00     0.037 A 
ATOM     51  C   UNL     1       6.511  10.995   6.303  1.00  0.00     0.037 A 
ATOM     52  C   UNL     1       0.838  13.893   7.748  1.00  0.00     0.049 A 
ATOM     53  C   UNL     1       5.957  11.619   7.554  1.00  0.00     0.074 A 
ATOM     54  C   UNL     1       0.461  14.481   8.942  1.00  0.00     0.029 A 
ATOM     55  N   UNL     1       2.131  13.422   7.922  1.00  0.00    -0.354 N 
ATOM     56  N   UNL     1       4.786  12.173   7.754  1.00  0.00    -0.248 NA
ATOM     57  C   UNL     1       6.845  11.649   8.724  1.00  0.00     0.031 C 
ATOM     58  C   UNL     1       1.533  14.376   9.837  1.00  0.00     0.029 A 
ATOM     59  C   UNL     1       2.563  13.695   9.209  1.00  0.00     0.049 A 
ATOM     60  H   UNL     1       2.662  12.962   7.233  1.00  0.00     0.167 HD
ATOM     61  C   UNL     1       4.800  12.630   9.064  1.00  0.00     0.074 A 
ATOM     62  C   UNL     1       6.082  12.255   9.624  1.00  0.00     0.031 C 
ATOM     63  C   UNL     1       3.845  13.315   9.739  1.00  0.00     0.037 A 
BRANCH  50  64
ATOM     64  C   UNL     1      -1.325  14.266   6.503  1.00  0.00     0.064 A 
ATOM     65  C   UNL     1      -2.447  13.429   6.540  1.00  0.00     0.173 A 
ATOM     66  C   UNL     1      -1.540  15.653   6.443  1.00  0.00     0.173 A 
ATOM     67  F   UNL     1      -2.294  12.097   6.572  1.00  0.00    -0.203 F 
ATOM     68  C   UNL     1      -3.736  13.959   6.502  1.00  0.00     0.198 A 
ATOM     69  C   UNL     1      -2.827  16.180   6.429  1.00  0.00     0.198 A 
ATOM     70  F   UNL     1      -0.497  16.497   6.402  1.00  0.00    -0.203 F 
ATOM     71  F   UNL     1      -4.796  13.139   6.497  1.00  0.00    -0.200 F 
ATOM     72  C   UNL     1      -3.924  15.333   6.454  1.00  0.00     0.200 A 
ATOM     73  F   UNL     1      -3.006  17.508   6.389  1.00  0.00    -0.200 F 
ATOM     74  F   UNL     1      -5.164  15.840   6.422  1.00  0.00    -0.200 F 
ENDBRANCH  50  64
BRANCH  51  75
ATOM     75  C   UNL     1       7.883  10.427   6.275  1.00  0.00     0.064 A 
ATOM     76  C   UNL     1       8.182   9.236   6.950  1.00  0.00     0.173 A 
ATOM     77  C   UNL     1       8.918  11.053   5.564  1.00  0.00     0.173 A 
ATOM     78  F   UNL     1       7.234   8.618   7.669  1.00  0.00    -0.203 F 
ATOM     79  C   UNL     1       9.466   8.694   6.915  1.00  0.00     0.198 A 
ATOM     80  C   UNL     1      10.192  10.495   5.505  1.00  0.00     0.198 A 
ATOM     81  F   UNL     1       8.684  12.199   4.906  1.00  0.00    -0.203 F 
ATOM     82  F   UNL     1       9.736   7.573   7.598  1.00  0.00    -0.200 F 
ATOM     83  C   UNL     1      10.466   9.318   6.184  1.00  0.00     0.200 A 
ATOM     84  F   UNL     1      11.151  11.095   4.787  1.00  0.00    -0.200 F 
ATOM     85  F   UNL     1      11.697   8.789   6.141  1.00  0.00    -0.200 F 
ENDBRANCH  51  75
BRANCH  63  86
ATOM     86  C   UNL     1       4.154  13.689  11.155  1.00  0.00     0.064 A 
ATOM     87  C   UNL     1       5.027  14.746  11.453  1.00  0.00     0.173 A 
ATOM     88  C   UNL     1       3.558  13.001  12.220  1.00  0.00     0.173 A 
ATOM     89  F   UNL     1       5.632  15.422  10.465  1.00  0.00    -0.203 F 
ATOM     90  C   UNL     1       5.310  15.084  12.773  1.00  0.00     0.198 A 
ATOM     91  C   UNL     1       3.828  13.355  13.538  1.00  0.00     0.198 A 
ATOM     92  F   UNL     1       2.714  11.986  11.981  1.00  0.00    -0.203 F 
ATOM     93  F   UNL     1       6.179  16.069  13.039  1.00  0.00    -0.200 F 
ATOM     94  C   UNL     1       4.708  14.392  13.813  1.00  0.00     0.200 A 
ATOM     95  F   UNL     1       3.241  12.690  14.543  1.00  0.00    -0.200 F 
ATOM     96  F   UNL     1       4.984  14.717  15.084  1.00  0.00    -0.200 F 
ENDBRANCH  63  86
ENDBRANCH  37  38
ENDBRANCH  30  32
ENDBRANCH  29  30
ENDBRANCH  28  29
ENDBRANCH   1  28
TORSDOF 17
