REMARK SMILES COC[C@H](O)CC1(C(=O)OCCOC(=O)c2ccc(-c3c4nc(c(-c5c(F)c(F)c(F)c(F)c5F)c5ccc([nH]5)c(-c5c(F)c(F)c(F)c(F)c5F)c5nc(c(-c6c(F)c(F)c(F)c(F)c6F)c6ccc3[nH]6)C=C5)C=C4)cc2)CC1
REMARK SMILES IDX 11 1 10 2 8 3 9 4 7 5 79 6 80 7 6 8 4 9 3 10 2 11 1 12 5 13
REMARK SMILES IDX 12 15 13 16 14 17 15 18 16 19 17 20 78 21 18 22 77 23 19 24
REMARK SMILES IDX 20 25 21 26 71 27 22 28 76 29 70 30 72 31 23 32 75 33 69 34
REMARK SMILES IDX 68 35 24 37 56 38 36 39 55 40 37 41 40 42 54 43 73 44 38 45
REMARK SMILES IDX 39 46 53 48 74 49 41 50 25 51 26 52 34 53 27 54 28 55 32 56
REMARK SMILES IDX 35 57 29 58 30 59 33 60 31 61 57 62 58 63 66 64 59 65 60 66
REMARK SMILES IDX 64 67 67 68 61 69 62 70 65 71 63 72 42 73 43 74 51 75 44 76
REMARK SMILES IDX 45 77 49 78 52 79 46 80 47 81 50 82 48 83
REMARK H PARENT 5 14 72 36 40 47
REMARK Flexibility Score: inf
ROOT
ATOM      1  C   UNL     1      -1.834  -1.464  -1.600  1.00  0.00     0.274 C 
ENDROOT
BRANCH   1   2
ATOM      2  O   UNL     1      -1.599  -2.505  -2.576  1.00  0.00    -0.462 OA
BRANCH   2   3
ATOM      3  C   UNL     1      -1.743  -2.191  -3.905  1.00  0.00     0.312 C 
ATOM      4  O   UNL     1      -2.609  -1.512  -4.402  1.00  0.00    -0.252 OA
BRANCH   3   5
ATOM      5  C   UNL     1      -0.469  -2.577  -4.654  1.00  0.00     0.071 C 
ATOM      6  C   UNL     1      -0.450  -3.722  -5.655  1.00  0.00     0.020 C 
ATOM      7  C   UNL     1       0.037  -3.983  -4.270  1.00  0.00     0.020 C 
BRANCH   5   8
ATOM      8  C   UNL     1       0.568  -1.402  -4.911  1.00  0.00     0.053 C 
BRANCH   8   9
ATOM      9  C   UNL     1       0.363  -0.294  -3.860  1.00  0.00     0.141 C 
BRANCH   9  10
ATOM     10  C   UNL     1       1.149   1.010  -3.713  1.00  0.00     0.191 C 
BRANCH  10  11
ATOM     11  O   UNL     1       0.428   1.856  -2.764  1.00  0.00    -0.382 OA
ATOM     12  C   UNL     1       0.850   1.772  -1.403  1.00  0.00     0.195 C 
ENDBRANCH  10  11
ENDBRANCH   9  10
BRANCH   9  13
ATOM     13  O   UNL     1       0.701  -0.920  -2.654  1.00  0.00    -0.391 OA
ATOM     14  H   UNL     1       1.649  -1.122  -2.649  1.00  0.00     0.211 HD
ENDBRANCH   9  13
ENDBRANCH   8   9
ENDBRANCH   5   8
ENDBRANCH   3   5
ENDBRANCH   2   3
ENDBRANCH   1   2
BRANCH   1  15
ATOM     15  C   UNL     1      -0.781  -1.585  -0.432  1.00  0.00     0.275 C 
BRANCH  15  16
ATOM     16  O   UNL     1       0.457  -2.280  -0.856  1.00  0.00    -0.458 OA
BRANCH  16  17
ATOM     17  C   UNL     1       1.633  -2.002  -0.207  1.00  0.00     0.338 C 
ATOM     18  O   UNL     1       1.755  -2.011   1.009  1.00  0.00    -0.246 OA
BRANCH  17  19
ATOM     19  C   UNL     1       2.795  -1.597  -1.114  1.00  0.00     0.060 A 
ATOM     20  C   UNL     1       3.223  -2.350  -2.218  1.00  0.00     0.016 A 
ATOM     21  C   UNL     1       3.500  -0.410  -0.842  1.00  0.00     0.016 A 
ATOM     22  C   UNL     1       4.356  -1.959  -2.988  1.00  0.00     0.010 A 
ATOM     23  C   UNL     1       4.602   0.004  -1.635  1.00  0.00     0.010 A 
ATOM     24  C   UNL     1       5.092  -0.799  -2.683  1.00  0.00    -0.014 A 
BRANCH  24  25
ATOM     25  C   UNL     1       6.508  -0.609  -3.195  1.00  0.00     0.031 A 
ATOM     26  C   UNL     1       7.638  -0.980  -2.247  1.00  0.00     0.074 A 
ATOM     27  C   UNL     1       6.854  -0.163  -4.425  1.00  0.00     0.049 A 
ATOM     28  N   UNL     1       8.940  -0.911  -2.403  1.00  0.00    -0.248 NA
ATOM     29  C   UNL     1       7.226  -1.492  -0.932  1.00  0.00     0.031 C 
ATOM     30  C   UNL     1       5.931   0.227  -5.485  1.00  0.00     0.029 A 
ATOM     31  N   UNL     1       8.104   0.039  -4.991  1.00  0.00    -0.354 N 
ATOM     32  C   UNL     1       9.490  -1.356  -1.204  1.00  0.00     0.074 A 
ATOM     33  C   UNL     1       8.385  -1.639  -0.316  1.00  0.00     0.031 C 
ATOM     34  C   UNL     1       6.637   0.610  -6.569  1.00  0.00     0.029 A 
ATOM     35  C   UNL     1       8.072   0.517  -6.285  1.00  0.00     0.049 A 
ATOM     36  H   UNL     1       8.943  -0.143  -4.511  1.00  0.00     0.167 HD
ATOM     37  C   UNL     1      10.789  -1.541  -0.859  1.00  0.00     0.037 A 
ATOM     38  C   UNL     1       9.071   0.843  -7.141  1.00  0.00     0.037 A 
ATOM     39  C   UNL     1      11.913  -1.278  -1.715  1.00  0.00     0.049 A 
ATOM     40  C   UNL     1      10.521   0.686  -6.726  1.00  0.00     0.074 A 
ATOM     41  C   UNL     1      13.261  -1.454  -1.451  1.00  0.00     0.029 A 
ATOM     42  N   UNL     1      11.821  -0.772  -3.002  1.00  0.00    -0.354 N 
ATOM     43  N   UNL     1      11.017   0.229  -5.602  1.00  0.00    -0.248 NA
ATOM     44  C   UNL     1      11.549   1.090  -7.703  1.00  0.00     0.031 C 
ATOM     45  C   UNL     1      13.987  -1.006  -2.560  1.00  0.00     0.029 A 
ATOM     46  C   UNL     1      13.090  -0.605  -3.536  1.00  0.00     0.049 A 
ATOM     47  H   UNL     1      10.980  -0.562  -3.468  1.00  0.00     0.167 HD
ATOM     48  C   UNL     1      12.402   0.263  -5.747  1.00  0.00     0.074 A 
ATOM     49  C   UNL     1      12.673   0.775  -7.072  1.00  0.00     0.031 C 
ATOM     50  C   UNL     1      13.360  -0.103  -4.859  1.00  0.00     0.037 A 
BRANCH  37  51
ATOM     51  C   UNL     1      11.055  -2.034   0.539  1.00  0.00     0.064 A 
ATOM     52  C   UNL     1      10.702  -3.331   0.946  1.00  0.00     0.173 A 
ATOM     53  C   UNL     1      11.640  -1.186   1.491  1.00  0.00     0.173 A 
ATOM     54  F   UNL     1      10.127  -4.177   0.078  1.00  0.00    -0.203 F 
ATOM     55  C   UNL     1      10.871  -3.739   2.266  1.00  0.00     0.198 A 
ATOM     56  C   UNL     1      11.843  -1.611   2.802  1.00  0.00     0.198 A 
ATOM     57  F   UNL     1      12.007   0.060   1.155  1.00  0.00    -0.203 F 
ATOM     58  F   UNL     1      10.451  -4.953   2.649  1.00  0.00    -0.200 F 
ATOM     59  C   UNL     1      11.443  -2.880   3.192  1.00  0.00     0.200 A 
ATOM     60  F   UNL     1      12.409  -0.785   3.692  1.00  0.00    -0.200 F 
ATOM     61  F   UNL     1      11.595  -3.270   4.465  1.00  0.00    -0.200 F 
ENDBRANCH  37  51
BRANCH  38  62
ATOM     62  C   UNL     1       8.755   1.347  -8.514  1.00  0.00     0.064 A 
ATOM     63  C   UNL     1       9.046   0.581  -9.655  1.00  0.00     0.173 A 
ATOM     64  C   UNL     1       8.191   2.615  -8.718  1.00  0.00     0.173 A 
ATOM     65  F   UNL     1       9.634  -0.617  -9.526  1.00  0.00    -0.203 F 
ATOM     66  C   UNL     1       8.780   1.061 -10.940  1.00  0.00     0.198 A 
ATOM     67  C   UNL     1       7.901   3.083 -10.001  1.00  0.00     0.198 A 
ATOM     68  F   UNL     1       7.918   3.403  -7.668  1.00  0.00    -0.203 F 
ATOM     69  F   UNL     1       9.103   0.322 -12.010  1.00  0.00    -0.200 F 
ATOM     70  C   UNL     1       8.197   2.307 -11.111  1.00  0.00     0.200 A 
ATOM     71  F   UNL     1       7.337   4.288 -10.161  1.00  0.00    -0.200 F 
ATOM     72  F   UNL     1       7.929   2.761 -12.343  1.00  0.00    -0.200 F 
ENDBRANCH  38  62
BRANCH  50  73
ATOM     73  C   UNL     1      14.798  -0.002  -5.287  1.00  0.00     0.064 A 
ATOM     74  C   UNL     1      15.447   1.234  -5.421  1.00  0.00     0.173 A 
ATOM     75  C   UNL     1      15.557  -1.164  -5.505  1.00  0.00     0.173 A 
ATOM     76  F   UNL     1      14.768   2.376  -5.233  1.00  0.00    -0.203 F 
ATOM     77  C   UNL     1      16.793   1.305  -5.776  1.00  0.00     0.198 A 
ATOM     78  C   UNL     1      16.909  -1.091  -5.833  1.00  0.00     0.198 A 
ATOM     79  F   UNL     1      14.991  -2.374  -5.380  1.00  0.00    -0.203 F 
ATOM     80  F   UNL     1      17.381   2.499  -5.935  1.00  0.00    -0.200 F 
ATOM     81  C   UNL     1      17.524   0.143  -5.974  1.00  0.00     0.200 A 
ATOM     82  F   UNL     1      17.617  -2.215  -6.009  1.00  0.00    -0.200 F 
ATOM     83  F   UNL     1      18.821   0.213  -6.307  1.00  0.00    -0.200 F 
ENDBRANCH  50  73
ENDBRANCH  24  25
ENDBRANCH  17  19
ENDBRANCH  16  17
ENDBRANCH  15  16
ENDBRANCH   1  15
TORSDOF 16
