REMARK SMILES O=C(OCCOC(=O)c1nc(NC[C@H]2c3ccccc3CSc3ccccc32)c2ccccc2n1)c1ccc(-c2c3nc(c(-c4c(F)c(F)c(F)c(F)c4F)c4ccc([nH]4)c(-c4c(F)c(F)c(F)c(F)c4F)c4nc(c(-c5c(F)c(F)c(F)c(F)c5F)c5ccc2[nH]5)C=C4)C=C3)cc1
REMARK SMILES IDX 5 1 4 2 3 3 2 4 1 5 36 6 37 7 98 8 38 9 97 10 39 11 40 12
REMARK SMILES IDX 41 13 91 14 42 15 96 16 90 17 92 18 43 19 95 20 89 21 88 22
REMARK SMILES IDX 44 24 76 25 56 26 75 27 57 28 60 29 74 30 93 31 58 32 59 33
REMARK SMILES IDX 73 35 94 36 61 37 45 38 46 39 54 40 47 41 48 42 52 43 55 44
REMARK SMILES IDX 49 45 50 46 53 47 51 48 77 49 78 50 86 51 79 52 80 53 84 54
REMARK SMILES IDX 87 55 81 56 82 57 85 58 83 59 62 60 63 61 71 62 64 63 65 64
REMARK SMILES IDX 69 65 72 66 66 67 67 68 70 69 68 70 6 71 7 72 8 73 9 74
REMARK SMILES IDX 10 75 35 76 11 77 34 78 29 79 33 80 30 81 32 82 31 83 12 84
REMARK SMILES IDX 13 86 14 87 15 88 28 89 16 90 20 91 23 92 27 93 17 94 19 95
REMARK SMILES IDX 21 96 22 97 24 98 26 99 18 100 25 101
REMARK H PARENT 92 23 60 34 12 85
REMARK Flexibility Score: inf
ROOT
ATOM      1  C   UNL     1       3.682   0.953  -2.045  1.00  0.00     0.275 C 
ENDROOT
BRANCH   1   2
ATOM      2  C   UNL     1       4.071  -0.349  -1.341  1.00  0.00     0.275 C 
BRANCH   2   3
ATOM      3  O   UNL     1       3.130  -0.782  -0.347  1.00  0.00    -0.458 OA
BRANCH   3   4
ATOM      4  C   UNL     1       3.311  -0.685   0.994  1.00  0.00     0.338 C 
ATOM      5  O   UNL     1       2.787  -1.486   1.762  1.00  0.00    -0.246 OA
BRANCH   4   6
ATOM      6  C   UNL     1       3.913   0.550   1.562  1.00  0.00     0.060 A 
ATOM      7  C   UNL     1       3.135   1.220   2.506  1.00  0.00     0.016 A 
ATOM      8  C   UNL     1       5.189   1.045   1.280  1.00  0.00     0.016 A 
ATOM      9  C   UNL     1       3.565   2.430   3.048  1.00  0.00     0.010 A 
ATOM     10  C   UNL     1       5.628   2.259   1.835  1.00  0.00     0.010 A 
ATOM     11  C   UNL     1       4.803   2.986   2.697  1.00  0.00    -0.014 A 
BRANCH  11  12
ATOM     12  C   UNL     1       5.231   4.247   3.360  1.00  0.00     0.031 A 
ATOM     13  C   UNL     1       5.396   5.539   2.601  1.00  0.00     0.074 A 
ATOM     14  C   UNL     1       5.405   4.213   4.697  1.00  0.00     0.049 A 
ATOM     15  N   UNL     1       5.511   6.759   3.070  1.00  0.00    -0.248 NA
ATOM     16  C   UNL     1       5.440   5.470   1.131  1.00  0.00     0.031 C 
ATOM     17  C   UNL     1       5.318   3.002   5.520  1.00  0.00     0.029 A 
ATOM     18  N   UNL     1       5.669   5.207   5.603  1.00  0.00    -0.354 N 
ATOM     19  C   UNL     1       5.577   7.599   1.962  1.00  0.00     0.074 A 
ATOM     20  C   UNL     1       5.578   6.750   0.793  1.00  0.00     0.031 C 
ATOM     21  C   UNL     1       5.484   3.329   6.808  1.00  0.00     0.029 A 
ATOM     22  C   UNL     1       5.737   4.761   6.901  1.00  0.00     0.049 A 
ATOM     23  H   UNL     1       5.797   6.150   5.348  1.00  0.00     0.167 HD
ATOM     24  C   UNL     1       5.583   8.956   1.941  1.00  0.00     0.037 A 
ATOM     25  C   UNL     1       5.991   5.428   8.042  1.00  0.00     0.037 A 
ATOM     26  C   UNL     1       5.617   9.760   3.139  1.00  0.00     0.049 A 
ATOM     27  C   UNL     1       6.197   6.910   7.970  1.00  0.00     0.074 A 
ATOM     28  C   UNL     1       5.484  11.130   3.271  1.00  0.00     0.029 A 
ATOM     29  N   UNL     1       5.863   9.257   4.411  1.00  0.00    -0.354 N 
ATOM     30  N   UNL     1       6.044   7.707   6.941  1.00  0.00    -0.248 NA
ATOM     31  C   UNL     1       6.628   7.583   9.200  1.00  0.00     0.031 C 
ATOM     32  C   UNL     1       5.736  11.463   4.610  1.00  0.00     0.029 A 
ATOM     33  C   UNL     1       5.994  10.298   5.316  1.00  0.00     0.049 A 
ATOM     34  H   UNL     1       5.935   8.302   4.636  1.00  0.00     0.167 HD
ATOM     35  C   UNL     1       6.365   8.977   7.390  1.00  0.00     0.074 A 
ATOM     36  C   UNL     1       6.702   8.846   8.796  1.00  0.00     0.031 C 
ATOM     37  C   UNL     1       6.378  10.143   6.699  1.00  0.00     0.037 A 
BRANCH  24  38
ATOM     38  C   UNL     1       5.567   9.675   0.614  1.00  0.00     0.064 A 
ATOM     39  C   UNL     1       4.378   9.948  -0.082  1.00  0.00     0.173 A 
ATOM     40  C   UNL     1       6.748  10.206   0.079  1.00  0.00     0.173 A 
ATOM     41  F   UNL     1       3.200   9.532   0.381  1.00  0.00    -0.203 F 
ATOM     42  C   UNL     1       4.365  10.691  -1.260  1.00  0.00     0.198 A 
ATOM     43  C   UNL     1       6.733  10.967  -1.094  1.00  0.00     0.198 A 
ATOM     44  F   UNL     1       7.917  10.009   0.704  1.00  0.00    -0.203 F 
ATOM     45  F   UNL     1       3.204  10.918  -1.891  1.00  0.00    -0.200 F 
ATOM     46  C   UNL     1       5.543  11.205  -1.764  1.00  0.00     0.200 A 
ATOM     47  F   UNL     1       7.874  11.482  -1.570  1.00  0.00    -0.200 F 
ATOM     48  F   UNL     1       5.528  11.937  -2.887  1.00  0.00    -0.200 F 
ENDBRANCH  24  38
BRANCH  25  49
ATOM     49  C   UNL     1       6.081   4.671   9.317  1.00  0.00     0.064 A 
ATOM     50  C   UNL     1       5.090   4.778  10.299  1.00  0.00     0.173 A 
ATOM     51  C   UNL     1       7.120   3.749   9.534  1.00  0.00     0.173 A 
ATOM     52  F   UNL     1       4.087   5.655  10.146  1.00  0.00    -0.203 F 
ATOM     53  C   UNL     1       5.122   3.976  11.440  1.00  0.00     0.198 A 
ATOM     54  C   UNL     1       7.136   2.932  10.661  1.00  0.00     0.198 A 
ATOM     55  F   UNL     1       8.092   3.609   8.621  1.00  0.00    -0.203 F 
ATOM     56  F   UNL     1       4.161   4.096  12.367  1.00  0.00    -0.200 F 
ATOM     57  C   UNL     1       6.136   3.045  11.613  1.00  0.00     0.200 A 
ATOM     58  F   UNL     1       8.107   2.021  10.811  1.00  0.00    -0.200 F 
ATOM     59  F   UNL     1       6.144   2.251  12.692  1.00  0.00    -0.200 F 
ENDBRANCH  25  49
BRANCH  37  60
ATOM     60  C   UNL     1       6.827  11.365   7.440  1.00  0.00     0.064 A 
ATOM     61  C   UNL     1       8.185  11.572   7.725  1.00  0.00     0.173 A 
ATOM     62  C   UNL     1       5.912  12.354   7.827  1.00  0.00     0.173 A 
ATOM     63  F   UNL     1       9.093  10.641   7.396  1.00  0.00    -0.203 F 
ATOM     64  C   UNL     1       8.610  12.727   8.376  1.00  0.00     0.198 A 
ATOM     65  C   UNL     1       6.344  13.519   8.455  1.00  0.00     0.198 A 
ATOM     66  F   UNL     1       4.603  12.198   7.579  1.00  0.00    -0.203 F 
ATOM     67  F   UNL     1       9.908  12.891   8.665  1.00  0.00    -0.200 F 
ATOM     68  C   UNL     1       7.691  13.703   8.730  1.00  0.00     0.200 A 
ATOM     69  F   UNL     1       5.456  14.465   8.790  1.00  0.00    -0.200 F 
ATOM     70  F   UNL     1       8.103  14.821   9.344  1.00  0.00    -0.200 F 
ENDBRANCH  37  60
ENDBRANCH  11  12
ENDBRANCH   4   6
ENDBRANCH   3   4
ENDBRANCH   2   3
ENDBRANCH   1   2
BRANCH   1  71
ATOM     71  O   UNL     1       3.224   1.978  -1.147  1.00  0.00    -0.456 OA
BRANCH  71  72
ATOM     72  C   UNL     1       1.862   2.134  -1.095  1.00  0.00     0.376 C 
ATOM     73  O   UNL     1       1.048   1.502  -1.738  1.00  0.00    -0.242 OA
BRANCH  72  74
ATOM     74  C   UNL     1       1.512   3.143  -0.043  1.00  0.00     0.241 A 
ATOM     75  N   UNL     1       0.801   2.665   0.994  1.00  0.00    -0.204 NA
ATOM     76  N   UNL     1       2.016   4.390  -0.162  1.00  0.00    -0.222 NA
ATOM     77  C   UNL     1       0.672   3.485   2.043  1.00  0.00     0.138 A 
ATOM     78  C   UNL     1       1.765   5.224   0.860  1.00  0.00     0.077 A 
ATOM     79  C   UNL     1       1.111   4.811   2.025  1.00  0.00     0.043 A 
ATOM     80  C   UNL     1       2.188   6.546   0.814  1.00  0.00     0.029 A 
ATOM     81  C   UNL     1       0.944   5.695   3.121  1.00  0.00     0.014 A 
ATOM     82  C   UNL     1       2.033   7.411   1.908  1.00  0.00     0.002 A 
ATOM     83  C   UNL     1       1.423   6.987   3.070  1.00  0.00     0.001 A 
BRANCH  77  84
ATOM     84  N   UNL     1       0.176   2.978   3.225  1.00  0.00    -0.368 N 
ATOM     85  H   UNL     1       0.391   3.457   4.058  1.00  0.00     0.162 HD
BRANCH  84  86
ATOM     86  C   UNL     1      -0.640   1.787   3.321  1.00  0.00     0.127 C 
BRANCH  86  87
ATOM     87  C   UNL     1      -0.647   1.222   4.789  1.00  0.00     0.070 C 
ATOM     88  C   UNL     1      -0.853   2.318   5.856  1.00  0.00    -0.035 A 
ATOM     89  C   UNL     1      -1.501  -0.038   4.985  1.00  0.00    -0.025 A 
ATOM     90  C   UNL     1      -1.547   3.515   5.592  1.00  0.00     0.005 A 
ATOM     91  C   UNL     1      -0.257   2.168   7.126  1.00  0.00    -0.034 A 
ATOM     92  C   UNL     1      -1.635  -0.731   6.213  1.00  0.00     0.011 A 
ATOM     93  C   UNL     1      -2.133  -0.611   3.849  1.00  0.00     0.005 A 
ATOM     94  C   UNL     1      -1.570   4.561   6.519  1.00  0.00     0.000 A 
ATOM     95  C   UNL     1      -0.307   3.219   8.061  1.00  0.00     0.005 A 
ATOM     96  C   UNL     1       0.362   0.858   7.524  1.00  0.00     0.110 C 
ATOM     97  S   UNL     1      -0.919  -0.382   7.828  1.00  0.00    -0.121 SA
ATOM     98  C   UNL     1      -2.433  -1.898   6.256  1.00  0.00     0.015 A 
ATOM     99  C   UNL     1      -2.886  -1.782   3.912  1.00  0.00     0.000 A 
ATOM    100  C   UNL     1      -0.942   4.417   7.749  1.00  0.00     0.000 A 
ATOM    101  C   UNL     1      -3.049  -2.422   5.123  1.00  0.00     0.001 A 
ENDBRANCH  86  87
ENDBRANCH  84  86
ENDBRANCH  77  84
ENDBRANCH  72  74
ENDBRANCH  71  72
ENDBRANCH   1  71
TORSDOF 14
