REMARK SMILES C[C@H](SC1CCOCC1)c1ccc(C(=O)OCCOC(=O)c2ccc(-c3c4nc(c(-c5c(F)c(F)c(F)c(F)c5F)c5ccc([nH]5)c(-c5c(F)c(F)c(F)c(F)c5F)c5nc(c(-c6c(F)c(F)c(F)c(F)c6F)c6ccc3[nH]6)C=C5)C=C4)cc2)o1
REMARK SMILES IDX 17 1 16 2 14 3 15 4 13 5 10 6 11 7 85 8 12 9 2 10 1 11 3 12
REMARK SMILES IDX 4 13 5 14 9 15 6 16 8 17 7 18 18 19 19 20 20 21 21 22 22 23
REMARK SMILES IDX 23 24 84 25 24 26 83 27 25 28 26 29 27 30 77 31 28 32 82 33
REMARK SMILES IDX 76 34 78 35 29 36 81 37 75 38 74 39 30 41 62 42 42 43 61 44
REMARK SMILES IDX 43 45 46 46 60 47 79 48 44 49 45 50 59 52 80 53 47 54 31 55
REMARK SMILES IDX 32 56 40 57 33 58 34 59 38 60 41 61 35 62 36 63 39 64 37 65
REMARK SMILES IDX 63 66 64 67 72 68 65 69 66 70 70 71 73 72 67 73 68 74 71 75
REMARK SMILES IDX 69 76 48 77 49 78 57 79 50 80 51 81 55 82 58 83 52 84 53 85
REMARK SMILES IDX 56 86 54 87
REMARK H PARENT 78 40 46 51
REMARK Flexibility Score: inf
ROOT
ATOM      1  C   UNL     1      -6.563   1.305   1.351  1.00  0.00     0.275 C 
ENDROOT
BRANCH   1   2
ATOM      2  O   UNL     1      -5.528   0.305   1.408  1.00  0.00    -0.456 OA
BRANCH   2   3
ATOM      3  C   UNL     1      -4.319   0.712   0.919  1.00  0.00     0.374 C 
ATOM      4  O   UNL     1      -4.120   1.812   0.424  1.00  0.00    -0.242 OA
BRANCH   3   5
ATOM      5  C   UNL     1      -3.319  -0.314   1.093  1.00  0.00     0.211 A 
ATOM      6  C   UNL     1      -1.226  -1.035   1.105  1.00  0.00     0.117 A 
ATOM      7  C   UNL     1      -2.027  -2.143   1.293  1.00  0.00     0.048 A 
ATOM      8  O   UNL     1      -2.007   0.074   1.025  1.00  0.00    -0.453 OA
ATOM      9  C   UNL     1      -3.369  -1.679   1.301  1.00  0.00     0.058 A 
BRANCH   6  10
ATOM     10  C   UNL     1       0.253  -0.846   1.020  1.00  0.00     0.110 C 
ATOM     11  C   UNL     1       0.824   0.077   2.099  1.00  0.00     0.028 C 
BRANCH  10  12
ATOM     12  S   UNL     1       0.895  -0.550  -0.685  1.00  0.00    -0.147 SA
BRANCH  12  13
ATOM     13  C   UNL     1       0.102   1.004  -1.302  1.00  0.00     0.052 C 
ATOM     14  C   UNL     1       0.086   2.163  -0.320  1.00  0.00     0.043 C 
ATOM     15  C   UNL     1      -1.254   0.759  -1.969  1.00  0.00     0.043 C 
ATOM     16  C   UNL     1      -0.612   3.364  -0.926  1.00  0.00     0.161 C 
ATOM     17  C   UNL     1      -1.934   2.060  -2.385  1.00  0.00     0.161 C 
ATOM     18  O   UNL     1      -1.924   3.033  -1.349  1.00  0.00    -0.381 OA
ENDBRANCH  12  13
ENDBRANCH  10  12
ENDBRANCH   6  10
ENDBRANCH   3   5
ENDBRANCH   2   3
ENDBRANCH   1   2
BRANCH   1  19
ATOM     19  C   UNL     1      -6.607   2.183   2.611  1.00  0.00     0.275 C 
BRANCH  19  20
ATOM     20  O   UNL     1      -5.501   3.104   2.691  1.00  0.00    -0.458 OA
BRANCH  20  21
ATOM     21  C   UNL     1      -4.421   2.657   3.378  1.00  0.00     0.338 C 
ATOM     22  O   UNL     1      -4.325   1.587   3.958  1.00  0.00    -0.246 OA
BRANCH  21  23
ATOM     23  C   UNL     1      -3.279   3.584   3.223  1.00  0.00     0.060 A 
ATOM     24  C   UNL     1      -2.033   3.021   2.935  1.00  0.00     0.016 A 
ATOM     25  C   UNL     1      -3.394   4.967   3.401  1.00  0.00     0.016 A 
ATOM     26  C   UNL     1      -0.907   3.832   2.804  1.00  0.00     0.010 A 
ATOM     27  C   UNL     1      -2.255   5.782   3.288  1.00  0.00     0.010 A 
ATOM     28  C   UNL     1      -1.007   5.218   2.984  1.00  0.00    -0.014 A 
BRANCH  28  29
ATOM     29  C   UNL     1       0.237   6.025   2.908  1.00  0.00     0.031 A 
ATOM     30  C   UNL     1       1.141   6.093   4.101  1.00  0.00     0.074 A 
ATOM     31  C   UNL     1       0.618   6.585   1.745  1.00  0.00     0.049 A 
ATOM     32  N   UNL     1       2.312   6.664   4.225  1.00  0.00    -0.248 NA
ATOM     33  C   UNL     1       0.656   5.433   5.322  1.00  0.00     0.031 C 
ATOM     34  C   UNL     1      -0.161   6.558   0.513  1.00  0.00     0.029 A 
ATOM     35  N   UNL     1       1.776   7.235   1.393  1.00  0.00    -0.354 N 
ATOM     36  C   UNL     1       2.692   6.460   5.543  1.00  0.00     0.074 A 
ATOM     37  C   UNL     1       1.638   5.691   6.173  1.00  0.00     0.031 C 
ATOM     38  C   UNL     1       0.579   7.066  -0.486  1.00  0.00     0.029 A 
ATOM     39  C   UNL     1       1.849   7.544   0.055  1.00  0.00     0.049 A 
ATOM     40  H   UNL     1       2.485   7.459   2.038  1.00  0.00     0.167 HD
ATOM     41  C   UNL     1       3.804   6.904   6.175  1.00  0.00     0.037 A 
ATOM     42  C   UNL     1       2.824   8.157  -0.646  1.00  0.00     0.037 A 
ATOM     43  C   UNL     1       4.833   7.693   5.551  1.00  0.00     0.049 A 
ATOM     44  C   UNL     1       4.036   8.668   0.091  1.00  0.00     0.074 A 
ATOM     45  C   UNL     1       5.971   8.236   6.120  1.00  0.00     0.029 A 
ATOM     46  N   UNL     1       4.841   8.062   4.213  1.00  0.00    -0.354 N 
ATOM     47  N   UNL     1       4.372   8.505   1.348  1.00  0.00    -0.248 NA
ATOM     48  C   UNL     1       4.982   9.488  -0.680  1.00  0.00     0.031 C 
ATOM     49  C   UNL     1       6.641   8.976   5.139  1.00  0.00     0.029 A 
ATOM     50  C   UNL     1       5.952   8.846   3.944  1.00  0.00     0.049 A 
ATOM     51  H   UNL     1       4.159   7.804   3.552  1.00  0.00     0.167 HD
ATOM     52  C   UNL     1       5.558   9.207   1.520  1.00  0.00     0.074 A 
ATOM     53  C   UNL     1       5.907   9.761   0.229  1.00  0.00     0.031 C 
ATOM     54  C   UNL     1       6.281   9.395   2.652  1.00  0.00     0.037 A 
BRANCH  41  55
ATOM     55  C   UNL     1       3.908   6.619   7.644  1.00  0.00     0.064 A 
ATOM     56  C   UNL     1       4.174   5.334   8.137  1.00  0.00     0.173 A 
ATOM     57  C   UNL     1       3.717   7.654   8.573  1.00  0.00     0.173 A 
ATOM     58  F   UNL     1       4.342   4.307   7.290  1.00  0.00    -0.203 F 
ATOM     59  C   UNL     1       4.214   5.089   9.508  1.00  0.00     0.198 A 
ATOM     60  C   UNL     1       3.785   7.411   9.941  1.00  0.00     0.198 A 
ATOM     61  F   UNL     1       3.458   8.901   8.152  1.00  0.00    -0.203 F 
ATOM     62  F   UNL     1       4.412   3.842   9.959  1.00  0.00    -0.200 F 
ATOM     63  C   UNL     1       4.022   6.127  10.408  1.00  0.00     0.200 A 
ATOM     64  F   UNL     1       3.607   8.417  10.808  1.00  0.00    -0.200 F 
ATOM     65  F   UNL     1       4.054   5.888  11.726  1.00  0.00    -0.200 F 
ENDBRANCH  41  55
BRANCH  42  66
ATOM     66  C   UNL     1       2.687   8.367  -2.114  1.00  0.00     0.064 A 
ATOM     67  C   UNL     1       3.583   7.773  -3.016  1.00  0.00     0.173 A 
ATOM     68  C   UNL     1       1.684   9.190  -2.648  1.00  0.00     0.173 A 
ATOM     69  F   UNL     1       4.583   7.004  -2.559  1.00  0.00    -0.203 F 
ATOM     70  C   UNL     1       3.487   8.003  -4.389  1.00  0.00     0.198 A 
ATOM     71  C   UNL     1       1.566   9.389  -4.022  1.00  0.00     0.198 A 
ATOM     72  F   UNL     1       0.810   9.798  -1.833  1.00  0.00    -0.203 F 
ATOM     73  F   UNL     1       4.389   7.465  -5.221  1.00  0.00    -0.200 F 
ATOM     74  C   UNL     1       2.472   8.803  -4.891  1.00  0.00     0.200 A 
ATOM     75  F   UNL     1       0.577  10.156  -4.502  1.00  0.00    -0.200 F 
ATOM     76  F   UNL     1       2.377   9.021  -6.210  1.00  0.00    -0.200 F 
ENDBRANCH  42  66
BRANCH  54  77
ATOM     77  C   UNL     1       7.524  10.232   2.544  1.00  0.00     0.064 A 
ATOM     78  C   UNL     1       7.459  11.622   2.363  1.00  0.00     0.173 A 
ATOM     79  C   UNL     1       8.792   9.644   2.668  1.00  0.00     0.173 A 
ATOM     80  F   UNL     1       6.272  12.230   2.224  1.00  0.00    -0.203 F 
ATOM     81  C   UNL     1       8.619  12.389   2.290  1.00  0.00     0.198 A 
ATOM     82  C   UNL     1       9.948  10.418   2.623  1.00  0.00     0.198 A 
ATOM     83  F   UNL     1       8.909   8.320   2.848  1.00  0.00    -0.203 F 
ATOM     84  F   UNL     1       8.535  13.709   2.074  1.00  0.00    -0.200 F 
ATOM     85  C   UNL     1       9.861  11.788   2.428  1.00  0.00     0.200 A 
ATOM     86  F   UNL     1      11.147   9.838   2.771  1.00  0.00    -0.200 F 
ATOM     87  F   UNL     1      10.976  12.529   2.366  1.00  0.00    -0.200 F 
ENDBRANCH  54  77
ENDBRANCH  28  29
ENDBRANCH  21  23
ENDBRANCH  20  21
ENDBRANCH  19  20
ENDBRANCH   1  19
TORSDOF 14
