REMARK SMILES O=C(OCCOC(=O)[C@@H](CO)NC(=O)[C@H]1CCCc2ccccc21)c1ccc(-c2c3nc(c(-c4c(F)c(F)c(F)c(F)c4F)c4ccc([nH]4)c(-c4c(F)c(F)c(F)c(F)c4F)c4nc(c(-c5c(F)c(F)c(F)c(F)c5F)c5ccc2[nH]5)C=C4)C=C3)cc1
REMARK SMILES IDX 4 1 3 2 2 3 1 4 25 5 26 6 87 7 27 8 86 9 28 10 29 11 30 12
REMARK SMILES IDX 80 13 31 14 85 15 79 16 81 17 32 18 84 19 78 20 77 21 33 23
REMARK SMILES IDX 65 24 45 25 64 26 46 27 49 28 63 29 82 30 47 31 48 32 62 34
REMARK SMILES IDX 83 35 50 36 34 37 35 38 43 39 36 40 37 41 41 42 44 43 38 44
REMARK SMILES IDX 39 45 42 46 40 47 66 48 67 49 75 50 68 51 69 52 73 53 76 54
REMARK SMILES IDX 70 55 71 56 74 57 72 58 51 59 52 60 60 61 53 62 54 63 58 64
REMARK SMILES IDX 61 65 55 66 56 67 59 68 57 69 5 70 6 71 7 72 8 73 9 74 10 75
REMARK SMILES IDX 11 76 12 78 13 79 14 81 15 82 16 83 24 84 17 85 19 86 23 87
REMARK SMILES IDX 18 88 20 89 22 90 21 91
REMARK H PARENT 81 22 49 33 11 77 12 80
REMARK Flexibility Score: inf
ROOT
ATOM      1  C   UNL     1       0.463  11.501  -2.846  1.00  0.00     0.275 C 
ENDROOT
BRANCH   1   2
ATOM      2  O   UNL     1       0.350  11.499  -1.415  1.00  0.00    -0.458 OA
BRANCH   2   3
ATOM      3  C   UNL     1      -0.678  11.154  -0.609  1.00  0.00     0.338 C 
ATOM      4  O   UNL     1      -0.511  11.259   0.607  1.00  0.00    -0.246 OA
BRANCH   3   5
ATOM      5  C   UNL     1      -1.950  10.497  -1.072  1.00  0.00     0.060 A 
ATOM      6  C   UNL     1      -2.470  10.468  -2.370  1.00  0.00     0.016 A 
ATOM      7  C   UNL     1      -2.626   9.751  -0.086  1.00  0.00     0.016 A 
ATOM      8  C   UNL     1      -3.562   9.644  -2.697  1.00  0.00     0.010 A 
ATOM      9  C   UNL     1      -3.662   8.876  -0.420  1.00  0.00     0.010 A 
ATOM     10  C   UNL     1      -4.147   8.821  -1.732  1.00  0.00    -0.014 A 
BRANCH  10  11
ATOM     11  C   UNL     1      -5.368   8.031  -2.027  1.00  0.00     0.031 A 
ATOM     12  C   UNL     1      -6.654   8.508  -1.413  1.00  0.00     0.074 A 
ATOM     13  C   UNL     1      -5.348   6.907  -2.772  1.00  0.00     0.049 A 
ATOM     14  N   UNL     1      -7.868   8.051  -1.565  1.00  0.00    -0.248 NA
ATOM     15  C   UNL     1      -6.555   9.650  -0.486  1.00  0.00     0.031 C 
ATOM     16  C   UNL     1      -4.167   6.303  -3.383  1.00  0.00     0.029 A 
ATOM     17  N   UNL     1      -6.363   6.049  -3.123  1.00  0.00    -0.354 N 
ATOM     18  C   UNL     1      -8.667   8.875  -0.787  1.00  0.00     0.074 A 
ATOM     19  C   UNL     1      -7.795   9.755  -0.048  1.00  0.00     0.031 C 
ATOM     20  C   UNL     1      -4.509   5.154  -3.992  1.00  0.00     0.029 A 
ATOM     21  C   UNL     1      -5.946   4.961  -3.856  1.00  0.00     0.049 A 
ATOM     22  H   UNL     1      -7.303   6.199  -2.873  1.00  0.00     0.167 HD
ATOM     23  C   UNL     1     -10.015   8.957  -0.757  1.00  0.00     0.037 A 
ATOM     24  C   UNL     1      -6.655   3.946  -4.385  1.00  0.00     0.037 A 
ATOM     25  C   UNL     1     -10.873   8.070  -1.482  1.00  0.00     0.049 A 
ATOM     26  C   UNL     1      -8.157   3.997  -4.280  1.00  0.00     0.074 A 
ATOM     27  C   UNL     1     -12.251   8.062  -1.561  1.00  0.00     0.029 A 
ATOM     28  N   UNL     1     -10.414   7.005  -2.246  1.00  0.00    -0.354 N 
ATOM     29  N   UNL     1      -8.916   4.885  -3.683  1.00  0.00    -0.248 NA
ATOM     30  C   UNL     1      -8.905   2.942  -4.977  1.00  0.00     0.031 C 
ATOM     31  C   UNL     1     -12.629   6.962  -2.340  1.00  0.00     0.029 A 
ATOM     32  C   UNL     1     -11.484   6.317  -2.786  1.00  0.00     0.049 A 
ATOM     33  H   UNL     1      -9.467   6.774  -2.383  1.00  0.00     0.167 HD
ATOM     34  C   UNL     1     -10.224   4.540  -3.991  1.00  0.00     0.074 A 
ATOM     35  C   UNL     1     -10.155   3.352  -4.818  1.00  0.00     0.031 C 
ATOM     36  C   UNL     1     -11.377   5.161  -3.640  1.00  0.00     0.037 A 
BRANCH  23  37
ATOM     37  C   UNL     1     -10.587  10.071   0.067  1.00  0.00     0.064 A 
ATOM     38  C   UNL     1     -10.390  11.415  -0.301  1.00  0.00     0.173 A 
ATOM     39  C   UNL     1     -11.234   9.810   1.280  1.00  0.00     0.173 A 
ATOM     40  F   UNL     1      -9.746  11.717  -1.440  1.00  0.00    -0.203 F 
ATOM     41  C   UNL     1     -10.761  12.452   0.549  1.00  0.00     0.198 A 
ATOM     42  C   UNL     1     -11.635  10.853   2.112  1.00  0.00     0.198 A 
ATOM     43  F   UNL     1     -11.440   8.547   1.680  1.00  0.00    -0.203 F 
ATOM     44  F   UNL     1     -10.470  13.720   0.223  1.00  0.00    -0.200 F 
ATOM     45  C   UNL     1     -11.382  12.170   1.755  1.00  0.00     0.200 A 
ATOM     46  F   UNL     1     -12.235  10.583   3.279  1.00  0.00    -0.200 F 
ATOM     47  F   UNL     1     -11.713  13.168   2.587  1.00  0.00    -0.200 F 
ENDBRANCH  23  37
BRANCH  24  48
ATOM     48  C   UNL     1      -5.983   2.866  -5.160  1.00  0.00     0.064 A 
ATOM     49  C   UNL     1      -6.104   2.802  -6.556  1.00  0.00     0.173 A 
ATOM     50  C   UNL     1      -5.246   1.854  -4.527  1.00  0.00     0.173 A 
ATOM     51  F   UNL     1      -6.817   3.733  -7.208  1.00  0.00    -0.203 F 
ATOM     52  C   UNL     1      -5.548   1.752  -7.285  1.00  0.00     0.198 A 
ATOM     53  C   UNL     1      -4.670   0.814  -5.260  1.00  0.00     0.198 A 
ATOM     54  F   UNL     1      -5.106   1.860  -3.194  1.00  0.00    -0.203 F 
ATOM     55  F   UNL     1      -5.733   1.688  -8.611  1.00  0.00    -0.200 F 
ATOM     56  C   UNL     1      -4.830   0.759  -6.637  1.00  0.00     0.200 A 
ATOM     57  F   UNL     1      -3.981  -0.149  -4.632  1.00  0.00    -0.200 F 
ATOM     58  F   UNL     1      -4.311  -0.260  -7.337  1.00  0.00    -0.200 F 
ENDBRANCH  24  48
BRANCH  36  59
ATOM     59  C   UNL     1     -12.652   4.620  -4.212  1.00  0.00     0.064 A 
ATOM     60  C   UNL     1     -13.200   3.405  -3.782  1.00  0.00     0.173 A 
ATOM     61  C   UNL     1     -13.366   5.372  -5.158  1.00  0.00     0.173 A 
ATOM     62  F   UNL     1     -12.547   2.646  -2.890  1.00  0.00    -0.203 F 
ATOM     63  C   UNL     1     -14.412   2.951  -4.295  1.00  0.00     0.198 A 
ATOM     64  C   UNL     1     -14.592   4.932  -5.641  1.00  0.00     0.198 A 
ATOM     65  F   UNL     1     -12.883   6.546  -5.594  1.00  0.00    -0.203 F 
ATOM     66  F   UNL     1     -14.900   1.766  -3.903  1.00  0.00    -0.200 F 
ATOM     67  C   UNL     1     -15.112   3.720  -5.214  1.00  0.00     0.200 A 
ATOM     68  F   UNL     1     -15.275   5.685  -6.515  1.00  0.00    -0.200 F 
ATOM     69  F   UNL     1     -16.287   3.289  -5.691  1.00  0.00    -0.200 F 
ENDBRANCH  36  59
ENDBRANCH  10  11
ENDBRANCH   3   5
ENDBRANCH   2   3
ENDBRANCH   1   2
BRANCH   1  70
ATOM     70  C   UNL     1       0.832  10.144  -3.452  1.00  0.00     0.274 C 
BRANCH  70  71
ATOM     71  O   UNL     1       0.380   9.028  -2.664  1.00  0.00    -0.460 OA
BRANCH  71  72
ATOM     72  C   UNL     1       1.349   8.326  -1.997  1.00  0.00     0.331 C 
ATOM     73  O   UNL     1       2.552   8.576  -2.070  1.00  0.00    -0.250 OA
BRANCH  72  74
ATOM     74  C   UNL     1       0.793   7.101  -1.251  1.00  0.00     0.218 C 
BRANCH  74  75
ATOM     75  C   UNL     1      -0.645   7.314  -0.801  1.00  0.00     0.193 C 
BRANCH  75  76
ATOM     76  O   UNL     1      -1.514   7.301  -1.924  1.00  0.00    -0.394 OA
ATOM     77  H   UNL     1      -1.266   8.014  -2.533  1.00  0.00     0.210 HD
ENDBRANCH  75  76
ENDBRANCH  74  75
BRANCH  74  78
ATOM     78  N   UNL     1       0.860   5.889  -2.060  1.00  0.00    -0.340 N 
ATOM     79  C   UNL     1       0.564   4.619  -1.655  1.00  0.00     0.228 C 
ATOM     80  H   UNL     1       1.149   5.999  -2.995  1.00  0.00     0.164 HD
ATOM     81  O   UNL     1      -0.080   3.968  -2.485  1.00  0.00    -0.274 OA
BRANCH  79  82
ATOM     82  C   UNL     1       1.156   3.998  -0.346  1.00  0.00     0.109 C 
ATOM     83  C   UNL     1       1.044   4.871   0.920  1.00  0.00     0.018 C 
ATOM     84  C   UNL     1       0.644   2.569  -0.113  1.00  0.00    -0.032 A 
ATOM     85  C   UNL     1       1.080   4.112   2.236  1.00  0.00     0.006 C 
ATOM     86  C   UNL     1       0.065   2.163   1.106  1.00  0.00    -0.044 A 
ATOM     87  C   UNL     1       0.794   1.608  -1.130  1.00  0.00     0.005 A 
ATOM     88  C   UNL     1      -0.059   3.110   2.267  1.00  0.00     0.036 C 
ATOM     89  C   UNL     1      -0.417   0.853   1.252  1.00  0.00     0.004 A 
ATOM     90  C   UNL     1       0.322   0.306  -0.972  1.00  0.00     0.000 A 
ATOM     91  C   UNL     1      -0.291  -0.069   0.217  1.00  0.00     0.000 A 
ENDBRANCH  79  82
ENDBRANCH  74  78
ENDBRANCH  72  74
ENDBRANCH  71  72
ENDBRANCH  70  71
ENDBRANCH   1  70
TORSDOF 15
