REMARK SMILES COC(=O)[C@@H]1CCN(S(=O)(=O)N2CCC(C(=O)OCCOC(=O)c3ccc(-c4c5nc(c(-c6c(F)c(F)c(F)c(F)c6F)c6ccc([nH]6)c(-c6c(F)c(F)c(F)c(F)c6F)c6nc(c(-c7c(F)c(F)c(F)c(F)c7F)c7ccc4[nH]7)C=C6)C=C5)cc3)CC2)C1
REMARK SMILES IDX 19 1 18 2 16 3 17 4 15 5 12 6 13 7 88 8 14 9 87 10 9 11
REMARK SMILES IDX 10 12 11 13 8 14 5 15 6 16 89 17 7 18 3 19 4 20 2 21 1 22
REMARK SMILES IDX 20 23 21 24 22 25 23 26 24 27 25 28 86 29 26 30 85 31 27 32
REMARK SMILES IDX 28 33 29 34 79 35 30 36 84 37 78 38 80 39 31 40 83 41 77 42
REMARK SMILES IDX 76 43 32 45 64 46 44 47 63 48 45 49 48 50 62 51 81 52 46 53
REMARK SMILES IDX 47 54 61 56 82 57 49 58 33 59 34 60 42 61 35 62 36 63 40 64
REMARK SMILES IDX 43 65 37 66 38 67 41 68 39 69 65 70 66 71 74 72 67 73 68 74
REMARK SMILES IDX 72 75 75 76 69 77 70 78 73 79 71 80 50 81 51 82 59 83 52 84
REMARK SMILES IDX 53 85 57 86 60 87 54 88 55 89 58 90 56 91
REMARK H PARENT 80 44 48 55
REMARK Flexibility Score: inf
ROOT
ATOM      1  C   UNL     1      -3.175 -11.515   2.601  1.00  0.00     0.274 C 
ENDROOT
BRANCH   1   2
ATOM      2  O   UNL     1      -2.555 -10.653   1.629  1.00  0.00    -0.462 OA
BRANCH   2   3
ATOM      3  C   UNL     1      -2.300  -9.402   2.070  1.00  0.00     0.309 C 
ATOM      4  O   UNL     1      -2.619  -8.963   3.171  1.00  0.00    -0.252 OA
BRANCH   3   5
ATOM      5  C   UNL     1      -1.611  -8.529   1.060  1.00  0.00     0.102 C 
ATOM      6  N   UNL     1      -0.889  -7.139  -1.328  1.00  0.00    -0.189 NA
ATOM      7  C   UNL     1       0.100  -8.062  -0.723  1.00  0.00     0.104 C 
ATOM      8  C   UNL     1      -1.914  -6.622  -0.407  1.00  0.00     0.104 C 
ATOM      9  C   UNL     1      -0.613  -9.159   0.091  1.00  0.00     0.032 C 
ATOM     10  C   UNL     1      -2.651  -7.744   0.281  1.00  0.00     0.032 C 
BRANCH   6  11
ATOM     11  S   UNL     1      -0.378  -6.137  -2.582  1.00  0.00     0.281 S 
ATOM     12  O   UNL     1      -1.557  -5.589  -3.217  1.00  0.00    -0.195 OA
ATOM     13  O   UNL     1       0.607  -6.851  -3.359  1.00  0.00    -0.195 OA
BRANCH  11  14
ATOM     14  N   UNL     1       0.431  -4.840  -1.815  1.00  0.00    -0.188 NA
ATOM     15  C   UNL     1       0.276  -2.549  -2.695  1.00  0.00     0.116 C 
ATOM     16  C   UNL     1      -0.913  -2.884  -1.813  1.00  0.00     0.033 C 
ATOM     17  C   UNL     1       1.053  -3.871  -2.817  1.00  0.00     0.118 C 
ATOM     18  C   UNL     1      -0.329  -3.946  -0.911  1.00  0.00     0.104 C 
BRANCH  15  19
ATOM     19  C   UNL     1       1.134  -1.430  -2.129  1.00  0.00     0.310 C 
ATOM     20  O   UNL     1       2.019  -0.869  -2.760  1.00  0.00    -0.252 OA
BRANCH  19  21
ATOM     21  O   UNL     1       0.770  -1.115  -0.855  1.00  0.00    -0.469 OA
ATOM     22  C   UNL     1       1.361   0.058  -0.300  1.00  0.00     0.282 C 
ENDBRANCH  19  21
ENDBRANCH  15  19
ENDBRANCH  11  14
ENDBRANCH   6  11
ENDBRANCH   3   5
ENDBRANCH   2   3
ENDBRANCH   1   2
BRANCH   1  23
ATOM     23  C   UNL     1      -2.134 -12.325   3.379  1.00  0.00     0.275 C 
BRANCH  23  24
ATOM     24  O   UNL     1      -1.299 -11.495   4.215  1.00  0.00    -0.458 OA
BRANCH  24  25
ATOM     25  C   UNL     1      -0.144 -11.088   3.640  1.00  0.00     0.338 C 
ATOM     26  O   UNL     1       0.260 -11.360   2.521  1.00  0.00    -0.246 OA
BRANCH  25  27
ATOM     27  C   UNL     1       0.582 -10.156   4.514  1.00  0.00     0.060 A 
ATOM     28  C   UNL     1       0.718  -8.827   4.104  1.00  0.00     0.016 A 
ATOM     29  C   UNL     1       1.274 -10.622   5.630  1.00  0.00     0.016 A 
ATOM     30  C   UNL     1       1.577  -7.965   4.777  1.00  0.00     0.010 A 
ATOM     31  C   UNL     1       2.122  -9.748   6.322  1.00  0.00     0.010 A 
ATOM     32  C   UNL     1       2.303  -8.424   5.882  1.00  0.00    -0.014 A 
BRANCH  32  33
ATOM     33  C   UNL     1       3.315  -7.543   6.517  1.00  0.00     0.031 A 
ATOM     34  C   UNL     1       4.777  -7.869   6.377  1.00  0.00     0.074 A 
ATOM     35  C   UNL     1       2.930  -6.445   7.193  1.00  0.00     0.049 A 
ATOM     36  N   UNL     1       5.814  -7.296   6.933  1.00  0.00    -0.248 NA
ATOM     37  C   UNL     1       5.116  -8.997   5.495  1.00  0.00     0.031 C 
ATOM     38  C   UNL     1       1.548  -5.992   7.351  1.00  0.00     0.029 A 
ATOM     39  N   UNL     1       3.668  -5.512   7.878  1.00  0.00    -0.354 N 
ATOM     40  C   UNL     1       6.923  -8.005   6.489  1.00  0.00     0.074 A 
ATOM     41  C   UNL     1       6.430  -9.071   5.642  1.00  0.00     0.031 C 
ATOM     42  C   UNL     1       1.537  -4.867   8.084  1.00  0.00     0.029 A 
ATOM     43  C   UNL     1       2.902  -4.553   8.495  1.00  0.00     0.049 A 
ATOM     44  H   UNL     1       4.651  -5.529   7.923  1.00  0.00     0.167 HD
ATOM     45  C   UNL     1       8.232  -7.781   6.756  1.00  0.00     0.037 A 
ATOM     46  C   UNL     1       3.260  -3.555   9.325  1.00  0.00     0.037 A 
ATOM     47  C   UNL     1       8.714  -6.712   7.593  1.00  0.00     0.049 A 
ATOM     48  C   UNL     1       4.716  -3.379   9.671  1.00  0.00     0.074 A 
ATOM     49  C   UNL     1      10.019  -6.399   7.930  1.00  0.00     0.029 A 
ATOM     50  N   UNL     1       7.905  -5.777   8.224  1.00  0.00    -0.354 N 
ATOM     51  N   UNL     1       5.757  -4.057   9.254  1.00  0.00    -0.248 NA
ATOM     52  C   UNL     1       5.045  -2.292  10.604  1.00  0.00     0.031 C 
ATOM     53  C   UNL     1       9.996  -5.310   8.808  1.00  0.00     0.029 A 
ATOM     54  C   UNL     1       8.682  -4.899   8.963  1.00  0.00     0.049 A 
ATOM     55  H   UNL     1       6.923  -5.743   8.157  1.00  0.00     0.167 HD
ATOM     56  C   UNL     1       6.865  -3.456   9.838  1.00  0.00     0.074 A 
ATOM     57  C   UNL     1       6.368  -2.350  10.630  1.00  0.00     0.031 C 
ATOM     58  C   UNL     1       8.175  -3.788   9.728  1.00  0.00     0.037 A 
BRANCH  45  59
ATOM     59  C   UNL     1       9.237  -8.728   6.162  1.00  0.00     0.064 A 
ATOM     60  C   UNL     1       9.500  -8.760   4.784  1.00  0.00     0.173 A 
ATOM     61  C   UNL     1       9.973  -9.592   6.987  1.00  0.00     0.173 A 
ATOM     62  F   UNL     1       8.817  -7.964   3.947  1.00  0.00    -0.203 F 
ATOM     63  C   UNL     1      10.439  -9.642   4.252  1.00  0.00     0.198 A 
ATOM     64  C   UNL     1      10.935 -10.448   6.457  1.00  0.00     0.198 A 
ATOM     65  F   UNL     1       9.768  -9.600   8.313  1.00  0.00    -0.203 F 
ATOM     66  F   UNL     1      10.634  -9.691   2.927  1.00  0.00    -0.200 F 
ATOM     67  C   UNL     1      11.161 -10.479   5.089  1.00  0.00     0.200 A 
ATOM     68  F   UNL     1      11.643 -11.244   7.270  1.00  0.00    -0.200 F 
ATOM     69  F   UNL     1      12.070 -11.320   4.577  1.00  0.00    -0.200 F 
ENDBRANCH  45  59
BRANCH  46  70
ATOM     70  C   UNL     1       2.228  -2.652   9.901  1.00  0.00     0.064 A 
ATOM     71  C   UNL     1       2.197  -1.290   9.572  1.00  0.00     0.173 A 
ATOM     72  C   UNL     1       1.274  -3.122  10.816  1.00  0.00     0.173 A 
ATOM     73  F   UNL     1       3.101  -0.786   8.718  1.00  0.00    -0.203 F 
ATOM     74  C   UNL     1       1.271  -0.428  10.156  1.00  0.00     0.198 A 
ATOM     75  C   UNL     1       0.326  -2.266  11.373  1.00  0.00     0.198 A 
ATOM     76  F   UNL     1       1.257  -4.417  11.165  1.00  0.00    -0.203 F 
ATOM     77  F   UNL     1       1.303   0.880   9.868  1.00  0.00    -0.200 F 
ATOM     78  C   UNL     1       0.333  -0.917  11.052  1.00  0.00     0.200 A 
ATOM     79  F   UNL     1      -0.589  -2.747  12.225  1.00  0.00    -0.200 F 
ATOM     80  F   UNL     1      -0.556  -0.088  11.614  1.00  0.00    -0.200 F 
ENDBRANCH  46  70
BRANCH  58  81
ATOM     81  C   UNL     1       9.172  -2.902  10.421  1.00  0.00     0.064 A 
ATOM     82  C   UNL     1       9.283  -2.854  11.818  1.00  0.00     0.173 A 
ATOM     83  C   UNL     1      10.050  -2.107   9.666  1.00  0.00     0.173 A 
ATOM     84  F   UNL     1       8.459  -3.582  12.587  1.00  0.00    -0.203 F 
ATOM     85  C   UNL     1      10.209  -2.016  12.435  1.00  0.00     0.198 A 
ATOM     86  C   UNL     1      11.001  -1.300  10.285  1.00  0.00     0.198 A 
ATOM     87  F   UNL     1       9.994  -2.121   8.326  1.00  0.00    -0.203 F 
ATOM     88  F   UNL     1      10.254  -1.940  13.772  1.00  0.00    -0.200 F 
ATOM     89  C   UNL     1      11.072  -1.247  11.668  1.00  0.00     0.200 A 
ATOM     90  F   UNL     1      11.845  -0.572   9.542  1.00  0.00    -0.200 F 
ATOM     91  F   UNL     1      11.967  -0.446  12.264  1.00  0.00    -0.200 F 
ENDBRANCH  58  81
ENDBRANCH  32  33
ENDBRANCH  25  27
ENDBRANCH  24  25
ENDBRANCH  23  24
ENDBRANCH   1  23
TORSDOF 15
