REMARK SMILES O=C(C[C@]1(C(=O)NC2CCCCC2)CC(c2ccc([N+](=O)[O-])cc2)=NO1)OCCOC(=O)c1ccc(-c2c3nc(c(-c4c(F)c(F)c(F)c(F)c4F)c4ccc([nH]4)c(-c4c(F)c(F)c(F)c(F)c4F)c4nc(c(-c5c(F)c(F)c(F)c(F)c5F)c5ccc2[nH]5)C=C4)C=C3)cc1
REMARK SMILES IDX 28 1 27 2 2 3 1 4 3 5 4 6 14 7 26 8 15 9 25 10 5 11 6 12
REMARK SMILES IDX 7 13 8 15 9 16 13 17 10 18 12 19 11 20 16 21 17 22 24 23
REMARK SMILES IDX 18 24 23 25 19 26 20 27 21 28 22 29 29 30 30 31 31 32 32 33
REMARK SMILES IDX 33 34 34 35 95 36 35 37 94 38 36 39 37 40 38 41 88 42 39 43
REMARK SMILES IDX 93 44 87 45 89 46 40 47 92 48 86 49 85 50 41 52 73 53 53 54
REMARK SMILES IDX 72 55 54 56 57 57 71 58 90 59 55 60 56 61 70 63 91 64 58 65
REMARK SMILES IDX 42 66 43 67 51 68 44 69 45 70 49 71 52 72 46 73 47 74 50 75
REMARK SMILES IDX 48 76 74 77 75 78 83 79 76 80 77 81 81 82 84 83 78 84 79 85
REMARK SMILES IDX 82 86 80 87 59 88 60 89 68 90 61 91 62 92 66 93 69 94 63 95
REMARK SMILES IDX 64 96 67 97 65 98
REMARK H PARENT 7 14 89 51 57 62
REMARK Flexibility Score: inf
ROOT
ATOM      1  C   UNL     1       1.772   1.128  -2.785  1.00  0.00     0.274 C 
ENDROOT
BRANCH   1   2
ATOM      2  O   UNL     1       3.147   1.192  -3.584  1.00  0.00    -0.462 OA
BRANCH   2   3
ATOM      3  C   UNL     1       4.386   0.646  -3.496  1.00  0.00     0.310 C 
ATOM      4  O   UNL     1       5.294   1.148  -4.160  1.00  0.00    -0.252 OA
BRANCH   3   5
ATOM      5  C   UNL     1       4.673  -0.602  -2.675  1.00  0.00     0.185 C 
BRANCH   5   6
ATOM      6  C   UNL     1       4.816  -0.403  -1.189  1.00  0.00     0.231 C 
ATOM      7  C   UNL     1       5.032   1.000  -0.689  1.00  0.00     0.123 C 
ATOM      8  O   UNL     1       6.068  -1.052  -0.828  1.00  0.00    -0.378 OA
ATOM      9  C   UNL     1       6.484   1.048  -1.002  1.00  0.00     0.092 C 
ATOM     10  N   UNL     1       7.083  -0.097  -1.055  1.00  0.00    -0.089 NA
BRANCH   6  11
ATOM     11  C   UNL     1       3.767  -1.116  -0.373  1.00  0.00     0.268 C 
ATOM     12  O   UNL     1       4.021  -1.644   0.715  1.00  0.00    -0.270 OA
ATOM     13  N   UNL     1       2.481  -1.197  -0.744  1.00  0.00    -0.350 N 
ATOM     14  H   UNL     1       2.003  -1.784  -0.114  1.00  0.00     0.163 HD
BRANCH  13  15
ATOM     15  C   UNL     1       1.539  -0.721  -1.755  1.00  0.00     0.082 C 
ATOM     16  C   UNL     1       0.491   0.755  -1.049  1.00  0.00     0.025 C 
ATOM     17  C   UNL     1       1.911  -0.712  -3.712  1.00  0.00     0.025 C 
ATOM     18  C   UNL     1      -0.223   2.072  -2.225  1.00  0.00     0.002 C 
ATOM     19  C   UNL     1       1.203   0.688  -4.854  1.00  0.00     0.002 C 
ATOM     20  C   UNL     1       0.154   2.056  -4.077  1.00  0.00     0.000 C 
ENDBRANCH  13  15
ENDBRANCH   6  11
BRANCH   9  21
ATOM     21  C   UNL     1       7.134   2.313  -1.286  1.00  0.00    -0.000 A 
ATOM     22  C   UNL     1       7.933   2.418  -2.427  1.00  0.00     0.017 A 
ATOM     23  C   UNL     1       6.931   3.388  -0.423  1.00  0.00     0.017 A 
ATOM     24  C   UNL     1       8.575   3.622  -2.697  1.00  0.00     0.086 A 
ATOM     25  C   UNL     1       7.584   4.587  -0.679  1.00  0.00     0.086 A 
ATOM     26  C   UNL     1       8.415   4.695  -1.807  1.00  0.00     0.269 A 
BRANCH  26  27
ATOM     27  N   UNL     1       9.146   5.944  -2.040  1.00  0.00     0.062 N 
ATOM     28  O   UNL     1       9.877   6.007  -3.037  1.00  0.00    -0.258 OA
ATOM     29  O   UNL     1       8.995   6.858  -1.217  1.00  0.00    -0.258 OA
ENDBRANCH  26  27
ENDBRANCH   9  21
ENDBRANCH   5   6
ENDBRANCH   3   5
ENDBRANCH   2   3
ENDBRANCH   1   2
BRANCH   1  30
ATOM     30  C   UNL     1       0.025  -0.011  -3.138  1.00  0.00     0.275 C 
BRANCH  30  31
ATOM     31  O   UNL     1      -0.120  -1.712  -3.043  1.00  0.00    -0.458 OA
BRANCH  31  32
ATOM     32  C   UNL     1      -0.203  -2.700  -3.995  1.00  0.00     0.338 C 
ATOM     33  O   UNL     1      -0.865  -2.611  -5.017  1.00  0.00    -0.246 OA
BRANCH  32  34
ATOM     34  C   UNL     1       0.970  -3.709  -3.858  1.00  0.00     0.060 A 
ATOM     35  C   UNL     1       2.037  -3.615  -4.793  1.00  0.00     0.016 A 
ATOM     36  C   UNL     1       1.085  -4.693  -2.875  1.00  0.00     0.016 A 
ATOM     37  C   UNL     1       3.193  -4.414  -4.730  1.00  0.00     0.010 A 
ATOM     38  C   UNL     1       2.194  -5.591  -2.890  1.00  0.00     0.010 A 
ATOM     39  C   UNL     1       3.243  -5.479  -3.833  1.00  0.00    -0.014 A 
BRANCH  39  40
ATOM     40  C   UNL     1       4.128  -6.652  -4.151  1.00  0.00     0.031 A 
ATOM     41  C   UNL     1       3.570  -7.671  -5.122  1.00  0.00     0.074 A 
ATOM     42  C   UNL     1       5.376  -6.846  -3.676  1.00  0.00     0.049 A 
ATOM     43  N   UNL     1       3.984  -8.877  -5.420  1.00  0.00    -0.248 NA
ATOM     44  C   UNL     1       2.366  -7.257  -5.859  1.00  0.00     0.031 C 
ATOM     45  C   UNL     1       6.142  -5.905  -2.866  1.00  0.00     0.029 A 
ATOM     46  N   UNL     1       6.216  -7.936  -3.801  1.00  0.00    -0.354 N 
ATOM     47  C   UNL     1       3.063  -9.375  -6.336  1.00  0.00     0.074 A 
ATOM     48  C   UNL     1       2.082  -8.340  -6.559  1.00  0.00     0.031 C 
ATOM     49  C   UNL     1       7.314  -6.475  -2.523  1.00  0.00     0.029 A 
ATOM     50  C   UNL     1       7.360  -7.845  -3.041  1.00  0.00     0.049 A 
ATOM     51  H   UNL     1       6.015  -8.706  -4.381  1.00  0.00     0.167 HD
ATOM     52  C   UNL     1       3.017 -10.594  -6.924  1.00  0.00     0.037 A 
ATOM     53  C   UNL     1       8.300  -8.773  -2.748  1.00  0.00     0.037 A 
ATOM     54  C   UNL     1       3.984 -11.633  -6.701  1.00  0.00     0.049 A 
ATOM     55  C   UNL     1       8.179 -10.173  -3.313  1.00  0.00     0.074 A 
ATOM     56  C   UNL     1       4.011 -12.914  -7.222  1.00  0.00     0.029 A 
ATOM     57  N   UNL     1       5.096 -11.508  -5.882  1.00  0.00    -0.354 N 
ATOM     58  N   UNL     1       7.270 -10.667  -4.120  1.00  0.00    -0.248 NA
ATOM     59  C   UNL     1       9.207 -11.150  -2.915  1.00  0.00     0.031 C 
ATOM     60  C   UNL     1       5.105 -13.586  -6.669  1.00  0.00     0.029 A 
ATOM     61  C   UNL     1       5.802 -12.699  -5.863  1.00  0.00     0.049 A 
ATOM     62  H   UNL     1       5.345 -10.695  -5.387  1.00  0.00     0.167 HD
ATOM     63  C   UNL     1       7.635 -11.989  -4.354  1.00  0.00     0.074 A 
ATOM     64  C   UNL     1       8.848 -12.227  -3.602  1.00  0.00     0.031 C 
ATOM     65  C   UNL     1       7.023 -12.919  -5.129  1.00  0.00     0.037 A 
BRANCH  52  66
ATOM     66  C   UNL     1       1.825 -10.892  -7.790  1.00  0.00     0.064 A 
ATOM     67  C   UNL     1       1.619 -10.261  -9.026  1.00  0.00     0.173 A 
ATOM     68  C   UNL     1       0.856 -11.810  -7.355  1.00  0.00     0.173 A 
ATOM     69  F   UNL     1       2.500  -9.356  -9.478  1.00  0.00    -0.203 F 
ATOM     70  C   UNL     1       0.469 -10.507  -9.773  1.00  0.00     0.198 A 
ATOM     71  C   UNL     1      -0.273 -12.082  -8.122  1.00  0.00     0.198 A 
ATOM     72  F   UNL     1       1.001 -12.441  -6.180  1.00  0.00    -0.203 F 
ATOM     73  F   UNL     1       0.257  -9.838 -10.915  1.00  0.00    -0.200 F 
ATOM     74  C   UNL     1      -0.473 -11.421  -9.323  1.00  0.00     0.200 A 
ATOM     75  F   UNL     1      -1.175 -12.975  -7.690  1.00  0.00    -0.200 F 
ATOM     76  F   UNL     1      -1.581 -11.653 -10.040  1.00  0.00    -0.200 F 
ENDBRANCH  52  66
BRANCH  53  77
ATOM     77  C   UNL     1       9.416  -8.438  -1.815  1.00  0.00     0.064 A 
ATOM     78  C   UNL     1      10.748  -8.389  -2.253  1.00  0.00     0.173 A 
ATOM     79  C   UNL     1       9.175  -8.186  -0.455  1.00  0.00     0.173 A 
ATOM     80  F   UNL     1      11.044  -8.673  -3.530  1.00  0.00    -0.203 F 
ATOM     81  C   UNL     1      11.790  -8.096  -1.371  1.00  0.00     0.198 A 
ATOM     82  C   UNL     1      10.213  -7.864   0.419  1.00  0.00     0.198 A 
ATOM     83  F   UNL     1       7.925  -8.251   0.028  1.00  0.00    -0.203 F 
ATOM     84  F   UNL     1      13.057  -8.098  -1.809  1.00  0.00    -0.200 F 
ATOM     85  C   UNL     1      11.520  -7.822  -0.039  1.00  0.00     0.200 A 
ATOM     86  F   UNL     1       9.947  -7.603   1.706  1.00  0.00    -0.200 F 
ATOM     87  F   UNL     1      12.520  -7.532   0.805  1.00  0.00    -0.200 F 
ENDBRANCH  53  77
BRANCH  65  88
ATOM     88  C   UNL     1       7.677 -14.265  -5.276  1.00  0.00     0.064 A 
ATOM     89  C   UNL     1       7.683 -15.209  -4.239  1.00  0.00     0.173 A 
ATOM     90  C   UNL     1       8.233 -14.643  -6.509  1.00  0.00     0.173 A 
ATOM     91  F   UNL     1       7.171 -14.898  -3.039  1.00  0.00    -0.203 F 
ATOM     92  C   UNL     1       8.234 -16.475  -4.428  1.00  0.00     0.198 A 
ATOM     93  C   UNL     1       8.755 -15.919  -6.703  1.00  0.00     0.198 A 
ATOM     94  F   UNL     1       8.242 -13.782  -7.538  1.00  0.00    -0.203 F 
ATOM     95  F   UNL     1       8.259 -17.351  -3.413  1.00  0.00    -0.200 F 
ATOM     96  C   UNL     1       8.760 -16.832  -5.661  1.00  0.00     0.200 A 
ATOM     97  F   UNL     1       9.244 -16.266  -7.902  1.00  0.00    -0.200 F 
ATOM     98  F   UNL     1       9.273 -18.057  -5.845  1.00  0.00    -0.200 F 
ENDBRANCH  65  88
ENDBRANCH  39  40
ENDBRANCH  32  34
ENDBRANCH  31  32
ENDBRANCH  30  31
ENDBRANCH   1  30
TORSDOF 16
