REMARK SMILES CC(=O)Oc1ccccc1SCCCCCC(=O)OCCOC(=O)c1ccc(-c2c3nc(c(-c4c(F)c(F)c(F)c(F)c4F)c4ccc([nH]4)c(-c4c(F)c(F)c(F)c(F)c4F)c4nc(c(-c5c(F)c(F)c(F)c(F)c5F)c5ccc2[nH]5)C=C4)C=C3)cc1
REMARK SMILES IDX 16 1 15 2 14 3 13 4 12 5 11 6 10 7 5 8 6 9 7 10 9 11 8 12
REMARK SMILES IDX 4 13 2 14 1 15 3 16 17 17 18 18 19 19 20 20 21 21 22 22
REMARK SMILES IDX 23 23 24 24 25 25 26 26 87 27 27 28 86 29 28 30 29 31 30 32
REMARK SMILES IDX 80 33 31 34 85 35 79 36 81 37 32 38 84 39 78 40 77 41 33 43
REMARK SMILES IDX 65 44 45 45 64 46 46 47 49 48 63 49 82 50 47 51 48 52 62 54
REMARK SMILES IDX 83 55 50 56 34 57 35 58 43 59 36 60 37 61 41 62 44 63 38 64
REMARK SMILES IDX 39 65 42 66 40 67 66 68 67 69 75 70 68 71 69 72 73 73 76 74
REMARK SMILES IDX 70 75 71 76 74 77 72 78 51 79 52 80 60 81 53 82 54 83 58 84
REMARK SMILES IDX 61 85 55 86 56 87 59 88 57 89
REMARK H PARENT 81 42 49 53
REMARK Flexibility Score: inf
ROOT
ATOM      1  C   UNL     1       2.399   0.079  -0.316  1.00  0.00     0.123 C 
ENDROOT
BRANCH   1   2
ATOM      2  C   UNL     1       2.189   0.392  -1.815  1.00  0.00     0.012 C 
BRANCH   2   3
ATOM      3  C   UNL     1       1.093  -0.380  -2.587  1.00  0.00     0.001 C 
BRANCH   3   4
ATOM      4  C   UNL     1      -0.246  -0.871  -2.000  1.00  0.00     0.011 C 
BRANCH   4   5
ATOM      5  C   UNL     1      -1.522  -0.059  -1.665  1.00  0.00     0.075 C 
BRANCH   5   6
ATOM      6  S   UNL     1      -2.506   1.069  -2.741  1.00  0.00    -0.122 SA
BRANCH   6   7
ATOM      7  C   UNL     1      -1.492   2.472  -3.152  1.00  0.00     0.050 A 
ATOM      8  C   UNL     1      -0.823   3.348  -2.284  1.00  0.00     0.144 A 
ATOM      9  C   UNL     1       0.106   4.274  -2.790  1.00  0.00     0.048 A 
ATOM     10  C   UNL     1       0.274   4.414  -4.170  1.00  0.00     0.004 A 
ATOM     11  C   UNL     1      -1.422   2.745  -4.529  1.00  0.00     0.019 A 
ATOM     12  C   UNL     1      -0.547   3.704  -5.039  1.00  0.00     0.001 A 
BRANCH   8  13
ATOM     13  O   UNL     1      -1.144   3.421  -0.911  1.00  0.00    -0.426 OA
BRANCH  13  14
ATOM     14  C   UNL     1      -0.422   2.508  -0.212  1.00  0.00     0.308 C 
ATOM     15  C   UNL     1      -0.739   2.368   1.228  1.00  0.00     0.139 C 
ATOM     16  O   UNL     1       0.442   1.794  -0.697  1.00  0.00    -0.252 OA
ENDBRANCH  13  14
ENDBRANCH   8  13
ENDBRANCH   6   7
ENDBRANCH   5   6
ENDBRANCH   4   5
ENDBRANCH   3   4
ENDBRANCH   2   3
ENDBRANCH   1   2
BRANCH   1  17
ATOM     17  C   UNL     1       3.647  -0.722  -0.059  1.00  0.00     0.305 C 
ATOM     18  O   UNL     1       4.412  -0.521   0.875  1.00  0.00    -0.252 OA
BRANCH  17  19
ATOM     19  O   UNL     1       3.819  -1.643  -1.040  1.00  0.00    -0.462 OA
BRANCH  19  20
ATOM     20  C   UNL     1       5.182  -1.941  -1.372  1.00  0.00     0.274 C 
BRANCH  20  21
ATOM     21  C   UNL     1       5.794  -0.789  -2.181  1.00  0.00     0.275 C 
BRANCH  21  22
ATOM     22  O   UNL     1       6.144   0.304  -1.304  1.00  0.00    -0.458 OA
BRANCH  22  23
ATOM     23  C   UNL     1       5.811   1.541  -1.733  1.00  0.00     0.338 C 
ATOM     24  O   UNL     1       5.288   1.847  -2.791  1.00  0.00    -0.246 OA
BRANCH  23  25
ATOM     25  C   UNL     1       6.188   2.552  -0.733  1.00  0.00     0.060 A 
ATOM     26  C   UNL     1       5.319   2.847   0.319  1.00  0.00     0.016 A 
ATOM     27  C   UNL     1       7.314   3.343  -0.961  1.00  0.00     0.016 A 
ATOM     28  C   UNL     1       5.534   3.989   1.095  1.00  0.00     0.010 A 
ATOM     29  C   UNL     1       7.563   4.447  -0.139  1.00  0.00     0.010 A 
ATOM     30  C   UNL     1       6.648   4.812   0.866  1.00  0.00    -0.014 A 
BRANCH  30  31
ATOM     31  C   UNL     1       6.815   6.099   1.602  1.00  0.00     0.031 A 
ATOM     32  C   UNL     1       6.838   7.402   0.840  1.00  0.00     0.074 A 
ATOM     33  C   UNL     1       6.940   6.112   2.944  1.00  0.00     0.049 A 
ATOM     34  N   UNL     1       7.134   8.610   1.255  1.00  0.00    -0.248 NA
ATOM     35  C   UNL     1       6.496   7.332  -0.590  1.00  0.00     0.031 C 
ATOM     36  C   UNL     1       6.895   4.933   3.808  1.00  0.00     0.029 A 
ATOM     37  N   UNL     1       7.138   7.155   3.816  1.00  0.00    -0.354 N 
ATOM     38  C   UNL     1       7.053   9.430   0.134  1.00  0.00     0.074 A 
ATOM     39  C   UNL     1       6.711   8.578  -0.985  1.00  0.00     0.031 C 
ATOM     40  C   UNL     1       7.046   5.317   5.085  1.00  0.00     0.029 A 
ATOM     41  C   UNL     1       7.276   6.757   5.124  1.00  0.00     0.049 A 
ATOM     42  H   UNL     1       7.178   8.097   3.532  1.00  0.00     0.167 HD
ATOM     43  C   UNL     1       7.236  10.771   0.048  1.00  0.00     0.037 A 
ATOM     44  C   UNL     1       7.597   7.463   6.225  1.00  0.00     0.037 A 
ATOM     45  C   UNL     1       7.548  11.616   1.173  1.00  0.00     0.049 A 
ATOM     46  C   UNL     1       7.844   8.943   6.096  1.00  0.00     0.074 A 
ATOM     47  C   UNL     1       7.757  12.984   1.198  1.00  0.00     0.029 A 
ATOM     48  N   UNL     1       7.687  11.169   2.480  1.00  0.00    -0.354 N 
ATOM     49  N   UNL     1       7.796   9.703   5.028  1.00  0.00    -0.248 NA
ATOM     50  C   UNL     1       8.189   9.663   7.329  1.00  0.00     0.031 C 
ATOM     51  C   UNL     1       8.070  13.357   2.510  1.00  0.00     0.029 A 
ATOM     52  C   UNL     1       7.989  12.233   3.316  1.00  0.00     0.049 A 
ATOM     53  H   UNL     1       7.586  10.234   2.771  1.00  0.00     0.167 HD
ATOM     54  C   UNL     1       8.075  10.992   5.463  1.00  0.00     0.074 A 
ATOM     55  C   UNL     1       8.267  10.913   6.897  1.00  0.00     0.031 C 
ATOM     56  C   UNL     1       8.166  12.138   4.743  1.00  0.00     0.037 A 
BRANCH  43  57
ATOM     57  C   UNL     1       7.130  11.405  -1.313  1.00  0.00     0.064 A 
ATOM     58  C   UNL     1       5.908  11.494  -1.999  1.00  0.00     0.173 A 
ATOM     59  C   UNL     1       8.264  11.955  -1.932  1.00  0.00     0.173 A 
ATOM     60  F   UNL     1       4.793  10.976  -1.462  1.00  0.00    -0.203 F 
ATOM     61  C   UNL     1       5.834  12.074  -3.264  1.00  0.00     0.198 A 
ATOM     62  C   UNL     1       8.180  12.566  -3.181  1.00  0.00     0.198 A 
ATOM     63  F   UNL     1       9.458  11.907  -1.321  1.00  0.00    -0.203 F 
ATOM     64  F   UNL     1       4.667  12.094  -3.923  1.00  0.00    -0.200 F 
ATOM     65  C   UNL     1       6.967  12.616  -3.850  1.00  0.00     0.200 A 
ATOM     66  F   UNL     1       9.274  13.104  -3.738  1.00  0.00    -0.200 F 
ATOM     67  F   UNL     1       6.892  13.179  -5.064  1.00  0.00    -0.200 F 
ENDBRANCH  43  57
BRANCH  44  68
ATOM     68  C   UNL     1       7.736   6.777   7.539  1.00  0.00     0.064 A 
ATOM     69  C   UNL     1       6.861   7.053   8.599  1.00  0.00     0.173 A 
ATOM     70  C   UNL     1       8.761   5.847   7.770  1.00  0.00     0.173 A 
ATOM     71  F   UNL     1       5.878   7.952   8.440  1.00  0.00    -0.203 F 
ATOM     72  C   UNL     1       7.022   6.447   9.844  1.00  0.00     0.198 A 
ATOM     73  C   UNL     1       8.897   5.212   9.003  1.00  0.00     0.198 A 
ATOM     74  F   UNL     1       9.626   5.543   6.791  1.00  0.00    -0.203 F 
ATOM     75  F   UNL     1       6.208   6.776  10.857  1.00  0.00    -0.200 F 
ATOM     76  C   UNL     1       8.035   5.522  10.043  1.00  0.00     0.200 A 
ATOM     77  F   UNL     1       9.867   4.305   9.183  1.00  0.00    -0.200 F 
ATOM     78  F   UNL     1       8.188   4.937  11.239  1.00  0.00    -0.200 F 
ENDBRANCH  44  68
BRANCH  56  79
ATOM     79  C   UNL     1       8.427  13.406   5.508  1.00  0.00     0.064 A 
ATOM     80  C   UNL     1       9.654  13.654   6.142  1.00  0.00     0.173 A 
ATOM     81  C   UNL     1       7.429  14.388   5.605  1.00  0.00     0.173 A 
ATOM     82  F   UNL     1      10.637  12.743   6.092  1.00  0.00    -0.203 F 
ATOM     83  C   UNL     1       9.855  14.816   6.883  1.00  0.00     0.198 A 
ATOM     84  C   UNL     1       7.648  15.566   6.313  1.00  0.00     0.198 A 
ATOM     85  F   UNL     1       6.240  14.207   5.010  1.00  0.00    -0.203 F 
ATOM     86  F   UNL     1      11.008  14.997   7.541  1.00  0.00    -0.200 F 
ATOM     87  C   UNL     1       8.854  15.773   6.963  1.00  0.00     0.200 A 
ATOM     88  F   UNL     1       6.686  16.498   6.374  1.00  0.00    -0.200 F 
ATOM     89  F   UNL     1       9.049  16.889   7.678  1.00  0.00    -0.200 F 
ENDBRANCH  56  79
ENDBRANCH  30  31
ENDBRANCH  23  25
ENDBRANCH  22  23
ENDBRANCH  21  22
ENDBRANCH  20  21
ENDBRANCH  19  20
ENDBRANCH  17  19
ENDBRANCH   1  17
TORSDOF 19
