REMARK SMILES O=C(OCCOC(=O)c1ccc(S(=O)(=O)Cc2cnoc2)c(F)c1)c1ccc(-c2c3nc(c(-c4c(F)c(F)c(F)c(F)c4F)c4ccc([nH]4)c(-c4c(F)c(F)c(F)c(F)c4F)c4nc(c(-c5c(F)c(F)c(F)c(F)c5F)c5ccc2[nH]5)C=C4)C=C3)cc1
REMARK SMILES IDX 5 1 4 2 3 3 2 4 1 5 25 6 26 7 87 8 27 9 86 10 28 11 29 12
REMARK SMILES IDX 30 13 80 14 31 15 85 16 79 17 81 18 32 19 84 20 78 21 77 22
REMARK SMILES IDX 33 24 65 25 45 26 64 27 46 28 49 29 63 30 82 31 47 32 48 33
REMARK SMILES IDX 62 35 83 36 50 37 34 38 35 39 43 40 36 41 37 42 41 43 44 44
REMARK SMILES IDX 38 45 39 46 42 47 40 48 66 49 67 50 75 51 68 52 69 53 73 54
REMARK SMILES IDX 76 55 70 56 71 57 74 58 72 59 51 60 52 61 60 62 53 63 54 64
REMARK SMILES IDX 58 65 61 66 55 67 56 68 59 69 57 70 6 71 7 72 8 73 9 74
REMARK SMILES IDX 10 75 24 76 11 77 22 78 12 79 23 80 13 81 14 82 15 83 16 84
REMARK SMILES IDX 17 85 18 86 21 87 19 88 20 89
REMARK H PARENT 81 23 49 34
REMARK Flexibility Score: inf
ROOT
ATOM      1  C   UNL     1       4.020   0.997  -2.007  1.00  0.00     0.275 C 
ENDROOT
BRANCH   1   2
ATOM      2  C   UNL     1       4.094  -0.460  -1.546  1.00  0.00     0.275 C 
BRANCH   2   3
ATOM      3  O   UNL     1       2.970  -0.887  -0.756  1.00  0.00    -0.458 OA
BRANCH   3   4
ATOM      4  C   UNL     1       2.856  -0.972   0.590  1.00  0.00     0.338 C 
ATOM      5  O   UNL     1       1.989  -1.697   1.075  1.00  0.00    -0.246 OA
BRANCH   4   6
ATOM      6  C   UNL     1       3.597  -0.075   1.529  1.00  0.00     0.060 A 
ATOM      7  C   UNL     1       4.924   0.332   1.395  1.00  0.00     0.016 A 
ATOM      8  C   UNL     1       2.887   0.350   2.670  1.00  0.00     0.016 A 
ATOM      9  C   UNL     1       5.509   1.181   2.339  1.00  0.00     0.010 A 
ATOM     10  C   UNL     1       3.457   1.218   3.605  1.00  0.00     0.010 A 
ATOM     11  C   UNL     1       4.783   1.623   3.449  1.00  0.00    -0.014 A 
BRANCH  11  12
ATOM     12  C   UNL     1       5.490   2.368   4.512  1.00  0.00     0.031 A 
ATOM     13  C   UNL     1       5.961   1.616   5.721  1.00  0.00     0.074 A 
ATOM     14  C   UNL     1       5.793   3.667   4.347  1.00  0.00     0.049 A 
ATOM     15  N   UNL     1       6.740   2.014   6.691  1.00  0.00    -0.248 NA
ATOM     16  C   UNL     1       5.516   0.217   5.839  1.00  0.00     0.031 C 
ATOM     17  C   UNL     1       5.411   4.479   3.194  1.00  0.00     0.029 A 
ATOM     18  N   UNL     1       6.510   4.526   5.140  1.00  0.00    -0.354 N 
ATOM     19  C   UNL     1       6.912   0.907   7.508  1.00  0.00     0.074 A 
ATOM     20  C   UNL     1       6.105  -0.161   6.962  1.00  0.00     0.031 C 
ATOM     21  C   UNL     1       5.892   5.723   3.355  1.00  0.00     0.029 A 
ATOM     22  C   UNL     1       6.621   5.791   4.620  1.00  0.00     0.049 A 
ATOM     23  H   UNL     1       6.906   4.260   6.001  1.00  0.00     0.167 HD
ATOM     24  C   UNL     1       7.702   0.783   8.598  1.00  0.00     0.037 A 
ATOM     25  C   UNL     1       7.257   6.874   5.106  1.00  0.00     0.037 A 
ATOM     26  C   UNL     1       8.468   1.861   9.159  1.00  0.00     0.049 A 
ATOM     27  C   UNL     1       8.050   6.740   6.378  1.00  0.00     0.074 A 
ATOM     28  C   UNL     1       9.270   1.858  10.284  1.00  0.00     0.029 A 
ATOM     29  N   UNL     1       8.511   3.145   8.634  1.00  0.00    -0.354 N 
ATOM     30  N   UNL     1       8.246   5.676   7.121  1.00  0.00    -0.248 NA
ATOM     31  C   UNL     1       8.731   7.946   6.868  1.00  0.00     0.031 C 
ATOM     32  C   UNL     1       9.770   3.153  10.462  1.00  0.00     0.029 A 
ATOM     33  C   UNL     1       9.315   3.950   9.422  1.00  0.00     0.049 A 
ATOM     34  H   UNL     1       8.040   3.440   7.821  1.00  0.00     0.167 HD
ATOM     35  C   UNL     1       9.093   6.074   8.146  1.00  0.00     0.074 A 
ATOM     36  C   UNL     1       9.380   7.478   7.926  1.00  0.00     0.031 C 
ATOM     37  C   UNL     1       9.592   5.342   9.172  1.00  0.00     0.037 A 
BRANCH  24  38
ATOM     38  C   UNL     1       7.760  -0.568   9.241  1.00  0.00     0.064 A 
ATOM     39  C   UNL     1       7.121  -0.811  10.465  1.00  0.00     0.173 A 
ATOM     40  C   UNL     1       8.438  -1.634   8.628  1.00  0.00     0.173 A 
ATOM     41  F   UNL     1       6.455   0.174  11.086  1.00  0.00    -0.203 F 
ATOM     42  C   UNL     1       7.155  -2.074  11.050  1.00  0.00     0.198 A 
ATOM     43  C   UNL     1       8.450  -2.901   9.205  1.00  0.00     0.198 A 
ATOM     44  F   UNL     1       9.044  -1.457   7.444  1.00  0.00    -0.203 F 
ATOM     45  F   UNL     1       6.539  -2.284  12.221  1.00  0.00    -0.200 F 
ATOM     46  C   UNL     1       7.812  -3.119  10.416  1.00  0.00     0.200 A 
ATOM     47  F   UNL     1       9.059  -3.916   8.576  1.00  0.00    -0.200 F 
ATOM     48  F   UNL     1       7.818  -4.340  10.967  1.00  0.00    -0.200 F 
ENDBRANCH  24  38
BRANCH  25  49
ATOM     49  C   UNL     1       7.204   8.155   4.357  1.00  0.00     0.064 A 
ATOM     50  C   UNL     1       6.018   8.901   4.279  1.00  0.00     0.173 A 
ATOM     51  C   UNL     1       8.328   8.645   3.678  1.00  0.00     0.173 A 
ATOM     52  F   UNL     1       4.914   8.473   4.908  1.00  0.00    -0.203 F 
ATOM     53  C   UNL     1       5.955  10.080   3.538  1.00  0.00     0.198 A 
ATOM     54  C   UNL     1       8.269   9.835   2.954  1.00  0.00     0.198 A 
ATOM     55  F   UNL     1       9.488   7.976   3.735  1.00  0.00    -0.203 F 
ATOM     56  F   UNL     1       4.803  10.758   3.456  1.00  0.00    -0.200 F 
ATOM     57  C   UNL     1       7.082  10.547   2.878  1.00  0.00     0.200 A 
ATOM     58  F   UNL     1       9.364  10.292   2.332  1.00  0.00    -0.200 F 
ATOM     59  F   UNL     1       7.023  11.683   2.170  1.00  0.00    -0.200 F 
ENDBRANCH  25  49
BRANCH  37  60
ATOM     60  C   UNL     1      10.523   6.030  10.123  1.00  0.00     0.064 A 
ATOM     61  C   UNL     1      11.891   5.716  10.124  1.00  0.00     0.173 A 
ATOM     62  C   UNL     1      10.050   6.928  11.089  1.00  0.00     0.173 A 
ATOM     63  F   UNL     1      12.388   4.856   9.224  1.00  0.00    -0.203 F 
ATOM     64  C   UNL     1      12.749   6.266  11.072  1.00  0.00     0.198 A 
ATOM     65  C   UNL     1      10.916   7.495  12.020  1.00  0.00     0.198 A 
ATOM     66  F   UNL     1       8.752   7.266  11.119  1.00  0.00    -0.203 F 
ATOM     67  F   UNL     1      14.045   5.927  11.077  1.00  0.00    -0.200 F 
ATOM     68  C   UNL     1      12.261   7.156  12.017  1.00  0.00     0.200 A 
ATOM     69  F   UNL     1      10.448   8.370  12.921  1.00  0.00    -0.200 F 
ATOM     70  F   UNL     1      13.089   7.689  12.926  1.00  0.00    -0.200 F 
ENDBRANCH  37  60
ENDBRANCH  11  12
ENDBRANCH   4   6
ENDBRANCH   3   4
ENDBRANCH   2   3
ENDBRANCH   1   2
BRANCH   1  71
ATOM     71  O   UNL     1       3.553   1.888  -0.983  1.00  0.00    -0.458 OA
BRANCH  71  72
ATOM     72  C   UNL     1       2.226   2.167  -1.046  1.00  0.00     0.338 C 
ATOM     73  O   UNL     1       1.426   1.791  -1.884  1.00  0.00    -0.246 OA
BRANCH  72  74
ATOM     74  C   UNL     1       1.830   2.884   0.175  1.00  0.00     0.063 A 
ATOM     75  C   UNL     1       2.375   4.125   0.513  1.00  0.00     0.017 A 
ATOM     76  C   UNL     1       0.903   2.261   1.013  1.00  0.00     0.056 A 
ATOM     77  C   UNL     1       1.976   4.747   1.700  1.00  0.00     0.024 A 
ATOM     78  C   UNL     1       0.579   2.849   2.229  1.00  0.00     0.142 A 
ATOM     79  C   UNL     1       1.079   4.097   2.563  1.00  0.00     0.103 A 
ATOM     80  F   UNL     1      -0.146   2.132   3.093  1.00  0.00    -0.206 F 
BRANCH  79  81
ATOM     81  S   UNL     1       0.642   4.899   4.074  1.00  0.00     0.185 S 
ATOM     82  O   UNL     1       1.728   4.598   4.989  1.00  0.00    -0.223 OA
ATOM     83  O   UNL     1       0.346   6.277   3.718  1.00  0.00    -0.223 OA
BRANCH  81  84
ATOM     84  C   UNL     1      -0.846   4.193   4.755  1.00  0.00     0.183 C 
BRANCH  84  85
ATOM     85  C   UNL     1      -2.020   4.131   3.848  1.00  0.00     0.027 A 
ATOM     86  C   UNL     1      -2.639   5.165   3.112  1.00  0.00     0.162 A 
ATOM     87  C   UNL     1      -2.786   3.028   3.542  1.00  0.00     0.235 A 
ATOM     88  N   UNL     1      -3.671   4.722   2.391  1.00  0.00    -0.088 NA
ATOM     89  O   UNL     1      -3.760   3.369   2.666  1.00  0.00    -0.364 OA
ENDBRANCH  84  85
ENDBRANCH  81  84
ENDBRANCH  79  81
ENDBRANCH  72  74
ENDBRANCH  71  72
ENDBRANCH   1  71
TORSDOF 14
