REMARK SMILES O=C(CCCN1C(=O)C(=O)/C(=C(\[O-])c2ccccc2)[C@H]1c1ccc([N+](=O)[O-])cc1)OCCOC(=O)c1ccc(-c2c3nc(c(-c4c(F)c(F)c(F)c(F)c4F)c4ccc([nH]4)c(-c4c(F)c(F)c(F)c(F)c4F)c4nc(c(-c5c(F)c(F)c(F)c(F)c5F)c5ccc2[nH]5)C=C4)C=C3)cc1
REMARK SMILES IDX 30 1 2 2 1 3 3 4 4 5 5 6 6 7 7 8 20 9 8 10 9 11 11 12 10 13
REMARK SMILES IDX 12 14 13 15 21 16 22 17 29 18 23 19 28 20 24 21 25 22 26 23
REMARK SMILES IDX 27 24 14 25 15 26 19 27 16 28 18 29 17 30 31 31 32 32 33 33
REMARK SMILES IDX 34 34 35 35 36 36 37 37 98 38 38 39 97 40 39 41 40 42 41 43
REMARK SMILES IDX 91 44 42 45 96 46 90 47 92 48 43 49 95 50 89 51 88 52 44 54
REMARK SMILES IDX 76 55 56 56 75 57 57 58 60 59 74 60 93 61 58 62 59 63 73 65
REMARK SMILES IDX 94 66 61 67 45 68 46 69 54 70 47 71 48 72 52 73 55 74 49 75
REMARK SMILES IDX 50 76 53 77 51 78 77 79 78 80 86 81 79 82 80 83 84 84 87 85
REMARK SMILES IDX 81 86 82 87 85 88 83 89 62 90 63 91 71 92 64 93 65 94 69 95
REMARK SMILES IDX 72 96 66 97 67 98 70 99 68 100
REMARK H PARENT 92 53 60 64
REMARK Flexibility Score: inf
ROOT
ATOM      1  O   UNL     1       3.456   0.293  -1.251  1.00  0.00    -0.462 OA
ENDROOT
BRANCH   1   2
ATOM      2  C   UNL     1       2.567  -0.703  -0.993  1.00  0.00     0.305 C 
ATOM      3  O   UNL     1       1.364  -0.648  -1.217  1.00  0.00    -0.252 OA
BRANCH   2   4
ATOM      4  C   UNL     1       3.223  -1.805  -0.189  1.00  0.00     0.124 C 
BRANCH   4   5
ATOM      5  C   UNL     1       4.578  -2.294  -0.687  1.00  0.00     0.033 C 
BRANCH   5   6
ATOM      6  C   UNL     1       5.753  -1.311  -0.700  1.00  0.00     0.121 C 
BRANCH   6   7
ATOM      7  N   UNL     1       6.253  -0.837   0.584  1.00  0.00    -0.325 N 
ATOM      8  C   UNL     1       5.912   0.412   1.065  1.00  0.00     0.295 C 
ATOM      9  C   UNL     1       7.572  -1.215   1.083  1.00  0.00     0.150 C 
ATOM     10  O   UNL     1       4.835   0.864   1.329  1.00  0.00    -0.265 OA
ATOM     11  C   UNL     1       7.227   1.150   1.276  1.00  0.00     0.248 C 
ATOM     12  C   UNL     1       8.259   0.108   1.355  1.00  0.00     0.025 C 
ATOM     13  O   UNL     1       7.399   2.347   1.299  1.00  0.00    -0.283 OA
ATOM     14  C   UNL     1       9.518   0.413   1.701  1.00  0.00    -0.092 C 
ATOM     15  O   UNL     1       9.972   1.693   1.940  1.00  0.00    -0.872 OA
BRANCH   9  16
ATOM     16  C   UNL     1       7.357  -2.128   2.286  1.00  0.00    -0.020 A 
ATOM     17  C   UNL     1       7.415  -1.674   3.616  1.00  0.00     0.013 A 
ATOM     18  C   UNL     1       6.991  -3.466   2.050  1.00  0.00     0.013 A 
ATOM     19  C   UNL     1       7.151  -2.538   4.681  1.00  0.00     0.086 A 
ATOM     20  C   UNL     1       6.694  -4.329   3.106  1.00  0.00     0.086 A 
ATOM     21  C   UNL     1       6.785  -3.861   4.420  1.00  0.00     0.269 A 
BRANCH  21  22
ATOM     22  N   UNL     1       6.481  -4.763   5.533  1.00  0.00     0.062 N 
ATOM     23  O   UNL     1       6.821  -4.406   6.670  1.00  0.00    -0.258 OA
ATOM     24  O   UNL     1       5.901  -5.825   5.268  1.00  0.00    -0.258 OA
ENDBRANCH  21  22
ENDBRANCH   9  16
BRANCH  14  25
ATOM     25  C   UNL     1      10.448  -0.649   2.085  1.00  0.00    -0.033 A 
ATOM     26  C   UNL     1      10.789  -0.765   3.441  1.00  0.00     0.007 A 
ATOM     27  C   UNL     1      10.870  -1.629   1.181  1.00  0.00     0.007 A 
ATOM     28  C   UNL     1      11.481  -1.882   3.899  1.00  0.00     0.001 A 
ATOM     29  C   UNL     1      11.566  -2.746   1.643  1.00  0.00     0.001 A 
ATOM     30  C   UNL     1      11.856  -2.879   3.002  1.00  0.00     0.000 A 
ENDBRANCH  14  25
ENDBRANCH   6   7
ENDBRANCH   5   6
ENDBRANCH   4   5
ENDBRANCH   2   4
ENDBRANCH   1   2
BRANCH   1  31
ATOM     31  C   UNL     1       2.917   1.624  -1.259  1.00  0.00     0.274 C 
BRANCH  31  32
ATOM     32  C   UNL     1       2.576   2.108   0.162  1.00  0.00     0.275 C 
BRANCH  32  33
ATOM     33  O   UNL     1       2.132   0.992   0.955  1.00  0.00    -0.458 OA
BRANCH  33  34
ATOM     34  C   UNL     1       1.921   1.201   2.265  1.00  0.00     0.338 C 
ATOM     35  O   UNL     1       1.874   2.267   2.850  1.00  0.00    -0.246 OA
BRANCH  34  36
ATOM     36  C   UNL     1       1.748  -0.119   2.914  1.00  0.00     0.060 A 
ATOM     37  C   UNL     1       0.560  -0.827   2.723  1.00  0.00     0.016 A 
ATOM     38  C   UNL     1       2.725  -0.612   3.787  1.00  0.00     0.016 A 
ATOM     39  C   UNL     1       0.293  -1.957   3.504  1.00  0.00     0.010 A 
ATOM     40  C   UNL     1       2.472  -1.772   4.538  1.00  0.00     0.010 A 
ATOM     41  C   UNL     1       1.218  -2.404   4.463  1.00  0.00    -0.014 A 
BRANCH  41  42
ATOM     42  C   UNL     1       0.758  -3.369   5.508  1.00  0.00     0.031 A 
ATOM     43  C   UNL     1       0.408  -2.848   6.883  1.00  0.00     0.074 A 
ATOM     44  C   UNL     1       0.540  -4.670   5.234  1.00  0.00     0.049 A 
ATOM     45  N   UNL     1      -0.209  -3.451   7.871  1.00  0.00    -0.248 NA
ATOM     46  C   UNL     1       0.801  -1.464   7.184  1.00  0.00     0.031 C 
ATOM     47  C   UNL     1       0.836  -5.331   3.966  1.00  0.00     0.029 A 
ATOM     48  N   UNL     1      -0.008  -5.665   6.012  1.00  0.00    -0.354 N 
ATOM     49  C   UNL     1      -0.295  -2.515   8.894  1.00  0.00     0.074 A 
ATOM     50  C   UNL     1       0.390  -1.327   8.435  1.00  0.00     0.031 C 
ATOM     51  C   UNL     1       0.447  -6.617   4.043  1.00  0.00     0.029 A 
ATOM     52  C   UNL     1      -0.129  -6.871   5.365  1.00  0.00     0.049 A 
ATOM     53  H   UNL     1      -0.287  -5.525   6.946  1.00  0.00     0.167 HD
ATOM     54  C   UNL     1      -0.913  -2.612  10.096  1.00  0.00     0.037 A 
ATOM     55  C   UNL     1      -0.663  -8.039   5.779  1.00  0.00     0.037 A 
ATOM     56  C   UNL     1      -1.597  -3.783  10.575  1.00  0.00     0.049 A 
ATOM     57  C   UNL     1      -1.307  -8.139   7.142  1.00  0.00     0.074 A 
ATOM     58  C   UNL     1      -2.286  -3.954  11.764  1.00  0.00     0.029 A 
ATOM     59  N   UNL     1      -1.665  -4.990   9.899  1.00  0.00    -0.354 N 
ATOM     60  N   UNL     1      -1.479  -7.213   8.052  1.00  0.00    -0.248 NA
ATOM     61  C   UNL     1      -1.856  -9.452   7.519  1.00  0.00     0.031 C 
ATOM     62  C   UNL     1      -2.724  -5.280  11.832  1.00  0.00     0.029 A 
ATOM     63  C   UNL     1      -2.360  -5.919  10.658  1.00  0.00     0.049 A 
ATOM     64  H   UNL     1      -1.277  -5.163   9.011  1.00  0.00     0.167 HD
ATOM     65  C   UNL     1      -2.194  -7.815   9.082  1.00  0.00     0.074 A 
ATOM     66  C   UNL     1      -2.432  -9.184   8.683  1.00  0.00     0.031 C 
ATOM     67  C   UNL     1      -2.620  -7.276  10.252  1.00  0.00     0.037 A 
BRANCH  54  68
ATOM     68  C   UNL     1      -0.877  -1.405  10.987  1.00  0.00     0.064 A 
ATOM     69  C   UNL     1      -1.618  -0.251  10.688  1.00  0.00     0.173 A 
ATOM     70  C   UNL     1      -0.123  -1.414  12.169  1.00  0.00     0.173 A 
ATOM     71  F   UNL     1      -2.348  -0.190   9.565  1.00  0.00    -0.203 F 
ATOM     72  C   UNL     1      -1.581   0.860  11.526  1.00  0.00     0.198 A 
ATOM     73  C   UNL     1      -0.112  -0.312  13.020  1.00  0.00     0.198 A 
ATOM     74  F   UNL     1       0.596  -2.495  12.506  1.00  0.00    -0.203 F 
ATOM     75  F   UNL     1      -2.259   1.968  11.197  1.00  0.00    -0.200 F 
ATOM     76  C   UNL     1      -0.833   0.827  12.693  1.00  0.00     0.200 A 
ATOM     77  F   UNL     1       0.599  -0.350  14.155  1.00  0.00    -0.200 F 
ATOM     78  F   UNL     1      -0.804   1.895  13.502  1.00  0.00    -0.200 F 
ENDBRANCH  54  68
BRANCH  55  79
ATOM     79  C   UNL     1      -0.660  -9.223   4.878  1.00  0.00     0.064 A 
ATOM     80  C   UNL     1      -1.854  -9.729   4.343  1.00  0.00     0.173 A 
ATOM     81  C   UNL     1       0.528  -9.905   4.580  1.00  0.00     0.173 A 
ATOM     82  F   UNL     1      -3.021  -9.129   4.625  1.00  0.00    -0.203 F 
ATOM     83  C   UNL     1      -1.864 -10.888   3.570  1.00  0.00     0.198 A 
ATOM     84  C   UNL     1       0.521 -11.048   3.782  1.00  0.00     0.198 A 
ATOM     85  F   UNL     1       1.696  -9.466   5.070  1.00  0.00    -0.203 F 
ATOM     86  F   UNL     1      -3.026 -11.383   3.122  1.00  0.00    -0.200 F 
ATOM     87  C   UNL     1      -0.676 -11.544   3.287  1.00  0.00     0.200 A 
ATOM     88  F   UNL     1       1.671 -11.676   3.505  1.00  0.00    -0.200 F 
ATOM     89  F   UNL     1      -0.685 -12.662   2.549  1.00  0.00    -0.200 F 
ENDBRANCH  55  79
BRANCH  67  90
ATOM     90  C   UNL     1      -3.444  -8.140  11.166  1.00  0.00     0.064 A 
ATOM     91  C   UNL     1      -2.893  -9.229  11.859  1.00  0.00     0.173 A 
ATOM     92  C   UNL     1      -4.801  -7.850  11.380  1.00  0.00     0.173 A 
ATOM     93  F   UNL     1      -1.604  -9.558  11.685  1.00  0.00    -0.203 F 
ATOM     94  C   UNL     1      -3.677 -10.013  12.703  1.00  0.00     0.198 A 
ATOM     95  C   UNL     1      -5.573  -8.616  12.250  1.00  0.00     0.198 A 
ATOM     96  F   UNL     1      -5.380  -6.815  10.752  1.00  0.00    -0.203 F 
ATOM     97  F   UNL     1      -3.141 -11.081  13.311  1.00  0.00    -0.200 F 
ATOM     98  C   UNL     1      -5.013  -9.703  12.903  1.00  0.00     0.200 A 
ATOM     99  F   UNL     1      -6.861  -8.304  12.454  1.00  0.00    -0.200 F 
ATOM    100  F   UNL     1      -5.764 -10.456  13.719  1.00  0.00    -0.200 F 
ENDBRANCH  67  90
ENDBRANCH  41  42
ENDBRANCH  34  36
ENDBRANCH  33  34
ENDBRANCH  32  33
ENDBRANCH  31  32
ENDBRANCH   1  31
TORSDOF 17
