REMARK SMILES C[NH2+][C@]1(C(=O)OCCOC(=O)c2ccc(-c3c4nc(c(-c5c(F)c(F)c(F)c(F)c5F)c5ccc([nH]5)c(-c5c(F)c(F)c(F)c(F)c5F)c5nc(c(-c6c(F)c(F)c(F)c(F)c6F)c6ccc3[nH]6)C=C5)C=C4)cc2)CCC[C@@H]1CC[N@H+]1CCC[C@H]([NH+](C)C)C1
REMARK SMILES IDX 7 1 6 2 4 3 5 4 3 5 75 6 78 7 76 8 77 9 2 10 1 11 79 14
REMARK SMILES IDX 80 15 81 16 82 17 89 18 83 20 85 21 84 22 86 23 87 24 88 25
REMARK SMILES IDX 8 27 9 28 10 29 11 30 12 31 13 32 74 33 14 34 73 35 15 36
REMARK SMILES IDX 16 37 17 38 67 39 18 40 72 41 66 42 68 43 19 44 71 45 65 46
REMARK SMILES IDX 64 47 20 49 52 50 32 51 51 52 33 53 36 54 50 55 69 56 34 57
REMARK SMILES IDX 35 58 49 60 70 61 37 62 21 63 22 64 30 65 23 66 24 67 28 68
REMARK SMILES IDX 31 69 25 70 26 71 29 72 27 73 53 74 54 75 62 76 55 77 56 78
REMARK SMILES IDX 60 79 63 80 57 81 58 82 61 83 59 84 38 85 39 86 47 87 40 88
REMARK SMILES IDX 41 89 45 90 48 91 42 92 43 93 46 94 44 95
REMARK H PARENT 2 12 2 13 81 19 86 26 68 48 36 59
REMARK Flexibility Score: inf
ROOT
ATOM      1  C   UNL     1       2.287   1.140  -2.377  1.00  0.00     0.274 C 
ENDROOT
BRANCH   1   2
ATOM      2  O   UNL     1       0.868   1.408  -2.389  1.00  0.00    -0.457 OA
BRANCH   2   3
ATOM      3  C   UNL     1       0.160   0.720  -1.458  1.00  0.00     0.368 C 
ATOM      4  O   UNL     1       0.680   0.024  -0.591  1.00  0.00    -0.245 OA
BRANCH   3   5
ATOM      5  C   UNL     1      -1.373   0.826  -1.600  1.00  0.00     0.197 C 
ATOM      6  C   UNL     1      -1.875   1.748  -2.721  1.00  0.00     0.081 C 
ATOM      7  C   UNL     1      -1.889  -0.549  -2.135  1.00  0.00     0.068 C 
ATOM      8  C   UNL     1      -3.298   1.269  -2.990  1.00  0.00     0.008 C 
ATOM      9  C   UNL     1      -3.297  -0.231  -2.673  1.00  0.00     0.011 C 
BRANCH   5  10
ATOM     10  N   UNL     1      -2.000   1.114  -0.275  1.00  0.00    -0.334 N 
ATOM     11  C   UNL     1      -1.858   2.492   0.173  1.00  0.00     0.331 C 
ATOM     12  H   UNL     1      -2.995   0.902  -0.341  1.00  0.00     0.347 HD
ATOM     13  H   UNL     1      -1.513   0.535   0.409  1.00  0.00     0.347 HD
ENDBRANCH   5  10
BRANCH   7  14
ATOM     14  C   UNL     1      -1.870  -1.715  -1.122  1.00  0.00     0.072 C 
BRANCH  14  15
ATOM     15  C   UNL     1      -1.705  -3.119  -1.734  1.00  0.00     0.262 C 
BRANCH  15  16
ATOM     16  N   UNL     1      -0.535  -3.342  -2.606  1.00  0.00    -0.330 N 
ATOM     17  C   UNL     1       0.740  -2.906  -2.032  1.00  0.00     0.262 C 
ATOM     18  C   UNL     1      -0.432  -4.775  -2.949  1.00  0.00     0.327 C 
ATOM     19  H   UNL     1      -0.699  -2.767  -3.433  1.00  0.00     0.348 HD
ATOM     20  C   UNL     1       1.880  -3.027  -3.041  1.00  0.00     0.068 C 
ATOM     21  C   UNL     1       0.672  -5.091  -4.001  1.00  0.00     0.239 C 
ATOM     22  C   UNL     1       2.012  -4.437  -3.599  1.00  0.00     0.077 C 
BRANCH  21  23
ATOM     23  N   UNL     1       0.323  -4.879  -5.429  1.00  0.00    -0.333 N 
ATOM     24  C   UNL     1      -0.739  -5.792  -5.862  1.00  0.00     0.332 C 
ATOM     25  C   UNL     1      -0.041  -3.508  -5.780  1.00  0.00     0.332 C 
ATOM     26  H   UNL     1       1.188  -5.081  -5.929  1.00  0.00     0.348 HD
ENDBRANCH  21  23
ENDBRANCH  15  16
ENDBRANCH  14  15
ENDBRANCH   7  14
ENDBRANCH   3   5
ENDBRANCH   2   3
ENDBRANCH   1   2
BRANCH   1  27
ATOM     27  C   UNL     1       3.048   2.073  -1.432  1.00  0.00     0.275 C 
BRANCH  27  28
ATOM     28  O   UNL     1       2.625   1.871  -0.070  1.00  0.00    -0.458 OA
BRANCH  28  29
ATOM     29  C   UNL     1       2.384   2.988   0.653  1.00  0.00     0.338 C 
ATOM     30  O   UNL     1       2.581   4.139   0.301  1.00  0.00    -0.246 OA
BRANCH  29  31
ATOM     31  C   UNL     1       1.808   2.652   1.978  1.00  0.00     0.060 A 
ATOM     32  C   UNL     1       0.874   1.628   2.128  1.00  0.00     0.016 A 
ATOM     33  C   UNL     1       2.101   3.467   3.071  1.00  0.00     0.016 A 
ATOM     34  C   UNL     1       0.161   1.475   3.314  1.00  0.00     0.010 A 
ATOM     35  C   UNL     1       1.456   3.253   4.295  1.00  0.00     0.010 A 
ATOM     36  C   UNL     1       0.451   2.278   4.419  1.00  0.00    -0.014 A 
BRANCH  36  37
ATOM     37  C   UNL     1      -0.337   2.153   5.674  1.00  0.00     0.031 A 
ATOM     38  C   UNL     1      -1.078   3.348   6.206  1.00  0.00     0.074 A 
ATOM     39  C   UNL     1      -0.415   0.980   6.333  1.00  0.00     0.049 A 
ATOM     40  N   UNL     1      -1.587   3.547   7.394  1.00  0.00    -0.248 NA
ATOM     41  C   UNL     1      -1.254   4.478   5.280  1.00  0.00     0.031 C 
ATOM     42  C   UNL     1       0.179  -0.284   5.896  1.00  0.00     0.029 A 
ATOM     43  N   UNL     1      -1.035   0.662   7.516  1.00  0.00    -0.354 N 
ATOM     44  C   UNL     1      -2.065   4.851   7.385  1.00  0.00     0.074 A 
ATOM     45  C   UNL     1      -1.812   5.388   6.066  1.00  0.00     0.031 C 
ATOM     46  C   UNL     1      -0.137  -1.246   6.775  1.00  0.00     0.029 A 
ATOM     47  C   UNL     1      -0.865  -0.649   7.889  1.00  0.00     0.049 A 
ATOM     48  H   UNL     1      -1.551   1.311   8.047  1.00  0.00     0.167 HD
ATOM     49  C   UNL     1      -2.644   5.537   8.399  1.00  0.00     0.037 A 
ATOM     50  C   UNL     1      -1.206  -1.287   9.024  1.00  0.00     0.037 A 
ATOM     51  C   UNL     1      -2.962   4.968   9.682  1.00  0.00     0.049 A 
ATOM     52  C   UNL     1      -1.850  -0.509  10.136  1.00  0.00     0.074 A 
ATOM     53  C   UNL     1      -3.542   5.577  10.780  1.00  0.00     0.029 A 
ATOM     54  N   UNL     1      -2.752   3.640  10.024  1.00  0.00    -0.354 N 
ATOM     55  N   UNL     1      -2.179   0.759  10.173  1.00  0.00    -0.248 NA
ATOM     56  C   UNL     1      -2.135  -1.241  11.377  1.00  0.00     0.031 C 
ATOM     57  C   UNL     1      -3.669   4.621  11.795  1.00  0.00     0.029 A 
ATOM     58  C   UNL     1      -3.195   3.410  11.316  1.00  0.00     0.049 A 
ATOM     59  H   UNL     1      -2.348   2.962   9.436  1.00  0.00     0.167 HD
ATOM     60  C   UNL     1      -2.701   0.980  11.438  1.00  0.00     0.074 A 
ATOM     61  C   UNL     1      -2.673  -0.292  12.131  1.00  0.00     0.031 C 
ATOM     62  C   UNL     1      -3.151   2.136  11.985  1.00  0.00     0.037 A 
BRANCH  49  63
ATOM     63  C   UNL     1      -2.925   6.993   8.180  1.00  0.00     0.064 A 
ATOM     64  C   UNL     1      -3.992   7.436   7.388  1.00  0.00     0.173 A 
ATOM     65  C   UNL     1      -2.125   7.960   8.809  1.00  0.00     0.173 A 
ATOM     66  F   UNL     1      -4.773   6.551   6.751  1.00  0.00    -0.203 F 
ATOM     67  C   UNL     1      -4.239   8.797   7.221  1.00  0.00     0.198 A 
ATOM     68  C   UNL     1      -2.389   9.318   8.659  1.00  0.00     0.198 A 
ATOM     69  F   UNL     1      -1.091   7.586   9.578  1.00  0.00    -0.203 F 
ATOM     70  F   UNL     1      -5.243   9.201   6.430  1.00  0.00    -0.200 F 
ATOM     71  C   UNL     1      -3.443   9.736   7.861  1.00  0.00     0.200 A 
ATOM     72  F   UNL     1      -1.623  10.222   9.285  1.00  0.00    -0.200 F 
ATOM     73  F   UNL     1      -3.688  11.044   7.704  1.00  0.00    -0.200 F 
ENDBRANCH  49  63
BRANCH  50  74
ATOM     74  C   UNL     1      -0.884  -2.728   9.183  1.00  0.00     0.064 A 
ATOM     75  C   UNL     1      -1.898  -3.695   9.187  1.00  0.00     0.173 A 
ATOM     76  C   UNL     1       0.442  -3.169   9.305  1.00  0.00     0.173 A 
ATOM     77  F   UNL     1      -3.182  -3.319   9.102  1.00  0.00    -0.203 F 
ATOM     78  C   UNL     1      -1.596  -5.050   9.306  1.00  0.00     0.198 A 
ATOM     79  C   UNL     1       0.744  -4.525   9.395  1.00  0.00     0.198 A 
ATOM     80  F   UNL     1       1.447  -2.281   9.309  1.00  0.00    -0.203 F 
ATOM     81  F   UNL     1      -2.585  -5.954   9.335  1.00  0.00    -0.200 F 
ATOM     82  C   UNL     1      -0.276  -5.465   9.399  1.00  0.00     0.200 A 
ATOM     83  F   UNL     1       2.022  -4.922   9.470  1.00  0.00    -0.200 F 
ATOM     84  F   UNL     1       0.014  -6.770   9.495  1.00  0.00    -0.200 F 
ENDBRANCH  50  74
BRANCH  62  85
ATOM     85  C   UNL     1      -3.653   2.069  13.393  1.00  0.00     0.064 A 
ATOM     86  C   UNL     1      -2.768   2.000  14.478  1.00  0.00     0.173 A 
ATOM     87  C   UNL     1      -5.029   2.101  13.661  1.00  0.00     0.173 A 
ATOM     88  F   UNL     1      -1.444   1.950  14.267  1.00  0.00    -0.203 F 
ATOM     89  C   UNL     1      -3.244   1.945  15.784  1.00  0.00     0.198 A 
ATOM     90  C   UNL     1      -5.501   2.066  14.969  1.00  0.00     0.198 A 
ATOM     91  F   UNL     1      -5.912   2.169  12.654  1.00  0.00    -0.203 F 
ATOM     92  F   UNL     1      -2.384   1.842  16.806  1.00  0.00    -0.200 F 
ATOM     93  C   UNL     1      -4.609   1.983  16.029  1.00  0.00     0.200 A 
ATOM     94  F   UNL     1      -6.820   2.107  15.205  1.00  0.00    -0.200 F 
ATOM     95  F   UNL     1      -5.067   1.929  17.287  1.00  0.00    -0.200 F 
ENDBRANCH  62  85
ENDBRANCH  36  37
ENDBRANCH  29  31
ENDBRANCH  28  29
ENDBRANCH  27  28
ENDBRANCH   1  27
TORSDOF 16
