REMARK SMILES CC[NH+]1CCN(c2ccc(NC(=O)C3CCCC3)c(C(=O)OCCOC(=O)c3ccc(-c4c5nc(c(-c6c(F)c(F)c(F)c(F)c6F)c6ccc([nH]6)c(-c6c(F)c(F)c(F)c(F)c6F)c6nc(c(-c7c(F)c(F)c(F)c(F)c7F)c7ccc4[nH]7)C=C6)C=C5)cc3)c2)CC1
REMARK SMILES IDX 23 1 22 2 20 3 21 4 19 5 7 6 8 7 91 8 9 9 10 10 6 11 3 12
REMARK SMILES IDX 4 13 93 14 5 16 92 17 2 18 1 19 11 20 12 21 13 23 14 24
REMARK SMILES IDX 15 25 18 26 16 27 17 28 24 29 25 30 26 31 27 32 28 33 29 34
REMARK SMILES IDX 90 35 30 36 89 37 31 38 32 39 33 40 83 41 34 42 88 43 82 44
REMARK SMILES IDX 84 45 35 46 87 47 81 48 80 49 36 51 68 52 48 53 67 54 49 55
REMARK SMILES IDX 52 56 66 57 85 58 50 59 51 60 65 62 86 63 53 64 37 65 38 66
REMARK SMILES IDX 46 67 39 68 40 69 44 70 47 71 41 72 42 73 45 74 43 75 69 76
REMARK SMILES IDX 70 77 78 78 71 79 72 80 76 81 79 82 73 83 74 84 77 85 75 86
REMARK SMILES IDX 54 87 55 88 63 89 56 90 57 91 61 92 64 93 58 94 59 95 62 96
REMARK SMILES IDX 60 97
REMARK H PARENT 3 15 11 22 84 50 52 61
REMARK Flexibility Score: inf
ROOT
ATOM      1  C   UNL     1       0.739  -6.379   8.073  1.00  0.00     0.275 C 
ENDROOT
BRANCH   1   2
ATOM      2  O   UNL     1       0.023  -5.726   7.005  1.00  0.00    -0.458 OA
BRANCH   2   3
ATOM      3  C   UNL     1      -1.261  -6.110   6.768  1.00  0.00     0.340 C 
ATOM      4  O   UNL     1      -1.883  -6.959   7.373  1.00  0.00    -0.246 OA
BRANCH   3   5
ATOM      5  C   UNL     1      -1.861  -5.256   5.697  1.00  0.00     0.085 A 
ATOM      6  C   UNL     1      -1.481  -3.674   3.863  1.00  0.00     0.038 A 
ATOM      7  C   UNL     1      -2.836  -3.398   3.874  1.00  0.00     0.028 A 
ATOM      8  C   UNL     1      -1.003  -4.616   4.777  1.00  0.00     0.043 A 
ATOM      9  C   UNL     1      -3.690  -4.076   4.730  1.00  0.00     0.029 A 
ATOM     10  C   UNL     1      -3.254  -5.026   5.636  1.00  0.00     0.055 A 
BRANCH   6  11
ATOM     11  N   UNL     1      -0.632  -2.995   3.026  1.00  0.00    -0.360 N 
ATOM     12  N   UNL     1       1.392  -1.534   1.511  1.00  0.00    -0.332 N 
ATOM     13  C   UNL     1       0.540  -0.896   2.548  1.00  0.00     0.283 C 
ATOM     14  C   UNL     1       1.498  -2.985   1.813  1.00  0.00     0.283 C 
ATOM     15  H   UNL     1       2.318  -1.106   1.538  1.00  0.00     0.348 HD
ATOM     16  C   UNL     1      -0.833  -1.566   2.771  1.00  0.00     0.178 C 
ATOM     17  C   UNL     1       0.157  -3.720   2.029  1.00  0.00     0.178 C 
BRANCH  12  18
ATOM     18  C   UNL     1       0.884  -1.306   0.152  1.00  0.00     0.258 C 
ATOM     19  C   UNL     1       1.169   0.118  -0.311  1.00  0.00     0.071 C 
ENDBRANCH  12  18
ENDBRANCH   6  11
BRANCH  10  20
ATOM     20  N   UNL     1      -4.161  -5.751   6.438  1.00  0.00    -0.325 N 
ATOM     21  C   UNL     1      -5.506  -5.752   6.659  1.00  0.00     0.227 C 
ATOM     22  H   UNL     1      -3.703  -6.435   6.979  1.00  0.00     0.169 HD
ATOM     23  O   UNL     1      -5.925  -6.705   7.335  1.00  0.00    -0.274 OA
BRANCH  21  24
ATOM     24  C   UNL     1      -6.543  -4.713   6.190  1.00  0.00     0.079 C 
ATOM     25  C   UNL     1      -6.281  -3.247   6.533  1.00  0.00     0.013 C 
ATOM     26  C   UNL     1      -6.924  -4.785   4.714  1.00  0.00     0.013 C 
ATOM     27  C   UNL     1      -6.812  -2.410   5.380  1.00  0.00     0.001 C 
ATOM     28  C   UNL     1      -7.081  -3.350   4.212  1.00  0.00     0.001 C 
ENDBRANCH  21  24
ENDBRANCH  10  20
ENDBRANCH   3   5
ENDBRANCH   2   3
ENDBRANCH   1   2
BRANCH   1  29
ATOM     29  C   UNL     1       0.898  -5.457   9.286  1.00  0.00     0.275 C 
BRANCH  29  30
ATOM     30  O   UNL     1      -0.357  -5.284   9.970  1.00  0.00    -0.458 OA
BRANCH  30  31
ATOM     31  C   UNL     1      -1.031  -4.153   9.658  1.00  0.00     0.338 C 
ATOM     32  O   UNL     1      -0.653  -3.243   8.938  1.00  0.00    -0.246 OA
BRANCH  31  33
ATOM     33  C   UNL     1      -2.415  -4.254  10.156  1.00  0.00     0.060 A 
ATOM     34  C   UNL     1      -3.421  -4.037   9.220  1.00  0.00     0.016 A 
ATOM     35  C   UNL     1      -2.746  -4.536  11.486  1.00  0.00     0.016 A 
ATOM     36  C   UNL     1      -4.752  -4.156   9.596  1.00  0.00     0.010 A 
ATOM     37  C   UNL     1      -4.098  -4.617  11.867  1.00  0.00     0.010 A 
ATOM     38  C   UNL     1      -5.111  -4.439  10.914  1.00  0.00    -0.014 A 
BRANCH  38  39
ATOM     39  C   UNL     1      -6.560  -4.444  11.233  1.00  0.00     0.031 A 
ATOM     40  C   UNL     1      -7.232  -3.161  11.623  1.00  0.00     0.074 A 
ATOM     41  C   UNL     1      -7.312  -5.536  11.000  1.00  0.00     0.049 A 
ATOM     42  N   UNL     1      -8.485  -2.936  11.927  1.00  0.00    -0.248 NA
ATOM     43  C   UNL     1      -6.380  -1.963  11.640  1.00  0.00     0.031 C 
ATOM     44  C   UNL     1      -6.817  -6.793  10.448  1.00  0.00     0.029 A 
ATOM     45  N   UNL     1      -8.659  -5.748  11.168  1.00  0.00    -0.354 N 
ATOM     46  C   UNL     1      -8.571  -1.576  12.186  1.00  0.00     0.074 A 
ATOM     47  C   UNL     1      -7.245  -1.025  11.995  1.00  0.00     0.031 C 
ATOM     48  C   UNL     1      -7.845  -7.649  10.323  1.00  0.00     0.029 A 
ATOM     49  C   UNL     1      -9.059  -7.021  10.840  1.00  0.00     0.049 A 
ATOM     50  H   UNL     1      -9.279  -5.055  11.491  1.00  0.00     0.167 HD
ATOM     51  C   UNL     1      -9.655  -0.857  12.564  1.00  0.00     0.037 A 
ATOM     52  C   UNL     1     -10.258  -7.622  10.976  1.00  0.00     0.037 A 
ATOM     53  C   UNL     1     -10.969  -1.409  12.770  1.00  0.00     0.049 A 
ATOM     54  C   UNL     1     -11.416  -6.836  11.538  1.00  0.00     0.074 A 
ATOM     55  C   UNL     1     -12.113  -0.771  13.218  1.00  0.00     0.029 A 
ATOM     56  N   UNL     1     -11.313  -2.735  12.551  1.00  0.00    -0.354 N 
ATOM     57  N   UNL     1     -11.481  -5.566  11.857  1.00  0.00    -0.248 NA
ATOM     58  C   UNL     1     -12.668  -7.573  11.773  1.00  0.00     0.031 C 
ATOM     59  C   UNL     1     -13.132  -1.724  13.327  1.00  0.00     0.029 A 
ATOM     60  C   UNL     1     -12.643  -2.942  12.883  1.00  0.00     0.049 A 
ATOM     61  H   UNL     1     -10.702  -3.428  12.209  1.00  0.00     0.167 HD
ATOM     62  C   UNL     1     -12.776  -5.348  12.308  1.00  0.00     0.074 A 
ATOM     63  C   UNL     1     -13.473  -6.612  12.203  1.00  0.00     0.031 C 
ATOM     64  C   UNL     1     -13.334  -4.202  12.773  1.00  0.00     0.037 A 
BRANCH  51  65
ATOM     65  C   UNL     1      -9.435   0.596  12.866  1.00  0.00     0.064 A 
ATOM     66  C   UNL     1      -9.188   1.539  11.858  1.00  0.00     0.173 A 
ATOM     67  C   UNL     1      -9.465   1.046  14.195  1.00  0.00     0.173 A 
ATOM     68  F   UNL     1      -9.128   1.156  10.573  1.00  0.00    -0.203 F 
ATOM     69  C   UNL     1      -8.946   2.874  12.174  1.00  0.00     0.198 A 
ATOM     70  C   UNL     1      -9.254   2.386  14.504  1.00  0.00     0.198 A 
ATOM     71  F   UNL     1      -9.699   0.183  15.195  1.00  0.00    -0.203 F 
ATOM     72  F   UNL     1      -8.653   3.749  11.201  1.00  0.00    -0.200 F 
ATOM     73  C   UNL     1      -8.984   3.297  13.495  1.00  0.00     0.200 A 
ATOM     74  F   UNL     1      -9.302   2.793  15.780  1.00  0.00    -0.200 F 
ATOM     75  F   UNL     1      -8.748   4.581  13.796  1.00  0.00    -0.200 F 
ENDBRANCH  51  65
BRANCH  52  76
ATOM     76  C   UNL     1     -10.412  -9.066  10.648  1.00  0.00     0.064 A 
ATOM     77  C   UNL     1     -11.272  -9.501   9.629  1.00  0.00     0.173 A 
ATOM     78  C   UNL     1      -9.738 -10.048  11.391  1.00  0.00     0.173 A 
ATOM     79  F   UNL     1     -11.972  -8.607   8.915  1.00  0.00    -0.203 F 
ATOM     80  C   UNL     1     -11.465 -10.860   9.381  1.00  0.00     0.198 A 
ATOM     81  C   UNL     1      -9.905 -11.404  11.120  1.00  0.00     0.198 A 
ATOM     82  F   UNL     1      -8.921  -9.691  12.393  1.00  0.00    -0.203 F 
ATOM     83  F   UNL     1     -12.343 -11.250   8.447  1.00  0.00    -0.200 F 
ATOM     84  C   UNL     1     -10.777 -11.809  10.122  1.00  0.00     0.200 A 
ATOM     85  F   UNL     1      -9.236 -12.316  11.837  1.00  0.00    -0.200 F 
ATOM     86  F   UNL     1     -10.970 -13.115   9.888  1.00  0.00    -0.200 F 
ENDBRANCH  52  76
BRANCH  64  87
ATOM     87  C   UNL     1     -14.782  -4.246  13.176  1.00  0.00     0.064 A 
ATOM     88  C   UNL     1     -15.210  -4.926  14.326  1.00  0.00     0.173 A 
ATOM     89  C   UNL     1     -15.749  -3.555  12.428  1.00  0.00     0.173 A 
ATOM     90  F   UNL     1     -14.331  -5.614  15.070  1.00  0.00    -0.203 F 
ATOM     91  C   UNL     1     -16.552  -4.933  14.698  1.00  0.00     0.198 A 
ATOM     92  C   UNL     1     -17.084  -3.536  12.821  1.00  0.00     0.198 A 
ATOM     93  F   UNL     1     -15.395  -2.882  11.323  1.00  0.00    -0.203 F 
ATOM     94  F   UNL     1     -16.944  -5.628  15.775  1.00  0.00    -0.200 F 
ATOM     95  C   UNL     1     -17.486  -4.231  13.951  1.00  0.00     0.200 A 
ATOM     96  F   UNL     1     -17.982  -2.843  12.106  1.00  0.00    -0.200 F 
ATOM     97  F   UNL     1     -18.776  -4.228  14.317  1.00  0.00    -0.200 F 
ENDBRANCH  64  87
ENDBRANCH  38  39
ENDBRANCH  31  33
ENDBRANCH  30  31
ENDBRANCH  29  30
ENDBRANCH   1  29
TORSDOF 15
