REMARK SMILES NNC(=O)c1cccc([N+](=O)[O-])c1C(=O)OCCOC(=O)c1ccc(-c2c3nc(c(-c4c(F)c(F)c(F)c(F)c4F)c4ccc([nH]4)c(-c4c(F)c(F)c(F)c(F)c4F)c4nc(c(-c5c(F)c(F)c(F)c(F)c5F)c5ccc2[nH]5)C=C4)C=C3)cc1
REMARK SMILES IDX 17 1 16 2 14 3 15 4 13 5 5 6 6 7 7 8 9 9 8 10 3 11 2 12 4 14
REMARK SMILES IDX 1 15 10 18 11 19 12 20 18 21 19 22 20 23 21 24 22 25 23 26
REMARK SMILES IDX 84 27 24 28 83 29 25 30 26 31 27 32 77 33 28 34 82 35 76 36
REMARK SMILES IDX 78 37 29 38 81 39 75 40 74 41 30 43 62 44 42 45 61 46 43 47
REMARK SMILES IDX 46 48 60 49 79 50 44 51 45 52 59 54 80 55 47 56 31 57 32 58
REMARK SMILES IDX 40 59 33 60 34 61 38 62 41 63 35 64 36 65 39 66 37 67 63 68
REMARK SMILES IDX 64 69 72 70 65 71 66 72 70 73 73 74 67 75 68 76 71 77 69 78
REMARK SMILES IDX 48 79 49 80 57 81 50 82 51 83 55 84 58 85 52 86 53 87 56 88
REMARK SMILES IDX 54 89
REMARK H PARENT 2 13 1 16 1 17 78 42 46 53
REMARK Flexibility Score: inf
ROOT
ATOM      1  C   UNL     1      -1.146  -1.292  -0.876  1.00  0.00     0.275 C 
ENDROOT
BRANCH   1   2
ATOM      2  O   UNL     1      -1.308  -0.057  -0.141  1.00  0.00    -0.458 OA
BRANCH   2   3
ATOM      3  C   UNL     1      -0.618   1.009  -0.608  1.00  0.00     0.346 C 
ATOM      4  O   UNL     1      -0.047   1.097  -1.683  1.00  0.00    -0.246 OA
BRANCH   3   5
ATOM      5  C   UNL     1      -0.582   2.099   0.387  1.00  0.00     0.150 A 
ATOM      6  C   UNL     1      -0.192   1.854   1.711  1.00  0.00     0.062 A 
ATOM      7  C   UNL     1      -0.182   2.902   2.657  1.00  0.00     0.015 A 
ATOM      8  C   UNL     1      -0.518   4.206   2.297  1.00  0.00     0.008 A 
ATOM      9  C   UNL     1      -0.872   3.428   0.047  1.00  0.00     0.284 A 
ATOM     10  C   UNL     1      -0.858   4.476   0.983  1.00  0.00     0.086 A 
BRANCH   6  11
ATOM     11  C   UNL     1       0.205   0.529   2.237  1.00  0.00     0.266 C 
ATOM     12  N   UNL     1       1.219  -0.207   1.653  1.00  0.00    -0.290 N 
ATOM     13  H   UNL     1       1.424  -1.075   2.069  1.00  0.00     0.184 HD
ATOM     14  O   UNL     1      -0.338   0.125   3.263  1.00  0.00    -0.268 OA
BRANCH  12  15
ATOM     15  N   UNL     1       1.987   0.142   0.536  1.00  0.00    -0.248 NA
ATOM     16  H   UNL     1       2.658  -0.601   0.339  1.00  0.00     0.143 HD
ATOM     17  H   UNL     1       2.487   1.011   0.725  1.00  0.00     0.143 HD
ENDBRANCH  12  15
ENDBRANCH   6  11
BRANCH   9  18
ATOM     18  N   UNL     1      -1.207   3.831  -1.293  1.00  0.00     0.063 N 
ATOM     19  O   UNL     1      -2.366   4.225  -1.470  1.00  0.00    -0.258 OA
ATOM     20  O   UNL     1      -0.289   3.877  -2.119  1.00  0.00    -0.258 OA
ENDBRANCH   9  18
ENDBRANCH   3   5
ENDBRANCH   2   3
ENDBRANCH   1   2
BRANCH   1  21
ATOM     21  C   UNL     1      -2.442  -1.725  -1.556  1.00  0.00     0.275 C 
BRANCH  21  22
ATOM     22  O   UNL     1      -2.781  -0.802  -2.603  1.00  0.00    -0.458 OA
BRANCH  22  23
ATOM     23  C   UNL     1      -3.715   0.117  -2.269  1.00  0.00     0.338 C 
ATOM     24  O   UNL     1      -4.344   0.200  -1.230  1.00  0.00    -0.246 OA
BRANCH  23  25
ATOM     25  C   UNL     1      -3.810   1.124  -3.331  1.00  0.00     0.060 A 
ATOM     26  C   UNL     1      -2.711   1.939  -3.550  1.00  0.00     0.016 A 
ATOM     27  C   UNL     1      -5.025   1.405  -3.952  1.00  0.00     0.016 A 
ATOM     28  C   UNL     1      -2.865   3.120  -4.260  1.00  0.00     0.010 A 
ATOM     29  C   UNL     1      -5.125   2.517  -4.802  1.00  0.00     0.010 A 
ATOM     30  C   UNL     1      -4.053   3.417  -4.937  1.00  0.00    -0.014 A 
BRANCH  30  31
ATOM     31  C   UNL     1      -4.151   4.663  -5.758  1.00  0.00     0.031 A 
ATOM     32  C   UNL     1      -5.313   5.608  -5.587  1.00  0.00     0.074 A 
ATOM     33  C   UNL     1      -3.176   4.975  -6.640  1.00  0.00     0.049 A 
ATOM     34  N   UNL     1      -5.718   6.575  -6.373  1.00  0.00    -0.248 NA
ATOM     35  C   UNL     1      -6.139   5.438  -4.382  1.00  0.00     0.031 C 
ATOM     36  C   UNL     1      -1.944   4.211  -6.853  1.00  0.00     0.029 A 
ATOM     37  N   UNL     1      -3.054   6.027  -7.517  1.00  0.00    -0.354 N 
ATOM     38  C   UNL     1      -6.883   7.073  -5.800  1.00  0.00     0.074 A 
ATOM     39  C   UNL     1      -7.115   6.311  -4.592  1.00  0.00     0.031 C 
ATOM     40  C   UNL     1      -1.163   4.853  -7.727  1.00  0.00     0.029 A 
ATOM     41  C   UNL     1      -1.912   5.969  -8.280  1.00  0.00     0.049 A 
ATOM     42  H   UNL     1      -3.719   6.749  -7.592  1.00  0.00     0.167 HD
ATOM     43  C   UNL     1      -7.684   8.065  -6.260  1.00  0.00     0.037 A 
ATOM     44  C   UNL     1      -1.538   6.663  -9.370  1.00  0.00     0.037 A 
ATOM     45  C   UNL     1      -7.394   8.850  -7.435  1.00  0.00     0.049 A 
ATOM     46  C   UNL     1      -2.485   7.687  -9.919  1.00  0.00     0.074 A 
ATOM     47  C   UNL     1      -8.130   9.881  -7.993  1.00  0.00     0.029 A 
ATOM     48  N   UNL     1      -6.262   8.697  -8.225  1.00  0.00    -0.354 N 
ATOM     49  N   UNL     1      -3.636   8.087  -9.438  1.00  0.00    -0.248 NA
ATOM     50  C   UNL     1      -2.103   8.326 -11.183  1.00  0.00     0.031 C 
ATOM     51  C   UNL     1      -7.475  10.310  -9.152  1.00  0.00     0.029 A 
ATOM     52  C   UNL     1      -6.299   9.589  -9.286  1.00  0.00     0.049 A 
ATOM     53  H   UNL     1      -5.539   8.050  -8.057  1.00  0.00     0.167 HD
ATOM     54  C   UNL     1      -4.120   9.023 -10.337  1.00  0.00     0.074 A 
ATOM     55  C   UNL     1      -3.119   9.155 -11.378  1.00  0.00     0.031 C 
ATOM     56  C   UNL     1      -5.292   9.701 -10.311  1.00  0.00     0.037 A 
BRANCH  43  57
ATOM     57  C   UNL     1      -8.982   8.318  -5.541  1.00  0.00     0.064 A 
ATOM     58  C   UNL     1      -9.040   8.889  -4.261  1.00  0.00     0.173 A 
ATOM     59  C   UNL     1     -10.201   8.014  -6.172  1.00  0.00     0.173 A 
ATOM     60  F   UNL     1      -7.910   9.196  -3.607  1.00  0.00    -0.203 F 
ATOM     61  C   UNL     1     -10.263   9.115  -3.630  1.00  0.00     0.198 A 
ATOM     62  C   UNL     1     -11.421   8.271  -5.553  1.00  0.00     0.198 A 
ATOM     63  F   UNL     1     -10.210   7.476  -7.402  1.00  0.00    -0.203 F 
ATOM     64  F   UNL     1     -10.292   9.616  -2.387  1.00  0.00    -0.200 F 
ATOM     65  C   UNL     1     -11.452   8.812  -4.278  1.00  0.00     0.200 A 
ATOM     66  F   UNL     1     -12.567   7.995  -6.191  1.00  0.00    -0.200 F 
ATOM     67  F   UNL     1     -12.626   9.038  -3.672  1.00  0.00    -0.200 F 
ENDBRANCH  43  57
BRANCH  44  68
ATOM     68  C   UNL     1      -0.267   6.320 -10.067  1.00  0.00     0.064 A 
ATOM     69  C   UNL     1       0.790   7.236 -10.139  1.00  0.00     0.173 A 
ATOM     70  C   UNL     1      -0.073   5.056 -10.651  1.00  0.00     0.173 A 
ATOM     71  F   UNL     1       0.647   8.466  -9.626  1.00  0.00    -0.203 F 
ATOM     72  C   UNL     1       1.990   6.900 -10.764  1.00  0.00     0.198 A 
ATOM     73  C   UNL     1       1.141   4.708 -11.236  1.00  0.00     0.198 A 
ATOM     74  F   UNL     1      -1.053   4.141 -10.620  1.00  0.00    -0.203 F 
ATOM     75  F   UNL     1       2.971   7.809 -10.855  1.00  0.00    -0.200 F 
ATOM     76  C   UNL     1       2.170   5.633 -11.299  1.00  0.00     0.200 A 
ATOM     77  F   UNL     1       1.316   3.474 -11.729  1.00  0.00    -0.200 F 
ATOM     78  F   UNL     1       3.332   5.306 -11.880  1.00  0.00    -0.200 F 
ENDBRANCH  44  68
BRANCH  56  79
ATOM     79  C   UNL     1      -5.542  10.662 -11.434  1.00  0.00     0.064 A 
ATOM     80  C   UNL     1      -5.842  10.212 -12.729  1.00  0.00     0.173 A 
ATOM     81  C   UNL     1      -5.512  12.045 -11.206  1.00  0.00     0.173 A 
ATOM     82  F   UNL     1      -5.858   8.899 -13.001  1.00  0.00    -0.203 F 
ATOM     83  C   UNL     1      -6.085  11.116 -13.759  1.00  0.00     0.198 A 
ATOM     84  C   UNL     1      -5.787  12.944 -12.231  1.00  0.00     0.198 A 
ATOM     85  F   UNL     1      -5.230  12.523  -9.985  1.00  0.00    -0.203 F 
ATOM     86  F   UNL     1      -6.322  10.666 -14.999  1.00  0.00    -0.200 F 
ATOM     87  C   UNL     1      -6.066  12.480 -13.507  1.00  0.00     0.200 A 
ATOM     88  F   UNL     1      -5.781  14.261 -11.983  1.00  0.00    -0.200 F 
ATOM     89  F   UNL     1      -6.311  13.348 -14.498  1.00  0.00    -0.200 F 
ENDBRANCH  56  79
ENDBRANCH  30  31
ENDBRANCH  23  25
ENDBRANCH  22  23
ENDBRANCH  21  22
ENDBRANCH   1  21
TORSDOF 14
