REMARK SMILES CC1(C)[C@H](C(=O)N(Cc2ccccc2)Cc2ccccc2)CC[C@@]1(C)C(=O)OCCOC(=O)c1ccc(-c2c3nc(c(-c4c(F)c(F)c(F)c(F)c4F)c4ccc([nH]4)c(-c4c(F)c(F)c(F)c(F)c4F)c4nc(c(-c5c(F)c(F)c(F)c(F)c5F)c5ccc2[nH]5)C=C4)C=C3)cc1
REMARK SMILES IDX 29 1 28 2 26 3 27 4 24 5 1 6 2 7 3 8 4 9 22 10 23 11 25 12
REMARK SMILES IDX 5 13 6 14 7 15 8 16 9 17 10 18 14 19 11 20 13 21 12 22 15 23
REMARK SMILES IDX 16 24 17 25 21 26 18 27 20 28 19 29 30 30 31 31 32 32 33 33
REMARK SMILES IDX 34 34 35 35 96 36 36 37 95 38 37 39 38 40 39 41 89 42 40 43
REMARK SMILES IDX 94 44 88 45 90 46 41 47 93 48 87 49 86 50 42 52 74 53 54 54
REMARK SMILES IDX 73 55 55 56 58 57 72 58 91 59 56 60 57 61 71 63 92 64 59 65
REMARK SMILES IDX 43 66 44 67 52 68 45 69 46 70 50 71 53 72 47 73 48 74 51 75
REMARK SMILES IDX 49 76 75 77 76 78 84 79 77 80 78 81 82 82 85 83 79 84 80 85
REMARK SMILES IDX 83 86 81 87 60 88 61 89 69 90 62 91 63 92 67 93 70 94 64 95
REMARK SMILES IDX 65 96 68 97 66 98
REMARK H PARENT 90 51 58 62
REMARK Flexibility Score: inf
ROOT
ATOM      1  C   UNL     1       4.053   2.273   0.265  1.00  0.00     0.274 C 
ENDROOT
BRANCH   1   2
ATOM      2  O   UNL     1       2.763   1.851   0.746  1.00  0.00    -0.462 OA
BRANCH   2   3
ATOM      3  C   UNL     1       2.754   0.865   1.686  1.00  0.00     0.312 C 
ATOM      4  O   UNL     1       3.756   0.312   2.119  1.00  0.00    -0.252 OA
BRANCH   3   5
ATOM      5  C   UNL     1       1.314   0.512   2.110  1.00  0.00     0.071 C 
ATOM      6  C   UNL     1       1.434  -0.728  -0.213  1.00  0.00     0.013 C 
ATOM      7  C   UNL     1       0.652  -0.527   1.110  1.00  0.00    -0.008 C 
ATOM      8  C   UNL     1      -0.741  -0.079   0.676  1.00  0.00     0.013 C 
ATOM      9  C   UNL     1       0.670  -1.864   1.904  1.00  0.00     0.085 C 
ATOM     10  C   UNL     1       0.676  -1.549   3.384  1.00  0.00     0.015 C 
ATOM     11  C   UNL     1       1.351  -0.194   3.504  1.00  0.00     0.020 C 
ATOM     12  C   UNL     1       0.520   1.832   2.286  1.00  0.00     0.024 C 
BRANCH   9  13
ATOM     13  C   UNL     1      -0.198  -3.042   1.431  1.00  0.00     0.226 C 
ATOM     14  O   UNL     1       0.435  -3.980   0.918  1.00  0.00    -0.275 OA
ATOM     15  N   UNL     1      -1.590  -3.119   1.518  1.00  0.00    -0.334 N 
BRANCH  15  16
ATOM     16  C   UNL     1      -2.495  -2.348   2.398  1.00  0.00     0.155 C 
BRANCH  16  17
ATOM     17  C   UNL     1      -3.630  -1.549   1.770  1.00  0.00    -0.029 A 
ATOM     18  C   UNL     1      -3.781  -0.188   2.110  1.00  0.00     0.005 A 
ATOM     19  C   UNL     1      -4.591  -2.097   0.912  1.00  0.00     0.005 A 
ATOM     20  C   UNL     1      -4.750   0.617   1.506  1.00  0.00     0.000 A 
ATOM     21  C   UNL     1      -5.571  -1.297   0.314  1.00  0.00     0.000 A 
ATOM     22  C   UNL     1      -5.636   0.063   0.591  1.00  0.00     0.000 A 
ENDBRANCH  16  17
ENDBRANCH  15  16
BRANCH  15  23
ATOM     23  C   UNL     1      -2.153  -4.335   0.912  1.00  0.00     0.155 C 
BRANCH  23  24
ATOM     24  C   UNL     1      -2.111  -4.354  -0.606  1.00  0.00    -0.029 A 
ATOM     25  C   UNL     1      -1.879  -5.566  -1.272  1.00  0.00     0.005 A 
ATOM     26  C   UNL     1      -2.292  -3.199  -1.379  1.00  0.00     0.005 A 
ATOM     27  C   UNL     1      -1.786  -5.609  -2.666  1.00  0.00     0.000 A 
ATOM     28  C   UNL     1      -2.190  -3.237  -2.770  1.00  0.00     0.000 A 
ATOM     29  C   UNL     1      -1.931  -4.442  -3.413  1.00  0.00     0.000 A 
ENDBRANCH  23  24
ENDBRANCH  15  23
ENDBRANCH   9  13
ENDBRANCH   3   5
ENDBRANCH   2   3
ENDBRANCH   1   2
BRANCH   1  30
ATOM     30  C   UNL     1       4.396   3.645   0.834  1.00  0.00     0.275 C 
BRANCH  30  31
ATOM     31  O   UNL     1       4.480   3.560   2.268  1.00  0.00    -0.458 OA
BRANCH  31  32
ATOM     32  C   UNL     1       3.590   4.314   2.949  1.00  0.00     0.338 C 
ATOM     33  O   UNL     1       2.785   5.113   2.506  1.00  0.00    -0.246 OA
BRANCH  32  34
ATOM     34  C   UNL     1       3.665   3.985   4.380  1.00  0.00     0.060 A 
ATOM     35  C   UNL     1       3.103   2.790   4.822  1.00  0.00     0.016 A 
ATOM     36  C   UNL     1       4.131   4.926   5.295  1.00  0.00     0.016 A 
ATOM     37  C   UNL     1       2.907   2.567   6.180  1.00  0.00     0.010 A 
ATOM     38  C   UNL     1       4.016   4.662   6.663  1.00  0.00     0.010 A 
ATOM     39  C   UNL     1       3.362   3.501   7.117  1.00  0.00    -0.014 A 
BRANCH  39  40
ATOM     40  C   UNL     1       3.087   3.293   8.562  1.00  0.00     0.031 A 
ATOM     41  C   UNL     1       2.212   4.266   9.305  1.00  0.00     0.074 A 
ATOM     42  C   UNL     1       3.586   2.219   9.202  1.00  0.00     0.049 A 
ATOM     43  N   UNL     1       1.970   4.353  10.588  1.00  0.00    -0.248 NA
ATOM     44  C   UNL     1       1.523   5.284   8.495  1.00  0.00     0.031 C 
ATOM     45  C   UNL     1       4.400   1.169   8.588  1.00  0.00     0.029 A 
ATOM     46  N   UNL     1       3.475   1.829  10.513  1.00  0.00    -0.354 N 
ATOM     47  C   UNL     1       1.152   5.464  10.745  1.00  0.00     0.074 A 
ATOM     48  C   UNL     1       0.932   6.018   9.427  1.00  0.00     0.031 C 
ATOM     49  C   UNL     1       4.695   0.244   9.513  1.00  0.00     0.029 A 
ATOM     50  C   UNL     1       4.154   0.670  10.799  1.00  0.00     0.049 A 
ATOM     51  H   UNL     1       2.959   2.332  11.184  1.00  0.00     0.167 HD
ATOM     52  C   UNL     1       0.637   5.976  11.889  1.00  0.00     0.037 A 
ATOM     53  C   UNL     1       4.349   0.041  11.973  1.00  0.00     0.037 A 
ATOM     54  C   UNL     1       0.814   5.392  13.192  1.00  0.00     0.049 A 
ATOM     55  C   UNL     1       3.766   0.630  13.227  1.00  0.00     0.074 A 
ATOM     56  C   UNL     1       0.338   5.838  14.413  1.00  0.00     0.029 A 
ATOM     57  N   UNL     1       1.511   4.219  13.439  1.00  0.00    -0.354 N 
ATOM     58  N   UNL     1       3.048   1.716  13.374  1.00  0.00    -0.248 NA
ATOM     59  C   UNL     1       4.031  -0.090  14.480  1.00  0.00     0.031 C 
ATOM     60  C   UNL     1       0.766   4.945  15.402  1.00  0.00     0.029 A 
ATOM     61  C   UNL     1       1.478   3.925  14.793  1.00  0.00     0.049 A 
ATOM     62  H   UNL     1       1.963   3.675  12.754  1.00  0.00     0.167 HD
ATOM     63  C   UNL     1       2.769   1.807  14.730  1.00  0.00     0.074 A 
ATOM     64  C   UNL     1       3.373   0.651  15.360  1.00  0.00     0.031 C 
ATOM     65  C   UNL     1       2.081   2.766  15.397  1.00  0.00     0.037 A 
BRANCH  52  66
ATOM     66  C   UNL     1      -0.138   7.256  11.784  1.00  0.00     0.064 A 
ATOM     67  C   UNL     1      -1.437   7.297  11.259  1.00  0.00     0.173 A 
ATOM     68  C   UNL     1       0.424   8.457  12.244  1.00  0.00     0.173 A 
ATOM     69  F   UNL     1      -2.010   6.179  10.789  1.00  0.00    -0.203 F 
ATOM     70  C   UNL     1      -2.138   8.498  11.178  1.00  0.00     0.198 A 
ATOM     71  C   UNL     1      -0.288   9.652  12.183  1.00  0.00     0.198 A 
ATOM     72  F   UNL     1       1.663   8.471  12.757  1.00  0.00    -0.203 F 
ATOM     73  F   UNL     1      -3.362   8.522  10.634  1.00  0.00    -0.200 F 
ATOM     74  C   UNL     1      -1.566   9.672  11.645  1.00  0.00     0.200 A 
ATOM     75  F   UNL     1       0.263  10.784  12.643  1.00  0.00    -0.200 F 
ATOM     76  F   UNL     1      -2.244  10.826  11.570  1.00  0.00    -0.200 F 
ENDBRANCH  52  66
BRANCH  53  77
ATOM     77  C   UNL     1       5.160  -1.202  12.019  1.00  0.00     0.064 A 
ATOM     78  C   UNL     1       4.567  -2.442  12.293  1.00  0.00     0.173 A 
ATOM     79  C   UNL     1       6.544  -1.175  11.791  1.00  0.00     0.173 A 
ATOM     80  F   UNL     1       3.251  -2.514  12.542  1.00  0.00    -0.203 F 
ATOM     81  C   UNL     1       5.330  -3.606  12.349  1.00  0.00     0.198 A 
ATOM     82  C   UNL     1       7.301  -2.343  11.820  1.00  0.00     0.198 A 
ATOM     83  F   UNL     1       7.158  -0.013  11.527  1.00  0.00    -0.203 F 
ATOM     84  F   UNL     1       4.746  -4.773  12.654  1.00  0.00    -0.200 F 
ATOM     85  C   UNL     1       6.695  -3.557  12.106  1.00  0.00     0.200 A 
ATOM     86  F   UNL     1       8.617  -2.293  11.573  1.00  0.00    -0.200 F 
ATOM     87  F   UNL     1       7.427  -4.678  12.156  1.00  0.00    -0.200 F 
ENDBRANCH  53  77
BRANCH  65  88
ATOM     88  C   UNL     1       1.925   2.583  16.876  1.00  0.00     0.064 A 
ATOM     89  C   UNL     1       2.995   2.797  17.757  1.00  0.00     0.173 A 
ATOM     90  C   UNL     1       0.689   2.201  17.418  1.00  0.00     0.173 A 
ATOM     91  F   UNL     1       4.200   3.147  17.283  1.00  0.00    -0.203 F 
ATOM     92  C   UNL     1       2.840   2.607  19.127  1.00  0.00     0.198 A 
ATOM     93  C   UNL     1       0.532   2.036  18.790  1.00  0.00     0.198 A 
ATOM     94  F   UNL     1      -0.364   1.989  16.615  1.00  0.00    -0.203 F 
ATOM     95  F   UNL     1       3.888   2.769  19.947  1.00  0.00    -0.200 F 
ATOM     96  C   UNL     1       1.609   2.231  19.643  1.00  0.00     0.200 A 
ATOM     97  F   UNL     1      -0.660   1.679  19.288  1.00  0.00    -0.200 F 
ATOM     98  F   UNL     1       1.462   2.044  20.962  1.00  0.00    -0.200 F 
ENDBRANCH  65  88
ENDBRANCH  39  40
ENDBRANCH  32  34
ENDBRANCH  31  32
ENDBRANCH  30  31
ENDBRANCH   1  30
TORSDOF 16
