REMARK SMILES O=C(Cc1ccn[nH]1)NC[C@H]1CCCC[C@H]1C(=O)OCCOC(=O)c1ccc(-c2c3nc(c(-c4c(F)c(F)c(F)c(F)c4F)c4ccc([nH]4)c(-c4c(F)c(F)c(F)c(F)c4F)c4nc(c(-c5c(F)c(F)c(F)c(F)c5F)c5ccc2[nH]5)C=C4)C=C3)cc1
REMARK SMILES IDX 20 1 19 2 17 3 18 4 16 5 11 6 12 7 13 8 15 9 14 10 10 11
REMARK SMILES IDX 9 12 1 13 2 14 3 16 4 17 5 18 8 19 6 20 7 21 21 23 22 24
REMARK SMILES IDX 23 25 24 26 25 27 26 28 87 29 27 30 86 31 28 32 29 33 30 34
REMARK SMILES IDX 80 35 31 36 85 37 79 38 81 39 32 40 84 41 78 42 77 43 33 45
REMARK SMILES IDX 65 46 45 47 64 48 46 49 49 50 63 51 82 52 47 53 48 54 62 56
REMARK SMILES IDX 83 57 50 58 34 59 35 60 43 61 36 62 37 63 41 64 44 65 38 66
REMARK SMILES IDX 39 67 42 68 40 69 66 70 67 71 75 72 68 73 69 74 73 75 76 76
REMARK SMILES IDX 70 77 71 78 74 79 72 80 51 81 52 82 60 83 53 84 54 85 58 86
REMARK SMILES IDX 61 87 55 88 56 89 59 90 57 91
REMARK H PARENT 9 15 8 22 81 44 49 55
REMARK Flexibility Score: inf
ROOT
ATOM      1  C   UNL     1       1.985   3.217  -6.517  1.00  0.00     0.274 C 
ENDROOT
BRANCH   1   2
ATOM      2  O   UNL     1       2.430   3.489  -5.173  1.00  0.00    -0.462 OA
BRANCH   2   3
ATOM      3  C   UNL     1       1.591   4.196  -4.386  1.00  0.00     0.309 C 
ATOM      4  O   UNL     1       0.544   4.707  -4.769  1.00  0.00    -0.252 OA
BRANCH   3   5
ATOM      5  C   UNL     1       2.061   4.321  -2.944  1.00  0.00     0.104 C 
ATOM      6  C   UNL     1       2.813   3.134  -2.300  1.00  0.00     0.022 C 
ATOM      7  C   UNL     1       2.964   3.397  -0.783  1.00  0.00     0.006 C 
ATOM      8  C   UNL     1       3.502   4.785  -0.429  1.00  0.00     0.000 C 
ATOM      9  C   UNL     1       2.680   5.686  -2.657  1.00  0.00     0.016 C 
ATOM     10  C   UNL     1       2.767   5.912  -1.148  1.00  0.00     0.001 C 
BRANCH   6  11
ATOM     11  C   UNL     1       4.138   2.648  -2.932  1.00  0.00     0.120 C 
BRANCH  11  12
ATOM     12  N   UNL     1       5.253   3.562  -2.795  1.00  0.00    -0.355 N 
ATOM     13  O   UNL     1       6.680   2.023  -1.869  1.00  0.00    -0.275 OA
ATOM     14  C   UNL     1       6.447   3.180  -2.216  1.00  0.00     0.226 C 
ATOM     15  H   UNL     1       5.156   4.485  -3.125  1.00  0.00     0.163 HD
BRANCH  14  16
ATOM     16  C   UNL     1       7.410   4.306  -1.863  1.00  0.00     0.155 C 
BRANCH  16  17
ATOM     17  C   UNL     1       7.595   5.309  -2.947  1.00  0.00     0.044 A 
ATOM     18  C   UNL     1       8.491   5.374  -3.993  1.00  0.00     0.045 A 
ATOM     19  N   UNL     1       6.872   6.471  -3.009  1.00  0.00    -0.282 N 
ATOM     20  C   UNL     1       8.196   6.585  -4.643  1.00  0.00     0.135 A 
ATOM     21  N   UNL     1       7.185   7.236  -4.064  1.00  0.00    -0.184 NA
ATOM     22  H   UNL     1       6.190   6.719  -2.344  1.00  0.00     0.190 HD
ENDBRANCH  16  17
ENDBRANCH  14  16
ENDBRANCH  11  12
ENDBRANCH   6  11
ENDBRANCH   3   5
ENDBRANCH   2   3
ENDBRANCH   1   2
BRANCH   1  23
ATOM     23  C   UNL     1       1.406   1.804  -6.630  1.00  0.00     0.275 C 
BRANCH  23  24
ATOM     24  O   UNL     1       0.145   1.695  -5.940  1.00  0.00    -0.458 OA
BRANCH  24  25
ATOM     25  C   UNL     1       0.213   1.187  -4.688  1.00  0.00     0.338 C 
ATOM     26  O   UNL     1       1.203   0.779  -4.107  1.00  0.00    -0.246 OA
BRANCH  25  27
ATOM     27  C   UNL     1      -1.098   1.319  -4.033  1.00  0.00     0.060 A 
ATOM     28  C   UNL     1      -1.204   2.183  -2.940  1.00  0.00     0.016 A 
ATOM     29  C   UNL     1      -2.191   0.551  -4.436  1.00  0.00     0.016 A 
ATOM     30  C   UNL     1      -2.404   2.293  -2.245  1.00  0.00     0.010 A 
ATOM     31  C   UNL     1      -3.398   0.660  -3.736  1.00  0.00     0.010 A 
ATOM     32  C   UNL     1      -3.508   1.526  -2.634  1.00  0.00    -0.014 A 
BRANCH  32  33
ATOM     33  C   UNL     1      -4.762   1.599  -1.848  1.00  0.00     0.031 A 
ATOM     34  C   UNL     1      -5.121   0.483  -0.913  1.00  0.00     0.074 A 
ATOM     35  C   UNL     1      -5.559   2.677  -1.954  1.00  0.00     0.049 A 
ATOM     36  N   UNL     1      -6.199   0.321  -0.188  1.00  0.00    -0.248 NA
ATOM     37  C   UNL     1      -4.132  -0.597  -0.774  1.00  0.00     0.031 C 
ATOM     38  C   UNL     1      -5.284   3.850  -2.782  1.00  0.00     0.029 A 
ATOM     39  N   UNL     1      -6.761   2.961  -1.357  1.00  0.00    -0.354 N 
ATOM     40  C   UNL     1      -6.028  -0.886   0.476  1.00  0.00     0.074 A 
ATOM     41  C   UNL     1      -4.750  -1.423   0.057  1.00  0.00     0.031 C 
ATOM     42  C   UNL     1      -6.285   4.733  -2.634  1.00  0.00     0.029 A 
ATOM     43  C   UNL     1      -7.292   4.167  -1.741  1.00  0.00     0.049 A 
ATOM     44  H   UNL     1      -7.201   2.357  -0.716  1.00  0.00     0.167 HD
ATOM     45  C   UNL     1      -6.864  -1.488   1.357  1.00  0.00     0.037 A 
ATOM     46  C   UNL     1      -8.470   4.737  -1.423  1.00  0.00     0.037 A 
ATOM     47  C   UNL     1      -8.128  -0.943   1.778  1.00  0.00     0.049 A 
ATOM     48  C   UNL     1      -9.416   4.008  -0.509  1.00  0.00     0.074 A 
ATOM     49  C   UNL     1      -9.039  -1.467   2.679  1.00  0.00     0.029 A 
ATOM     50  N   UNL     1      -8.662   0.254   1.321  1.00  0.00    -0.354 N 
ATOM     51  N   UNL     1      -9.253   2.865   0.112  1.00  0.00    -0.248 NA
ATOM     52  C   UNL     1     -10.717   4.645  -0.262  1.00  0.00     0.031 C 
ATOM     53  C   UNL     1     -10.144  -0.610   2.733  1.00  0.00     0.029 A 
ATOM     54  C   UNL     1      -9.902   0.471   1.901  1.00  0.00     0.049 A 
ATOM     55  H   UNL     1      -8.224   0.859   0.680  1.00  0.00     0.167 HD
ATOM     56  C   UNL     1     -10.415   2.657   0.841  1.00  0.00     0.074 A 
ATOM     57  C   UNL     1     -11.273   3.797   0.593  1.00  0.00     0.031 C 
ATOM     58  C   UNL     1     -10.741   1.615   1.645  1.00  0.00     0.037 A 
BRANCH  45  59
ATOM     59  C   UNL     1      -6.449  -2.829   1.888  1.00  0.00     0.064 A 
ATOM     60  C   UNL     1      -5.402  -2.969   2.811  1.00  0.00     0.173 A 
ATOM     61  C   UNL     1      -7.116  -3.991   1.470  1.00  0.00     0.173 A 
ATOM     62  F   UNL     1      -4.723  -1.890   3.230  1.00  0.00    -0.203 F 
ATOM     63  C   UNL     1      -5.016  -4.226   3.269  1.00  0.00     0.198 A 
ATOM     64  C   UNL     1      -6.745  -5.243   1.952  1.00  0.00     0.198 A 
ATOM     65  F   UNL     1      -8.127  -3.912   0.592  1.00  0.00    -0.203 F 
ATOM     66  F   UNL     1      -3.978  -4.341   4.109  1.00  0.00    -0.200 F 
ATOM     67  C   UNL     1      -5.689  -5.361   2.843  1.00  0.00     0.200 A 
ATOM     68  F   UNL     1      -7.403  -6.338   1.545  1.00  0.00    -0.200 F 
ATOM     69  F   UNL     1      -5.314  -6.570   3.283  1.00  0.00    -0.200 F 
ENDBRANCH  45  59
BRANCH  46  70
ATOM     70  C   UNL     1      -8.822   6.067  -1.982  1.00  0.00     0.064 A 
ATOM     71  C   UNL     1      -8.882   7.198  -1.156  1.00  0.00     0.173 A 
ATOM     72  C   UNL     1      -9.104   6.237  -3.345  1.00  0.00     0.173 A 
ATOM     73  F   UNL     1      -8.646   7.080   0.159  1.00  0.00    -0.203 F 
ATOM     74  C   UNL     1      -9.216   8.448  -1.673  1.00  0.00     0.198 A 
ATOM     75  C   UNL     1      -9.414   7.491  -3.865  1.00  0.00     0.198 A 
ATOM     76  F   UNL     1      -9.066   5.184  -4.175  1.00  0.00    -0.203 F 
ATOM     77  F   UNL     1      -9.301   9.507  -0.856  1.00  0.00    -0.200 F 
ATOM     78  C   UNL     1      -9.475   8.595  -3.028  1.00  0.00     0.200 A 
ATOM     79  F   UNL     1      -9.655   7.630  -5.176  1.00  0.00    -0.200 F 
ATOM     80  F   UNL     1      -9.791   9.799  -3.525  1.00  0.00    -0.200 F 
ENDBRANCH  46  70
BRANCH  58  81
ATOM     81  C   UNL     1     -12.069   1.679   2.342  1.00  0.00     0.064 A 
ATOM     82  C   UNL     1     -13.271   1.472   1.651  1.00  0.00     0.173 A 
ATOM     83  C   UNL     1     -12.134   1.918   3.723  1.00  0.00     0.173 A 
ATOM     84  F   UNL     1     -13.261   1.258   0.327  1.00  0.00    -0.203 F 
ATOM     85  C   UNL     1     -14.494   1.524   2.315  1.00  0.00     0.198 A 
ATOM     86  C   UNL     1     -13.357   1.943   4.388  1.00  0.00     0.198 A 
ATOM     87  F   UNL     1     -11.011   2.118   4.429  1.00  0.00    -0.203 F 
ATOM     88  F   UNL     1     -15.635   1.368   1.628  1.00  0.00    -0.200 F 
ATOM     89  C   UNL     1     -14.536   1.753   3.683  1.00  0.00     0.200 A 
ATOM     90  F   UNL     1     -13.394   2.154   5.710  1.00  0.00    -0.200 F 
ATOM     91  F   UNL     1     -15.713   1.799   4.320  1.00  0.00    -0.200 F 
ENDBRANCH  58  81
ENDBRANCH  32  33
ENDBRANCH  25  27
ENDBRANCH  24  25
ENDBRANCH  23  24
ENDBRANCH   1  23
TORSDOF 15
