REMARK SMILES CCCCNC(=O)[C@@H](C)Oc1ccc(N)cc1C(=O)OCCOC(=O)c1ccc(-c2c3nc(c(-c4c(F)c(F)c(F)c(F)c4F)c4ccc([nH]4)c(-c4c(F)c(F)c(F)c(F)c4F)c4nc(c(-c5c(F)c(F)c(F)c(F)c5F)c5ccc2[nH]5)C=C4)C=C3)cc1
REMARK SMILES IDX 18 1 19 2 17 3 11 4 12 5 13 6 16 7 14 8 10 9 8 10 9 11 6 12
REMARK SMILES IDX 5 13 7 15 4 16 3 17 2 18 1 19 15 20 20 23 21 24 22 25 23 26
REMARK SMILES IDX 24 27 25 28 26 29 27 30 88 31 28 32 87 33 29 34 30 35 31 36
REMARK SMILES IDX 81 37 32 38 86 39 80 40 82 41 33 42 85 43 79 44 78 45 34 47
REMARK SMILES IDX 66 48 46 49 65 50 47 51 50 52 64 53 83 54 48 55 49 56 63 58
REMARK SMILES IDX 84 59 51 60 35 61 36 62 44 63 37 64 38 65 42 66 45 67 39 68
REMARK SMILES IDX 40 69 43 70 41 71 67 72 68 73 76 74 69 75 70 76 74 77 77 78
REMARK SMILES IDX 71 79 72 80 75 81 73 82 52 83 53 84 61 85 54 86 55 87 59 88
REMARK SMILES IDX 62 89 56 90 57 91 60 92 58 93
REMARK H PARENT 5 14 15 21 15 22 82 46 50 57
REMARK Flexibility Score: inf
ROOT
ATOM      1  C   UNL     1       1.913   4.981   4.449  1.00  0.00     0.342 C 
ATOM      2  O   UNL     1       2.593   5.972   4.213  1.00  0.00    -0.246 OA
ENDROOT
BRANCH   1   3
ATOM      3  C   UNL     1       1.543   4.057   3.356  1.00  0.00     0.104 A 
ATOM      4  C   UNL     1       0.220   3.808   3.015  1.00  0.00     0.135 A 
ATOM      5  C   UNL     1      -0.086   3.510   1.685  1.00  0.00     0.049 A 
ATOM      6  C   UNL     1       0.939   3.238   0.768  1.00  0.00     0.029 A 
ATOM      7  C   UNL     1       2.553   3.669   2.464  1.00  0.00     0.045 A 
ATOM      8  C   UNL     1       2.263   3.192   1.190  1.00  0.00     0.032 A 
BRANCH   4   9
ATOM      9  O   UNL     1      -0.785   3.905   3.927  1.00  0.00    -0.480 OA
BRANCH   9  10
ATOM     10  C   UNL     1      -1.195   2.638   4.467  1.00  0.00     0.258 C 
ATOM     11  C   UNL     1      -0.245   2.079   5.531  1.00  0.00     0.064 C 
BRANCH  10  12
ATOM     12  C   UNL     1      -1.835   1.539   3.558  1.00  0.00     0.260 C 
ATOM     13  N   UNL     1      -1.132   0.540   2.949  1.00  0.00    -0.353 N 
ATOM     14  H   UNL     1      -1.682  -0.208   2.621  1.00  0.00     0.163 HD
ATOM     15  O   UNL     1      -3.058   1.539   3.366  1.00  0.00    -0.271 OA
BRANCH  13  16
ATOM     16  C   UNL     1       0.289   0.398   2.705  1.00  0.00     0.116 C 
BRANCH  16  17
ATOM     17  C   UNL     1       0.739  -1.033   2.430  1.00  0.00     0.021 C 
BRANCH  17  18
ATOM     18  C   UNL     1       0.336  -1.586   1.057  1.00  0.00    -0.002 C 
ATOM     19  C   UNL     1       0.876  -0.786  -0.124  1.00  0.00     0.004 C 
ENDBRANCH  17  18
ENDBRANCH  16  17
ENDBRANCH  13  16
ENDBRANCH  10  12
ENDBRANCH   9  10
ENDBRANCH   4   9
BRANCH   8  20
ATOM     20  N   UNL     1       3.288   2.835   0.332  1.00  0.00    -0.399 N 
ATOM     21  H   UNL     1       3.079   2.498  -0.570  1.00  0.00     0.156 HD
ATOM     22  H   UNL     1       4.225   2.919   0.622  1.00  0.00     0.156 HD
ENDBRANCH   8  20
ENDBRANCH   1   3
BRANCH   1  23
ATOM     23  O   UNL     1       1.460   4.613   5.667  1.00  0.00    -0.458 OA
BRANCH  23  24
ATOM     24  C   UNL     1       1.748   5.545   6.732  1.00  0.00     0.275 C 
BRANCH  24  25
ATOM     25  C   UNL     1       2.955   5.116   7.568  1.00  0.00     0.275 C 
BRANCH  25  26
ATOM     26  O   UNL     1       4.178   5.191   6.811  1.00  0.00    -0.458 OA
BRANCH  26  27
ATOM     27  C   UNL     1       4.602   4.012   6.307  1.00  0.00     0.338 C 
ATOM     28  O   UNL     1       4.085   2.915   6.436  1.00  0.00    -0.246 OA
BRANCH  27  29
ATOM     29  C   UNL     1       5.791   4.204   5.465  1.00  0.00     0.060 A 
ATOM     30  C   UNL     1       5.598   4.599   4.149  1.00  0.00     0.016 A 
ATOM     31  C   UNL     1       7.043   3.764   5.882  1.00  0.00     0.016 A 
ATOM     32  C   UNL     1       6.589   4.383   3.200  1.00  0.00     0.010 A 
ATOM     33  C   UNL     1       8.093   3.706   4.955  1.00  0.00     0.010 A 
ATOM     34  C   UNL     1       7.865   3.960   3.589  1.00  0.00    -0.014 A 
BRANCH  34  35
ATOM     35  C   UNL     1       8.936   3.772   2.567  1.00  0.00     0.031 A 
ATOM     36  C   UNL     1       9.676   2.462   2.465  1.00  0.00     0.074 A 
ATOM     37  C   UNL     1       9.239   4.767   1.707  1.00  0.00     0.049 A 
ATOM     38  N   UNL     1      10.754   2.166   1.781  1.00  0.00    -0.248 NA
ATOM     39  C   UNL     1       9.143   1.337   3.249  1.00  0.00     0.031 C 
ATOM     40  C   UNL     1       8.570   6.068   1.643  1.00  0.00     0.029 A 
ATOM     41  N   UNL     1      10.179   4.837   0.708  1.00  0.00    -0.354 N 
ATOM     42  C   UNL     1      11.068   0.853   2.110  1.00  0.00     0.074 A 
ATOM     43  C   UNL     1      10.065   0.405   3.053  1.00  0.00     0.031 C 
ATOM     44  C   UNL     1       9.071   6.777   0.623  1.00  0.00     0.029 A 
ATOM     45  C   UNL     1      10.180   6.037   0.038  1.00  0.00     0.049 A 
ATOM     46  H   UNL     1      10.794   4.098   0.492  1.00  0.00     0.167 HD
ATOM     47  C   UNL     1      12.103   0.096   1.669  1.00  0.00     0.037 A 
ATOM     48  C   UNL     1      11.012   6.518  -0.905  1.00  0.00     0.037 A 
ATOM     49  C   UNL     1      13.059   0.529   0.682  1.00  0.00     0.049 A 
ATOM     50  C   UNL     1      12.179   5.680  -1.339  1.00  0.00     0.074 A 
ATOM     51  C   UNL     1      14.125  -0.172   0.144  1.00  0.00     0.029 A 
ATOM     52  N   UNL     1      13.056   1.776   0.072  1.00  0.00    -0.354 N 
ATOM     53  N   UNL     1      12.504   4.463  -0.978  1.00  0.00    -0.248 NA
ATOM     54  C   UNL     1      13.114   6.298  -2.288  1.00  0.00     0.031 C 
ATOM     55  C   UNL     1      14.794   0.666  -0.754  1.00  0.00     0.029 A 
ATOM     56  C   UNL     1      14.114   1.872  -0.818  1.00  0.00     0.049 A 
ATOM     57  H   UNL     1      12.399   2.488   0.247  1.00  0.00     0.167 HD
ATOM     58  C   UNL     1      13.668   4.160  -1.668  1.00  0.00     0.074 A 
ATOM     59  C   UNL     1      13.983   5.316  -2.482  1.00  0.00     0.031 C 
ATOM     60  C   UNL     1      14.411   3.028  -1.626  1.00  0.00     0.037 A 
BRANCH  47  61
ATOM     61  C   UNL     1      12.287  -1.262   2.288  1.00  0.00     0.064 A 
ATOM     62  C   UNL     1      11.409  -2.327   2.040  1.00  0.00     0.173 A 
ATOM     63  C   UNL     1      13.382  -1.503   3.135  1.00  0.00     0.173 A 
ATOM     64  F   UNL     1      10.340  -2.150   1.249  1.00  0.00    -0.203 F 
ATOM     65  C   UNL     1      11.599  -3.569   2.643  1.00  0.00     0.198 A 
ATOM     66  C   UNL     1      13.588  -2.755   3.709  1.00  0.00     0.198 A 
ATOM     67  F   UNL     1      14.260  -0.524   3.401  1.00  0.00    -0.203 F 
ATOM     68  F   UNL     1      10.714  -4.555   2.436  1.00  0.00    -0.200 F 
ATOM     69  C   UNL     1      12.690  -3.784   3.472  1.00  0.00     0.200 A 
ATOM     70  F   UNL     1      14.651  -2.963   4.498  1.00  0.00    -0.200 F 
ATOM     71  F   UNL     1      12.871  -4.980   4.049  1.00  0.00    -0.200 F 
ENDBRANCH  47  61
BRANCH  48  72
ATOM     72  C   UNL     1      10.789   7.876  -1.468  1.00  0.00     0.064 A 
ATOM     73  C   UNL     1      10.409   8.043  -2.806  1.00  0.00     0.173 A 
ATOM     74  C   UNL     1      10.931   9.029  -0.681  1.00  0.00     0.173 A 
ATOM     75  F   UNL     1      10.287   6.973  -3.606  1.00  0.00    -0.203 F 
ATOM     76  C   UNL     1      10.185   9.312  -3.337  1.00  0.00     0.198 A 
ATOM     77  C   UNL     1      10.673  10.294  -1.203  1.00  0.00     0.198 A 
ATOM     78  F   UNL     1      11.294   8.925   0.606  1.00  0.00    -0.203 F 
ATOM     79  F   UNL     1       9.860   9.446  -4.630  1.00  0.00    -0.200 F 
ATOM     80  C   UNL     1      10.306  10.435  -2.532  1.00  0.00     0.200 A 
ATOM     81  F   UNL     1      10.775  11.374  -0.417  1.00  0.00    -0.200 F 
ATOM     82  F   UNL     1      10.077  11.654  -3.040  1.00  0.00    -0.200 F 
ENDBRANCH  48  72
BRANCH  60  83
ATOM     83  C   UNL     1      15.614   2.971  -2.520  1.00  0.00     0.064 A 
ATOM     84  C   UNL     1      16.769   3.720  -2.251  1.00  0.00     0.173 A 
ATOM     85  C   UNL     1      15.616   2.141  -3.652  1.00  0.00     0.173 A 
ATOM     86  F   UNL     1      16.808   4.543  -1.192  1.00  0.00    -0.203 F 
ATOM     87  C   UNL     1      17.873   3.660  -3.097  1.00  0.00     0.198 A 
ATOM     88  C   UNL     1      16.732   2.062  -4.479  1.00  0.00     0.198 A 
ATOM     89  F   UNL     1      14.537   1.403  -3.951  1.00  0.00    -0.203 F 
ATOM     90  F   UNL     1      18.946   4.424  -2.850  1.00  0.00    -0.200 F 
ATOM     91  C   UNL     1      17.856   2.827  -4.206  1.00  0.00     0.200 A 
ATOM     92  F   UNL     1      16.719   1.247  -5.543  1.00  0.00    -0.200 F 
ATOM     93  F   UNL     1      18.921   2.768  -5.018  1.00  0.00    -0.200 F 
ENDBRANCH  60  83
ENDBRANCH  34  35
ENDBRANCH  27  29
ENDBRANCH  26  27
ENDBRANCH  25  26
ENDBRANCH  24  25
ENDBRANCH  23  24
ENDBRANCH   1  23
TORSDOF 18
