REMARK SMILES C[C@@H]1CCC[C@H](S[C@@H]2CCC[C@]([NH2+]C3CC3)(C(=O)OCCOC(=O)c3ccc(-c4c5nc(c(-c6c(F)c(F)c(F)c(F)c6F)c6ccc([nH]6)c(-c6c(F)c(F)c(F)c(F)c6F)c6nc(c(-c7c(F)c(F)c(F)c(F)c7F)c7ccc4[nH]7)C=C6)C=C5)cc3)C2)C1
REMARK SMILES IDX 20 1 19 2 17 3 18 4 12 5 8 6 9 7 88 8 10 9 11 10 7 11 6 12
REMARK SMILES IDX 1 13 2 14 3 15 89 16 4 17 5 18 13 19 14 22 15 23 16 24 21 25
REMARK SMILES IDX 22 26 23 27 24 28 25 29 26 30 87 31 27 32 86 33 28 34 29 35
REMARK SMILES IDX 30 36 80 37 31 38 85 39 79 40 81 41 32 42 84 43 78 44 77 45
REMARK SMILES IDX 33 47 65 48 45 49 64 50 46 51 49 52 63 53 82 54 47 55 48 56
REMARK SMILES IDX 62 58 83 59 50 60 34 61 35 62 43 63 36 64 37 65 41 66 44 67
REMARK SMILES IDX 38 68 39 69 42 70 40 71 66 72 67 73 75 74 68 75 69 76 73 77
REMARK SMILES IDX 76 78 70 79 71 80 74 81 72 82 51 83 52 84 60 85 53 86 54 87
REMARK SMILES IDX 58 88 61 89 55 90 56 91 59 92 57 93
REMARK H PARENT 13 20 13 21 81 46 49 57
REMARK Flexibility Score: inf
ROOT
ATOM      1  C   UNL     1       5.274   2.156   2.322  1.00  0.00     0.274 C 
ENDROOT
BRANCH   1   2
ATOM      2  O   UNL     1       4.069   1.927   3.081  1.00  0.00    -0.457 OA
BRANCH   2   3
ATOM      3  C   UNL     1       2.933   2.432   2.518  1.00  0.00     0.368 C 
ATOM      4  O   UNL     1       2.913   2.994   1.427  1.00  0.00    -0.245 OA
BRANCH   3   5
ATOM      5  C   UNL     1       1.655   2.182   3.376  1.00  0.00     0.195 C 
ATOM      6  C   UNL     1      -0.546   0.835   3.119  1.00  0.00     0.053 C 
ATOM      7  C   UNL     1      -1.347   2.128   3.014  1.00  0.00     0.015 C 
ATOM      8  C   UNL     1       0.897   1.029   2.675  1.00  0.00     0.095 C 
ATOM      9  C   UNL     1      -0.655   3.253   3.787  1.00  0.00     0.008 C 
ATOM     10  C   UNL     1       0.778   3.464   3.287  1.00  0.00     0.081 C 
BRANCH   6  11
ATOM     11  S   UNL     1      -1.320  -0.684   2.407  1.00  0.00    -0.155 SA
BRANCH  11  12
ATOM     12  C   UNL     1      -1.782  -0.472   0.619  1.00  0.00     0.047 C 
ATOM     13  C   UNL     1       1.318   0.078  -0.616  1.00  0.00     0.007 C 
ATOM     14  C   UNL     1       0.027  -0.369  -1.288  1.00  0.00    -0.013 C 
ATOM     15  C   UNL     1      -0.736   0.821  -1.867  1.00  0.00     0.003 C 
ATOM     16  C   UNL     1      -0.864  -1.223  -0.370  1.00  0.00     0.017 C 
ATOM     17  C   UNL     1      -1.412   1.655  -0.780  1.00  0.00     0.001 C 
ATOM     18  C   UNL     1      -2.373   0.821   0.059  1.00  0.00     0.014 C 
ENDBRANCH  11  12
ENDBRANCH   6  11
BRANCH   5  19
ATOM     19  N   UNL     1       2.010   2.078   4.805  1.00  0.00    -0.330 N 
ATOM     20  H   UNL     1       1.451   2.790   5.274  1.00  0.00     0.347 HD
ATOM     21  H   UNL     1       3.026   2.139   4.742  1.00  0.00     0.347 HD
BRANCH  19  22
ATOM     22  C   UNL     1       1.876   0.885   5.620  1.00  0.00     0.183 C 
ATOM     23  C   UNL     1       2.245  -0.518   5.253  1.00  0.00     0.071 C 
ATOM     24  C   UNL     1       3.173   0.277   6.111  1.00  0.00     0.071 C 
ENDBRANCH  19  22
ENDBRANCH   5  19
ENDBRANCH   3   5
ENDBRANCH   2   3
ENDBRANCH   1   2
BRANCH   1  25
ATOM     25  C   UNL     1       6.299   1.066   2.620  1.00  0.00     0.275 C 
BRANCH  25  26
ATOM     26  O   UNL     1       5.883  -0.142   1.951  1.00  0.00    -0.458 OA
BRANCH  26  27
ATOM     27  C   UNL     1       5.401  -1.108   2.762  1.00  0.00     0.338 C 
ATOM     28  O   UNL     1       5.387  -1.117   3.979  1.00  0.00    -0.246 OA
BRANCH  27  29
ATOM     29  C   UNL     1       4.807  -2.199   1.973  1.00  0.00     0.060 A 
ATOM     30  C   UNL     1       3.707  -1.933   1.166  1.00  0.00     0.016 A 
ATOM     31  C   UNL     1       5.190  -3.516   2.225  1.00  0.00     0.016 A 
ATOM     32  C   UNL     1       2.916  -2.991   0.709  1.00  0.00     0.010 A 
ATOM     33  C   UNL     1       4.442  -4.574   1.694  1.00  0.00     0.010 A 
ATOM     34  C   UNL     1       3.260  -4.328   0.973  1.00  0.00    -0.014 A 
BRANCH  34  35
ATOM     35  C   UNL     1       2.352  -5.453   0.584  1.00  0.00     0.031 A 
ATOM     36  C   UNL     1       1.841  -6.419   1.627  1.00  0.00     0.074 A 
ATOM     37  C   UNL     1       1.913  -5.600  -0.683  1.00  0.00     0.049 A 
ATOM     38  N   UNL     1       1.259  -7.584   1.466  1.00  0.00    -0.248 NA
ATOM     39  C   UNL     1       2.006  -6.026   3.035  1.00  0.00     0.031 C 
ATOM     40  C   UNL     1       2.220  -4.706  -1.797  1.00  0.00     0.029 A 
ATOM     41  N   UNL     1       1.083  -6.546  -1.240  1.00  0.00    -0.354 N 
ATOM     42  C   UNL     1       1.071  -8.097   2.744  1.00  0.00     0.074 A 
ATOM     43  C   UNL     1       1.560  -7.100   3.674  1.00  0.00     0.031 C 
ATOM     44  C   UNL     1       1.519  -5.089  -2.875  1.00  0.00     0.029 A 
ATOM     45  C   UNL     1       0.817  -6.332  -2.570  1.00  0.00     0.049 A 
ATOM     46  H   UNL     1       0.715  -7.305  -0.732  1.00  0.00     0.167 HD
ATOM     47  C   UNL     1       0.557  -9.299   3.104  1.00  0.00     0.037 A 
ATOM     48  C   UNL     1       0.133  -7.072  -3.464  1.00  0.00     0.037 A 
ATOM     49  C   UNL     1      -0.005 -10.256   2.186  1.00  0.00     0.049 A 
ATOM     50  C   UNL     1      -0.407  -8.414  -3.056  1.00  0.00     0.074 A 
ATOM     51  C   UNL     1      -0.494 -11.526   2.447  1.00  0.00     0.029 A 
ATOM     52  N   UNL     1      -0.192 -10.030   0.832  1.00  0.00    -0.354 N 
ATOM     53  N   UNL     1      -0.408  -8.980  -1.875  1.00  0.00    -0.248 NA
ATOM     54  C   UNL     1      -0.986  -9.246  -4.121  1.00  0.00     0.031 C 
ATOM     55  C   UNL     1      -0.962 -12.074   1.246  1.00  0.00     0.029 A 
ATOM     56  C   UNL     1      -0.790 -11.133   0.244  1.00  0.00     0.049 A 
ATOM     57  H   UNL     1       0.063  -9.206   0.357  1.00  0.00     0.167 HD
ATOM     58  C   UNL     1      -0.967 -10.237  -2.056  1.00  0.00     0.074 A 
ATOM     59  C   UNL     1      -1.329 -10.339  -3.454  1.00  0.00     0.031 C 
ATOM     60  C   UNL     1      -1.142 -11.226  -1.147  1.00  0.00     0.037 A 
BRANCH  47  61
ATOM     61  C   UNL     1       0.642  -9.688   4.550  1.00  0.00     0.064 A 
ATOM     62  C   UNL     1      -0.244  -9.190   5.513  1.00  0.00     0.173 A 
ATOM     63  C   UNL     1       1.602 -10.627   4.960  1.00  0.00     0.173 A 
ATOM     64  F   UNL     1      -1.171  -8.283   5.173  1.00  0.00    -0.203 F 
ATOM     65  C   UNL     1      -0.163  -9.608   6.841  1.00  0.00     0.198 A 
ATOM     66  C   UNL     1       1.667 -11.058   6.282  1.00  0.00     0.198 A 
ATOM     67  F   UNL     1       2.468 -11.140   4.072  1.00  0.00    -0.203 F 
ATOM     68  F   UNL     1      -1.001  -9.100   7.755  1.00  0.00    -0.200 F 
ATOM     69  C   UNL     1       0.787 -10.546   7.222  1.00  0.00     0.200 A 
ATOM     70  F   UNL     1       2.578 -11.973   6.643  1.00  0.00    -0.200 F 
ATOM     71  F   UNL     1       0.857 -10.953   8.497  1.00  0.00    -0.200 F 
ENDBRANCH  47  61
BRANCH  48  72
ATOM     72  C   UNL     1      -0.015  -6.590  -4.862  1.00  0.00     0.064 A 
ATOM     73  C   UNL     1      -1.268  -6.211  -5.362  1.00  0.00     0.173 A 
ATOM     74  C   UNL     1       1.090  -6.481  -5.718  1.00  0.00     0.173 A 
ATOM     75  F   UNL     1      -2.361  -6.331  -4.594  1.00  0.00    -0.203 F 
ATOM     76  C   UNL     1      -1.407  -5.730  -6.663  1.00  0.00     0.198 A 
ATOM     77  C   UNL     1       0.956  -5.970  -7.006  1.00  0.00     0.198 A 
ATOM     78  F   UNL     1       2.309  -6.844  -5.291  1.00  0.00    -0.203 F 
ATOM     79  F   UNL     1      -2.619  -5.400  -7.128  1.00  0.00    -0.200 F 
ATOM     80  C   UNL     1      -0.293  -5.598  -7.479  1.00  0.00     0.200 A 
ATOM     81  F   UNL     1       2.038  -5.830  -7.784  1.00  0.00    -0.200 F 
ATOM     82  F   UNL     1      -0.423  -5.115  -8.722  1.00  0.00    -0.200 F 
ENDBRANCH  48  72
BRANCH  60  83
ATOM     83  C   UNL     1      -1.750 -12.504  -1.637  1.00  0.00     0.064 A 
ATOM     84  C   UNL     1      -0.994 -13.434  -2.365  1.00  0.00     0.173 A 
ATOM     85  C   UNL     1      -3.088 -12.813  -1.358  1.00  0.00     0.173 A 
ATOM     86  F   UNL     1       0.286 -13.172  -2.670  1.00  0.00    -0.203 F 
ATOM     87  C   UNL     1      -1.563 -14.623  -2.812  1.00  0.00     0.198 A 
ATOM     88  C   UNL     1      -3.650 -14.011  -1.792  1.00  0.00     0.198 A 
ATOM     89  F   UNL     1      -3.850 -11.953  -0.665  1.00  0.00    -0.203 F 
ATOM     90  F   UNL     1      -0.833 -15.483  -3.535  1.00  0.00    -0.200 F 
ATOM     91  C   UNL     1      -2.888 -14.912  -2.521  1.00  0.00     0.200 A 
ATOM     92  F   UNL     1      -4.929 -14.291  -1.509  1.00  0.00    -0.200 F 
ATOM     93  F   UNL     1      -3.435 -16.057  -2.953  1.00  0.00    -0.200 F 
ENDBRANCH  60  83
ENDBRANCH  34  35
ENDBRANCH  27  29
ENDBRANCH  26  27
ENDBRANCH  25  26
ENDBRANCH   1  25
TORSDOF 15
