REMARK SMILES CCCC[C@@H](Sc1nc(OCCC2CCCCC2)cc(OCCC2CCCCC2)n1)C(=O)OCCOC(=O)c1ccc(-c2c3nc(c(-c4c(F)c(F)c(F)c(F)c4F)c4ccc([nH]4)c(-c4c(F)c(F)c(F)c(F)c4F)c4nc(c(-c5c(F)c(F)c(F)c(F)c5F)c5ccc2[nH]5)C=C4)C=C3)cc1
REMARK SMILES IDX 31 1 32 2 5 3 4 4 3 5 2 6 1 7 6 8 7 9 8 10 30 11 9 12 20 13
REMARK SMILES IDX 19 14 10 15 11 16 12 17 13 18 14 19 18 20 15 21 17 22 16 23
REMARK SMILES IDX 21 24 22 25 23 26 24 27 25 28 29 29 26 30 28 31 27 32 33 33
REMARK SMILES IDX 34 34 35 35 36 36 37 37 38 38 39 39 40 40 101 41 41 42
REMARK SMILES IDX 100 43 42 44 43 45 44 46 94 47 45 48 99 49 93 50 95 51 46 52
REMARK SMILES IDX 98 53 92 54 91 55 47 57 79 58 59 59 78 60 60 61 63 62 77 63
REMARK SMILES IDX 96 64 61 65 62 66 76 68 97 69 64 70 48 71 49 72 57 73 50 74
REMARK SMILES IDX 51 75 55 76 58 77 52 78 53 79 56 80 54 81 80 82 81 83 89 84
REMARK SMILES IDX 82 85 83 86 87 87 90 88 84 89 85 90 88 91 86 92 65 93 66 94
REMARK SMILES IDX 74 95 67 96 68 97 72 98 75 99 69 100 70 101 73 102 71 103
REMARK H PARENT 95 56 63 67
REMARK Flexibility Score: inf
ROOT
ATOM      1  C   UNL     1      -1.719  -2.340   3.618  1.00  0.00     0.319 C 
ATOM      2  O   UNL     1      -2.882  -1.973   3.483  1.00  0.00    -0.251 OA
ENDROOT
BRANCH   1   3
ATOM      3  C   UNL     1      -0.843  -2.788   2.447  1.00  0.00     0.164 C 
BRANCH   3   4
ATOM      4  C   UNL     1       0.613  -2.296   2.650  1.00  0.00     0.027 C 
BRANCH   4   5
ATOM      5  C   UNL     1       1.505  -2.051   1.422  1.00  0.00     0.001 C 
BRANCH   5   6
ATOM      6  C   UNL     1       0.968  -1.068   0.373  1.00  0.00    -0.003 C 
ATOM      7  C   UNL     1       1.210   0.388   0.733  1.00  0.00     0.004 C 
ENDBRANCH   5   6
ENDBRANCH   4   5
ENDBRANCH   3   4
BRANCH   3   8
ATOM      8  S   UNL     1      -1.093  -4.613   2.307  1.00  0.00    -0.071 SA
BRANCH   8   9
ATOM      9  C   UNL     1      -1.012  -4.794   0.548  1.00  0.00     0.195 A 
ATOM     10  N   UNL     1      -0.092  -4.043  -0.059  1.00  0.00    -0.187 NA
ATOM     11  N   UNL     1      -1.784  -5.707  -0.062  1.00  0.00    -0.187 NA
ATOM     12  C   UNL     1       0.132  -4.254  -1.349  1.00  0.00     0.221 A 
ATOM     13  C   UNL     1      -1.548  -5.894  -1.370  1.00  0.00     0.221 A 
ATOM     14  C   UNL     1      -0.564  -5.205  -2.031  1.00  0.00     0.136 A 
BRANCH  12  15
ATOM     15  O   UNL     1       1.147  -3.491  -1.850  1.00  0.00    -0.477 OA
BRANCH  15  16
ATOM     16  C   UNL     1       1.355  -3.411  -3.258  1.00  0.00     0.231 C 
BRANCH  16  17
ATOM     17  C   UNL     1       2.541  -4.268  -3.749  1.00  0.00     0.045 C 
BRANCH  17  18
ATOM     18  C   UNL     1       2.523  -5.706  -3.217  1.00  0.00    -0.008 C 
ATOM     19  C   UNL     1       3.021  -6.766  -4.202  1.00  0.00     0.004 C 
ATOM     20  C   UNL     1       3.260  -5.856  -1.881  1.00  0.00     0.004 C 
ATOM     21  C   UNL     1       2.700  -8.155  -3.634  1.00  0.00     0.000 C 
ATOM     22  C   UNL     1       2.938  -7.217  -1.269  1.00  0.00     0.000 C 
ATOM     23  C   UNL     1       3.270  -8.360  -2.228  1.00  0.00     0.000 C 
ENDBRANCH  17  18
ENDBRANCH  16  17
ENDBRANCH  15  16
ENDBRANCH  12  15
BRANCH  13  24
ATOM     24  O   UNL     1      -2.415  -6.752  -2.010  1.00  0.00    -0.477 OA
BRANCH  24  25
ATOM     25  C   UNL     1      -2.036  -7.296  -3.282  1.00  0.00     0.231 C 
BRANCH  25  26
ATOM     26  C   UNL     1      -2.699  -6.634  -4.521  1.00  0.00     0.045 C 
BRANCH  26  27
ATOM     27  C   UNL     1      -2.419  -5.133  -4.719  1.00  0.00    -0.008 C 
ATOM     28  C   UNL     1      -2.486  -4.642  -6.172  1.00  0.00     0.004 C 
ATOM     29  C   UNL     1      -3.333  -4.246  -3.861  1.00  0.00     0.004 C 
ATOM     30  C   UNL     1      -1.980  -3.191  -6.241  1.00  0.00     0.000 C 
ATOM     31  C   UNL     1      -2.842  -2.802  -3.874  1.00  0.00     0.000 C 
ATOM     32  C   UNL     1      -2.736  -2.256  -5.294  1.00  0.00     0.000 C 
ENDBRANCH  26  27
ENDBRANCH  25  26
ENDBRANCH  24  25
ENDBRANCH  13  24
ENDBRANCH   8   9
ENDBRANCH   3   8
ENDBRANCH   1   3
BRANCH   1  33
ATOM     33  O   UNL     1      -1.054  -2.392   4.806  1.00  0.00    -0.461 OA
BRANCH  33  34
ATOM     34  C   UNL     1      -1.749  -1.875   5.955  1.00  0.00     0.274 C 
BRANCH  34  35
ATOM     35  C   UNL     1      -1.372  -0.414   6.196  1.00  0.00     0.275 C 
BRANCH  35  36
ATOM     36  O   UNL     1      -1.889   0.415   5.138  1.00  0.00    -0.458 OA
BRANCH  36  37
ATOM     37  C   UNL     1      -0.977   0.978   4.319  1.00  0.00     0.338 C 
ATOM     38  O   UNL     1       0.243   0.919   4.393  1.00  0.00    -0.246 OA
BRANCH  37  39
ATOM     39  C   UNL     1      -1.681   1.696   3.252  1.00  0.00     0.060 A 
ATOM     40  C   UNL     1      -2.044   1.021   2.084  1.00  0.00     0.016 A 
ATOM     41  C   UNL     1      -1.929   3.060   3.392  1.00  0.00     0.016 A 
ATOM     42  C   UNL     1      -2.663   1.711   1.044  1.00  0.00     0.010 A 
ATOM     43  C   UNL     1      -2.581   3.743   2.365  1.00  0.00     0.010 A 
ATOM     44  C   UNL     1      -2.954   3.074   1.186  1.00  0.00    -0.014 A 
BRANCH  44  45
ATOM     45  C   UNL     1      -3.686   3.808   0.128  1.00  0.00     0.031 A 
ATOM     46  C   UNL     1      -2.989   4.859  -0.682  1.00  0.00     0.074 A 
ATOM     47  C   UNL     1      -4.997   3.567  -0.053  1.00  0.00     0.049 A 
ATOM     48  N   UNL     1      -3.495   5.734  -1.513  1.00  0.00    -0.248 NA
ATOM     49  C   UNL     1      -1.528   4.941  -0.534  1.00  0.00     0.031 C 
ATOM     50  C   UNL     1      -5.772   2.547   0.654  1.00  0.00     0.029 A 
ATOM     51  N   UNL     1      -5.915   4.181  -0.867  1.00  0.00    -0.354 N 
ATOM     52  C   UNL     1      -2.422   6.487  -1.969  1.00  0.00     0.074 A 
ATOM     53  C   UNL     1      -1.237   5.973  -1.315  1.00  0.00     0.031 C 
ATOM     54  C   UNL     1      -7.052   2.617   0.258  1.00  0.00     0.029 A 
ATOM     55  C   UNL     1      -7.197   3.723  -0.684  1.00  0.00     0.049 A 
ATOM     56  H   UNL     1      -5.679   4.882  -1.517  1.00  0.00     0.167 HD
ATOM     57  C   UNL     1      -2.434   7.513  -2.852  1.00  0.00     0.037 A 
ATOM     58  C   UNL     1      -8.363   4.176  -1.179  1.00  0.00     0.037 A 
ATOM     59  C   UNL     1      -3.619   8.007  -3.506  1.00  0.00     0.049 A 
ATOM     60  C   UNL     1      -8.357   5.367  -2.096  1.00  0.00     0.074 A 
ATOM     61  C   UNL     1      -3.728   9.011  -4.452  1.00  0.00     0.029 A 
ATOM     62  N   UNL     1      -4.903   7.537  -3.272  1.00  0.00    -0.354 N 
ATOM     63  N   UNL     1      -7.339   6.067  -2.534  1.00  0.00    -0.248 NA
ATOM     64  C   UNL     1      -9.663   5.841  -2.575  1.00  0.00     0.031 C 
ATOM     65  C   UNL     1      -5.084   9.181  -4.755  1.00  0.00     0.029 A 
ATOM     66  C   UNL     1      -5.815   8.254  -4.030  1.00  0.00     0.049 A 
ATOM     67  H   UNL     1      -5.133   6.802  -2.658  1.00  0.00     0.167 HD
ATOM     68  C   UNL     1      -7.877   7.056  -3.345  1.00  0.00     0.074 A 
ATOM     69  C   UNL     1      -9.311   6.853  -3.356  1.00  0.00     0.031 C 
ATOM     70  C   UNL     1      -7.240   8.045  -4.019  1.00  0.00     0.037 A 
BRANCH  57  71
ATOM     71  C   UNL     1      -1.131   8.194  -3.146  1.00  0.00     0.064 A 
ATOM     72  C   UNL     1      -0.140   7.586  -3.931  1.00  0.00     0.173 A 
ATOM     73  C   UNL     1      -0.891   9.495  -2.677  1.00  0.00     0.173 A 
ATOM     74  F   UNL     1      -0.317   6.340  -4.395  1.00  0.00    -0.203 F 
ATOM     75  C   UNL     1       1.051   8.248  -4.219  1.00  0.00     0.198 A 
ATOM     76  C   UNL     1       0.290  10.163  -2.987  1.00  0.00     0.198 A 
ATOM     77  F   UNL     1      -1.809  10.123  -1.927  1.00  0.00    -0.203 F 
ATOM     78  F   UNL     1       1.998   7.635  -4.942  1.00  0.00    -0.200 F 
ATOM     79  C   UNL     1       1.262   9.538  -3.753  1.00  0.00     0.200 A 
ATOM     80  F   UNL     1       0.488  11.413  -2.546  1.00  0.00    -0.200 F 
ATOM     81  F   UNL     1       2.405  10.177  -4.039  1.00  0.00    -0.200 F 
ENDBRANCH  57  71
BRANCH  58  82
ATOM     82  C   UNL     1      -9.636   3.525  -0.779  1.00  0.00     0.064 A 
ATOM     83  C   UNL     1     -10.381   2.774  -1.697  1.00  0.00     0.173 A 
ATOM     84  C   UNL     1     -10.131   3.636   0.530  1.00  0.00     0.173 A 
ATOM     85  F   UNL     1      -9.963   2.663  -2.966  1.00  0.00    -0.203 F 
ATOM     86  C   UNL     1     -11.578   2.167  -1.325  1.00  0.00     0.198 A 
ATOM     87  C   UNL     1     -11.313   3.005   0.908  1.00  0.00     0.198 A 
ATOM     88  F   UNL     1      -9.456   4.347   1.445  1.00  0.00    -0.203 F 
ATOM     89  F   UNL     1     -12.293   1.487  -2.232  1.00  0.00    -0.200 F 
ATOM     90  C   UNL     1     -12.039   2.276  -0.021  1.00  0.00     0.200 A 
ATOM     91  F   UNL     1     -11.749   3.105   2.171  1.00  0.00    -0.200 F 
ATOM     92  F   UNL     1     -13.188   1.686   0.338  1.00  0.00    -0.200 F 
ENDBRANCH  58  82
BRANCH  70  93
ATOM     93  C   UNL     1      -8.091   8.978  -4.827  1.00  0.00     0.064 A 
ATOM     94  C   UNL     1      -8.882   9.961  -4.214  1.00  0.00     0.173 A 
ATOM     95  C   UNL     1      -8.087   8.915  -6.229  1.00  0.00     0.173 A 
ATOM     96  F   UNL     1      -8.933  10.048  -2.876  1.00  0.00    -0.203 F 
ATOM     97  C   UNL     1      -9.650  10.837  -4.976  1.00  0.00     0.198 A 
ATOM     98  C   UNL     1      -8.836   9.810  -6.987  1.00  0.00     0.198 A 
ATOM     99  F   UNL     1      -7.344   7.995  -6.862  1.00  0.00    -0.203 F 
ATOM    100  F   UNL     1     -10.429  11.744  -4.369  1.00  0.00    -0.200 F 
ATOM    101  C   UNL     1      -9.621  10.766  -6.361  1.00  0.00     0.200 A 
ATOM    102  F   UNL     1      -8.799   9.746  -8.325  1.00  0.00    -0.200 F 
ATOM    103  F   UNL     1     -10.355  11.615  -7.092  1.00  0.00    -0.200 F 
ENDBRANCH  70  93
ENDBRANCH  44  45
ENDBRANCH  37  39
ENDBRANCH  36  37
ENDBRANCH  35  36
ENDBRANCH  34  35
ENDBRANCH  33  34
ENDBRANCH   1  33
TORSDOF 24
