REMARK SMILES [NH3+]C[C@H]1CC[C@@H](C(=O)N[C@H](C(=O)OCCOC(=O)c2ccc(-c3c4nc(c(-c5c(F)c(F)c(F)c(F)c5F)c5ccc([nH]5)c(-c5c(F)c(F)c(F)c(F)c5F)c5nc(c(-c6c(F)c(F)c(F)c(F)c6F)c6ccc3[nH]6)C=C5)C=C4)cc2)C2CCCCC2)O1
REMARK SMILES IDX 14 1 13 2 11 3 12 4 10 5 9 6 7 7 8 8 6 10 3 11 4 12 88 13
REMARK SMILES IDX 5 14 2 15 1 16 82 20 83 21 87 22 84 23 86 24 85 25 15 26
REMARK SMILES IDX 16 27 17 28 18 29 19 30 20 31 81 32 21 33 80 34 22 35 23 36
REMARK SMILES IDX 24 37 74 38 25 39 79 40 73 41 75 42 26 43 78 44 72 45 71 46
REMARK SMILES IDX 27 48 59 49 39 50 58 51 40 52 43 53 57 54 76 55 41 56 42 57
REMARK SMILES IDX 56 59 77 60 44 61 28 62 29 63 37 64 30 65 31 66 35 67 38 68
REMARK SMILES IDX 32 69 33 70 36 71 34 72 60 73 61 74 69 75 62 76 63 77 67 78
REMARK SMILES IDX 70 79 64 80 65 81 68 82 66 83 45 84 46 85 54 86 47 87 48 88
REMARK SMILES IDX 52 89 55 90 49 91 50 92 53 93 51 94
REMARK H PARENT 9 9 1 17 1 18 1 19 75 47 43 58
REMARK Flexibility Score: inf
ROOT
ATOM      1  C   UNL     1       4.314   4.231  -1.430  1.00  0.00     0.274 C 
ENDROOT
BRANCH   1   2
ATOM      2  O   UNL     1       3.493   3.046  -1.310  1.00  0.00    -0.461 OA
BRANCH   2   3
ATOM      3  C   UNL     1       3.159   2.449  -2.485  1.00  0.00     0.329 C 
ATOM      4  O   UNL     1       3.345   2.956  -3.589  1.00  0.00    -0.250 OA
BRANCH   3   5
ATOM      5  C   UNL     1       2.560   1.027  -2.295  1.00  0.00     0.195 C 
BRANCH   5   6
ATOM      6  N   UNL     1       2.272   0.617  -3.689  1.00  0.00    -0.340 N 
ATOM      7  C   UNL     1       1.264  -0.040  -4.311  1.00  0.00     0.249 C 
ATOM      8  O   UNL     1       1.329  -0.096  -5.545  1.00  0.00    -0.272 OA
ATOM      9  H   UNL     1       2.985   0.886  -4.313  1.00  0.00     0.164 HD
BRANCH   7  10
ATOM     10  C   UNL     1       0.058  -0.649  -3.579  1.00  0.00     0.207 C 
ATOM     11  C   UNL     1      -0.683  -1.367  -1.471  1.00  0.00     0.174 C 
ATOM     12  C   UNL     1      -1.708  -0.409  -2.061  1.00  0.00     0.041 C 
ATOM     13  O   UNL     1       0.329  -1.531  -2.493  1.00  0.00    -0.359 OA
ATOM     14  C   UNL     1      -0.911   0.393  -3.058  1.00  0.00     0.045 C 
BRANCH  11  15
ATOM     15  C   UNL     1       0.042  -0.907  -0.192  1.00  0.00     0.291 C 
BRANCH  15  16
ATOM     16  N   UNL     1      -0.728  -0.141   0.780  1.00  0.00    -0.355 N 
ATOM     17  H   UNL     1      -0.133   0.098   1.573  1.00  0.00     0.344 HD
ATOM     18  H   UNL     1      -1.518  -0.700   1.104  1.00  0.00     0.344 HD
ATOM     19  H   UNL     1      -1.072   0.714   0.343  1.00  0.00     0.344 HD
ENDBRANCH  15  16
ENDBRANCH  11  15
ENDBRANCH   7  10
ENDBRANCH   5   6
BRANCH   5  20
ATOM     20  C   UNL     1       3.583   0.076  -1.600  1.00  0.00     0.023 C 
ATOM     21  C   UNL     1       3.723   0.286  -0.075  1.00  0.00     0.006 C 
ATOM     22  C   UNL     1       3.363  -1.416  -1.912  1.00  0.00     0.006 C 
ATOM     23  C   UNL     1       4.765  -0.647   0.550  1.00  0.00     0.000 C 
ATOM     24  C   UNL     1       4.427  -2.302  -1.283  1.00  0.00     0.000 C 
ATOM     25  C   UNL     1       4.494  -2.107   0.221  1.00  0.00     0.000 C 
ENDBRANCH   5  20
ENDBRANCH   3   5
ENDBRANCH   2   3
ENDBRANCH   1   2
BRANCH   1  26
ATOM     26  C   UNL     1       5.798   3.864  -1.305  1.00  0.00     0.275 C 
BRANCH  26  27
ATOM     27  O   UNL     1       6.131   2.892  -2.314  1.00  0.00    -0.458 OA
BRANCH  27  28
ATOM     28  C   UNL     1       7.076   1.977  -1.992  1.00  0.00     0.338 C 
ATOM     29  O   UNL     1       7.793   2.005  -0.999  1.00  0.00    -0.246 OA
BRANCH  28  30
ATOM     30  C   UNL     1       7.033   0.832  -2.945  1.00  0.00     0.060 A 
ATOM     31  C   UNL     1       6.023   0.726  -3.905  1.00  0.00     0.016 A 
ATOM     32  C   UNL     1       7.923  -0.236  -2.787  1.00  0.00     0.016 A 
ATOM     33  C   UNL     1       5.815  -0.476  -4.581  1.00  0.00     0.010 A 
ATOM     34  C   UNL     1       7.802  -1.387  -3.584  1.00  0.00     0.010 A 
ATOM     35  C   UNL     1       6.730  -1.536  -4.478  1.00  0.00    -0.014 A 
BRANCH  35  36
ATOM     36  C   UNL     1       6.606  -2.732  -5.369  1.00  0.00     0.031 A 
ATOM     37  C   UNL     1       6.574  -4.146  -4.836  1.00  0.00     0.074 A 
ATOM     38  C   UNL     1       6.531  -2.545  -6.704  1.00  0.00     0.049 A 
ATOM     39  N   UNL     1       6.571  -5.282  -5.494  1.00  0.00    -0.248 NA
ATOM     40  C   UNL     1       6.523  -4.317  -3.378  1.00  0.00     0.031 C 
ATOM     41  C   UNL     1       6.510  -1.246  -7.382  1.00  0.00     0.029 A 
ATOM     42  N   UNL     1       6.468  -3.451  -7.737  1.00  0.00    -0.354 N 
ATOM     43  C   UNL     1       6.494  -6.287  -4.536  1.00  0.00     0.074 A 
ATOM     44  C   UNL     1       6.463  -5.636  -3.246  1.00  0.00     0.031 C 
ATOM     45  C   UNL     1       6.410  -1.434  -8.702  1.00  0.00     0.029 A 
ATOM     46  C   UNL     1       6.492  -2.861  -8.977  1.00  0.00     0.049 A 
ATOM     47  H   UNL     1       6.413  -4.424  -7.601  1.00  0.00     0.167 HD
ATOM     48  C   UNL     1       6.473  -7.631  -4.710  1.00  0.00     0.037 A 
ATOM     49  C   UNL     1       6.650  -3.384 -10.206  1.00  0.00     0.037 A 
ATOM     50  C   UNL     1       6.583  -8.294  -5.983  1.00  0.00     0.049 A 
ATOM     51  C   UNL     1       6.824  -4.862 -10.359  1.00  0.00     0.074 A 
ATOM     52  C   UNL     1       6.603  -9.653  -6.253  1.00  0.00     0.029 A 
ATOM     53  N   UNL     1       6.729  -7.646  -7.198  1.00  0.00    -0.354 N 
ATOM     54  N   UNL     1       6.780  -5.796  -9.444  1.00  0.00    -0.248 NA
ATOM     55  C   UNL     1       7.103  -5.353 -11.714  1.00  0.00     0.031 C 
ATOM     56  C   UNL     1       6.829  -9.825  -7.623  1.00  0.00     0.029 A 
ATOM     57  C   UNL     1       6.894  -8.575  -8.214  1.00  0.00     0.049 A 
ATOM     58  H   UNL     1       6.716  -6.669  -7.322  1.00  0.00     0.167 HD
ATOM     59  C   UNL     1       7.025  -6.987 -10.108  1.00  0.00     0.074 A 
ATOM     60  C   UNL     1       7.197  -6.659 -11.509  1.00  0.00     0.031 C 
ATOM     61  C   UNL     1       7.101  -8.240  -9.598  1.00  0.00     0.037 A 
BRANCH  48  62
ATOM     62  C   UNL     1       6.383  -8.495  -3.486  1.00  0.00     0.064 A 
ATOM     63  C   UNL     1       5.167  -8.701  -2.818  1.00  0.00     0.173 A 
ATOM     64  C   UNL     1       7.512  -9.188  -3.024  1.00  0.00     0.173 A 
ATOM     65  F   UNL     1       4.061  -8.054  -3.215  1.00  0.00    -0.203 F 
ATOM     66  C   UNL     1       5.086  -9.569  -1.731  1.00  0.00     0.198 A 
ATOM     67  C   UNL     1       7.424 -10.068  -1.948  1.00  0.00     0.198 A 
ATOM     68  F   UNL     1       8.698  -9.026  -3.630  1.00  0.00    -0.203 F 
ATOM     69  F   UNL     1       3.917  -9.742  -1.097  1.00  0.00    -0.200 F 
ATOM     70  C   UNL     1       6.212 -10.258  -1.303  1.00  0.00     0.200 A 
ATOM     71  F   UNL     1       8.511 -10.737  -1.540  1.00  0.00    -0.200 F 
ATOM     72  F   UNL     1       6.129 -11.103  -0.266  1.00  0.00    -0.200 F 
ENDBRANCH  48  62
BRANCH  49  73
ATOM     73  C   UNL     1       6.758  -2.466 -11.368  1.00  0.00     0.064 A 
ATOM     74  C   UNL     1       5.744  -2.389 -12.328  1.00  0.00     0.173 A 
ATOM     75  C   UNL     1       7.860  -1.605 -11.503  1.00  0.00     0.173 A 
ATOM     76  F   UNL     1       4.689  -3.213 -12.256  1.00  0.00    -0.203 F 
ATOM     77  C   UNL     1       5.821  -1.473 -13.376  1.00  0.00     0.198 A 
ATOM     78  C   UNL     1       7.920  -0.669 -12.530  1.00  0.00     0.198 A 
ATOM     79  F   UNL     1       8.859  -1.646 -10.608  1.00  0.00    -0.203 F 
ATOM     80  F   UNL     1       4.850  -1.431 -14.297  1.00  0.00    -0.200 F 
ATOM     81  C   UNL     1       6.901  -0.605 -13.467  1.00  0.00     0.200 A 
ATOM     82  F   UNL     1       8.955   0.178 -12.602  1.00  0.00    -0.200 F 
ATOM     83  F   UNL     1       6.960   0.292 -14.460  1.00  0.00    -0.200 F 
ENDBRANCH  49  73
BRANCH  61  84
ATOM     84  C   UNL     1       7.388  -9.345 -10.567  1.00  0.00     0.064 A 
ATOM     85  C   UNL     1       8.664  -9.513 -11.125  1.00  0.00     0.173 A 
ATOM     86  C   UNL     1       6.377 -10.238 -10.951  1.00  0.00     0.173 A 
ATOM     87  F   UNL     1       9.657  -8.671 -10.803  1.00  0.00    -0.203 F 
ATOM     88  C   UNL     1       8.909 -10.516 -12.059  1.00  0.00     0.198 A 
ATOM     89  C   UNL     1       6.632 -11.256 -11.865  1.00  0.00     0.198 A 
ATOM     90  F   UNL     1       5.141 -10.120 -10.443  1.00  0.00    -0.203 F 
ATOM     91  F   UNL     1      10.120 -10.623 -12.622  1.00  0.00    -0.200 F 
ATOM     92  C   UNL     1       7.894 -11.388 -12.425  1.00  0.00     0.200 A 
ATOM     93  F   UNL     1       5.653 -12.102 -12.213  1.00  0.00    -0.200 F 
ATOM     94  F   UNL     1       8.129 -12.348 -13.330  1.00  0.00    -0.200 F 
ENDBRANCH  61  84
ENDBRANCH  35  36
ENDBRANCH  28  30
ENDBRANCH  27  28
ENDBRANCH  26  27
ENDBRANCH   1  26
TORSDOF 16
