REMARK SMILES COc1ccc(N2C(=O)/C(=C/c3c(C(=O)OCCOC(=O)c4ccc(-c5c6nc(c(-c7c(F)c(F)c(F)c(F)c7F)c7ccc([nH]7)c(-c7c(F)c(F)c(F)c(F)c7F)c7nc(c(-c8c(F)c(F)c(F)c(F)c8F)c8ccc5[nH]8)C=C7)C=C6)cc4)[nH]c4cc(OC)ccc34)SC2=S)cc1
REMARK SMILES IDX 17 1 16 2 14 3 15 4 13 5 12 6 93 7 85 8 86 9 92 10 87 12
REMARK SMILES IDX 91 13 88 14 11 15 7 16 8 17 95 18 9 19 10 20 94 21 96 22
REMARK SMILES IDX 6 23 3 24 4 25 98 26 5 27 97 28 2 29 1 30 89 31 90 32 18 33
REMARK SMILES IDX 19 34 20 35 21 36 22 37 23 38 84 39 24 40 83 41 25 42 26 43
REMARK SMILES IDX 27 44 77 45 28 46 82 47 76 48 78 49 29 50 81 51 75 52 74 53
REMARK SMILES IDX 30 55 62 56 42 57 61 58 43 59 46 60 60 61 79 62 44 63 45 64
REMARK SMILES IDX 59 66 80 67 47 68 31 69 32 70 40 71 33 72 34 73 38 74 41 75
REMARK SMILES IDX 35 76 36 77 39 78 37 79 63 80 64 81 72 82 65 83 66 84 70 85
REMARK SMILES IDX 73 86 67 87 68 88 71 89 69 90 48 91 49 92 57 93 50 94 51 95
REMARK SMILES IDX 55 96 58 97 52 98 53 99 56 100 54 101
REMARK H PARENT 85 11 78 54 46 65
REMARK Flexibility Score: inf
ROOT
ATOM      1  C   UNL     1       3.448   3.196  -7.578  1.00  0.00     0.275 C 
ENDROOT
BRANCH   1   2
ATOM      2  O   UNL     1       2.738   4.443  -7.732  1.00  0.00    -0.457 OA
BRANCH   2   3
ATOM      3  C   UNL     1       3.519   5.485  -8.126  1.00  0.00     0.355 C 
ATOM      4  O   UNL     1       4.736   5.430  -8.255  1.00  0.00    -0.244 OA
BRANCH   3   5
ATOM      5  C   UNL     1       2.739   6.644  -8.470  1.00  0.00     0.133 A 
ATOM      6  C   UNL     1       1.904   7.489  -7.748  1.00  0.00     0.016 A 
ATOM      7  C   UNL     1       1.665   8.653  -8.561  1.00  0.00     0.008 A 
ATOM      8  N   UNL     1       2.724   7.117  -9.755  1.00  0.00    -0.348 N 
ATOM      9  C   UNL     1       2.220   8.382  -9.810  1.00  0.00     0.050 A 
ATOM     10  C   UNL     1       1.042   9.911  -8.404  1.00  0.00     0.015 A 
ATOM     11  H   UNL     1       3.036   6.609 -10.538  1.00  0.00     0.167 HD
ATOM     12  C   UNL     1       2.196   9.263 -10.891  1.00  0.00     0.073 A 
ATOM     13  C   UNL     1       1.044  10.836  -9.476  1.00  0.00     0.047 A 
ATOM     14  C   UNL     1       1.616  10.515 -10.707  1.00  0.00     0.120 A 
BRANCH   6  15
ATOM     15  C   UNL     1       1.336   7.130  -6.483  1.00  0.00     0.032 C 
ATOM     16  N   UNL     1       2.220   4.743  -4.030  1.00  0.00    -0.261 N 
ATOM     17  C   UNL     1       1.290   5.668  -4.526  1.00  0.00     0.270 C 
ATOM     18  C   UNL     1       3.557   5.075  -4.258  1.00  0.00     0.152 C 
ATOM     19  O   UNL     1       0.081   5.710  -4.338  1.00  0.00    -0.268 OA
ATOM     20  C   UNL     1       1.983   6.644  -5.411  1.00  0.00     0.081 C 
ATOM     21  S   UNL     1       3.654   6.647  -5.062  1.00  0.00    -0.054 SA
ATOM     22  S   UNL     1       4.973   4.209  -4.032  1.00  0.00    -0.051 S 
BRANCH  16  23
ATOM     23  C   UNL     1       1.760   3.531  -3.393  1.00  0.00     0.051 A 
ATOM     24  C   UNL     1       0.820   1.141  -2.168  1.00  0.00     0.119 A 
ATOM     25  C   UNL     1       0.089   1.750  -3.181  1.00  0.00     0.048 A 
ATOM     26  C   UNL     1       2.034   1.699  -1.786  1.00  0.00     0.048 A 
ATOM     27  C   UNL     1       0.549   2.932  -3.781  1.00  0.00     0.030 A 
ATOM     28  C   UNL     1       2.486   2.888  -2.380  1.00  0.00     0.030 A 
BRANCH  24  29
ATOM     29  O   UNL     1       0.271   0.008  -1.636  1.00  0.00    -0.497 OA
ATOM     30  C   UNL     1       0.651  -0.280  -0.293  1.00  0.00     0.278 C 
ENDBRANCH  24  29
ENDBRANCH  16  23
ENDBRANCH   6  15
BRANCH  14  31
ATOM     31  O   UNL     1       1.671  11.302 -11.824  1.00  0.00    -0.497 OA
ATOM     32  C   UNL     1       1.315  12.668 -11.684  1.00  0.00     0.278 C 
ENDBRANCH  14  31
ENDBRANCH   3   5
ENDBRANCH   2   3
ENDBRANCH   1   2
BRANCH   1  33
ATOM     33  C   UNL     1       3.444   2.366  -8.867  1.00  0.00     0.275 C 
BRANCH  33  34
ATOM     34  O   UNL     1       4.338   2.897  -9.868  1.00  0.00    -0.458 OA
BRANCH  34  35
ATOM     35  C   UNL     1       3.775   3.768 -10.729  1.00  0.00     0.338 C 
ATOM     36  O   UNL     1       2.617   4.154 -10.749  1.00  0.00    -0.246 OA
BRANCH  35  37
ATOM     37  C   UNL     1       4.768   4.341 -11.644  1.00  0.00     0.060 A 
ATOM     38  C   UNL     1       5.216   5.641 -11.400  1.00  0.00     0.016 A 
ATOM     39  C   UNL     1       5.048   3.714 -12.854  1.00  0.00     0.016 A 
ATOM     40  C   UNL     1       5.829   6.370 -12.405  1.00  0.00     0.010 A 
ATOM     41  C   UNL     1       5.762   4.413 -13.829  1.00  0.00     0.010 A 
ATOM     42  C   UNL     1       6.123   5.759 -13.625  1.00  0.00    -0.014 A 
BRANCH  42  43
ATOM     43  C   UNL     1       6.778   6.536 -14.700  1.00  0.00     0.031 A 
ATOM     44  C   UNL     1       6.073   6.724 -16.010  1.00  0.00     0.074 A 
ATOM     45  C   UNL     1       7.995   7.073 -14.498  1.00  0.00     0.049 A 
ATOM     46  N   UNL     1       6.559   7.096 -17.164  1.00  0.00    -0.248 NA
ATOM     47  C   UNL     1       4.630   6.437 -16.026  1.00  0.00     0.031 C 
ATOM     48  C   UNL     1       8.741   7.036 -13.238  1.00  0.00     0.029 A 
ATOM     49  N   UNL     1       8.823   7.753 -15.353  1.00  0.00    -0.354 N 
ATOM     50  C   UNL     1       5.503   7.009 -18.061  1.00  0.00     0.074 A 
ATOM     51  C   UNL     1       4.340   6.582 -17.312  1.00  0.00     0.031 C 
ATOM     52  C   UNL     1       9.905   7.680 -13.396  1.00  0.00     0.029 A 
ATOM     53  C   UNL     1      10.031   8.081 -14.791  1.00  0.00     0.049 A 
ATOM     54  H   UNL     1       8.575   7.982 -16.278  1.00  0.00     0.167 HD
ATOM     55  C   UNL     1       5.524   7.245 -19.393  1.00  0.00     0.037 A 
ATOM     56  C   UNL     1      11.143   8.588 -15.355  1.00  0.00     0.037 A 
ATOM     57  C   UNL     1       6.682   7.727 -20.099  1.00  0.00     0.049 A 
ATOM     58  C   UNL     1      11.145   8.841 -16.834  1.00  0.00     0.074 A 
ATOM     59  C   UNL     1       6.833   7.982 -21.450  1.00  0.00     0.029 A 
ATOM     60  N   UNL     1       7.887   8.053 -19.491  1.00  0.00    -0.354 N 
ATOM     61  N   UNL     1      10.186   8.642 -17.705  1.00  0.00    -0.248 NA
ATOM     62  C   UNL     1      12.390   9.360 -17.413  1.00  0.00     0.031 C 
ATOM     63  C   UNL     1       8.136   8.449 -21.661  1.00  0.00     0.029 A 
ATOM     64  C   UNL     1       8.785   8.512 -20.438  1.00  0.00     0.049 A 
ATOM     65  H   UNL     1       8.074   7.970 -18.528  1.00  0.00     0.167 HD
ATOM     66  C   UNL     1      10.707   9.007 -18.936  1.00  0.00     0.074 A 
ATOM     67  C   UNL     1      12.063   9.462 -18.695  1.00  0.00     0.031 C 
ATOM     68  C   UNL     1      10.124   8.961 -20.158  1.00  0.00     0.037 A 
BRANCH  55  69
ATOM     69  C   UNL     1       4.285   6.927 -20.174  1.00  0.00     0.064 A 
ATOM     70  C   UNL     1       3.143   7.739 -20.127  1.00  0.00     0.173 A 
ATOM     71  C   UNL     1       4.248   5.790 -20.996  1.00  0.00     0.173 A 
ATOM     72  F   UNL     1       3.121   8.825 -19.341  1.00  0.00    -0.203 F 
ATOM     73  C   UNL     1       2.004   7.414 -20.860  1.00  0.00     0.198 A 
ATOM     74  C   UNL     1       3.116   5.479 -21.744  1.00  0.00     0.198 A 
ATOM     75  F   UNL     1       5.314   4.978 -21.075  1.00  0.00    -0.203 F 
ATOM     76  F   UNL     1       0.909   8.181 -20.770  1.00  0.00    -0.200 F 
ATOM     77  C   UNL     1       1.993   6.288 -21.672  1.00  0.00     0.200 A 
ATOM     78  F   UNL     1       3.110   4.395 -22.532  1.00  0.00    -0.200 F 
ATOM     79  F   UNL     1       0.895   5.978 -22.376  1.00  0.00    -0.200 F 
ENDBRANCH  55  69
BRANCH  56  80
ATOM     80  C   UNL     1      12.348   8.817 -14.520  1.00  0.00     0.064 A 
ATOM     81  C   UNL     1      12.768  10.115 -14.205  1.00  0.00     0.173 A 
ATOM     82  C   UNL     1      13.075   7.745 -13.980  1.00  0.00     0.173 A 
ATOM     83  F   UNL     1      12.118  11.171 -14.714  1.00  0.00    -0.203 F 
ATOM     84  C   UNL     1      13.871  10.332 -13.381  1.00  0.00     0.198 A 
ATOM     85  C   UNL     1      14.159   7.962 -13.135  1.00  0.00     0.198 A 
ATOM     86  F   UNL     1      12.709   6.482 -14.250  1.00  0.00    -0.203 F 
ATOM     87  F   UNL     1      14.269  11.583 -13.114  1.00  0.00    -0.200 F 
ATOM     88  C   UNL     1      14.559   9.256 -12.838  1.00  0.00     0.200 A 
ATOM     89  F   UNL     1      14.810   6.920 -12.601  1.00  0.00    -0.200 F 
ATOM     90  F   UNL     1      15.608   9.466 -12.032  1.00  0.00    -0.200 F 
ENDBRANCH  56  80
BRANCH  68  91
ATOM     91  C   UNL     1      10.947   9.434 -21.313  1.00  0.00     0.064 A 
ATOM     92  C   UNL     1      11.937   8.621 -21.882  1.00  0.00     0.173 A 
ATOM     93  C   UNL     1      10.715  10.696 -21.878  1.00  0.00     0.173 A 
ATOM     94  F   UNL     1      12.200   7.414 -21.360  1.00  0.00    -0.203 F 
ATOM     95  C   UNL     1      12.677   9.063 -22.973  1.00  0.00     0.198 A 
ATOM     96  C   UNL     1      11.446  11.127 -22.980  1.00  0.00     0.198 A 
ATOM     97  F   UNL     1       9.777  11.505 -21.364  1.00  0.00    -0.203 F 
ATOM     98  F   UNL     1      13.640   8.284 -23.486  1.00  0.00    -0.200 F 
ATOM     99  C   UNL     1      12.428  10.312 -23.524  1.00  0.00     0.200 A 
ATOM    100  F   UNL     1      11.203  12.331 -23.515  1.00  0.00    -0.200 F 
ATOM    101  F   UNL     1      13.141  10.734 -24.578  1.00  0.00    -0.200 F 
ENDBRANCH  68  91
ENDBRANCH  42  43
ENDBRANCH  35  37
ENDBRANCH  34  35
ENDBRANCH  33  34
ENDBRANCH   1  33
TORSDOF 15
