REMARK SMILES C[C@@H]1C[N@H+](Cc2ccccc2)CC[C@@H]1CC(=O)OCCOC(=O)c1ccc(-c2c3nc(c(-c4c(F)c(F)c(F)c(F)c4F)c4ccc([nH]4)c(-c4c(F)c(F)c(F)c(F)c4F)c4nc(c(-c5c(F)c(F)c(F)c(F)c5F)c5ccc2[nH]5)C=C4)C=C3)cc1
REMARK SMILES IDX 19 1 18 2 16 3 17 4 15 5 14 6 1 7 2 8 3 9 4 10 13 11 12 12
REMARK SMILES IDX 5 14 6 15 7 16 11 17 8 18 10 19 9 20 20 21 21 22 22 23 23 24
REMARK SMILES IDX 24 25 25 26 86 27 26 28 85 29 27 30 28 31 29 32 79 33 30 34
REMARK SMILES IDX 84 35 78 36 80 37 31 38 83 39 77 40 76 41 32 43 64 44 44 45
REMARK SMILES IDX 63 46 45 47 48 48 62 49 81 50 46 51 47 52 61 54 82 55 49 56
REMARK SMILES IDX 33 57 34 58 42 59 35 60 36 61 40 62 43 63 37 64 38 65 41 66
REMARK SMILES IDX 39 67 65 68 66 69 74 70 67 71 68 72 72 73 75 74 69 75 70 76
REMARK SMILES IDX 73 77 71 78 50 79 51 80 59 81 52 82 53 83 57 84 60 85 54 86
REMARK SMILES IDX 55 87 58 88 56 89
REMARK H PARENT 4 13 80 42 48 53
REMARK Flexibility Score: inf
ROOT
ATOM      1  C   UNL     1       4.682   0.119  -0.264  1.00  0.00     0.274 C 
ENDROOT
BRANCH   1   2
ATOM      2  O   UNL     1       3.437  -0.054  -0.978  1.00  0.00    -0.462 OA
BRANCH   2   3
ATOM      3  C   UNL     1       2.734  -1.191  -0.746  1.00  0.00     0.306 C 
ATOM      4  O   UNL     1       3.107  -2.090  -0.003  1.00  0.00    -0.252 OA
BRANCH   3   5
ATOM      5  C   UNL     1       1.515  -1.303  -1.649  1.00  0.00     0.127 C 
BRANCH   5   6
ATOM      6  C   UNL     1       0.230  -0.424  -1.542  1.00  0.00     0.014 C 
ATOM      7  C   UNL     1       1.402   1.764  -0.490  1.00  0.00     0.014 C 
ATOM      8  C   UNL     1       0.270   1.122  -1.283  1.00  0.00     0.045 C 
ATOM      9  C   UNL     1      -1.084   1.684  -0.794  1.00  0.00     0.265 C 
ATOM     10  N   UNL     1      -1.767   0.894   0.218  1.00  0.00    -0.331 N 
ATOM     11  C   UNL     1      -0.921  -1.216  -0.853  1.00  0.00     0.066 C 
ATOM     12  C   UNL     1      -2.109  -0.413  -0.318  1.00  0.00     0.262 C 
ATOM     13  H   UNL     1      -2.663   1.341   0.411  1.00  0.00     0.348 HD
BRANCH  10  14
ATOM     14  C   UNL     1      -1.309   1.017   1.613  1.00  0.00     0.299 C 
BRANCH  14  15
ATOM     15  C   UNL     1      -0.873  -0.267   2.288  1.00  0.00     0.006 A 
ATOM     16  C   UNL     1      -1.759  -1.030   3.064  1.00  0.00     0.009 A 
ATOM     17  C   UNL     1       0.369  -0.812   1.986  1.00  0.00     0.009 A 
ATOM     18  C   UNL     1      -1.455  -2.354   3.395  1.00  0.00     0.001 A 
ATOM     19  C   UNL     1       0.610  -2.160   2.207  1.00  0.00     0.001 A 
ATOM     20  C   UNL     1      -0.293  -2.937   2.913  1.00  0.00     0.000 A 
ENDBRANCH  14  15
ENDBRANCH  10  14
ENDBRANCH   5   6
ENDBRANCH   3   5
ENDBRANCH   2   3
ENDBRANCH   1   2
BRANCH   1  21
ATOM     21  C   UNL     1       4.499   0.870   1.064  1.00  0.00     0.275 C 
BRANCH  21  22
ATOM     22  O   UNL     1       3.787   0.102   2.052  1.00  0.00    -0.458 OA
BRANCH  22  23
ATOM     23  C   UNL     1       4.545  -0.822   2.687  1.00  0.00     0.338 C 
ATOM     24  O   UNL     1       5.736  -1.041   2.506  1.00  0.00    -0.246 OA
BRANCH  23  25
ATOM     25  C   UNL     1       3.716  -1.633   3.592  1.00  0.00     0.060 A 
ATOM     26  C   UNL     1       3.475  -2.952   3.221  1.00  0.00     0.016 A 
ATOM     27  C   UNL     1       3.253  -1.152   4.821  1.00  0.00     0.016 A 
ATOM     28  C   UNL     1       2.745  -3.784   4.069  1.00  0.00     0.010 A 
ATOM     29  C   UNL     1       2.636  -2.034   5.728  1.00  0.00     0.010 A 
ATOM     30  C   UNL     1       2.420  -3.377   5.380  1.00  0.00    -0.014 A 
BRANCH  30  31
ATOM     31  C   UNL     1       2.117  -4.438   6.395  1.00  0.00     0.031 A 
ATOM     32  C   UNL     1       0.879  -4.465   7.248  1.00  0.00     0.074 A 
ATOM     33  C   UNL     1       3.027  -5.428   6.532  1.00  0.00     0.049 A 
ATOM     34  N   UNL     1       0.563  -5.307   8.207  1.00  0.00    -0.248 NA
ATOM     35  C   UNL     1      -0.132  -3.426   7.014  1.00  0.00     0.031 C 
ATOM     36  C   UNL     1       4.282  -5.517   5.779  1.00  0.00     0.029 A 
ATOM     37  N   UNL     1       3.036  -6.565   7.301  1.00  0.00    -0.354 N 
ATOM     38  C   UNL     1      -0.659  -4.884   8.714  1.00  0.00     0.074 A 
ATOM     39  C   UNL     1      -1.035  -3.711   7.947  1.00  0.00     0.031 C 
ATOM     40  C   UNL     1       4.862  -6.695   6.013  1.00  0.00     0.029 A 
ATOM     41  C   UNL     1       4.126  -7.371   7.068  1.00  0.00     0.049 A 
ATOM     42  H   UNL     1       2.333  -6.782   7.955  1.00  0.00     0.167 HD
ATOM     43  C   UNL     1      -1.382  -5.418   9.734  1.00  0.00     0.037 A 
ATOM     44  C   UNL     1       4.545  -8.499   7.667  1.00  0.00     0.037 A 
ATOM     45  C   UNL     1      -0.993  -6.589  10.492  1.00  0.00     0.049 A 
ATOM     46  C   UNL     1       3.762  -9.026   8.825  1.00  0.00     0.074 A 
ATOM     47  C   UNL     1      -1.657  -7.199  11.545  1.00  0.00     0.029 A 
ATOM     48  N   UNL     1       0.166  -7.326  10.282  1.00  0.00    -0.354 N 
ATOM     49  N   UNL     1       2.635  -8.584   9.323  1.00  0.00    -0.248 NA
ATOM     50  C   UNL     1       4.330 -10.180   9.529  1.00  0.00     0.031 C 
ATOM     51  C   UNL     1      -0.875  -8.265  12.007  1.00  0.00     0.029 A 
ATOM     52  C   UNL     1       0.249  -8.362  11.204  1.00  0.00     0.049 A 
ATOM     53  H   UNL     1       0.832  -7.141   9.581  1.00  0.00     0.167 HD
ATOM     54  C   UNL     1       2.357  -9.400  10.407  1.00  0.00     0.074 A 
ATOM     55  C   UNL     1       3.420 -10.385  10.471  1.00  0.00     0.031 C 
ATOM     56  C   UNL     1       1.319  -9.327  11.274  1.00  0.00     0.037 A 
BRANCH  43  57
ATOM     57  C   UNL     1      -2.648  -4.711  10.142  1.00  0.00     0.064 A 
ATOM     58  C   UNL     1      -3.803  -4.724   9.345  1.00  0.00     0.173 A 
ATOM     59  C   UNL     1      -2.722  -4.051  11.381  1.00  0.00     0.173 A 
ATOM     60  F   UNL     1      -3.794  -5.340   8.154  1.00  0.00    -0.203 F 
ATOM     61  C   UNL     1      -4.968  -4.077   9.757  1.00  0.00     0.198 A 
ATOM     62  C   UNL     1      -3.897  -3.430  11.802  1.00  0.00     0.198 A 
ATOM     63  F   UNL     1      -1.656  -4.021  12.195  1.00  0.00    -0.203 F 
ATOM     64  F   UNL     1      -6.044  -4.065   8.957  1.00  0.00    -0.200 F 
ATOM     65  C   UNL     1      -5.016  -3.435  10.985  1.00  0.00     0.200 A 
ATOM     66  F   UNL     1      -3.944  -2.827  12.998  1.00  0.00    -0.200 F 
ATOM     67  F   UNL     1      -6.138  -2.815  11.379  1.00  0.00    -0.200 F 
ENDBRANCH  43  57
BRANCH  44  68
ATOM     68  C   UNL     1       5.805  -9.142   7.209  1.00  0.00     0.064 A 
ATOM     69  C   UNL     1       5.787 -10.386   6.568  1.00  0.00     0.173 A 
ATOM     70  C   UNL     1       7.042  -8.487   7.331  1.00  0.00     0.173 A 
ATOM     71  F   UNL     1       4.635 -11.063   6.451  1.00  0.00    -0.203 F 
ATOM     72  C   UNL     1       6.956 -10.944   6.053  1.00  0.00     0.198 A 
ATOM     73  C   UNL     1       8.200  -9.025   6.778  1.00  0.00     0.198 A 
ATOM     74  F   UNL     1       7.113  -7.292   7.935  1.00  0.00    -0.203 F 
ATOM     75  F   UNL     1       6.918 -12.147   5.464  1.00  0.00    -0.200 F 
ATOM     76  C   UNL     1       8.157 -10.255   6.142  1.00  0.00     0.200 A 
ATOM     77  F   UNL     1       9.350  -8.340   6.842  1.00  0.00    -0.200 F 
ATOM     78  F   UNL     1       9.273 -10.776   5.614  1.00  0.00    -0.200 F 
ENDBRANCH  44  68
BRANCH  56  79
ATOM     79  C   UNL     1       1.282 -10.365  12.357  1.00  0.00     0.064 A 
ATOM     80  C   UNL     1       2.187 -10.341  13.430  1.00  0.00     0.173 A 
ATOM     81  C   UNL     1       0.342 -11.405  12.313  1.00  0.00     0.173 A 
ATOM     82  F   UNL     1       3.122  -9.382  13.503  1.00  0.00    -0.203 F 
ATOM     83  C   UNL     1       2.172 -11.339  14.400  1.00  0.00     0.198 A 
ATOM     84  C   UNL     1       0.312 -12.385  13.301  1.00  0.00     0.198 A 
ATOM     85  F   UNL     1      -0.542 -11.475  11.307  1.00  0.00    -0.203 F 
ATOM     86  F   UNL     1       3.085 -11.330  15.382  1.00  0.00    -0.200 F 
ATOM     87  C   UNL     1       1.232 -12.357  14.338  1.00  0.00     0.200 A 
ATOM     88  F   UNL     1      -0.601 -13.364  13.243  1.00  0.00    -0.200 F 
ATOM     89  F   UNL     1       1.222 -13.319  15.270  1.00  0.00    -0.200 F 
ENDBRANCH  56  79
ENDBRANCH  30  31
ENDBRANCH  23  25
ENDBRANCH  22  23
ENDBRANCH  21  22
ENDBRANCH   1  21
TORSDOF 14
