REMARK SMILES Cc1cccc(S(=O)(=O)Nc2cc(C(=O)OCCOC(=O)c3ccc(-c4c5nc(c(-c6c(F)c(F)c(F)c(F)c6F)c6ccc([nH]6)c(-c6c(F)c(F)c(F)c(F)c6F)c6nc(c(-c7c(F)c(F)c(F)c(F)c7F)c7ccc4[nH]7)C=C6)C=C5)cc3)cnc2N2CCC[C@H](C)C2)c1
REMARK SMILES IDX 17 1 16 2 14 3 15 4 13 5 11 6 12 7 87 8 86 9 85 10 10 11
REMARK SMILES IDX 7 13 8 14 9 15 6 16 1 17 2 18 3 19 95 20 4 21 5 22 88 23
REMARK SMILES IDX 89 24 94 25 90 26 92 27 91 28 93 29 18 30 19 31 20 32 21 33
REMARK SMILES IDX 22 34 23 35 84 36 24 37 83 38 25 39 26 40 27 41 77 42 28 43
REMARK SMILES IDX 82 44 76 45 78 46 29 47 81 48 75 49 74 50 30 52 62 53 42 54
REMARK SMILES IDX 61 55 43 56 46 57 60 58 79 59 44 60 45 61 59 63 80 64 47 65
REMARK SMILES IDX 31 66 32 67 40 68 33 69 34 70 38 71 41 72 35 73 36 74 39 75
REMARK SMILES IDX 37 76 63 77 64 78 72 79 65 80 66 81 70 82 73 83 67 84 68 85
REMARK SMILES IDX 71 86 69 87 48 88 49 89 57 90 50 91 51 92 55 93 58 94 52 95
REMARK SMILES IDX 53 96 56 97 54 98
REMARK H PARENT 10 12 78 51 46 62
REMARK Flexibility Score: inf
ROOT
ATOM      1  C   UNL     1       2.531   1.593  -4.619  1.00  0.00     0.275 C 
ENDROOT
BRANCH   1   2
ATOM      2  O   UNL     1       2.235   2.829  -3.948  1.00  0.00    -0.458 OA
BRANCH   2   3
ATOM      3  C   UNL     1       1.826   2.619  -2.685  1.00  0.00     0.339 C 
ATOM      4  O   UNL     1       1.747   1.533  -2.130  1.00  0.00    -0.246 OA
BRANCH   3   5
ATOM      5  C   UNL     1       1.362   3.771  -1.935  1.00  0.00     0.080 A 
ATOM      6  C   UNL     1      -0.224   4.083  -0.158  1.00  0.00     0.092 A 
ATOM      7  C   UNL     1       0.085   3.602  -1.421  1.00  0.00     0.048 A 
ATOM      8  C   UNL     1       0.713   4.943   0.487  1.00  0.00     0.153 A 
ATOM      9  N   UNL     1       1.910   5.208  -0.115  1.00  0.00    -0.236 NA
ATOM     10  C   UNL     1       2.243   4.583  -1.267  1.00  0.00     0.129 A 
BRANCH   6  11
ATOM     11  N   UNL     1      -1.374   3.563   0.528  1.00  0.00    -0.276 N 
ATOM     12  H   UNL     1      -1.432   3.766   1.490  1.00  0.00     0.180 HD
BRANCH  11  13
ATOM     13  S   UNL     1      -2.626   2.655  -0.108  1.00  0.00     0.262 S 
ATOM     14  O   UNL     1      -3.084   3.331  -1.303  1.00  0.00    -0.201 OA
ATOM     15  O   UNL     1      -3.521   2.476   1.019  1.00  0.00    -0.201 OA
BRANCH  13  16
ATOM     16  C   UNL     1      -2.134   1.013  -0.595  1.00  0.00     0.088 A 
ATOM     17  C   UNL     1       0.810  -1.162  -1.661  1.00  0.00     0.044 C 
ATOM     18  C   UNL     1      -0.572  -0.686  -1.339  1.00  0.00    -0.050 A 
ATOM     19  C   UNL     1      -1.630  -1.506  -1.727  1.00  0.00     0.003 A 
ATOM     20  C   UNL     1      -0.823   0.559  -0.717  1.00  0.00     0.025 A 
ATOM     21  C   UNL     1      -2.936  -1.085  -1.537  1.00  0.00     0.002 A 
ATOM     22  C   UNL     1      -3.186   0.174  -0.995  1.00  0.00     0.022 A 
ENDBRANCH  13  16
ENDBRANCH  11  13
ENDBRANCH   6  11
BRANCH   8  23
ATOM     23  N   UNL     1       0.524   5.576   1.704  1.00  0.00    -0.355 N 
ATOM     24  C   UNL     1      -0.407   5.242   2.773  1.00  0.00     0.118 C 
ATOM     25  C   UNL     1       1.089   6.929   1.836  1.00  0.00     0.121 C 
ATOM     26  C   UNL     1      -1.604   6.201   2.729  1.00  0.00     0.022 C 
ATOM     27  C   UNL     1      -0.049   7.955   1.674  1.00  0.00     0.005 C 
ATOM     28  C   UNL     1      -1.168   7.671   2.696  1.00  0.00     0.007 C 
ATOM     29  C   UNL     1      -0.580   7.984   0.236  1.00  0.00     0.009 C 
ENDBRANCH   8  23
ENDBRANCH   3   5
ENDBRANCH   2   3
ENDBRANCH   1   2
BRANCH   1  30
ATOM     30  C   UNL     1       3.867   1.633  -5.356  1.00  0.00     0.275 C 
BRANCH  30  31
ATOM     31  O   UNL     1       5.063   2.125  -4.683  1.00  0.00    -0.458 OA
BRANCH  31  32
ATOM     32  C   UNL     1       5.087   2.609  -3.418  1.00  0.00     0.338 C 
ATOM     33  O   UNL     1       5.335   3.780  -3.156  1.00  0.00    -0.246 OA
BRANCH  32  34
ATOM     34  C   UNL     1       4.864   1.603  -2.353  1.00  0.00     0.060 A 
ATOM     35  C   UNL     1       4.626   2.006  -1.020  1.00  0.00     0.016 A 
ATOM     36  C   UNL     1       4.748   0.270  -2.706  1.00  0.00     0.016 A 
ATOM     37  C   UNL     1       4.183   1.087  -0.056  1.00  0.00     0.010 A 
ATOM     38  C   UNL     1       4.195  -0.598  -1.800  1.00  0.00     0.010 A 
ATOM     39  C   UNL     1       3.965  -0.225  -0.453  1.00  0.00    -0.014 A 
BRANCH  39  40
ATOM     40  C   UNL     1       3.719  -1.388   0.411  1.00  0.00     0.031 A 
ATOM     41  C   UNL     1       2.407  -1.767   0.991  1.00  0.00     0.074 A 
ATOM     42  C   UNL     1       4.726  -2.283   0.263  1.00  0.00     0.049 A 
ATOM     43  N   UNL     1       2.029  -2.999   1.000  1.00  0.00    -0.248 NA
ATOM     44  C   UNL     1       1.358  -0.870   1.503  1.00  0.00     0.031 C 
ATOM     45  C   UNL     1       4.820  -3.709   0.518  1.00  0.00     0.029 A 
ATOM     46  N   UNL     1       6.057  -1.934  -0.043  1.00  0.00    -0.354 N 
ATOM     47  C   UNL     1       0.744  -3.075   1.481  1.00  0.00     0.074 A 
ATOM     48  C   UNL     1       0.319  -1.715   1.690  1.00  0.00     0.031 C 
ATOM     49  C   UNL     1       6.107  -3.998   0.797  1.00  0.00     0.029 A 
ATOM     50  C   UNL     1       6.821  -2.726   0.825  1.00  0.00     0.049 A 
ATOM     51  H   UNL     1       6.375  -1.285  -0.711  1.00  0.00     0.167 HD
ATOM     52  C   UNL     1       0.272  -4.313   1.791  1.00  0.00     0.037 A 
ATOM     53  C   UNL     1       7.294  -2.092   1.941  1.00  0.00     0.037 A 
ATOM     54  C   UNL     1       1.404  -5.072   2.289  1.00  0.00     0.049 A 
ATOM     55  C   UNL     1       6.612  -2.649   3.173  1.00  0.00     0.074 A 
ATOM     56  C   UNL     1       2.291  -5.991   1.768  1.00  0.00     0.029 A 
ATOM     57  N   UNL     1       1.963  -4.582   3.457  1.00  0.00    -0.354 N 
ATOM     58  N   UNL     1       5.374  -3.078   3.220  1.00  0.00    -0.248 NA
ATOM     59  C   UNL     1       7.354  -2.923   4.394  1.00  0.00     0.031 C 
ATOM     60  C   UNL     1       3.470  -5.922   2.577  1.00  0.00     0.029 A 
ATOM     61  C   UNL     1       3.271  -4.981   3.580  1.00  0.00     0.049 A 
ATOM     62  H   UNL     1       1.487  -4.022   4.112  1.00  0.00     0.167 HD
ATOM     63  C   UNL     1       5.189  -3.775   4.388  1.00  0.00     0.074 A 
ATOM     64  C   UNL     1       6.449  -3.626   5.094  1.00  0.00     0.031 C 
ATOM     65  C   UNL     1       4.061  -4.486   4.697  1.00  0.00     0.037 A 
BRANCH  52  66
ATOM     66  C   UNL     1      -1.110  -4.883   1.658  1.00  0.00     0.064 A 
ATOM     67  C   UNL     1      -1.311  -6.273   1.850  1.00  0.00     0.173 A 
ATOM     68  C   UNL     1      -2.213  -4.187   1.139  1.00  0.00     0.173 A 
ATOM     69  F   UNL     1      -0.345  -7.053   2.356  1.00  0.00    -0.203 F 
ATOM     70  C   UNL     1      -2.493  -6.922   1.488  1.00  0.00     0.198 A 
ATOM     71  C   UNL     1      -3.404  -4.839   0.783  1.00  0.00     0.198 A 
ATOM     72  F   UNL     1      -2.158  -2.865   0.943  1.00  0.00    -0.203 F 
ATOM     73  F   UNL     1      -2.598  -8.251   1.640  1.00  0.00    -0.200 F 
ATOM     74  C   UNL     1      -3.537  -6.207   0.940  1.00  0.00     0.200 A 
ATOM     75  F   UNL     1      -4.417  -4.138   0.252  1.00  0.00    -0.200 F 
ATOM     76  F   UNL     1      -4.658  -6.835   0.558  1.00  0.00    -0.200 F 
ENDBRANCH  52  66
BRANCH  53  77
ATOM     77  C   UNL     1       7.684  -0.661   1.651  1.00  0.00     0.064 A 
ATOM     78  C   UNL     1       8.532  -0.433   0.534  1.00  0.00     0.173 A 
ATOM     79  C   UNL     1       7.008   0.459   2.150  1.00  0.00     0.173 A 
ATOM     80  F   UNL     1       9.221  -1.456  -0.001  1.00  0.00    -0.203 F 
ATOM     81  C   UNL     1       8.572   0.790  -0.136  1.00  0.00     0.198 A 
ATOM     82  C   UNL     1       7.100   1.707   1.508  1.00  0.00     0.198 A 
ATOM     83  F   UNL     1       6.178   0.343   3.197  1.00  0.00    -0.203 F 
ATOM     84  F   UNL     1       9.253   0.902  -1.287  1.00  0.00    -0.200 F 
ATOM     85  C   UNL     1       7.843   1.858   0.344  1.00  0.00     0.200 A 
ATOM     86  F   UNL     1       6.383   2.747   1.961  1.00  0.00    -0.200 F 
ATOM     87  F   UNL     1       7.818   3.015  -0.335  1.00  0.00    -0.200 F 
ENDBRANCH  53  77
BRANCH  65  88
ATOM     88  C   UNL     1       3.619  -4.812   6.113  1.00  0.00     0.064 A 
ATOM     89  C   UNL     1       4.121  -4.155   7.249  1.00  0.00     0.173 A 
ATOM     90  C   UNL     1       2.526  -5.682   6.364  1.00  0.00     0.173 A 
ATOM     91  F   UNL     1       5.020  -3.168   7.153  1.00  0.00    -0.203 F 
ATOM     92  C   UNL     1       3.660  -4.432   8.536  1.00  0.00     0.198 A 
ATOM     93  C   UNL     1       2.005  -5.883   7.642  1.00  0.00     0.198 A 
ATOM     94  F   UNL     1       1.890  -6.331   5.378  1.00  0.00    -0.203 F 
ATOM     95  F   UNL     1       4.239  -3.830   9.585  1.00  0.00    -0.200 F 
ATOM     96  C   UNL     1       2.595  -5.286   8.733  1.00  0.00     0.200 A 
ATOM     97  F   UNL     1       0.908  -6.638   7.801  1.00  0.00    -0.200 F 
ATOM     98  F   UNL     1       2.120  -5.505   9.965  1.00  0.00    -0.200 F 
ENDBRANCH  65  88
ENDBRANCH  39  40
ENDBRANCH  32  34
ENDBRANCH  31  32
ENDBRANCH  30  31
ENDBRANCH   1  30
TORSDOF 15
