REMARK SMILES CCC[NH2+][C@@]1(C(=O)OCCOC(=O)c2ccc(-c3c4nc(c(-c5c(F)c(F)c(F)c(F)c5F)c5ccc([nH]5)c(-c5c(F)c(F)c(F)c(F)c5F)c5nc(c(-c6c(F)c(F)c(F)c(F)c6F)c6ccc3[nH]6)C=C5)C=C4)cc2)CC[C@@H](Sc2ccc(OC)cc2)C1
REMARK SMILES IDX 9 1 8 2 6 3 7 4 5 5 77 6 89 7 78 8 79 9 4 10 3 13 2 14 1 15
REMARK SMILES IDX 80 16 81 17 82 18 88 19 83 20 87 21 84 22 85 23 86 24 10 25
REMARK SMILES IDX 11 26 12 27 13 28 14 29 15 30 76 31 16 32 75 33 17 34 18 35
REMARK SMILES IDX 19 36 69 37 20 38 74 39 68 40 70 41 21 42 73 43 67 44 66 45
REMARK SMILES IDX 22 47 54 48 34 49 53 50 35 51 38 52 52 53 71 54 36 55 37 56
REMARK SMILES IDX 51 58 72 59 39 60 23 61 24 62 32 63 25 64 26 65 30 66 33 67
REMARK SMILES IDX 27 68 28 69 31 70 29 71 55 72 56 73 64 74 57 75 58 76 62 77
REMARK SMILES IDX 65 78 59 79 60 80 63 81 61 82 40 83 41 84 49 85 42 86 43 87
REMARK SMILES IDX 47 88 50 89 44 90 45 91 48 92 46 93
REMARK H PARENT 4 11 4 12 70 46 38 57
REMARK Flexibility Score: inf
ROOT
ATOM      1  C   UNL     1       4.660   4.492  -1.496  1.00  0.00     0.274 C 
ENDROOT
BRANCH   1   2
ATOM      2  O   UNL     1       3.286   4.915  -1.349  1.00  0.00    -0.457 OA
BRANCH   2   3
ATOM      3  C   UNL     1       2.312   4.021  -1.685  1.00  0.00     0.368 C 
ATOM      4  O   UNL     1       2.521   2.913  -2.170  1.00  0.00    -0.245 OA
BRANCH   3   5
ATOM      5  C   UNL     1       0.881   4.594  -1.433  1.00  0.00     0.195 C 
ATOM      6  C   UNL     1       0.432   5.356  -2.692  1.00  0.00     0.082 C 
ATOM      7  C   UNL     1       0.842   5.635  -0.298  1.00  0.00     0.096 C 
ATOM      8  C   UNL     1       0.893   6.787  -2.477  1.00  0.00     0.022 C 
ATOM      9  C   UNL     1       0.800   7.013  -0.969  1.00  0.00     0.059 C 
BRANCH   5  10
ATOM     10  N   UNL     1      -0.088   3.475  -1.286  1.00  0.00    -0.332 N 
ATOM     11  H   UNL     1      -1.025   3.852  -1.431  1.00  0.00     0.347 HD
ATOM     12  H   UNL     1       0.193   2.776  -1.975  1.00  0.00     0.347 HD
BRANCH  10  13
ATOM     13  C   UNL     1      -0.079   2.786  -0.004  1.00  0.00     0.261 C 
BRANCH  13  14
ATOM     14  C   UNL     1      -1.021   1.573   0.004  1.00  0.00     0.058 C 
ATOM     15  C   UNL     1      -0.871   0.633  -1.186  1.00  0.00     0.010 C 
ENDBRANCH  13  14
ENDBRANCH  10  13
ENDBRANCH   5  10
BRANCH   9  16
ATOM     16  S   UNL     1      -0.607   8.077  -0.433  1.00  0.00    -0.122 SA
BRANCH  16  17
ATOM     17  C   UNL     1      -2.062   7.183  -0.954  1.00  0.00     0.008 A 
ATOM     18  C   UNL     1      -2.801   7.646  -2.045  1.00  0.00     0.019 A 
ATOM     19  C   UNL     1      -2.562   6.106  -0.218  1.00  0.00     0.019 A 
ATOM     20  C   UNL     1      -3.999   7.017  -2.406  1.00  0.00     0.047 A 
ATOM     21  C   UNL     1      -3.746   5.460  -0.593  1.00  0.00     0.047 A 
ATOM     22  C   UNL     1      -4.475   5.918  -1.687  1.00  0.00     0.118 A 
BRANCH  22  23
ATOM     23  O   UNL     1      -5.660   5.403  -2.135  1.00  0.00    -0.497 OA
ATOM     24  C   UNL     1      -6.163   4.261  -1.450  1.00  0.00     0.278 C 
ENDBRANCH  22  23
ENDBRANCH  16  17
ENDBRANCH   9  16
ENDBRANCH   3   5
ENDBRANCH   2   3
ENDBRANCH   1   2
BRANCH   1  25
ATOM     25  C   UNL     1       5.213   4.018  -0.152  1.00  0.00     0.275 C 
BRANCH  25  26
ATOM     26  O   UNL     1       4.621   2.747   0.157  1.00  0.00    -0.458 OA
BRANCH  26  27
ATOM     27  C   UNL     1       4.552   2.412   1.464  1.00  0.00     0.338 C 
ATOM     28  O   UNL     1       4.998   3.054   2.405  1.00  0.00    -0.246 OA
BRANCH  27  29
ATOM     29  C   UNL     1       3.801   1.141   1.614  1.00  0.00     0.060 A 
ATOM     30  C   UNL     1       2.885   0.737   0.645  1.00  0.00     0.016 A 
ATOM     31  C   UNL     1       3.935   0.380   2.779  1.00  0.00     0.016 A 
ATOM     32  C   UNL     1       2.030  -0.336   0.892  1.00  0.00     0.010 A 
ATOM     33  C   UNL     1       3.138  -0.760   2.975  1.00  0.00     0.010 A 
ATOM     34  C   UNL     1       2.132  -1.105   2.056  1.00  0.00    -0.014 A 
BRANCH  34  35
ATOM     35  C   UNL     1       1.123  -2.174   2.346  1.00  0.00     0.031 A 
ATOM     36  C   UNL     1       0.353  -2.148   3.644  1.00  0.00     0.074 A 
ATOM     37  C   UNL     1       0.802  -3.122   1.439  1.00  0.00     0.049 A 
ATOM     38  N   UNL     1      -0.391  -3.080   4.189  1.00  0.00    -0.248 NA
ATOM     39  C   UNL     1       0.436  -0.914   4.439  1.00  0.00     0.031 C 
ATOM     40  C   UNL     1       1.358  -3.241   0.091  1.00  0.00     0.029 A 
ATOM     41  N   UNL     1      -0.112  -4.150   1.505  1.00  0.00    -0.354 N 
ATOM     42  C   UNL     1      -0.772  -2.584   5.430  1.00  0.00     0.074 A 
ATOM     43  C   UNL     1      -0.212  -1.255   5.544  1.00  0.00     0.031 C 
ATOM     44  C   UNL     1       0.706  -4.208  -0.572  1.00  0.00     0.029 A 
ATOM     45  C   UNL     1      -0.223  -4.868   0.338  1.00  0.00     0.049 A 
ATOM     46  H   UNL     1      -0.637  -4.351   2.312  1.00  0.00     0.167 HD
ATOM     47  C   UNL     1      -1.506  -3.192   6.393  1.00  0.00     0.037 A 
ATOM     48  C   UNL     1      -0.953  -5.961   0.042  1.00  0.00     0.037 A 
ATOM     49  C   UNL     1      -2.152  -4.469   6.245  1.00  0.00     0.049 A 
ATOM     50  C   UNL     1      -1.758  -6.628   1.125  1.00  0.00     0.074 A 
ATOM     51  C   UNL     1      -2.883  -5.185   7.177  1.00  0.00     0.029 A 
ATOM     52  N   UNL     1      -2.183  -5.200   5.068  1.00  0.00    -0.354 N 
ATOM     53  N   UNL     1      -1.966  -6.243   2.359  1.00  0.00    -0.248 NA
ATOM     54  C   UNL     1      -2.386  -7.913   0.783  1.00  0.00     0.031 C 
ATOM     55  C   UNL     1      -3.344  -6.359   6.568  1.00  0.00     0.029 A 
ATOM     56  C   UNL     1      -2.925  -6.356   5.248  1.00  0.00     0.049 A 
ATOM     57  H   UNL     1      -1.742  -4.937   4.228  1.00  0.00     0.167 HD
ATOM     58  C   UNL     1      -2.739  -7.237   2.942  1.00  0.00     0.074 A 
ATOM     59  C   UNL     1      -2.995  -8.227   1.918  1.00  0.00     0.031 C 
ATOM     60  C   UNL     1      -3.179  -7.331   4.221  1.00  0.00     0.037 A 
BRANCH  47  61
ATOM     61  C   UNL     1      -1.593  -2.509   7.725  1.00  0.00     0.064 A 
ATOM     62  C   UNL     1      -2.409  -1.392   7.946  1.00  0.00     0.173 A 
ATOM     63  C   UNL     1      -0.849  -3.006   8.808  1.00  0.00     0.173 A 
ATOM     64  F   UNL     1      -3.122  -0.868   6.938  1.00  0.00    -0.203 F 
ATOM     65  C   UNL     1      -2.459  -0.782   9.197  1.00  0.00     0.198 A 
ATOM     66  C   UNL     1      -0.922  -2.410  10.063  1.00  0.00     0.198 A 
ATOM     67  F   UNL     1      -0.056  -4.076   8.648  1.00  0.00    -0.203 F 
ATOM     68  F   UNL     1      -3.211   0.313   9.376  1.00  0.00    -0.200 F 
ATOM     69  C   UNL     1      -1.721  -1.294  10.255  1.00  0.00     0.200 A 
ATOM     70  F   UNL     1      -0.214  -2.912  11.084  1.00  0.00    -0.200 F 
ATOM     71  F   UNL     1      -1.773  -0.706  11.458  1.00  0.00    -0.200 F 
ENDBRANCH  47  61
BRANCH  48  72
ATOM     72  C   UNL     1      -0.921  -6.535  -1.329  1.00  0.00     0.064 A 
ATOM     73  C   UNL     1      -2.065  -6.515  -2.140  1.00  0.00     0.173 A 
ATOM     74  C   UNL     1       0.238  -7.125  -1.854  1.00  0.00     0.173 A 
ATOM     75  F   UNL     1      -3.209  -5.996  -1.670  1.00  0.00    -0.203 F 
ATOM     76  C   UNL     1      -2.050  -7.064  -3.421  1.00  0.00     0.198 A 
ATOM     77  C   UNL     1       0.262  -7.644  -3.146  1.00  0.00     0.198 A 
ATOM     78  F   UNL     1       1.356  -7.182  -1.115  1.00  0.00    -0.203 F 
ATOM     79  F   UNL     1      -3.168  -7.068  -4.159  1.00  0.00    -0.200 F 
ATOM     80  C   UNL     1      -0.884  -7.618  -3.927  1.00  0.00     0.200 A 
ATOM     81  F   UNL     1       1.394  -8.168  -3.634  1.00  0.00    -0.200 F 
ATOM     82  F   UNL     1      -0.866  -8.137  -5.162  1.00  0.00    -0.200 F 
ENDBRANCH  48  72
BRANCH  60  83
ATOM     83  C   UNL     1      -3.994  -8.536   4.579  1.00  0.00     0.064 A 
ATOM     84  C   UNL     1      -3.396  -9.792   4.761  1.00  0.00     0.173 A 
ATOM     85  C   UNL     1      -5.378  -8.429   4.774  1.00  0.00     0.173 A 
ATOM     86  F   UNL     1      -2.077  -9.945   4.569  1.00  0.00    -0.203 F 
ATOM     87  C   UNL     1      -4.160 -10.903   5.106  1.00  0.00     0.198 A 
ATOM     88  C   UNL     1      -6.136  -9.539   5.139  1.00  0.00     0.198 A 
ATOM     89  F   UNL     1      -5.994  -7.248   4.615  1.00  0.00    -0.203 F 
ATOM     90  F   UNL     1      -3.575 -12.102   5.237  1.00  0.00    -0.200 F 
ATOM     91  C   UNL     1      -5.528 -10.775   5.300  1.00  0.00     0.200 A 
ATOM     92  F   UNL     1      -7.456  -9.412   5.333  1.00  0.00    -0.200 F 
ATOM     93  F   UNL     1      -6.262 -11.845   5.633  1.00  0.00    -0.200 F 
ENDBRANCH  60  83
ENDBRANCH  34  35
ENDBRANCH  27  29
ENDBRANCH  26  27
ENDBRANCH  25  26
ENDBRANCH   1  25
TORSDOF 17
