REMARK SMILES COc1cc2c(cc1OC)[C@H](C(=O)OCCOC(=O)c1ccc(-c3c4nc(c(-c5c(F)c(F)c(F)c(F)c5F)c5ccc([nH]5)c(-c5c(F)c(F)c(F)c(F)c5F)c5nc(c(-c6c(F)c(F)c(F)c(F)c6F)c6ccc3[nH]6)C=C5)C=C4)cc1)[C@H](c1cccc(Cl)c1)N(C)C2=O
REMARK SMILES IDX 16 1 15 2 14 3 12 4 13 5 11 6 3 7 4 8 8 9 5 10 7 11 6 12
REMARK SMILES IDX 93 13 91 14 94 15 83 16 92 17 2 18 1 19 9 20 10 21 84 22
REMARK SMILES IDX 85 23 90 24 86 25 88 26 87 27 89 28 17 29 18 30 19 31 20 32
REMARK SMILES IDX 21 33 82 34 22 35 81 36 23 37 24 38 25 39 75 40 26 41 80 42
REMARK SMILES IDX 74 43 76 44 27 45 79 46 73 47 72 48 28 50 60 51 40 52 59 53
REMARK SMILES IDX 41 54 44 55 58 56 77 57 42 58 43 59 57 61 78 62 45 63 29 64
REMARK SMILES IDX 30 65 38 66 31 67 32 68 36 69 39 70 33 71 34 72 37 73 35 74
REMARK SMILES IDX 61 75 62 76 70 77 63 78 64 79 68 80 71 81 65 82 66 83 69 84
REMARK SMILES IDX 67 85 46 86 47 87 55 88 48 89 49 90 53 91 56 92 50 93 51 94
REMARK SMILES IDX 54 95 52 96
REMARK H PARENT 76 49 44 60
REMARK Flexibility Score: inf
ROOT
ATOM      1  C   UNL     1       0.025   9.165  -5.239  1.00  0.00     0.275 C 
ENDROOT
BRANCH   1   2
ATOM      2  C   UNL     1      -0.472   7.931  -4.487  1.00  0.00     0.274 C 
BRANCH   2   3
ATOM      3  O   UNL     1       0.542   7.375  -3.618  1.00  0.00    -0.462 OA
BRANCH   3   4
ATOM      4  C   UNL     1       0.512   6.011  -3.525  1.00  0.00     0.316 C 
ATOM      5  O   UNL     1      -0.218   5.313  -4.219  1.00  0.00    -0.251 OA
BRANCH   4   6
ATOM      6  C   UNL     1       1.486   5.483  -2.475  1.00  0.00     0.157 C 
ATOM      7  C   UNL     1       0.613   1.494  -1.026  1.00  0.00     0.161 A 
ATOM      8  C   UNL     1       1.881   2.066  -0.842  1.00  0.00     0.064 A 
ATOM      9  C   UNL     1      -0.428   2.278  -1.542  1.00  0.00     0.161 A 
ATOM     10  C   UNL     1       2.127   3.385  -1.240  1.00  0.00     0.048 A 
ATOM     11  C   UNL     1      -0.169   3.603  -1.911  1.00  0.00     0.056 A 
ATOM     12  C   UNL     1       1.120   4.140  -1.858  1.00  0.00    -0.015 A 
ATOM     13  C   UNL     1       3.490   3.967  -1.051  1.00  0.00     0.254 C 
ATOM     14  N   UNL     1       3.824   5.031  -1.889  1.00  0.00    -0.333 N 
ATOM     15  O   UNL     1       4.250   3.493  -0.215  1.00  0.00    -0.269 OA
ATOM     16  C   UNL     1       2.939   5.373  -3.024  1.00  0.00     0.134 C 
ATOM     17  C   UNL     1       5.154   5.615  -1.809  1.00  0.00     0.147 C 
BRANCH   7  18
ATOM     18  O   UNL     1       0.390   0.164  -0.792  1.00  0.00    -0.493 OA
ATOM     19  C   UNL     1       0.994  -0.359   0.384  1.00  0.00     0.278 C 
ENDBRANCH   7  18
BRANCH   9  20
ATOM     20  O   UNL     1      -1.736   1.942  -1.764  1.00  0.00    -0.493 OA
ATOM     21  C   UNL     1      -2.122   0.584  -1.650  1.00  0.00     0.278 C 
ENDBRANCH   9  20
BRANCH  16  22
ATOM     22  C   UNL     1       3.155   4.426  -4.225  1.00  0.00    -0.023 A 
ATOM     23  C   UNL     1       2.492   4.653  -5.443  1.00  0.00     0.006 A 
ATOM     24  C   UNL     1       4.002   3.299  -4.165  1.00  0.00     0.026 A 
ATOM     25  C   UNL     1       2.552   3.731  -6.492  1.00  0.00     0.002 A 
ATOM     26  C   UNL     1       4.095   2.400  -5.231  1.00  0.00     0.041 A 
ATOM     27  C   UNL     1       3.344   2.594  -6.381  1.00  0.00     0.020 A 
ATOM     28  Cl  UNL     1       5.141   1.039  -5.118  1.00  0.00    -0.084 Cl
ENDBRANCH  16  22
ENDBRANCH   4   6
ENDBRANCH   3   4
ENDBRANCH   2   3
ENDBRANCH   1   2
BRANCH   1  29
ATOM     29  O   UNL     1       1.187   8.838  -6.023  1.00  0.00    -0.458 OA
BRANCH  29  30
ATOM     30  C   UNL     1       2.360   9.252  -5.488  1.00  0.00     0.338 C 
ATOM     31  O   UNL     1       2.521   9.927  -4.487  1.00  0.00    -0.246 OA
BRANCH  30  32
ATOM     32  C   UNL     1       3.469   8.558  -6.166  1.00  0.00     0.060 A 
ATOM     33  C   UNL     1       4.334   7.832  -5.346  1.00  0.00     0.016 A 
ATOM     34  C   UNL     1       3.679   8.607  -7.544  1.00  0.00     0.016 A 
ATOM     35  C   UNL     1       5.355   7.070  -5.898  1.00  0.00     0.010 A 
ATOM     36  C   UNL     1       4.765   7.912  -8.095  1.00  0.00     0.010 A 
ATOM     37  C   UNL     1       5.599   7.132  -7.274  1.00  0.00    -0.014 A 
BRANCH  37  38
ATOM     38  C   UNL     1       6.807   6.459  -7.805  1.00  0.00     0.031 A 
ATOM     39  C   UNL     1       8.144   7.110  -7.618  1.00  0.00     0.074 A 
ATOM     40  C   UNL     1       6.723   5.239  -8.362  1.00  0.00     0.049 A 
ATOM     41  N   UNL     1       9.320   6.718  -8.035  1.00  0.00    -0.248 NA
ATOM     42  C   UNL     1       8.164   8.361  -6.844  1.00  0.00     0.031 C 
ATOM     43  C   UNL     1       5.495   4.465  -8.490  1.00  0.00     0.029 A 
ATOM     44  N   UNL     1       7.689   4.428  -8.902  1.00  0.00    -0.354 N 
ATOM     45  C   UNL     1      10.214   7.678  -7.588  1.00  0.00     0.074 A 
ATOM     46  C   UNL     1       9.454   8.659  -6.845  1.00  0.00     0.031 C 
ATOM     47  C   UNL     1       5.779   3.280  -9.054  1.00  0.00     0.029 A 
ATOM     48  C   UNL     1       7.199   3.240  -9.391  1.00  0.00     0.049 A 
ATOM     49  H   UNL     1       8.642   4.673  -8.937  1.00  0.00     0.167 HD
ATOM     50  C   UNL     1      11.547   7.748  -7.808  1.00  0.00     0.037 A 
ATOM     51  C   UNL     1       7.822   2.258 -10.071  1.00  0.00     0.037 A 
ATOM     52  C   UNL     1      12.290   6.790  -8.579  1.00  0.00     0.049 A 
ATOM     53  C   UNL     1       9.285   2.420 -10.400  1.00  0.00     0.074 A 
ATOM     54  C   UNL     1      13.631   6.807  -8.918  1.00  0.00     0.029 A 
ATOM     55  N   UNL     1      11.748   5.644  -9.143  1.00  0.00    -0.354 N 
ATOM     56  N   UNL     1      10.117   3.363 -10.031  1.00  0.00    -0.248 NA
ATOM     57  C   UNL     1       9.886   1.399 -11.271  1.00  0.00     0.031 C 
ATOM     58  C   UNL     1      13.889   5.697  -9.729  1.00  0.00     0.029 A 
ATOM     59  C   UNL     1      12.722   4.961  -9.852  1.00  0.00     0.049 A 
ATOM     60  H   UNL     1      10.810   5.358  -9.051  1.00  0.00     0.167 HD
ATOM     61  C   UNL     1      11.336   3.049 -10.616  1.00  0.00     0.074 A 
ATOM     62  C   UNL     1      11.144   1.812 -11.343  1.00  0.00     0.031 C 
ATOM     63  C   UNL     1      12.507   3.730 -10.569  1.00  0.00     0.037 A 
BRANCH  50  64
ATOM     64  C   UNL     1      12.261   8.955  -7.283  1.00  0.00     0.064 A 
ATOM     65  C   UNL     1      12.554   9.111  -5.921  1.00  0.00     0.173 A 
ATOM     66  C   UNL     1      12.657   9.971  -8.165  1.00  0.00     0.173 A 
ATOM     67  F   UNL     1      12.169   8.179  -5.036  1.00  0.00    -0.203 F 
ATOM     68  C   UNL     1      13.205  10.252  -5.459  1.00  0.00     0.198 A 
ATOM     69  C   UNL     1      13.328  11.099  -7.703  1.00  0.00     0.198 A 
ATOM     70  F   UNL     1      12.390   9.870  -9.476  1.00  0.00    -0.203 F 
ATOM     71  F   UNL     1      13.437  10.404  -4.148  1.00  0.00    -0.200 F 
ATOM     72  C   UNL     1      13.596  11.241  -6.350  1.00  0.00     0.200 A 
ATOM     73  F   UNL     1      13.706  12.052  -8.566  1.00  0.00    -0.200 F 
ATOM     74  F   UNL     1      14.222  12.339  -5.903  1.00  0.00    -0.200 F 
ENDBRANCH  50  64
BRANCH  51  75
ATOM     75  C   UNL     1       7.062   1.075 -10.562  1.00  0.00     0.064 A 
ATOM     76  C   UNL     1       7.365  -0.221 -10.122  1.00  0.00     0.173 A 
ATOM     77  C   UNL     1       6.050   1.211 -11.527  1.00  0.00     0.173 A 
ATOM     78  F   UNL     1       8.348  -0.412  -9.230  1.00  0.00    -0.203 F 
ATOM     79  C   UNL     1       6.701  -1.333 -10.639  1.00  0.00     0.198 A 
ATOM     80  C   UNL     1       5.364   0.103 -12.017  1.00  0.00     0.198 A 
ATOM     81  F   UNL     1       5.727   2.425 -11.996  1.00  0.00    -0.203 F 
ATOM     82  F   UNL     1       7.054  -2.565 -10.247  1.00  0.00    -0.200 F 
ATOM     83  C   UNL     1       5.697  -1.170 -11.582  1.00  0.00     0.200 A 
ATOM     84  F   UNL     1       4.389   0.269 -12.921  1.00  0.00    -0.200 F 
ATOM     85  F   UNL     1       5.063  -2.238 -12.083  1.00  0.00    -0.200 F 
ENDBRANCH  51  75
BRANCH  63  86
ATOM     86  C   UNL     1      13.673   3.150 -11.313  1.00  0.00     0.064 A 
ATOM     87  C   UNL     1      13.742   3.193 -12.713  1.00  0.00     0.173 A 
ATOM     88  C   UNL     1      14.759   2.599 -10.617  1.00  0.00     0.173 A 
ATOM     89  F   UNL     1      12.722   3.697 -13.424  1.00  0.00    -0.203 F 
ATOM     90  C   UNL     1      14.850   2.691 -13.390  1.00  0.00     0.198 A 
ATOM     91  C   UNL     1      15.877   2.123 -11.295  1.00  0.00     0.198 A 
ATOM     92  F   UNL     1      14.743   2.541  -9.276  1.00  0.00    -0.203 F 
ATOM     93  F   UNL     1      14.880   2.709 -14.730  1.00  0.00    -0.200 F 
ATOM     94  C   UNL     1      15.920   2.164 -12.680  1.00  0.00     0.200 A 
ATOM     95  F   UNL     1      16.915   1.627 -10.608  1.00  0.00    -0.200 F 
ATOM     96  F   UNL     1      16.991   1.693 -13.333  1.00  0.00    -0.200 F 
ENDBRANCH  63  86
ENDBRANCH  37  38
ENDBRANCH  30  32
ENDBRANCH  29  30
ENDBRANCH   1  29
TORSDOF 14
