REMARK SMILES O=C(CS[C@@H]1CCS(=O)(=O)C1)Nc1nc(CC(=O)OCCOC(=O)c2ccc(-c3c4nc(c(-c5c(F)c(F)c(F)c(F)c5F)c5ccc([nH]5)c(-c5c(F)c(F)c(F)c(F)c5F)c5nc(c(-c6c(F)c(F)c(F)c(F)c6F)c6ccc3[nH]6)C=C5)C=C4)cc2)cs1
REMARK SMILES IDX 19 1 17 2 18 3 16 4 15 5 13 6 14 7 89 8 88 9 12 10 1 11 2 12
REMARK SMILES IDX 3 14 4 15 5 16 6 17 11 18 7 19 8 20 9 21 10 22 20 23 21 24
REMARK SMILES IDX 22 25 23 26 24 27 25 28 26 29 87 30 27 31 86 32 28 33 29 34
REMARK SMILES IDX 30 35 80 36 31 37 85 38 79 39 81 40 32 41 84 42 78 43 77 44
REMARK SMILES IDX 33 46 65 47 45 48 64 49 46 50 49 51 63 52 82 53 47 54 48 55
REMARK SMILES IDX 62 57 83 58 50 59 34 60 35 61 43 62 36 63 37 64 41 65 44 66
REMARK SMILES IDX 38 67 39 68 42 69 40 70 66 71 67 72 75 73 68 74 69 75 73 76
REMARK SMILES IDX 76 77 70 78 71 79 74 80 72 81 51 82 52 83 60 84 53 85 54 86
REMARK SMILES IDX 58 87 61 88 55 89 56 90 59 91 57 92
REMARK H PARENT 12 13 81 45 49 56
REMARK Flexibility Score: inf
ROOT
ATOM      1  O   UNL     1       1.136  -4.660  -4.377  1.00  0.00    -0.462 OA
ENDROOT
BRANCH   1   2
ATOM      2  C   UNL     1      -0.153  -4.496  -3.981  1.00  0.00     0.312 C 
ATOM      3  O   UNL     1      -1.117  -5.042  -4.511  1.00  0.00    -0.252 OA
BRANCH   2   4
ATOM      4  C   UNL     1      -0.323  -3.532  -2.834  1.00  0.00     0.179 C 
BRANCH   4   5
ATOM      5  C   UNL     1       0.845  -3.404  -1.916  1.00  0.00     0.065 A 
ATOM      6  C   UNL     1       2.336  -2.176  -0.857  1.00  0.00     0.189 A 
ATOM      7  N   UNL     1       1.336  -2.130  -1.693  1.00  0.00    -0.224 NA
ATOM      8  S   UNL     1       2.781  -3.717  -0.286  1.00  0.00    -0.105 S 
ATOM      9  C   UNL     1       1.468  -4.387  -1.167  1.00  0.00     0.093 A 
BRANCH   6  10
ATOM     10  N   UNL     1       3.042  -1.147  -0.314  1.00  0.00    -0.301 N 
ATOM     11  O   UNL     1       1.677   0.574  -1.078  1.00  0.00    -0.274 OA
ATOM     12  C   UNL     1       2.629   0.161  -0.422  1.00  0.00     0.236 C 
ATOM     13  H   UNL     1       3.875  -1.345   0.171  1.00  0.00     0.172 HD
BRANCH  12  14
ATOM     14  C   UNL     1       3.478   1.139   0.377  1.00  0.00     0.170 C 
BRANCH  14  15
ATOM     15  S   UNL     1       4.228   0.391   1.868  1.00  0.00    -0.148 SA
BRANCH  15  16
ATOM     16  C   UNL     1       2.882   0.397   3.129  1.00  0.00     0.063 C 
ATOM     17  C   UNL     1       1.492  -0.113   2.740  1.00  0.00     0.031 C 
ATOM     18  C   UNL     1       2.719   1.729   3.854  1.00  0.00     0.151 C 
ATOM     19  C   UNL     1       0.623   1.064   2.324  1.00  0.00     0.138 C 
ATOM     20  S   UNL     1       1.218   2.465   3.249  1.00  0.00     0.151 S 
ATOM     21  O   UNL     1       1.567   3.520   2.322  1.00  0.00    -0.229 OA
ATOM     22  O   UNL     1       0.334   2.686   4.375  1.00  0.00    -0.229 OA
ENDBRANCH  15  16
ENDBRANCH  14  15
ENDBRANCH  12  14
ENDBRANCH   6  10
ENDBRANCH   4   5
ENDBRANCH   2   4
ENDBRANCH   1   2
BRANCH   1  23
ATOM     23  C   UNL     1       1.346  -5.530  -5.506  1.00  0.00     0.274 C 
BRANCH  23  24
ATOM     24  C   UNL     1       1.718  -6.944  -5.059  1.00  0.00     0.275 C 
BRANCH  24  25
ATOM     25  O   UNL     1       0.643  -7.540  -4.310  1.00  0.00    -0.458 OA
BRANCH  25  26
ATOM     26  C   UNL     1       0.879  -7.710  -2.993  1.00  0.00     0.338 C 
ATOM     27  O   UNL     1       1.903  -7.469  -2.376  1.00  0.00    -0.246 OA
BRANCH  26  28
ATOM     28  C   UNL     1      -0.332  -8.204  -2.327  1.00  0.00     0.060 A 
ATOM     29  C   UNL     1      -1.255  -7.288  -1.817  1.00  0.00     0.016 A 
ATOM     30  C   UNL     1      -0.465  -9.568  -2.071  1.00  0.00     0.016 A 
ATOM     31  C   UNL     1      -2.303  -7.732  -1.012  1.00  0.00     0.010 A 
ATOM     32  C   UNL     1      -1.536 -10.015  -1.292  1.00  0.00     0.010 A 
ATOM     33  C   UNL     1      -2.444  -9.098  -0.734  1.00  0.00    -0.014 A 
BRANCH  33  34
ATOM     34  C   UNL     1      -3.503  -9.569   0.192  1.00  0.00     0.031 A 
ATOM     35  C   UNL     1      -3.130 -10.094   1.550  1.00  0.00     0.074 A 
ATOM     36  C   UNL     1      -4.794  -9.528  -0.184  1.00  0.00     0.049 A 
ATOM     37  N   UNL     1      -3.885 -10.653   2.461  1.00  0.00    -0.248 NA
ATOM     38  C   UNL     1      -1.713  -9.981   1.929  1.00  0.00     0.031 C 
ATOM     39  C   UNL     1      -5.286  -9.008  -1.459  1.00  0.00     0.029 A 
ATOM     40  N   UNL     1      -5.927  -9.942   0.470  1.00  0.00    -0.354 N 
ATOM     41  C   UNL     1      -3.035 -10.982   3.508  1.00  0.00     0.074 A 
ATOM     42  C   UNL     1      -1.702 -10.576   3.114  1.00  0.00     0.031 C 
ATOM     43  C   UNL     1      -6.622  -9.133  -1.495  1.00  0.00     0.029 A 
ATOM     44  C   UNL     1      -7.073  -9.786  -0.269  1.00  0.00     0.049 A 
ATOM     45  H   UNL     1      -5.919 -10.316   1.381  1.00  0.00     0.167 HD
ATOM     46  C   UNL     1      -3.340 -11.565   4.692  1.00  0.00     0.037 A 
ATOM     47  C   UNL     1      -8.340 -10.153   0.002  1.00  0.00     0.037 A 
ATOM     48  C   UNL     1      -4.670 -11.950   5.089  1.00  0.00     0.049 A 
ATOM     49  C   UNL     1      -8.646 -10.838   1.306  1.00  0.00     0.074 A 
ATOM     50  C   UNL     1      -5.083 -12.537   6.272  1.00  0.00     0.029 A 
ATOM     51  N   UNL     1      -5.805 -11.784   4.309  1.00  0.00    -0.354 N 
ATOM     52  N   UNL     1      -7.836 -11.150   2.288  1.00  0.00    -0.248 NA
ATOM     53  C   UNL     1     -10.045 -11.222   1.538  1.00  0.00     0.031 C 
ATOM     54  C   UNL     1      -6.463 -12.760   6.193  1.00  0.00     0.029 A 
ATOM     55  C   UNL     1      -6.916 -12.269   4.979  1.00  0.00     0.049 A 
ATOM     56  H   UNL     1      -5.819 -11.380   3.411  1.00  0.00     0.167 HD
ATOM     57  C   UNL     1      -8.628 -11.741   3.263  1.00  0.00     0.074 A 
ATOM     58  C   UNL     1      -9.985 -11.735   2.759  1.00  0.00     0.031 C 
ATOM     59  C   UNL     1      -8.263 -12.244   4.468  1.00  0.00     0.037 A 
BRANCH  46  60
ATOM     60  C   UNL     1      -2.208 -11.849   5.636  1.00  0.00     0.064 A 
ATOM     61  C   UNL     1      -1.554 -10.823   6.334  1.00  0.00     0.173 A 
ATOM     62  C   UNL     1      -1.793 -13.169   5.867  1.00  0.00     0.173 A 
ATOM     63  F   UNL     1      -1.903  -9.543   6.136  1.00  0.00    -0.203 F 
ATOM     64  C   UNL     1      -0.507 -11.107   7.208  1.00  0.00     0.198 A 
ATOM     65  C   UNL     1      -0.764 -13.451   6.763  1.00  0.00     0.198 A 
ATOM     66  F   UNL     1      -2.388 -14.187   5.229  1.00  0.00    -0.203 F 
ATOM     67  F   UNL     1       0.135 -10.107   7.828  1.00  0.00    -0.200 F 
ATOM     68  C   UNL     1      -0.118 -12.420   7.427  1.00  0.00     0.200 A 
ATOM     69  F   UNL     1      -0.397 -14.721   6.981  1.00  0.00    -0.200 F 
ATOM     70  F   UNL     1       0.886 -12.691   8.272  1.00  0.00    -0.200 F 
ENDBRANCH  46  60
BRANCH  47  71
ATOM     71  C   UNL     1      -9.413  -9.886  -0.989  1.00  0.00     0.064 A 
ATOM     72  C   UNL     1     -10.403  -8.928  -0.737  1.00  0.00     0.173 A 
ATOM     73  C   UNL     1      -9.470 -10.583  -2.205  1.00  0.00     0.173 A 
ATOM     74  F   UNL     1     -10.404  -8.256   0.423  1.00  0.00    -0.203 F 
ATOM     75  C   UNL     1     -11.419  -8.685  -1.659  1.00  0.00     0.198 A 
ATOM     76  C   UNL     1     -10.470 -10.319  -3.138  1.00  0.00     0.198 A 
ATOM     77  F   UNL     1      -8.545 -11.510  -2.493  1.00  0.00    -0.203 F 
ATOM     78  F   UNL     1     -12.378  -7.793  -1.376  1.00  0.00    -0.200 F 
ATOM     79  C   UNL     1     -11.448  -9.376  -2.862  1.00  0.00     0.200 A 
ATOM     80  F   UNL     1     -10.488 -10.981  -4.303  1.00  0.00    -0.200 F 
ATOM     81  F   UNL     1     -12.422  -9.138  -3.750  1.00  0.00    -0.200 F 
ENDBRANCH  47  71
BRANCH  59  82
ATOM     82  C   UNL     1      -9.354 -12.788   5.342  1.00  0.00     0.064 A 
ATOM     83  C   UNL     1      -9.988 -14.006   5.059  1.00  0.00     0.173 A 
ATOM     84  C   UNL     1      -9.750 -12.091   6.494  1.00  0.00     0.173 A 
ATOM     85  F   UNL     1      -9.656 -14.701   3.961  1.00  0.00    -0.203 F 
ATOM     86  C   UNL     1     -10.999 -14.495   5.884  1.00  0.00     0.198 A 
ATOM     87  C   UNL     1     -10.742 -12.596   7.331  1.00  0.00     0.198 A 
ATOM     88  F   UNL     1      -9.170 -10.925   6.812  1.00  0.00    -0.203 F 
ATOM     89  F   UNL     1     -11.624 -15.637   5.569  1.00  0.00    -0.200 F 
ATOM     90  C   UNL     1     -11.370 -13.793   7.021  1.00  0.00     0.200 A 
ATOM     91  F   UNL     1     -11.091 -11.923   8.436  1.00  0.00    -0.200 F 
ATOM     92  F   UNL     1     -12.340 -14.266   7.815  1.00  0.00    -0.200 F 
ENDBRANCH  59  82
ENDBRANCH  33  34
ENDBRANCH  26  28
ENDBRANCH  25  26
ENDBRANCH  24  25
ENDBRANCH  23  24
ENDBRANCH   1  23
TORSDOF 16
