REMARK SMILES C[NH2+][C@]1(C(=O)OCCOC(=O)c2ccc(-c3c4nc(c(-c5c(F)c(F)c(F)c(F)c5F)c5ccc([nH]5)c(-c5c(F)c(F)c(F)c(F)c5F)c5nc(c(-c6c(F)c(F)c(F)c(F)c6F)c6ccc3[nH]6)C=C5)C=C4)cc2)CC[C@@H](OCCCc2ccccc2)C1
REMARK SMILES IDX 6 1 4 2 5 3 3 4 75 5 88 6 76 7 77 8 2 9 1 10 78 13 79 14
REMARK SMILES IDX 80 15 81 16 82 17 83 18 87 19 84 20 86 21 85 22 7 23 8 24
REMARK SMILES IDX 9 25 10 26 11 27 12 28 13 29 74 30 14 31 73 32 15 33 16 34
REMARK SMILES IDX 17 35 67 36 18 37 72 38 66 39 68 40 19 41 71 42 65 43 64 44
REMARK SMILES IDX 20 46 52 47 32 48 51 49 33 50 36 51 50 52 69 53 34 54 35 55
REMARK SMILES IDX 49 57 70 58 37 59 21 60 22 61 30 62 23 63 24 64 28 65 31 66
REMARK SMILES IDX 25 67 26 68 29 69 27 70 53 71 54 72 62 73 55 74 56 75 60 76
REMARK SMILES IDX 63 77 57 78 58 79 61 80 59 81 38 82 39 83 47 84 40 85 41 86
REMARK SMILES IDX 45 87 48 88 42 89 43 90 46 91 44 92
REMARK H PARENT 2 11 2 12 68 45 36 56
REMARK Flexibility Score: inf
ROOT
ATOM      1  O   UNL     1       1.038   1.284  -2.388  1.00  0.00    -0.457 OA
ENDROOT
BRANCH   1   2
ATOM      2  C   UNL     1      -0.443   0.493  -1.509  1.00  0.00     0.368 C 
ATOM      3  O   UNL     1      -0.414  -0.571  -0.807  1.00  0.00    -0.245 OA
BRANCH   2   4
ATOM      4  C   UNL     1      -2.014   1.183  -1.275  1.00  0.00     0.196 C 
ATOM      5  C   UNL     1      -2.864   2.381  -1.767  1.00  0.00     0.084 C 
ATOM      6  C   UNL     1      -2.875  -0.051  -1.781  1.00  0.00     0.113 C 
ATOM      7  C   UNL     1      -4.255   1.871  -2.122  1.00  0.00     0.039 C 
ATOM      8  C   UNL     1      -4.039   0.455  -2.610  1.00  0.00     0.125 C 
BRANCH   4   9
ATOM      9  N   UNL     1      -2.245   1.142   0.247  1.00  0.00    -0.334 N 
ATOM     10  C   UNL     1      -1.786   2.275   1.037  1.00  0.00     0.331 C 
ATOM     11  H   UNL     1      -3.250   1.052   0.400  1.00  0.00     0.347 HD
ATOM     12  H   UNL     1      -1.678   0.358   0.571  1.00  0.00     0.347 HD
ENDBRANCH   4   9
BRANCH   8  13
ATOM     13  O   UNL     1      -3.959   0.535  -4.026  1.00  0.00    -0.378 OA
BRANCH  13  14
ATOM     14  C   UNL     1      -2.899  -0.041  -4.756  1.00  0.00     0.161 C 
BRANCH  14  15
ATOM     15  C   UNL     1      -2.123   1.046  -5.503  1.00  0.00     0.033 C 
BRANCH  15  16
ATOM     16  C   UNL     1      -1.297   2.072  -4.707  1.00  0.00     0.038 C 
BRANCH  16  17
ATOM     17  C   UNL     1      -0.460   1.594  -3.541  1.00  0.00    -0.048 A 
ATOM     18  C   UNL     1       0.284  -0.040  -3.597  1.00  0.00     0.004 A 
ATOM     19  C   UNL     1      -0.153   2.693  -2.122  1.00  0.00     0.004 A 
ATOM     20  C   UNL     1       1.321  -0.640  -2.267  1.00  0.00     0.000 A 
ATOM     21  C   UNL     1       0.806   2.074  -0.709  1.00  0.00     0.000 A 
ATOM     22  C   UNL     1       1.574   0.392  -0.787  1.00  0.00     0.000 A 
ENDBRANCH  16  17
ENDBRANCH  15  16
ENDBRANCH  14  15
ENDBRANCH  13  14
ENDBRANCH   8  13
ENDBRANCH   2   4
ENDBRANCH   1   2
BRANCH   1  23
ATOM     23  C   UNL     1       2.750   1.581  -2.474  1.00  0.00     0.274 C 
BRANCH  23  24
ATOM     24  C   UNL     1       3.493   2.427  -1.300  1.00  0.00     0.275 C 
BRANCH  24  25
ATOM     25  O   UNL     1       3.376   1.944   0.103  1.00  0.00    -0.458 OA
BRANCH  25  26
ATOM     26  C   UNL     1       3.294   2.864   1.116  1.00  0.00     0.338 C 
ATOM     27  O   UNL     1       3.698   4.014   1.014  1.00  0.00    -0.246 OA
BRANCH  26  28
ATOM     28  C   UNL     1       2.482   2.433   2.345  1.00  0.00     0.060 A 
ATOM     29  C   UNL     1       1.543   1.399   2.358  1.00  0.00     0.016 A 
ATOM     30  C   UNL     1       2.498   3.238   3.491  1.00  0.00     0.016 A 
ATOM     31  C   UNL     1       0.589   1.240   3.384  1.00  0.00     0.010 A 
ATOM     32  C   UNL     1       1.619   3.003   4.583  1.00  0.00     0.010 A 
ATOM     33  C   UNL     1       0.626   2.007   4.545  1.00  0.00    -0.014 A 
BRANCH  33  34
ATOM     34  C   UNL     1      -0.312   1.769   5.704  1.00  0.00     0.031 A 
ATOM     35  C   UNL     1      -1.024   2.923   6.380  1.00  0.00     0.074 A 
ATOM     36  C   UNL     1      -0.510   0.533   6.220  1.00  0.00     0.049 A 
ATOM     37  N   UNL     1      -1.544   2.998   7.583  1.00  0.00    -0.248 NA
ATOM     38  C   UNL     1      -1.162   4.158   5.595  1.00  0.00     0.031 C 
ATOM     39  C   UNL     1      -0.013  -0.725   5.663  1.00  0.00     0.029 A 
ATOM     40  N   UNL     1      -1.163   0.136   7.372  1.00  0.00    -0.354 N 
ATOM     41  C   UNL     1      -1.998   4.306   7.728  1.00  0.00     0.074 A 
ATOM     42  C   UNL     1      -1.709   4.984   6.480  1.00  0.00     0.031 C 
ATOM     43  C   UNL     1      -0.363  -1.740   6.464  1.00  0.00     0.029 A 
ATOM     44  C   UNL     1      -1.003  -1.202   7.657  1.00  0.00     0.049 A 
ATOM     45  H   UNL     1      -1.690   0.749   7.934  1.00  0.00     0.167 HD
ATOM     46  C   UNL     1      -2.584   4.889   8.806  1.00  0.00     0.037 A 
ATOM     47  C   UNL     1      -1.248  -1.920   8.772  1.00  0.00     0.037 A 
ATOM     48  C   UNL     1      -2.929   4.199  10.028  1.00  0.00     0.049 A 
ATOM     49  C   UNL     1      -1.808  -1.243   9.991  1.00  0.00     0.074 A 
ATOM     50  C   UNL     1      -3.539   4.706  11.165  1.00  0.00     0.029 A 
ATOM     51  N   UNL     1      -2.708   2.852  10.270  1.00  0.00    -0.354 N 
ATOM     52  N   UNL     1      -2.143   0.011  10.160  1.00  0.00    -0.248 NA
ATOM     53  C   UNL     1      -2.008  -2.083  11.182  1.00  0.00     0.031 C 
ATOM     54  C   UNL     1      -3.632   3.683  12.114  1.00  0.00     0.029 A 
ATOM     55  C   UNL     1      -3.145   2.519  11.546  1.00  0.00     0.049 A 
ATOM     56  H   UNL     1      -2.301   2.223   9.632  1.00  0.00     0.167 HD
ATOM     57  C   UNL     1      -2.618   0.106  11.462  1.00  0.00     0.074 A 
ATOM     58  C   UNL     1      -2.541  -1.220  12.035  1.00  0.00     0.031 C 
ATOM     59  C   UNL     1      -3.076   1.199  12.119  1.00  0.00     0.037 A 
BRANCH  46  60
ATOM     60  C   UNL     1      -2.851   6.372   8.756  1.00  0.00     0.064 A 
ATOM     61  C   UNL     1      -3.848   6.932   7.945  1.00  0.00     0.173 A 
ATOM     62  C   UNL     1      -2.135   7.240   9.600  1.00  0.00     0.173 A 
ATOM     63  F   UNL     1      -4.562   6.153   7.119  1.00  0.00    -0.203 F 
ATOM     64  C   UNL     1      -4.098   8.304   7.959  1.00  0.00     0.198 A 
ATOM     65  C   UNL     1      -2.412   8.605   9.636  1.00  0.00     0.198 A 
ATOM     66  F   UNL     1      -1.181   6.760  10.412  1.00  0.00    -0.203 F 
ATOM     67  F   UNL     1      -5.026   8.822   7.141  1.00  0.00    -0.200 F 
ATOM     68  C   UNL     1      -3.387   9.137   8.809  1.00  0.00     0.200 A 
ATOM     69  F   UNL     1      -1.738   9.402  10.477  1.00  0.00    -0.200 F 
ATOM     70  F   UNL     1      -3.640  10.453   8.830  1.00  0.00    -0.200 F 
ENDBRANCH  46  60
BRANCH  47  71
ATOM     71  C   UNL     1      -0.887  -3.365   8.812  1.00  0.00     0.064 A 
ATOM     72  C   UNL     1      -1.875  -4.355   8.901  1.00  0.00     0.173 A 
ATOM     73  C   UNL     1       0.452  -3.786   8.759  1.00  0.00     0.173 A 
ATOM     74  F   UNL     1      -3.166  -4.004   8.992  1.00  0.00    -0.203 F 
ATOM     75  C   UNL     1      -1.539  -5.707   8.941  1.00  0.00     0.198 A 
ATOM     76  C   UNL     1       0.784  -5.139   8.759  1.00  0.00     0.198 A 
ATOM     77  F   UNL     1       1.439  -2.882   8.682  1.00  0.00    -0.203 F 
ATOM     78  F   UNL     1      -2.501  -6.630   9.073  1.00  0.00    -0.200 F 
ATOM     79  C   UNL     1      -0.211  -6.098   8.856  1.00  0.00     0.200 A 
ATOM     80  F   UNL     1       2.068  -5.512   8.660  1.00  0.00    -0.200 F 
ATOM     81  F   UNL     1       0.109  -7.399   8.877  1.00  0.00    -0.200 F 
ENDBRANCH  47  71
BRANCH  59  82
ATOM     82  C   UNL     1      -3.586   1.001  13.519  1.00  0.00     0.064 A 
ATOM     83  C   UNL     1      -2.726   0.710  14.588  1.00  0.00     0.173 A 
ATOM     84  C   UNL     1      -4.958   1.116  13.796  1.00  0.00     0.173 A 
ATOM     85  F   UNL     1      -1.409   0.570  14.377  1.00  0.00    -0.203 F 
ATOM     86  C   UNL     1      -3.223   0.511  15.875  1.00  0.00     0.198 A 
ATOM     87  C   UNL     1      -5.447   0.950  15.089  1.00  0.00     0.198 A 
ATOM     88  F   UNL     1      -5.826   1.397  12.812  1.00  0.00    -0.203 F 
ATOM     89  F   UNL     1      -2.389   0.177  16.869  1.00  0.00    -0.200 F 
ATOM     90  C   UNL     1      -4.581   0.638  16.125  1.00  0.00     0.200 A 
ATOM     91  F   UNL     1      -6.758   1.085  15.331  1.00  0.00    -0.200 F 
ATOM     92  F   UNL     1      -5.057   0.449  17.364  1.00  0.00    -0.200 F 
ENDBRANCH  59  82
ENDBRANCH  33  34
ENDBRANCH  26  28
ENDBRANCH  25  26
ENDBRANCH  24  25
ENDBRANCH  23  24
ENDBRANCH   1  23
TORSDOF 17
