REMARK SMILES CCCc1cc(OCC(=O)OCCOC(=O)c2ccc(-c3c4nc(c(-c5c(F)c(F)c(F)c(F)c5F)c5ccc([nH]5)c(-c5c(F)c(F)c(F)c(F)c5F)c5nc(c(-c6c(F)c(F)c(F)c(F)c6F)c6ccc3[nH]6)C=C5)C=C4)cc2)nc(Nc2ccc(C#N)cc2)n1
REMARK SMILES IDX 11 1 9 2 10 3 8 4 7 5 6 6 4 7 5 8 91 9 81 10 80 11 3 12 2 13
REMARK SMILES IDX 1 14 82 15 83 17 84 18 90 19 85 20 89 21 86 22 87 23 88 24
REMARK SMILES IDX 12 25 13 26 14 27 15 28 16 29 17 30 18 31 79 32 19 33 78 34
REMARK SMILES IDX 20 35 21 36 22 37 72 38 23 39 77 40 71 41 73 42 24 43 76 44
REMARK SMILES IDX 70 45 69 46 25 48 57 49 37 50 56 51 38 52 41 53 55 54 74 55
REMARK SMILES IDX 39 56 40 57 54 59 75 60 42 61 26 62 27 63 35 64 28 65 29 66
REMARK SMILES IDX 33 67 36 68 30 69 31 70 34 71 32 72 58 73 59 74 67 75 60 76
REMARK SMILES IDX 61 77 65 78 68 79 62 80 63 81 66 82 64 83 43 84 44 85 52 86
REMARK SMILES IDX 45 87 46 88 50 89 53 90 47 91 48 92 51 93 49 94
REMARK H PARENT 82 16 73 47 41 58
REMARK Flexibility Score: inf
ROOT
ATOM      1  O   UNL     1      -0.926   2.452  -2.462  1.00  0.00    -0.460 OA
ENDROOT
BRANCH   1   2
ATOM      2  C   UNL     1      -2.165   2.324  -1.919  1.00  0.00     0.344 C 
ATOM      3  O   UNL     1      -2.991   1.489  -2.286  1.00  0.00    -0.248 OA
BRANCH   2   4
ATOM      4  C   UNL     1      -2.459   3.267  -0.730  1.00  0.00     0.353 C 
BRANCH   4   5
ATOM      5  O   UNL     1      -1.575   4.255  -0.253  1.00  0.00    -0.466 OA
BRANCH   5   6
ATOM      6  C   UNL     1      -0.674   4.016   0.743  1.00  0.00     0.218 A 
ATOM      7  C   UNL     1       0.730   2.709   2.100  1.00  0.00     0.050 A 
ATOM      8  C   UNL     1      -0.454   2.821   1.403  1.00  0.00     0.092 A 
ATOM      9  N   UNL     1       1.489   3.778   2.299  1.00  0.00    -0.218 NA
ATOM     10  C   UNL     1       1.092   4.962   1.835  1.00  0.00     0.230 A 
ATOM     11  N   UNL     1       0.046   5.119   1.026  1.00  0.00    -0.177 NA
BRANCH   7  12
ATOM     12  C   UNL     1       1.303   1.482   2.752  1.00  0.00     0.056 C 
BRANCH  12  13
ATOM     13  C   UNL     1       1.415   0.228   1.906  1.00  0.00     0.003 C 
ATOM     14  C   UNL     1       2.318   0.326   0.686  1.00  0.00     0.004 C 
ENDBRANCH  12  13
ENDBRANCH   7  12
BRANCH  10  15
ATOM     15  N   UNL     1       1.772   6.071   2.334  1.00  0.00    -0.324 N 
ATOM     16  H   UNL     1       1.458   6.967   2.074  1.00  0.00     0.170 HD
BRANCH  15  17
ATOM     17  C   UNL     1       2.881   5.976   3.188  1.00  0.00     0.041 A 
ATOM     18  C   UNL     1       2.842   6.517   4.475  1.00  0.00     0.027 A 
ATOM     19  C   UNL     1       3.964   5.145   2.846  1.00  0.00     0.027 A 
ATOM     20  C   UNL     1       3.871   6.249   5.389  1.00  0.00     0.021 A 
ATOM     21  C   UNL     1       4.991   4.875   3.748  1.00  0.00     0.021 A 
ATOM     22  C   UNL     1       4.950   5.434   5.024  1.00  0.00     0.052 A 
BRANCH  22  23
ATOM     23  C   UNL     1       6.006   5.161   5.949  1.00  0.00     0.099 C 
ATOM     24  N   UNL     1       6.875   4.934   6.689  1.00  0.00    -0.192 NA
ENDBRANCH  22  23
ENDBRANCH  15  17
ENDBRANCH  10  15
ENDBRANCH   5   6
ENDBRANCH   4   5
ENDBRANCH   2   4
ENDBRANCH   1   2
BRANCH   1  25
ATOM     25  C   UNL     1      -0.531   1.428  -3.417  1.00  0.00     0.274 C 
BRANCH  25  26
ATOM     26  C   UNL     1       0.303   0.285  -2.789  1.00  0.00     0.275 C 
BRANCH  26  27
ATOM     27  O   UNL     1      -0.487  -0.679  -2.033  1.00  0.00    -0.458 OA
BRANCH  27  28
ATOM     28  C   UNL     1      -0.778  -0.200  -0.812  1.00  0.00     0.338 C 
ATOM     29  O   UNL     1      -0.427   0.910  -0.438  1.00  0.00    -0.246 OA
BRANCH  28  30
ATOM     30  C   UNL     1      -1.532  -0.996   0.174  1.00  0.00     0.060 A 
ATOM     31  C   UNL     1      -2.588  -0.299   0.780  1.00  0.00     0.016 A 
ATOM     32  C   UNL     1      -0.867  -1.994   0.896  1.00  0.00     0.016 A 
ATOM     33  C   UNL     1      -2.869  -0.471   2.136  1.00  0.00     0.010 A 
ATOM     34  C   UNL     1      -1.201  -2.217   2.248  1.00  0.00     0.010 A 
ATOM     35  C   UNL     1      -2.177  -1.433   2.890  1.00  0.00    -0.014 A 
BRANCH  35  36
ATOM     36  C   UNL     1      -2.693  -1.787   4.240  1.00  0.00     0.031 A 
ATOM     37  C   UNL     1      -2.024  -1.446   5.543  1.00  0.00     0.074 A 
ATOM     38  C   UNL     1      -3.851  -2.472   4.245  1.00  0.00     0.049 A 
ATOM     39  N   UNL     1      -2.414  -1.714   6.768  1.00  0.00    -0.248 NA
ATOM     40  C   UNL     1      -0.758  -0.713   5.474  1.00  0.00     0.031 C 
ATOM     41  C   UNL     1      -4.592  -2.853   3.040  1.00  0.00     0.029 A 
ATOM     42  N   UNL     1      -4.598  -2.972   5.274  1.00  0.00    -0.354 N 
ATOM     43  C   UNL     1      -1.446  -1.182   7.616  1.00  0.00     0.074 A 
ATOM     44  C   UNL     1      -0.442  -0.581   6.759  1.00  0.00     0.031 C 
ATOM     45  C   UNL     1      -5.689  -3.526   3.396  1.00  0.00     0.029 A 
ATOM     46  C   UNL     1      -5.691  -3.679   4.844  1.00  0.00     0.049 A 
ATOM     47  H   UNL     1      -4.376  -2.838   6.223  1.00  0.00     0.167 HD
ATOM     48  C   UNL     1      -1.400  -1.212   8.975  1.00  0.00     0.037 A 
ATOM     49  C   UNL     1      -6.581  -4.412   5.529  1.00  0.00     0.037 A 
ATOM     50  C   UNL     1      -2.392  -1.858   9.809  1.00  0.00     0.049 A 
ATOM     51  C   UNL     1      -6.474  -4.478   7.020  1.00  0.00     0.074 A 
ATOM     52  C   UNL     1      -2.457  -1.915  11.193  1.00  0.00     0.029 A 
ATOM     53  N   UNL     1      -3.474  -2.591   9.337  1.00  0.00    -0.354 N 
ATOM     54  N   UNL     1      -5.590  -3.923   7.811  1.00  0.00    -0.248 NA
ATOM     55  C   UNL     1      -7.503  -5.258   7.711  1.00  0.00     0.031 C 
ATOM     56  C   UNL     1      -3.522  -2.750  11.553  1.00  0.00     0.029 A 
ATOM     57  C   UNL     1      -4.183  -3.138  10.400  1.00  0.00     0.049 A 
ATOM     58  H   UNL     1      -3.706  -2.705   8.387  1.00  0.00     0.167 HD
ATOM     59  C   UNL     1      -5.971  -4.262   9.100  1.00  0.00     0.074 A 
ATOM     60  C   UNL     1      -7.180  -5.053   8.979  1.00  0.00     0.031 C 
ATOM     61  C   UNL     1      -5.376  -3.940  10.276  1.00  0.00     0.037 A 
BRANCH  48  62
ATOM     62  C   UNL     1      -0.219  -0.573   9.667  1.00  0.00     0.064 A 
ATOM     63  C   UNL     1      -0.013   0.815   9.666  1.00  0.00     0.173 A 
ATOM     64  C   UNL     1       0.679  -1.357  10.413  1.00  0.00     0.173 A 
ATOM     65  F   UNL     1      -0.841   1.620   8.984  1.00  0.00    -0.203 F 
ATOM     66  C   UNL     1       1.060   1.387  10.351  1.00  0.00     0.198 A 
ATOM     67  C   UNL     1       1.730  -0.780  11.124  1.00  0.00     0.198 A 
ATOM     68  F   UNL     1       0.525  -2.689  10.474  1.00  0.00    -0.203 F 
ATOM     69  F   UNL     1       1.258   2.712  10.297  1.00  0.00    -0.200 F 
ATOM     70  C   UNL     1       1.926   0.591  11.085  1.00  0.00     0.200 A 
ATOM     71  F   UNL     1       2.548  -1.551  11.854  1.00  0.00    -0.200 F 
ATOM     72  F   UNL     1       2.949   1.143  11.752  1.00  0.00    -0.200 F 
ENDBRANCH  48  62
BRANCH  49  73
ATOM     73  C   UNL     1      -7.638  -5.135   4.782  1.00  0.00     0.064 A 
ATOM     74  C   UNL     1      -8.978  -4.743   4.871  1.00  0.00     0.173 A 
ATOM     75  C   UNL     1      -7.316  -6.193   3.918  1.00  0.00     0.173 A 
ATOM     76  F   UNL     1      -9.329  -3.737   5.686  1.00  0.00    -0.203 F 
ATOM     77  C   UNL     1      -9.963  -5.399   4.140  1.00  0.00     0.198 A 
ATOM     78  C   UNL     1      -8.297  -6.821   3.157  1.00  0.00     0.198 A 
ATOM     79  F   UNL     1      -6.041  -6.586   3.779  1.00  0.00    -0.203 F 
ATOM     80  F   UNL     1     -11.245  -5.034   4.274  1.00  0.00    -0.200 F 
ATOM     81  C   UNL     1      -9.621  -6.430   3.277  1.00  0.00     0.200 A 
ATOM     82  F   UNL     1      -7.957  -7.793   2.300  1.00  0.00    -0.200 F 
ATOM     83  F   UNL     1     -10.570  -7.048   2.561  1.00  0.00    -0.200 F 
ENDBRANCH  49  73
BRANCH  61  84
ATOM     84  C   UNL     1      -6.059  -4.413  11.531  1.00  0.00     0.064 A 
ATOM     85  C   UNL     1      -6.162  -5.775  11.857  1.00  0.00     0.173 A 
ATOM     86  C   UNL     1      -6.638  -3.487  12.413  1.00  0.00     0.173 A 
ATOM     87  F   UNL     1      -5.642  -6.706  11.043  1.00  0.00    -0.203 F 
ATOM     88  C   UNL     1      -6.864  -6.192  12.985  1.00  0.00     0.198 A 
ATOM     89  C   UNL     1      -7.300  -3.905  13.564  1.00  0.00     0.198 A 
ATOM     90  F   UNL     1      -6.567  -2.172  12.157  1.00  0.00    -0.203 F 
ATOM     91  F   UNL     1      -7.023  -7.501  13.227  1.00  0.00    -0.200 F 
ATOM     92  C   UNL     1      -7.428  -5.258  13.840  1.00  0.00     0.200 A 
ATOM     93  F   UNL     1      -7.828  -2.999  14.398  1.00  0.00    -0.200 F 
ATOM     94  F   UNL     1      -8.107  -5.661  14.923  1.00  0.00    -0.200 F 
ENDBRANCH  61  84
ENDBRANCH  35  36
ENDBRANCH  28  30
ENDBRANCH  27  28
ENDBRANCH  26  27
ENDBRANCH  25  26
ENDBRANCH   1  25
TORSDOF 18
