REMARK SMILES Cc1ccc(N2CC[C@H]([NH+]3CCOCC3)[C@H](CCC(=O)OCCOC(=O)c3ccc(-c4c5nc(c(-c6c(F)c(F)c(F)c(F)c6F)c6ccc([nH]6)c(-c6c(F)c(F)c(F)c(F)c6F)c6nc(c(-c7c(F)c(F)c(F)c(F)c7F)c7ccc4[nH]7)C=C6)C=C5)cc3)C2)nc1
REMARK SMILES IDX 22 1 21 2 19 3 20 4 18 5 17 6 16 7 6 8 7 9 90 10 8 11 9 12
REMARK SMILES IDX 5 13 1 14 2 15 3 16 92 17 4 18 91 19 10 20 11 21 15 22 12 24
REMARK SMILES IDX 14 25 13 26 23 27 24 28 25 29 26 30 27 31 28 32 89 33 29 34
REMARK SMILES IDX 88 35 30 36 31 37 32 38 82 39 33 40 87 41 81 42 83 43 34 44
REMARK SMILES IDX 86 45 80 46 79 47 35 49 67 50 47 51 66 52 48 53 51 54 65 55
REMARK SMILES IDX 84 56 49 57 50 58 64 60 85 61 52 62 36 63 37 64 45 65 38 66
REMARK SMILES IDX 39 67 43 68 46 69 40 70 41 71 44 72 42 73 68 74 69 75 77 76
REMARK SMILES IDX 70 77 71 78 75 79 78 80 72 81 73 82 76 83 74 84 53 85 54 86
REMARK SMILES IDX 62 87 55 88 56 89 60 90 63 91 57 92 58 93 61 94 59 95
REMARK H PARENT 10 23 83 48 51 59
REMARK Flexibility Score: inf
ROOT
ATOM      1  C   UNL     1      -7.051   0.167  -5.134  1.00  0.00     0.274 C 
ENDROOT
BRANCH   1   2
ATOM      2  O   UNL     1      -5.963  -0.070  -4.225  1.00  0.00    -0.462 OA
BRANCH   2   3
ATOM      3  C   UNL     1      -5.691  -1.376  -3.972  1.00  0.00     0.305 C 
ATOM      4  O   UNL     1      -6.391  -2.325  -4.303  1.00  0.00    -0.252 OA
BRANCH   3   5
ATOM      5  C   UNL     1      -4.292  -1.546  -3.440  1.00  0.00     0.123 C 
BRANCH   5   6
ATOM      6  C   UNL     1      -3.889  -0.828  -2.166  1.00  0.00     0.023 C 
BRANCH   6   7
ATOM      7  C   UNL     1      -4.945  -0.262  -1.190  1.00  0.00     0.067 C 
ATOM      8  N   UNL     1      -3.310   0.431   0.560  1.00  0.00    -0.356 N 
ATOM      9  C   UNL     1      -3.848  -0.481   1.557  1.00  0.00     0.124 C 
ATOM     10  C   UNL     1      -4.255   0.928  -0.439  1.00  0.00     0.127 C 
ATOM     11  C   UNL     1      -4.504  -1.688   0.890  1.00  0.00     0.087 C 
ATOM     12  C   UNL     1      -5.578  -1.208  -0.097  1.00  0.00     0.190 C 
BRANCH   8  13
ATOM     13  C   UNL     1      -1.958   0.307   0.281  1.00  0.00     0.128 A 
ATOM     14  C   UNL     1       2.275  -0.121  -0.122  1.00  0.00     0.046 C 
ATOM     15  C   UNL     1       0.796   0.067  -0.019  1.00  0.00    -0.033 A 
ATOM     16  C   UNL     1       0.178   1.286  -0.276  1.00  0.00     0.009 A 
ATOM     17  C   UNL     1      -0.027  -0.990   0.334  1.00  0.00     0.117 A 
ATOM     18  C   UNL     1      -1.208   1.403  -0.134  1.00  0.00     0.047 A 
ATOM     19  N   UNL     1      -1.364  -0.888   0.498  1.00  0.00    -0.239 NA
ENDBRANCH   8  13
BRANCH  12  20
ATOM     20  N   UNL     1      -6.563  -2.218  -0.540  1.00  0.00    -0.328 N 
ATOM     21  C   UNL     1      -7.507  -2.652   0.523  1.00  0.00     0.291 C 
ATOM     22  C   UNL     1      -6.116  -3.408  -1.268  1.00  0.00     0.291 C 
ATOM     23  H   UNL     1      -7.021  -1.643  -1.247  1.00  0.00     0.348 HD
ATOM     24  C   UNL     1      -7.121  -3.925   1.310  1.00  0.00     0.221 C 
ATOM     25  C   UNL     1      -5.717  -4.624  -0.428  1.00  0.00     0.221 C 
ATOM     26  O   UNL     1      -6.778  -5.011   0.446  1.00  0.00    -0.370 OA
ENDBRANCH  12  20
ENDBRANCH   6   7
ENDBRANCH   5   6
ENDBRANCH   3   5
ENDBRANCH   2   3
ENDBRANCH   1   2
BRANCH   1  27
ATOM     27  C   UNL     1      -6.482   0.533  -6.504  1.00  0.00     0.275 C 
BRANCH  27  28
ATOM     28  O   UNL     1      -5.685  -0.556  -7.014  1.00  0.00    -0.458 OA
BRANCH  28  29
ATOM     29  C   UNL     1      -4.345  -0.380  -6.946  1.00  0.00     0.338 C 
ATOM     30  O   UNL     1      -3.738   0.608  -6.573  1.00  0.00    -0.246 OA
BRANCH  29  31
ATOM     31  C   UNL     1      -3.662  -1.609  -7.379  1.00  0.00     0.060 A 
ATOM     32  C   UNL     1      -3.766  -2.774  -6.618  1.00  0.00     0.016 A 
ATOM     33  C   UNL     1      -2.817  -1.566  -8.487  1.00  0.00     0.016 A 
ATOM     34  C   UNL     1      -2.975  -3.877  -6.917  1.00  0.00     0.010 A 
ATOM     35  C   UNL     1      -2.109  -2.712  -8.852  1.00  0.00     0.010 A 
ATOM     36  C   UNL     1      -2.174  -3.875  -8.064  1.00  0.00    -0.014 A 
BRANCH  36  37
ATOM     37  C   UNL     1      -1.437  -5.099  -8.465  1.00  0.00     0.031 A 
ATOM     38  C   UNL     1       0.058  -5.075  -8.589  1.00  0.00     0.074 A 
ATOM     39  C   UNL     1      -2.123  -6.224  -8.745  1.00  0.00     0.049 A 
ATOM     40  N   UNL     1       0.856  -5.950  -9.145  1.00  0.00    -0.248 NA
ATOM     41  C   UNL     1       0.748  -3.905  -8.023  1.00  0.00     0.031 C 
ATOM     42  C   UNL     1      -3.573  -6.387  -8.612  1.00  0.00     0.029 A 
ATOM     43  N   UNL     1      -1.696  -7.442  -9.209  1.00  0.00    -0.354 N 
ATOM     44  C   UNL     1       2.133  -5.415  -9.042  1.00  0.00     0.074 A 
ATOM     45  C   UNL     1       2.007  -4.141  -8.366  1.00  0.00     0.031 C 
ATOM     46  C   UNL     1      -3.912  -7.635  -8.963  1.00  0.00     0.029 A 
ATOM     47  C   UNL     1      -2.721  -8.327  -9.440  1.00  0.00     0.049 A 
ATOM     48  H   UNL     1      -0.748  -7.661  -9.362  1.00  0.00     0.167 HD
ATOM     49  C   UNL     1       3.299  -5.944  -9.484  1.00  0.00     0.037 A 
ATOM     50  C   UNL     1      -2.716  -9.537 -10.028  1.00  0.00     0.037 A 
ATOM     51  C   UNL     1       3.409  -7.232 -10.119  1.00  0.00     0.049 A 
ATOM     52  C   UNL     1      -1.421 -10.073 -10.563  1.00  0.00     0.074 A 
ATOM     53  C   UNL     1       4.544  -7.875 -10.580  1.00  0.00     0.029 A 
ATOM     54  N   UNL     1       2.339  -8.078 -10.373  1.00  0.00    -0.354 N 
ATOM     55  N   UNL     1      -0.225  -9.541 -10.514  1.00  0.00    -0.248 NA
ATOM     56  C   UNL     1      -1.480 -11.362 -11.264  1.00  0.00     0.031 C 
ATOM     57  C   UNL     1       4.156  -9.095 -11.147  1.00  0.00     0.029 A 
ATOM     58  C   UNL     1       2.783  -9.227 -11.007  1.00  0.00     0.049 A 
ATOM     59  H   UNL     1       1.401  -7.889 -10.139  1.00  0.00     0.167 HD
ATOM     60  C   UNL     1       0.612 -10.424 -11.178  1.00  0.00     0.074 A 
ATOM     61  C   UNL     1      -0.210 -11.541 -11.598  1.00  0.00     0.031 C 
ATOM     62  C   UNL     1       1.940 -10.316 -11.427  1.00  0.00     0.037 A 
BRANCH  49  63
ATOM     63  C   UNL     1       4.540  -5.116  -9.334  1.00  0.00     0.064 A 
ATOM     64  C   UNL     1       5.162  -4.928  -8.092  1.00  0.00     0.173 A 
ATOM     65  C   UNL     1       5.133  -4.527 -10.462  1.00  0.00     0.173 A 
ATOM     66  F   UNL     1       4.627  -5.457  -6.982  1.00  0.00    -0.203 F 
ATOM     67  C   UNL     1       6.322  -4.164  -7.981  1.00  0.00     0.198 A 
ATOM     68  C   UNL     1       6.305  -3.784 -10.351  1.00  0.00     0.198 A 
ATOM     69  F   UNL     1       4.579  -4.678 -11.674  1.00  0.00    -0.203 F 
ATOM     70  F   UNL     1       6.879  -3.965  -6.779  1.00  0.00    -0.200 F 
ATOM     71  C   UNL     1       6.896  -3.598  -9.111  1.00  0.00     0.200 A 
ATOM     72  F   UNL     1       6.862  -3.245 -11.445  1.00  0.00    -0.200 F 
ATOM     73  F   UNL     1       8.014  -2.867  -9.002  1.00  0.00    -0.200 F 
ENDBRANCH  49  63
BRANCH  50  74
ATOM     74  C   UNL     1      -3.991 -10.280 -10.195  1.00  0.00     0.064 A 
ATOM     75  C   UNL     1      -4.242 -11.450  -9.468  1.00  0.00     0.173 A 
ATOM     76  C   UNL     1      -4.993  -9.821 -11.064  1.00  0.00     0.173 A 
ATOM     77  F   UNL     1      -3.305 -11.941  -8.645  1.00  0.00    -0.203 F 
ATOM     78  C   UNL     1      -5.449 -12.134  -9.604  1.00  0.00     0.198 A 
ATOM     79  C   UNL     1      -6.209 -10.490 -11.178  1.00  0.00     0.198 A 
ATOM     80  F   UNL     1      -4.800  -8.706 -11.784  1.00  0.00    -0.203 F 
ATOM     81  F   UNL     1      -5.653 -13.269  -8.921  1.00  0.00    -0.200 F 
ATOM     82  C   UNL     1      -6.434 -11.649 -10.451  1.00  0.00     0.200 A 
ATOM     83  F   UNL     1      -7.163 -10.009 -11.986  1.00  0.00    -0.200 F 
ATOM     84  F   UNL     1      -7.598 -12.301 -10.572  1.00  0.00    -0.200 F 
ENDBRANCH  50  74
BRANCH  62  85
ATOM     85  C   UNL     1       2.575 -11.438 -12.189  1.00  0.00     0.064 A 
ATOM     86  C   UNL     1       2.386 -11.575 -13.571  1.00  0.00     0.173 A 
ATOM     87  C   UNL     1       3.399 -12.366 -11.537  1.00  0.00     0.173 A 
ATOM     88  F   UNL     1       1.589 -10.722 -14.232  1.00  0.00    -0.203 F 
ATOM     89  C   UNL     1       2.988 -12.616 -14.273  1.00  0.00     0.198 A 
ATOM     90  C   UNL     1       4.018 -13.391 -12.246  1.00  0.00     0.198 A 
ATOM     91  F   UNL     1       3.610 -12.273 -10.216  1.00  0.00    -0.203 F 
ATOM     92  F   UNL     1       2.763 -12.754 -15.587  1.00  0.00    -0.200 F 
ATOM     93  C   UNL     1       3.808 -13.518 -13.611  1.00  0.00     0.200 A 
ATOM     94  F   UNL     1       4.816 -14.259 -11.608  1.00  0.00    -0.200 F 
ATOM     95  F   UNL     1       4.389 -14.518 -14.289  1.00  0.00    -0.200 F 
ENDBRANCH  62  85
ENDBRANCH  36  37
ENDBRANCH  29  31
ENDBRANCH  28  29
ENDBRANCH  27  28
ENDBRANCH   1  27
TORSDOF 15
