REMARK SMILES O=C(COc1ncc(C(F)(F)F)cc1Cl)OCCOC(=O)c1ccc(-c2c3nc(c(-c4c(F)c(F)c(F)c(F)c4F)c4ccc([nH]4)c(-c4c(F)c(F)c(F)c(F)c4F)c4nc(c(-c5c(F)c(F)c(F)c(F)c5F)c5ccc2[nH]5)C=C4)C=C3)cc1
REMARK SMILES IDX 17 1 16 2 2 3 1 4 3 5 4 6 5 7 6 8 14 9 7 10 13 11 15 12 8 13
REMARK SMILES IDX 9 14 10 15 11 16 12 17 18 18 19 19 20 20 21 21 22 22 23 23
REMARK SMILES IDX 84 24 24 25 83 26 25 27 26 28 27 29 77 30 28 31 82 32 76 33
REMARK SMILES IDX 78 34 29 35 81 36 75 37 74 38 30 40 62 41 42 42 61 43 43 44
REMARK SMILES IDX 46 45 60 46 79 47 44 48 45 49 59 51 80 52 47 53 31 54 32 55
REMARK SMILES IDX 40 56 33 57 34 58 38 59 41 60 35 61 36 62 39 63 37 64 63 65
REMARK SMILES IDX 64 66 72 67 65 68 66 69 70 70 73 71 67 72 68 73 71 74 69 75
REMARK SMILES IDX 48 76 49 77 57 78 50 79 51 80 55 81 58 82 52 83 53 84 56 85
REMARK SMILES IDX 54 86
REMARK H PARENT 78 39 46 50
REMARK Flexibility Score: inf
ROOT
ATOM      1  C   UNL     1       4.560  -0.795  -0.885  1.00  0.00     0.274 C 
ENDROOT
BRANCH   1   2
ATOM      2  O   UNL     1       3.158  -0.895  -0.550  1.00  0.00    -0.460 OA
BRANCH   2   3
ATOM      3  C   UNL     1       2.535  -0.076   0.332  1.00  0.00     0.344 C 
ATOM      4  O   UNL     1       1.306  -0.035   0.392  1.00  0.00    -0.248 OA
BRANCH   3   5
ATOM      5  C   UNL     1       3.388   0.754   1.274  1.00  0.00     0.353 C 
BRANCH   5   6
ATOM      6  O   UNL     1       4.088  -0.084   2.187  1.00  0.00    -0.465 OA
BRANCH   6   7
ATOM      7  C   UNL     1       3.389  -0.143   3.365  1.00  0.00     0.233 A 
ATOM      8  N   UNL     1       3.572   0.913   4.193  1.00  0.00    -0.220 NA
ATOM      9  C   UNL     1       2.597  -1.244   3.671  1.00  0.00     0.103 A 
ATOM     10  C   UNL     1       2.922   0.872   5.378  1.00  0.00     0.128 A 
ATOM     11  C   UNL     1       1.914  -1.237   4.883  1.00  0.00     0.041 A 
ATOM     12  Cl  UNL     1       2.438  -2.597   2.622  1.00  0.00    -0.078 Cl
ATOM     13  C   UNL     1       2.075  -0.160   5.763  1.00  0.00     0.076 A 
BRANCH  13  14
ATOM     14  C   UNL     1       1.413  -0.121   7.105  1.00  0.00     0.417 C 
ATOM     15  F   UNL     1       2.245  -0.529   8.100  1.00  0.00    -0.166 F 
ATOM     16  F   UNL     1       0.997   1.128   7.451  1.00  0.00    -0.166 F 
ATOM     17  F   UNL     1       0.312  -0.917   7.183  1.00  0.00    -0.166 F 
ENDBRANCH  13  14
ENDBRANCH   6   7
ENDBRANCH   5   6
ENDBRANCH   3   5
ENDBRANCH   2   3
ENDBRANCH   1   2
BRANCH   1  18
ATOM     18  C   UNL     1       4.758   0.093  -2.115  1.00  0.00     0.275 C 
BRANCH  18  19
ATOM     19  O   UNL     1       4.292   1.428  -1.841  1.00  0.00    -0.458 OA
BRANCH  19  20
ATOM     20  C   UNL     1       3.044   1.714  -2.292  1.00  0.00     0.338 C 
ATOM     21  O   UNL     1       2.334   1.012  -2.990  1.00  0.00    -0.246 OA
BRANCH  20  22
ATOM     22  C   UNL     1       2.583   2.963  -1.651  1.00  0.00     0.060 A 
ATOM     23  C   UNL     1       1.297   2.990  -1.099  1.00  0.00     0.016 A 
ATOM     24  C   UNL     1       3.399   4.096  -1.596  1.00  0.00     0.016 A 
ATOM     25  C   UNL     1       0.815   4.159  -0.508  1.00  0.00     0.010 A 
ATOM     26  C   UNL     1       2.911   5.270  -1.014  1.00  0.00     0.010 A 
ATOM     27  C   UNL     1       1.608   5.314  -0.487  1.00  0.00    -0.014 A 
BRANCH  27  28
ATOM     28  C   UNL     1       1.032   6.603  -0.035  1.00  0.00     0.031 A 
ATOM     29  C   UNL     1       0.495   7.560  -1.062  1.00  0.00     0.074 A 
ATOM     30  C   UNL     1       0.984   6.919   1.271  1.00  0.00     0.049 A 
ATOM     31  N   UNL     1      -0.031   8.747  -0.897  1.00  0.00    -0.248 NA
ATOM     32  C   UNL     1       0.562   7.119  -2.464  1.00  0.00     0.031 C 
ATOM     33  C   UNL     1       1.452   6.071   2.365  1.00  0.00     0.029 A 
ATOM     34  N   UNL     1       0.522   8.052   1.896  1.00  0.00    -0.354 N 
ATOM     35  C   UNL     1      -0.367   9.189  -2.170  1.00  0.00     0.074 A 
ATOM     36  C   UNL     1       0.051   8.162  -3.100  1.00  0.00     0.031 C 
ATOM     37  C   UNL     1       1.265   6.719   3.529  1.00  0.00     0.029 A 
ATOM     38  C   UNL     1       0.686   8.034   3.259  1.00  0.00     0.049 A 
ATOM     39  H   UNL     1       0.113   8.805   1.412  1.00  0.00     0.167 HD
ATOM     40  C   UNL     1      -0.981  10.341  -2.530  1.00  0.00     0.037 A 
ATOM     41  C   UNL     1       0.413   8.980   4.178  1.00  0.00     0.037 A 
ATOM     42  C   UNL     1      -1.387  11.370  -1.609  1.00  0.00     0.049 A 
ATOM     43  C   UNL     1      -0.202  10.287   3.741  1.00  0.00     0.074 A 
ATOM     44  C   UNL     1      -2.028  12.567  -1.880  1.00  0.00     0.029 A 
ATOM     45  N   UNL     1      -1.182  11.328  -0.239  1.00  0.00    -0.354 N 
ATOM     46  N   UNL     1      -0.557  10.678   2.541  1.00  0.00    -0.248 NA
ATOM     47  C   UNL     1      -0.458  11.283   4.793  1.00  0.00     0.031 C 
ATOM     48  C   UNL     1      -2.168  13.270  -0.679  1.00  0.00     0.029 A 
ATOM     49  C   UNL     1      -1.661  12.490   0.346  1.00  0.00     0.049 A 
ATOM     50  H   UNL     1      -0.759  10.583   0.247  1.00  0.00     0.167 HD
ATOM     51  C   UNL     1      -1.106  11.945   2.698  1.00  0.00     0.074 A 
ATOM     52  C   UNL     1      -1.051  12.252   4.111  1.00  0.00     0.031 C 
ATOM     53  C   UNL     1      -1.610  12.780   1.756  1.00  0.00     0.037 A 
BRANCH  40  54
ATOM     54  C   UNL     1      -1.242  10.557  -3.990  1.00  0.00     0.064 A 
ATOM     55  C   UNL     1      -2.237   9.838  -4.670  1.00  0.00     0.173 A 
ATOM     56  C   UNL     1      -0.523  11.525  -4.707  1.00  0.00     0.173 A 
ATOM     57  F   UNL     1      -2.942   8.893  -4.031  1.00  0.00    -0.203 F 
ATOM     58  C   UNL     1      -2.489  10.068  -6.020  1.00  0.00     0.198 A 
ATOM     59  C   UNL     1      -0.796  11.770  -6.050  1.00  0.00     0.198 A 
ATOM     60  F   UNL     1       0.436  12.241  -4.101  1.00  0.00    -0.203 F 
ATOM     61  F   UNL     1      -3.418   9.343  -6.659  1.00  0.00    -0.200 F 
ATOM     62  C   UNL     1      -1.774  11.038  -6.706  1.00  0.00     0.200 A 
ATOM     63  F   UNL     1      -0.112  12.715  -6.709  1.00  0.00    -0.200 F 
ATOM     64  F   UNL     1      -2.025  11.265  -8.003  1.00  0.00    -0.200 F 
ENDBRANCH  40  54
BRANCH  41  65
ATOM     65  C   UNL     1       0.722   8.743   5.613  1.00  0.00     0.064 A 
ATOM     66  C   UNL     1      -0.301   8.623   6.564  1.00  0.00     0.173 A 
ATOM     67  C   UNL     1       2.047   8.683   6.069  1.00  0.00     0.173 A 
ATOM     68  F   UNL     1      -1.583   8.703   6.180  1.00  0.00    -0.203 F 
ATOM     69  C   UNL     1      -0.011   8.482   7.920  1.00  0.00     0.198 A 
ATOM     70  C   UNL     1       2.336   8.512   7.422  1.00  0.00     0.198 A 
ATOM     71  F   UNL     1       3.063   8.797   5.201  1.00  0.00    -0.203 F 
ATOM     72  F   UNL     1      -1.008   8.431   8.814  1.00  0.00    -0.200 F 
ATOM     73  C   UNL     1       1.307   8.423   8.347  1.00  0.00     0.200 A 
ATOM     74  F   UNL     1       3.611   8.447   7.829  1.00  0.00    -0.200 F 
ATOM     75  F   UNL     1       1.586   8.295   9.651  1.00  0.00    -0.200 F 
ENDBRANCH  41  65
BRANCH  53  76
ATOM     76  C   UNL     1      -2.177  14.090   2.224  1.00  0.00     0.064 A 
ATOM     77  C   UNL     1      -1.353  15.124   2.692  1.00  0.00     0.173 A 
ATOM     78  C   UNL     1      -3.559  14.326   2.170  1.00  0.00     0.173 A 
ATOM     79  F   UNL     1      -0.026  14.944   2.778  1.00  0.00    -0.203 F 
ATOM     80  C   UNL     1      -1.895  16.335   3.116  1.00  0.00     0.198 A 
ATOM     81  C   UNL     1      -4.095  15.549   2.565  1.00  0.00     0.198 A 
ATOM     82  F   UNL     1      -4.391  13.373   1.722  1.00  0.00    -0.203 F 
ATOM     83  F   UNL     1      -1.094  17.290   3.608  1.00  0.00    -0.200 F 
ATOM     84  C   UNL     1      -3.264  16.549   3.046  1.00  0.00     0.200 A 
ATOM     85  F   UNL     1      -5.416  15.758   2.482  1.00  0.00    -0.200 F 
ATOM     86  F   UNL     1      -3.783  17.717   3.449  1.00  0.00    -0.200 F 
ENDBRANCH  53  76
ENDBRANCH  27  28
ENDBRANCH  20  22
ENDBRANCH  19  20
ENDBRANCH  18  19
ENDBRANCH   1  18
TORSDOF 14
