REMARK SMILES O=C(OCCOC(=O)c1c(F)cccc1NS(=O)(=O)C(F)(F)F)c1ccc(-c2c3nc(c(-c4c(F)c(F)c(F)c(F)c4F)c4ccc([nH]4)c(-c4c(F)c(F)c(F)c(F)c4F)c4nc(c(-c5c(F)c(F)c(F)c(F)c5F)c5ccc2[nH]5)C=C4)C=C3)cc1
REMARK SMILES IDX 5 1 4 2 3 3 2 4 1 5 24 6 25 7 86 8 26 9 85 10 27 11 28 12
REMARK SMILES IDX 29 13 79 14 30 15 84 16 78 17 80 18 31 19 83 20 77 21 76 22
REMARK SMILES IDX 32 24 64 25 44 26 63 27 45 28 48 29 62 30 81 31 46 32 47 33
REMARK SMILES IDX 61 35 82 36 49 37 33 38 34 39 42 40 35 41 36 42 40 43 43 44
REMARK SMILES IDX 37 45 38 46 41 47 39 48 65 49 66 50 74 51 67 52 68 53 72 54
REMARK SMILES IDX 75 55 69 56 70 57 73 58 71 59 50 60 51 61 59 62 52 63 53 64
REMARK SMILES IDX 57 65 60 66 54 67 55 68 58 69 56 70 6 71 7 72 8 73 9 74
REMARK SMILES IDX 10 75 15 76 11 77 12 78 14 79 13 80 16 81 17 83 18 84 19 85
REMARK SMILES IDX 20 86 21 87 22 88 23 89
REMARK H PARENT 80 23 48 34 16 82
REMARK Flexibility Score: inf
ROOT
ATOM      1  C   UNL     1       3.739   2.058   0.482  1.00  0.00     0.275 C 
ENDROOT
BRANCH   1   2
ATOM      2  C   UNL     1       4.081   1.399  -0.858  1.00  0.00     0.275 C 
BRANCH   2   3
ATOM      3  O   UNL     1       3.137   0.418  -1.310  1.00  0.00    -0.458 OA
BRANCH   3   4
ATOM      4  C   UNL     1       2.860  -0.815  -0.835  1.00  0.00     0.338 C 
ATOM      5  O   UNL     1       1.815  -1.349  -1.203  1.00  0.00    -0.246 OA
BRANCH   4   6
ATOM      6  C   UNL     1       3.704  -1.547   0.171  1.00  0.00     0.060 A 
ATOM      7  C   UNL     1       4.982  -1.202   0.601  1.00  0.00     0.016 A 
ATOM      8  C   UNL     1       3.119  -2.680   0.761  1.00  0.00     0.016 A 
ATOM      9  C   UNL     1       5.607  -1.899   1.637  1.00  0.00     0.010 A 
ATOM     10  C   UNL     1       3.706  -3.355   1.832  1.00  0.00     0.010 A 
ATOM     11  C   UNL     1       4.968  -2.965   2.273  1.00  0.00    -0.014 A 
BRANCH  11  12
ATOM     12  C   UNL     1       5.706  -3.732   3.295  1.00  0.00     0.031 A 
ATOM     13  C   UNL     1       6.258  -5.071   2.920  1.00  0.00     0.074 A 
ATOM     14  C   UNL     1       5.982  -3.170   4.487  1.00  0.00     0.049 A 
ATOM     15  N   UNL     1       7.077  -5.835   3.591  1.00  0.00    -0.248 NA
ATOM     16  C   UNL     1       5.883  -5.604   1.599  1.00  0.00     0.031 C 
ATOM     17  C   UNL     1       5.566  -1.829   4.893  1.00  0.00     0.029 A 
ATOM     18  N   UNL     1       6.696  -3.629   5.563  1.00  0.00    -0.354 N 
ATOM     19  C   UNL     1       7.355  -6.904   2.753  1.00  0.00     0.074 A 
ATOM     20  C   UNL     1       6.562  -6.739   1.558  1.00  0.00     0.031 C 
ATOM     21  C   UNL     1       6.005  -1.579   6.136  1.00  0.00     0.029 A 
ATOM     22  C   UNL     1       6.754  -2.736   6.608  1.00  0.00     0.049 A 
ATOM     23  H   UNL     1       7.127  -4.514   5.586  1.00  0.00     0.167 HD
ATOM     24  C   UNL     1       8.237  -7.907   2.953  1.00  0.00     0.037 A 
ATOM     25  C   UNL     1       7.366  -2.836   7.803  1.00  0.00     0.037 A 
ATOM     26  C   UNL     1       9.008  -8.060   4.154  1.00  0.00     0.049 A 
ATOM     27  C   UNL     1       8.229  -4.042   8.051  1.00  0.00     0.074 A 
ATOM     28  C   UNL     1       9.907  -9.057   4.478  1.00  0.00     0.029 A 
ATOM     29  N   UNL     1       8.959  -7.189   5.235  1.00  0.00    -0.354 N 
ATOM     30  N   UNL     1       8.511  -5.032   7.238  1.00  0.00    -0.248 NA
ATOM     31  C   UNL     1       8.888  -4.132   9.360  1.00  0.00     0.031 C 
ATOM     32  C   UNL     1      10.360  -8.821   5.779  1.00  0.00     0.029 A 
ATOM     33  C   UNL     1       9.789  -7.646   6.243  1.00  0.00     0.049 A 
ATOM     34  H   UNL     1       8.415  -6.370   5.278  1.00  0.00     0.167 HD
ATOM     35  C   UNL     1       9.406  -5.843   7.918  1.00  0.00     0.074 A 
ATOM     36  C   UNL     1       9.632  -5.219   9.207  1.00  0.00     0.031 C 
ATOM     37  C   UNL     1       9.991  -6.997   7.515  1.00  0.00     0.037 A 
BRANCH  24  38
ATOM     38  C   UNL     1       8.409  -8.907   1.852  1.00  0.00     0.064 A 
ATOM     39  C   UNL     1       7.927 -10.215   1.997  1.00  0.00     0.173 A 
ATOM     40  C   UNL     1       9.092  -8.583   0.670  1.00  0.00     0.173 A 
ATOM     41  F   UNL     1       7.258 -10.569   3.105  1.00  0.00    -0.203 F 
ATOM     42  C   UNL     1       8.142 -11.169   1.008  1.00  0.00     0.198 A 
ATOM     43  C   UNL     1       9.285  -9.534  -0.328  1.00  0.00     0.198 A 
ATOM     44  F   UNL     1       9.549  -7.337   0.473  1.00  0.00    -0.203 F 
ATOM     45  F   UNL     1       7.697 -12.422   1.180  1.00  0.00    -0.200 F 
ATOM     46  C   UNL     1       8.820 -10.829  -0.154  1.00  0.00     0.200 A 
ATOM     47  F   UNL     1       9.917  -9.196  -1.461  1.00  0.00    -0.200 F 
ATOM     48  F   UNL     1       9.022 -11.749  -1.107  1.00  0.00    -0.200 F 
ENDBRANCH  24  38
BRANCH  25  49
ATOM     49  C   UNL     1       7.215  -1.760   8.820  1.00  0.00     0.064 A 
ATOM     50  C   UNL     1       5.974  -1.508   9.427  1.00  0.00     0.173 A 
ATOM     51  C   UNL     1       8.301  -0.967   9.218  1.00  0.00     0.173 A 
ATOM     52  F   UNL     1       4.897  -2.227   9.077  1.00  0.00    -0.203 F 
ATOM     53  C   UNL     1       5.827  -0.510  10.389  1.00  0.00     0.198 A 
ATOM     54  C   UNL     1       8.159   0.014  10.200  1.00  0.00     0.198 A 
ATOM     55  F   UNL     1       9.511  -1.170   8.677  1.00  0.00    -0.203 F 
ATOM     56  F   UNL     1       4.625  -0.281  10.935  1.00  0.00    -0.200 F 
ATOM     57  C   UNL     1       6.921   0.244  10.782  1.00  0.00     0.200 A 
ATOM     58  F   UNL     1       9.225   0.725  10.592  1.00  0.00    -0.200 F 
ATOM     59  F   UNL     1       6.785   1.187  11.724  1.00  0.00    -0.200 F 
ENDBRANCH  25  49
BRANCH  37  60
ATOM     60  C   UNL     1      10.938  -7.655   8.473  1.00  0.00     0.064 A 
ATOM     61  C   UNL     1      12.309  -7.719   8.184  1.00  0.00     0.173 A 
ATOM     62  C   UNL     1      10.477  -8.285   9.637  1.00  0.00     0.173 A 
ATOM     63  F   UNL     1      12.796  -7.140   7.076  1.00  0.00    -0.203 F 
ATOM     64  C   UNL     1      13.183  -8.405   9.020  1.00  0.00     0.198 A 
ATOM     65  C   UNL     1      11.359  -8.939  10.490  1.00  0.00     0.198 A 
ATOM     66  F   UNL     1       9.175  -8.238   9.960  1.00  0.00    -0.203 F 
ATOM     67  F   UNL     1      14.482  -8.490   8.704  1.00  0.00    -0.200 F 
ATOM     68  C   UNL     1      12.708  -9.009  10.175  1.00  0.00     0.200 A 
ATOM     69  F   UNL     1      10.904  -9.496  11.620  1.00  0.00    -0.200 F 
ATOM     70  F   UNL     1      13.553  -9.656  10.989  1.00  0.00    -0.200 F 
ENDBRANCH  37  60
ENDBRANCH  11  12
ENDBRANCH   4   6
ENDBRANCH   3   4
ENDBRANCH   2   3
ENDBRANCH   1   2
BRANCH   1  71
ATOM     71  O   UNL     1       3.349   1.141   1.519  1.00  0.00    -0.458 OA
BRANCH  71  72
ATOM     72  C   UNL     1       2.015   0.969   1.727  1.00  0.00     0.343 C 
ATOM     73  O   UNL     1       1.108   1.429   1.053  1.00  0.00    -0.246 OA
BRANCH  72  74
ATOM     74  C   UNL     1       1.801   0.021   2.837  1.00  0.00     0.119 A 
ATOM     75  C   UNL     1       2.544   0.217   4.007  1.00  0.00     0.139 A 
ATOM     76  C   UNL     1       0.886  -1.056   2.747  1.00  0.00     0.066 A 
ATOM     77  F   UNL     1       3.373   1.264   4.136  1.00  0.00    -0.206 F 
ATOM     78  C   UNL     1       2.434  -0.654   5.082  1.00  0.00     0.040 A 
ATOM     79  C   UNL     1       0.849  -1.958   3.818  1.00  0.00     0.028 A 
ATOM     80  C   UNL     1       1.619  -1.768   4.971  1.00  0.00     0.005 A 
BRANCH  76  81
ATOM     81  N   UNL     1      -0.139  -1.067   1.733  1.00  0.00    -0.275 N 
ATOM     82  H   UNL     1      -0.389  -0.190   1.361  1.00  0.00     0.180 HD
BRANCH  81  83
ATOM     83  S   UNL     1      -0.963  -2.402   1.105  1.00  0.00     0.333 S 
ATOM     84  O   UNL     1      -1.917  -1.810   0.180  1.00  0.00    -0.197 OA
ATOM     85  O   UNL     1       0.022  -3.337   0.598  1.00  0.00    -0.197 OA
BRANCH  83  86
ATOM     86  C   UNL     1      -1.905  -3.240   2.477  1.00  0.00     0.516 C 
ATOM     87  F   UNL     1      -1.181  -4.269   3.020  1.00  0.00    -0.155 F 
ATOM     88  F   UNL     1      -2.206  -2.399   3.505  1.00  0.00    -0.155 F 
ATOM     89  F   UNL     1      -3.074  -3.793   2.052  1.00  0.00    -0.155 F 
ENDBRANCH  83  86
ENDBRANCH  81  83
ENDBRANCH  76  81
ENDBRANCH  72  74
ENDBRANCH  71  72
ENDBRANCH   1  71
TORSDOF 14
