REMARK SMILES C=CC[N@@H+](CC(=O)OCCOC(=O)c1ccc(-c2c3nc(c(-c4c(F)c(F)c(F)c(F)c4F)c4ccc([nH]4)c(-c4c(F)c(F)c(F)c(F)c4F)c4nc(c(-c5c(F)c(F)c(F)c(F)c5F)c5ccc2[nH]5)C=C4)C=C3)cc1)C1CCSCC1
REMARK SMILES IDX 9 1 8 2 6 3 7 4 5 5 4 6 3 8 2 9 1 10 77 11 78 12 82 13 79 14
REMARK SMILES IDX 81 15 80 16 10 17 11 18 12 19 13 20 14 21 15 22 76 23 16 24
REMARK SMILES IDX 75 25 17 26 18 27 19 28 69 29 20 30 74 31 68 32 70 33 21 34
REMARK SMILES IDX 73 35 67 36 66 37 22 39 54 40 34 41 53 42 35 43 38 44 52 45
REMARK SMILES IDX 71 46 36 47 37 48 51 50 72 51 39 52 23 53 24 54 32 55 25 56
REMARK SMILES IDX 26 57 30 58 33 59 27 60 28 61 31 62 29 63 55 64 56 65 64 66
REMARK SMILES IDX 57 67 58 68 62 69 65 70 59 71 60 72 63 73 61 74 40 75 41 76
REMARK SMILES IDX 49 77 42 78 43 79 47 80 50 81 44 82 45 83 48 84 46 85
REMARK H PARENT 4 7 70 38 38 49
REMARK Flexibility Score: inf
ROOT
ATOM      1  C   UNL     1      -4.118  -0.108  -1.232  1.00  0.00     0.274 C 
ENDROOT
BRANCH   1   2
ATOM      2  O   UNL     1      -3.130  -0.314  -0.202  1.00  0.00    -0.458 OA
BRANCH   2   3
ATOM      3  C   UNL     1      -3.576  -0.748   1.007  1.00  0.00     0.361 C 
ATOM      4  O   UNL     1      -4.746  -1.031   1.246  1.00  0.00    -0.245 OA
BRANCH   3   5
ATOM      5  C   UNL     1      -2.508  -0.739   2.103  1.00  0.00     0.387 C 
BRANCH   5   6
ATOM      6  N   UNL     1      -1.094  -0.974   1.706  1.00  0.00    -0.320 N 
ATOM      7  H   UNL     1      -0.560  -1.002   2.575  1.00  0.00     0.349 HD
BRANCH   6   8
ATOM      8  C   UNL     1      -0.597   0.155   0.898  1.00  0.00     0.291 C 
BRANCH   8   9
ATOM      9  C   UNL     1       0.791   0.584   1.268  1.00  0.00     0.025 C 
ATOM     10  C   UNL     1       1.739   0.881   0.368  1.00  0.00     0.010 C 
ENDBRANCH   8   9
ENDBRANCH   6   8
BRANCH   6  11
ATOM     11  C   UNL     1      -0.778  -2.325   1.148  1.00  0.00     0.186 C 
ATOM     12  C   UNL     1      -1.487  -3.473   1.909  1.00  0.00     0.076 C 
ATOM     13  C   UNL     1       0.750  -2.583   1.183  1.00  0.00     0.076 C 
ATOM     14  C   UNL     1      -1.232  -4.857   1.323  1.00  0.00     0.075 C 
ATOM     15  C   UNL     1       1.199  -3.909   0.581  1.00  0.00     0.075 C 
ATOM     16  S   UNL     1       0.502  -5.335   1.443  1.00  0.00    -0.162 SA
ENDBRANCH   6  11
ENDBRANCH   5   6
ENDBRANCH   3   5
ENDBRANCH   2   3
ENDBRANCH   1   2
BRANCH   1  17
ATOM     17  C   UNL     1      -4.118  -1.267  -2.221  1.00  0.00     0.275 C 
BRANCH  17  18
ATOM     18  O   UNL     1      -4.575  -2.454  -1.552  1.00  0.00    -0.458 OA
BRANCH  18  19
ATOM     19  C   UNL     1      -3.804  -3.551  -1.712  1.00  0.00     0.338 C 
ATOM     20  O   UNL     1      -2.806  -3.663  -2.400  1.00  0.00    -0.246 OA
BRANCH  19  21
ATOM     21  C   UNL     1      -4.328  -4.656  -0.887  1.00  0.00     0.060 A 
ATOM     22  C   UNL     1      -4.666  -4.446   0.451  1.00  0.00     0.016 A 
ATOM     23  C   UNL     1      -4.330  -5.948  -1.416  1.00  0.00     0.016 A 
ATOM     24  C   UNL     1      -4.897  -5.537   1.288  1.00  0.00     0.010 A 
ATOM     25  C   UNL     1      -4.651  -7.032  -0.596  1.00  0.00     0.010 A 
ATOM     26  C   UNL     1      -4.887  -6.843   0.776  1.00  0.00    -0.014 A 
BRANCH  26  27
ATOM     27  C   UNL     1      -5.065  -8.015   1.674  1.00  0.00     0.031 A 
ATOM     28  C   UNL     1      -3.966  -9.038   1.813  1.00  0.00     0.074 A 
ATOM     29  C   UNL     1      -6.205  -8.167   2.374  1.00  0.00     0.049 A 
ATOM     30  N   UNL     1      -3.988 -10.201   2.416  1.00  0.00    -0.248 NA
ATOM     31  C   UNL     1      -2.676  -8.714   1.184  1.00  0.00     0.031 C 
ATOM     32  C   UNL     1      -7.335  -7.239   2.365  1.00  0.00     0.029 A 
ATOM     33  N   UNL     1      -6.599  -9.163   3.233  1.00  0.00    -0.354 N 
ATOM     34  C   UNL     1      -2.736 -10.764   2.199  1.00  0.00     0.074 A 
ATOM     35  C   UNL     1      -1.976  -9.817   1.412  1.00  0.00     0.031 C 
ATOM     36  C   UNL     1      -8.282  -7.692   3.201  1.00  0.00     0.029 A 
ATOM     37  C   UNL     1      -7.856  -8.975   3.750  1.00  0.00     0.049 A 
ATOM     38  H   UNL     1      -6.034  -9.938   3.457  1.00  0.00     0.167 HD
ATOM     39  C   UNL     1      -2.265 -11.964   2.615  1.00  0.00     0.037 A 
ATOM     40  C   UNL     1      -8.600  -9.763   4.549  1.00  0.00     0.037 A 
ATOM     41  C   UNL     1      -2.999 -12.889   3.438  1.00  0.00     0.049 A 
ATOM     42  C   UNL     1      -8.058 -11.091   4.992  1.00  0.00     0.074 A 
ATOM     43  C   UNL     1      -2.603 -14.129   3.910  1.00  0.00     0.029 A 
ATOM     44  N   UNL     1      -4.276 -12.664   3.928  1.00  0.00    -0.354 N 
ATOM     45  N   UNL     1      -6.900 -11.641   4.725  1.00  0.00    -0.248 NA
ATOM     46  C   UNL     1      -8.937 -11.915   5.834  1.00  0.00     0.031 C 
ATOM     47  C   UNL     1      -3.650 -14.662   4.672  1.00  0.00     0.029 A 
ATOM     48  C   UNL     1      -4.685 -13.742   4.695  1.00  0.00     0.049 A 
ATOM     49  H   UNL     1      -4.813 -11.856   3.756  1.00  0.00     0.167 HD
ATOM     50  C   UNL     1      -6.909 -12.873   5.362  1.00  0.00     0.074 A 
ATOM     51  C   UNL     1      -8.178 -12.980   6.051  1.00  0.00     0.031 C 
ATOM     52  C   UNL     1      -5.954 -13.834   5.367  1.00  0.00     0.037 A 
BRANCH  39  53
ATOM     53  C   UNL     1      -0.893 -12.361   2.163  1.00  0.00     0.064 A 
ATOM     54  C   UNL     1       0.261 -11.825   2.751  1.00  0.00     0.173 A 
ATOM     55  C   UNL     1      -0.733 -13.326   1.157  1.00  0.00     0.173 A 
ATOM     56  F   UNL     1       0.158 -10.892   3.709  1.00  0.00    -0.203 F 
ATOM     57  C   UNL     1       1.528 -12.229   2.336  1.00  0.00     0.198 A 
ATOM     58  C   UNL     1       0.534 -13.742   0.758  1.00  0.00     0.198 A 
ATOM     59  F   UNL     1      -1.808 -13.872   0.568  1.00  0.00    -0.203 F 
ATOM     60  F   UNL     1       2.619 -11.685   2.891  1.00  0.00    -0.200 F 
ATOM     61  C   UNL     1       1.663 -13.191   1.345  1.00  0.00     0.200 A 
ATOM     62  F   UNL     1       0.662 -14.679  -0.192  1.00  0.00    -0.200 F 
ATOM     63  F   UNL     1       2.882 -13.586   0.953  1.00  0.00    -0.200 F 
ENDBRANCH  39  53
BRANCH  40  64
ATOM     64  C   UNL     1      -9.956  -9.319   4.956  1.00  0.00     0.064 A 
ATOM     65  C   UNL     1     -10.212  -8.904   6.269  1.00  0.00     0.173 A 
ATOM     66  C   UNL     1     -11.015  -9.283   4.037  1.00  0.00     0.173 A 
ATOM     67  F   UNL     1      -9.235  -8.946   7.187  1.00  0.00    -0.203 F 
ATOM     68  C   UNL     1     -11.480  -8.472   6.650  1.00  0.00     0.198 A 
ATOM     69  C   UNL     1     -12.276  -8.828   4.413  1.00  0.00     0.198 A 
ATOM     70  F   UNL     1     -10.817  -9.672   2.769  1.00  0.00    -0.203 F 
ATOM     71  F   UNL     1     -11.708  -8.107   7.919  1.00  0.00    -0.200 F 
ATOM     72  C   UNL     1     -12.508  -8.427   5.720  1.00  0.00     0.200 A 
ATOM     73  F   UNL     1     -13.263  -8.776   3.510  1.00  0.00    -0.200 F 
ATOM     74  F   UNL     1     -13.725  -8.001   6.085  1.00  0.00    -0.200 F 
ENDBRANCH  40  64
BRANCH  52  75
ATOM     75  C   UNL     1      -6.249 -15.077   6.148  1.00  0.00     0.064 A 
ATOM     76  C   UNL     1      -7.120 -16.057   5.652  1.00  0.00     0.173 A 
ATOM     77  C   UNL     1      -5.645 -15.296   7.394  1.00  0.00     0.173 A 
ATOM     78  F   UNL     1      -7.733 -15.880   4.472  1.00  0.00    -0.203 F 
ATOM     79  C   UNL     1      -7.395 -17.205   6.389  1.00  0.00     0.198 A 
ATOM     80  C   UNL     1      -5.909 -16.454   8.120  1.00  0.00     0.198 A 
ATOM     81  F   UNL     1      -4.804 -14.387   7.907  1.00  0.00    -0.203 F 
ATOM     82  F   UNL     1      -8.263 -18.111   5.916  1.00  0.00    -0.200 F 
ATOM     83  C   UNL     1      -6.787 -17.404   7.620  1.00  0.00     0.200 A 
ATOM     84  F   UNL     1      -5.319 -16.648   9.307  1.00  0.00    -0.200 F 
ATOM     85  F   UNL     1      -7.057 -18.508   8.330  1.00  0.00    -0.200 F 
ENDBRANCH  52  75
ENDBRANCH  26  27
ENDBRANCH  19  21
ENDBRANCH  18  19
ENDBRANCH  17  18
ENDBRANCH   1  17
TORSDOF 15
