REMARK SMILES CC(C)(C)OC(=O)N1C[C@H](c2ccc(C(F)(F)F)cc2)[C@H](C(=O)OCCOC(=O)c2ccc(-c3c4nc(c(-c5c(F)c(F)c(F)c(F)c5F)c5ccc([nH]5)c(-c5c(F)c(F)c(F)c(F)c5F)c5nc(c(-c6c(F)c(F)c(F)c(F)c6F)c6ccc3[nH]6)C=C5)C=C4)cc2)C1
REMARK SMILES IDX 25 1 24 2 22 3 23 4 21 5 8 6 9 7 93 8 10 9 6 10 7 11 5 12
REMARK SMILES IDX 2 13 1 14 3 15 4 16 11 17 12 18 20 19 13 20 19 21 14 22
REMARK SMILES IDX 15 23 16 24 17 25 18 26 26 27 27 28 28 29 29 30 30 31 31 32
REMARK SMILES IDX 92 33 32 34 91 35 33 36 34 37 35 38 85 39 36 40 90 41 84 42
REMARK SMILES IDX 86 43 37 44 89 45 83 46 82 47 38 49 70 50 50 51 69 52 51 53
REMARK SMILES IDX 54 54 68 55 87 56 52 57 53 58 67 60 88 61 55 62 39 63 40 64
REMARK SMILES IDX 48 65 41 66 42 67 46 68 49 69 43 70 44 71 47 72 45 73 71 74
REMARK SMILES IDX 72 75 80 76 73 77 74 78 78 79 81 80 75 81 76 82 79 83 77 84
REMARK SMILES IDX 56 85 57 86 65 87 58 88 59 89 63 90 66 91 60 92 61 93 64 94
REMARK SMILES IDX 62 95
REMARK H PARENT 86 48 54 59
REMARK Flexibility Score: inf
ROOT
ATOM      1  C   UNL     1      -1.184   8.113  -3.097  1.00  0.00     0.274 C 
ENDROOT
BRANCH   1   2
ATOM      2  O   UNL     1      -0.409   6.899  -3.098  1.00  0.00    -0.462 OA
BRANCH   2   3
ATOM      3  C   UNL     1      -0.186   6.276  -4.270  1.00  0.00     0.311 C 
ATOM      4  O   UNL     1      -0.687   6.612  -5.338  1.00  0.00    -0.252 OA
BRANCH   3   5
ATOM      5  C   UNL     1       0.733   5.083  -4.167  1.00  0.00     0.128 C 
ATOM      6  N   UNL     1       0.792   2.833  -3.519  1.00  0.00    -0.307 N 
ATOM      7  C   UNL     1       2.069   3.406  -3.132  1.00  0.00     0.132 C 
ATOM      8  C   UNL     1      -0.051   3.785  -4.203  1.00  0.00     0.139 C 
ATOM      9  C   UNL     1       1.794   4.914  -3.050  1.00  0.00     0.055 C 
BRANCH   6  10
ATOM     10  C   UNL     1       0.304   1.605  -3.163  1.00  0.00     0.410 C 
ATOM     11  O   UNL     1      -0.677   1.106  -3.683  1.00  0.00    -0.224 OA
BRANCH  10  12
ATOM     12  O   UNL     1       0.987   1.098  -2.109  1.00  0.00    -0.444 OA
BRANCH  12  13
ATOM     13  C   UNL     1       0.507  -0.075  -1.410  1.00  0.00     0.106 C 
ATOM     14  C   UNL     1       1.238  -0.043  -0.060  1.00  0.00     0.056 C 
ATOM     15  C   UNL     1       0.918  -1.319  -2.195  1.00  0.00     0.056 C 
ATOM     16  C   UNL     1      -1.003  -0.044  -1.127  1.00  0.00     0.056 C 
ENDBRANCH  12  13
ENDBRANCH  10  12
ENDBRANCH   6  10
BRANCH   9  17
ATOM     17  C   UNL     1       1.575   5.286  -1.595  1.00  0.00    -0.042 A 
ATOM     18  C   UNL     1       0.333   5.288  -0.955  1.00  0.00     0.005 A 
ATOM     19  C   UNL     1       2.710   5.628  -0.834  1.00  0.00     0.005 A 
ATOM     20  C   UNL     1       0.209   5.761   0.357  1.00  0.00     0.013 A 
ATOM     21  C   UNL     1       2.595   6.059   0.487  1.00  0.00     0.013 A 
ATOM     22  C   UNL     1       1.336   6.168   1.085  1.00  0.00     0.056 A 
BRANCH  22  23
ATOM     23  C   UNL     1       1.201   6.778   2.456  1.00  0.00     0.416 C 
ATOM     24  F   UNL     1       1.185   8.140   2.411  1.00  0.00    -0.166 F 
ATOM     25  F   UNL     1       0.056   6.416   3.100  1.00  0.00    -0.166 F 
ATOM     26  F   UNL     1       2.222   6.445   3.295  1.00  0.00    -0.166 F 
ENDBRANCH  22  23
ENDBRANCH   9  17
ENDBRANCH   3   5
ENDBRANCH   2   3
ENDBRANCH   1   2
BRANCH   1  27
ATOM     27  C   UNL     1      -0.268   9.312  -2.847  1.00  0.00     0.275 C 
BRANCH  27  28
ATOM     28  O   UNL     1       0.505   9.610  -4.024  1.00  0.00    -0.458 OA
BRANCH  28  29
ATOM     29  C   UNL     1       1.670   8.934  -4.141  1.00  0.00     0.338 C 
ATOM     30  O   UNL     1       2.192   8.191  -3.329  1.00  0.00    -0.246 OA
BRANCH  29  31
ATOM     31  C   UNL     1       2.158   9.067  -5.519  1.00  0.00     0.060 A 
ATOM     32  C   UNL     1       2.383   7.893  -6.244  1.00  0.00     0.016 A 
ATOM     33  C   UNL     1       2.416  10.315  -6.085  1.00  0.00     0.016 A 
ATOM     34  C   UNL     1       2.857   7.954  -7.546  1.00  0.00     0.010 A 
ATOM     35  C   UNL     1       2.901  10.378  -7.391  1.00  0.00     0.010 A 
ATOM     36  C   UNL     1       3.125   9.198  -8.123  1.00  0.00    -0.014 A 
BRANCH  36  37
ATOM     37  C   UNL     1       3.706   9.258  -9.478  1.00  0.00     0.031 A 
ATOM     38  C   UNL     1       5.165   9.555  -9.635  1.00  0.00     0.074 A 
ATOM     39  C   UNL     1       2.925   9.027 -10.547  1.00  0.00     0.049 A 
ATOM     40  N   UNL     1       5.856   9.758 -10.725  1.00  0.00    -0.248 NA
ATOM     41  C   UNL     1       5.952   9.634  -8.394  1.00  0.00     0.031 C 
ATOM     42  C   UNL     1       1.508   8.667 -10.494  1.00  0.00     0.029 A 
ATOM     43  N   UNL     1       3.213   9.068 -11.886  1.00  0.00    -0.354 N 
ATOM     44  C   UNL     1       7.153  10.013 -10.303  1.00  0.00     0.074 A 
ATOM     45  C   UNL     1       7.152   9.951  -8.858  1.00  0.00     0.031 C 
ATOM     46  C   UNL     1       1.046   8.531 -11.747  1.00  0.00     0.029 A 
ATOM     47  C   UNL     1       2.120   8.842 -12.685  1.00  0.00     0.049 A 
ATOM     48  H   UNL     1       4.114   9.243 -12.240  1.00  0.00     0.167 HD
ATOM     49  C   UNL     1       8.242  10.274 -11.063  1.00  0.00     0.037 A 
ATOM     50  C   UNL     1       1.999   8.917 -14.024  1.00  0.00     0.037 A 
ATOM     51  C   UNL     1       8.223  10.324 -12.501  1.00  0.00     0.049 A 
ATOM     52  C   UNL     1       3.210   9.280 -14.841  1.00  0.00     0.074 A 
ATOM     53  C   UNL     1       9.268  10.576 -13.372  1.00  0.00     0.029 A 
ATOM     54  N   UNL     1       7.092  10.119 -13.280  1.00  0.00    -0.354 N 
ATOM     55  N   UNL     1       4.434   9.530 -14.440  1.00  0.00    -0.248 NA
ATOM     56  C   UNL     1       3.023   9.377 -16.294  1.00  0.00     0.031 C 
ATOM     57  C   UNL     1       8.759  10.568 -14.675  1.00  0.00     0.029 A 
ATOM     58  C   UNL     1       7.408  10.261 -14.621  1.00  0.00     0.049 A 
ATOM     59  H   UNL     1       6.197   9.905 -12.931  1.00  0.00     0.167 HD
ATOM     60  C   UNL     1       5.167   9.791 -15.589  1.00  0.00     0.074 A 
ATOM     61  C   UNL     1       4.252   9.655 -16.705  1.00  0.00     0.031 C 
ATOM     62  C   UNL     1       6.478  10.114 -15.712  1.00  0.00     0.037 A 
BRANCH  49  63
ATOM     63  C   UNL     1       9.529  10.565 -10.350  1.00  0.00     0.064 A 
ATOM     64  C   UNL     1      10.250   9.564  -9.683  1.00  0.00     0.173 A 
ATOM     65  C   UNL     1      10.056  11.866 -10.348  1.00  0.00     0.173 A 
ATOM     66  F   UNL     1       9.778   8.308  -9.639  1.00  0.00    -0.203 F 
ATOM     67  C   UNL     1      11.438   9.858  -9.020  1.00  0.00     0.198 A 
ATOM     68  C   UNL     1      11.259  12.151  -9.707  1.00  0.00     0.198 A 
ATOM     69  F   UNL     1       9.405  12.861 -10.969  1.00  0.00    -0.203 F 
ATOM     70  F   UNL     1      12.086   8.895  -8.349  1.00  0.00    -0.200 F 
ATOM     71  C   UNL     1      11.945  11.149  -9.038  1.00  0.00     0.200 A 
ATOM     72  F   UNL     1      11.750  13.398  -9.732  1.00  0.00    -0.200 F 
ATOM     73  F   UNL     1      13.090  11.430  -8.401  1.00  0.00    -0.200 F 
ENDBRANCH  49  63
BRANCH  50  74
ATOM     74  C   UNL     1       0.682   8.670 -14.664  1.00  0.00     0.064 A 
ATOM     75  C   UNL     1       0.468   7.541 -15.465  1.00  0.00     0.173 A 
ATOM     76  C   UNL     1      -0.390   9.558 -14.488  1.00  0.00     0.173 A 
ATOM     77  F   UNL     1       1.468   6.676 -15.684  1.00  0.00    -0.203 F 
ATOM     78  C   UNL     1      -0.765   7.316 -16.076  1.00  0.00     0.198 A 
ATOM     79  C   UNL     1      -1.630   9.317 -15.075  1.00  0.00     0.198 A 
ATOM     80  F   UNL     1      -0.237  10.655 -13.732  1.00  0.00    -0.203 F 
ATOM     81  F   UNL     1      -0.931   6.250 -16.871  1.00  0.00    -0.200 F 
ATOM     82  C   UNL     1      -1.814   8.200 -15.875  1.00  0.00     0.200 A 
ATOM     83  F   UNL     1      -2.644  10.168 -14.868  1.00  0.00    -0.200 F 
ATOM     84  F   UNL     1      -3.000   7.980 -16.458  1.00  0.00    -0.200 F 
ENDBRANCH  50  74
BRANCH  62  85
ATOM     85  C   UNL     1       7.007  10.308 -17.102  1.00  0.00     0.064 A 
ATOM     86  C   UNL     1       6.691  11.447 -17.856  1.00  0.00     0.173 A 
ATOM     87  C   UNL     1       7.879   9.364 -17.665  1.00  0.00     0.173 A 
ATOM     88  F   UNL     1       5.849  12.369 -17.366  1.00  0.00    -0.203 F 
ATOM     89  C   UNL     1       7.213  11.624 -19.134  1.00  0.00     0.198 A 
ATOM     90  C   UNL     1       8.421   9.559 -18.932  1.00  0.00     0.198 A 
ATOM     91  F   UNL     1       8.216   8.262 -16.980  1.00  0.00    -0.203 F 
ATOM     92  F   UNL     1       6.864  12.698 -19.855  1.00  0.00    -0.200 F 
ATOM     93  C   UNL     1       8.083  10.684 -19.667  1.00  0.00     0.200 A 
ATOM     94  F   UNL     1       9.273   8.657 -19.440  1.00  0.00    -0.200 F 
ATOM     95  F   UNL     1       8.592  10.861 -20.894  1.00  0.00    -0.200 F 
ENDBRANCH  62  85
ENDBRANCH  36  37
ENDBRANCH  29  31
ENDBRANCH  28  29
ENDBRANCH  27  28
ENDBRANCH   1  27
TORSDOF 16
