REMARK SMILES Cc1ccc(-c2cc(Cl)cc3c2O[C@H](C(F)(F)F)C(C(=O)OCCOC(=O)c2ccc(-c4c5nc(c(-c6c(F)c(F)c(F)c(F)c6F)c6ccc([nH]6)c(-c6c(F)c(F)c(F)c(F)c6F)c6nc(c(-c7c(F)c(F)c(F)c(F)c7F)c7ccc4[nH]7)C=C6)C=C5)cc2)=C3)cc1
REMARK SMILES IDX 24 1 23 2 22 3 20 4 21 5 19 6 6 7 7 8 12 9 8 10 11 11 13 12
REMARK SMILES IDX 9 13 10 14 91 15 14 16 5 17 1 18 2 19 3 20 93 21 4 22 92 23
REMARK SMILES IDX 15 24 16 25 17 26 18 27 25 28 26 29 27 30 28 31 29 32 90 33
REMARK SMILES IDX 30 34 89 35 31 36 32 37 33 38 83 39 34 40 88 41 82 42 84 43
REMARK SMILES IDX 35 44 87 45 81 46 80 47 36 49 68 50 48 51 67 52 49 53 52 54
REMARK SMILES IDX 66 55 85 56 50 57 51 58 65 60 86 61 53 62 37 63 38 64 46 65
REMARK SMILES IDX 39 66 40 67 44 68 47 69 41 70 42 71 45 72 43 73 69 74 70 75
REMARK SMILES IDX 78 76 71 77 72 78 76 79 79 80 73 81 74 82 77 83 75 84 54 85
REMARK SMILES IDX 55 86 63 87 56 88 57 89 61 90 64 91 58 92 59 93 62 94 60 95
REMARK H PARENT 84 48 52 59
REMARK Flexibility Score: inf
ROOT
ATOM      1  C   UNL     1      -1.546  -4.435   3.873  1.00  0.00     0.275 C 
ENDROOT
BRANCH   1   2
ATOM      2  C   UNL     1      -2.127  -3.316   4.839  1.00  0.00     0.275 C 
BRANCH   2   3
ATOM      3  O   UNL     1      -3.152  -1.984   4.248  1.00  0.00    -0.459 OA
BRANCH   3   4
ATOM      4  C   UNL     1      -3.366  -0.739   2.713  1.00  0.00     0.338 C 
ATOM      5  O   UNL     1      -2.451  -0.137   2.054  1.00  0.00    -0.246 OA
BRANCH   4   6
ATOM      6  C   UNL     1      -4.760  -0.024   2.432  1.00  0.00     0.087 C 
ATOM      7  C   UNL     1      -3.357  -0.843  -0.865  1.00  0.00     0.026 A 
ATOM      8  C   UNL     1      -3.879  -0.196  -2.004  1.00  0.00     0.033 A 
ATOM      9  C   UNL     1      -4.313  -1.131   0.115  1.00  0.00     0.135 A 
ATOM     10  C   UNL     1      -5.247   0.125  -2.115  1.00  0.00     0.042 A 
ATOM     11  C   UNL     1      -5.532  -0.507   0.134  1.00  0.00     0.019 A 
ATOM     12  O   UNL     1      -4.228  -1.967   1.178  1.00  0.00    -0.475 OA
ATOM     13  Cl  UNL     1      -5.799   1.018  -3.480  1.00  0.00    -0.084 Cl
ATOM     14  C   UNL     1      -6.105  -0.041  -1.032  1.00  0.00     0.032 A 
ATOM     15  C   UNL     1      -5.698   0.118   1.446  1.00  0.00     0.027 C 
ATOM     16  C   UNL     1      -4.285  -1.437   2.956  1.00  0.00     0.316 C 
BRANCH   7  17
ATOM     17  C   UNL     1      -1.873  -0.831  -0.632  1.00  0.00    -0.015 A 
ATOM     18  C   UNL     1       2.442  -0.411   0.056  1.00  0.00     0.044 C 
ATOM     19  C   UNL     1       0.956  -0.558  -0.123  1.00  0.00    -0.051 A 
ATOM     20  C   UNL     1       0.311  -1.803  -0.062  1.00  0.00     0.004 A 
ATOM     21  C   UNL     1       0.183   0.554  -0.427  1.00  0.00     0.004 A 
ATOM     22  C   UNL     1      -1.083  -1.937  -0.305  1.00  0.00     0.009 A 
ATOM     23  C   UNL     1      -1.188   0.407  -0.683  1.00  0.00     0.009 A 
ENDBRANCH   7  17
BRANCH  16  24
ATOM     24  C   UNL     1      -4.925  -2.435   4.817  1.00  0.00     0.430 C 
ATOM     25  F   UNL     1      -5.942  -1.862   5.656  1.00  0.00    -0.167 F 
ATOM     26  F   UNL     1      -5.477  -3.738   4.690  1.00  0.00    -0.167 F 
ATOM     27  F   UNL     1      -4.053  -2.618   5.888  1.00  0.00    -0.167 F 
ENDBRANCH  16  24
ENDBRANCH   4   6
ENDBRANCH   3   4
ENDBRANCH   2   3
ENDBRANCH   1   2
BRANCH   1  28
ATOM     28  O   UNL     1      -2.251  -4.988   2.699  1.00  0.00    -0.458 OA
BRANCH  28  29
ATOM     29  C   UNL     1      -3.296  -4.508   1.983  1.00  0.00     0.338 C 
ATOM     30  O   UNL     1      -3.825  -5.037   1.026  1.00  0.00    -0.246 OA
BRANCH  29  31
ATOM     31  C   UNL     1      -3.689  -3.225   2.503  1.00  0.00     0.060 A 
ATOM     32  C   UNL     1      -5.581  -2.623   2.806  1.00  0.00     0.016 A 
ATOM     33  C   UNL     1      -2.067  -2.186   2.889  1.00  0.00     0.016 A 
ATOM     34  C   UNL     1      -5.718  -0.986   3.942  1.00  0.00     0.010 A 
ATOM     35  C   UNL     1      -2.150  -0.647   4.130  1.00  0.00     0.010 A 
ATOM     36  C   UNL     1      -4.007  -0.186   4.597  1.00  0.00    -0.014 A 
BRANCH  36  37
ATOM     37  C   UNL     1      -3.807   1.131   5.281  1.00  0.00     0.031 A 
ATOM     38  C   UNL     1      -4.255   1.189   6.683  1.00  0.00     0.074 A 
ATOM     39  C   UNL     1      -2.801   1.927   4.785  1.00  0.00     0.049 A 
ATOM     40  N   UNL     1      -4.665   2.244   7.315  1.00  0.00    -0.248 NA
ATOM     41  C   UNL     1      -4.459  -0.048   7.448  1.00  0.00     0.031 C 
ATOM     42  C   UNL     1      -1.584   2.338   5.519  1.00  0.00     0.029 A 
ATOM     43  N   UNL     1      -2.433   2.243   3.454  1.00  0.00    -0.354 N 
ATOM     44  C   UNL     1      -4.778   1.809   8.629  1.00  0.00     0.074 A 
ATOM     45  C   UNL     1      -5.095   0.416   8.521  1.00  0.00     0.031 C 
ATOM     46  C   UNL     1      -0.749   3.018   4.703  1.00  0.00     0.029 A 
ATOM     47  C   UNL     1      -1.434   3.249   3.450  1.00  0.00     0.049 A 
ATOM     48  H   UNL     1      -2.816   1.825   2.649  1.00  0.00     0.167 HD
ATOM     49  C   UNL     1      -3.964   2.337   9.597  1.00  0.00     0.037 A 
ATOM     50  C   UNL     1      -1.642   4.484   2.888  1.00  0.00     0.037 A 
ATOM     51  C   UNL     1      -2.999   3.259   9.004  1.00  0.00     0.049 A 
ATOM     52  C   UNL     1      -1.776   5.596   3.896  1.00  0.00     0.074 A 
ATOM     53  C   UNL     1      -1.633   3.232   8.797  1.00  0.00     0.029 A 
ATOM     54  N   UNL     1      -3.466   4.323   8.269  1.00  0.00    -0.354 N 
ATOM     55  N   UNL     1      -1.722   5.412   5.179  1.00  0.00    -0.248 NA
ATOM     56  C   UNL     1      -2.334   6.893   3.512  1.00  0.00     0.031 C 
ATOM     57  C   UNL     1      -1.292   4.382   8.022  1.00  0.00     0.029 A 
ATOM     58  C   UNL     1      -2.448   5.107   7.787  1.00  0.00     0.049 A 
ATOM     59  H   UNL     1      -4.420   4.501   8.107  1.00  0.00     0.167 HD
ATOM     60  C   UNL     1      -2.472   6.388   5.773  1.00  0.00     0.074 A 
ATOM     61  C   UNL     1      -2.850   7.279   4.686  1.00  0.00     0.031 C 
ATOM     62  C   UNL     1      -2.816   6.329   7.092  1.00  0.00     0.037 A 
BRANCH  49  63
ATOM     63  C   UNL     1      -3.807   1.884  11.043  1.00  0.00     0.064 A 
ATOM     64  C   UNL     1      -2.991   2.660  11.900  1.00  0.00     0.173 A 
ATOM     65  C   UNL     1      -4.412   0.776  11.675  1.00  0.00     0.173 A 
ATOM     66  F   UNL     1      -2.414   3.793  11.475  1.00  0.00    -0.203 F 
ATOM     67  C   UNL     1      -2.759   2.330  13.238  1.00  0.00     0.198 A 
ATOM     68  C   UNL     1      -4.183   0.448  13.017  1.00  0.00     0.198 A 
ATOM     69  F   UNL     1      -5.269  -0.035  11.055  1.00  0.00    -0.203 F 
ATOM     70  F   UNL     1      -1.959   3.105  13.982  1.00  0.00    -0.200 F 
ATOM     71  C   UNL     1      -3.354   1.221  13.797  1.00  0.00     0.200 A 
ATOM     72  F   UNL     1      -4.786  -0.627  13.546  1.00  0.00    -0.200 F 
ATOM     73  F   UNL     1      -3.146   0.911  15.083  1.00  0.00    -0.200 F 
ENDBRANCH  49  63
BRANCH  50  74
ATOM     74  C   UNL     1      -2.670   4.429   1.823  1.00  0.00     0.064 A 
ATOM     75  C   UNL     1      -2.337   4.064   0.519  1.00  0.00     0.173 A 
ATOM     76  C   UNL     1      -3.992   4.270   2.278  1.00  0.00     0.173 A 
ATOM     77  F   UNL     1      -1.102   4.266   0.038  1.00  0.00    -0.203 F 
ATOM     78  C   UNL     1      -3.276   3.402  -0.251  1.00  0.00     0.198 A 
ATOM     79  C   UNL     1      -4.857   3.482   1.569  1.00  0.00     0.198 A 
ATOM     80  F   UNL     1      -4.358   4.676   3.502  1.00  0.00    -0.203 F 
ATOM     81  F   UNL     1      -2.984   3.015  -1.500  1.00  0.00    -0.200 F 
ATOM     82  C   UNL     1      -4.497   3.058   0.307  1.00  0.00     0.200 A 
ATOM     83  F   UNL     1      -5.985   3.051   2.151  1.00  0.00    -0.200 F 
ATOM     84  F   UNL     1      -5.357   2.324  -0.388  1.00  0.00    -0.200 F 
ENDBRANCH  50  74
BRANCH  62  85
ATOM     85  C   UNL     1      -3.614   7.404   7.794  1.00  0.00     0.064 A 
ATOM     86  C   UNL     1      -3.571   8.743   7.378  1.00  0.00     0.173 A 
ATOM     87  C   UNL     1      -4.379   7.173   8.963  1.00  0.00     0.173 A 
ATOM     88  F   UNL     1      -2.700   9.156   6.447  1.00  0.00    -0.203 F 
ATOM     89  C   UNL     1      -4.372   9.726   7.952  1.00  0.00     0.198 A 
ATOM     90  C   UNL     1      -5.109   8.175   9.593  1.00  0.00     0.198 A 
ATOM     91  F   UNL     1      -4.454   5.980   9.564  1.00  0.00    -0.203 F 
ATOM     92  F   UNL     1      -4.375  10.958   7.429  1.00  0.00    -0.200 F 
ATOM     93  C   UNL     1      -5.140   9.443   9.062  1.00  0.00     0.200 A 
ATOM     94  F   UNL     1      -5.779   7.893  10.719  1.00  0.00    -0.200 F 
ATOM     95  F   UNL     1      -5.877  10.398   9.641  1.00  0.00    -0.200 F 
ENDBRANCH  62  85
ENDBRANCH  36  37
ENDBRANCH  29  31
ENDBRANCH  28  29
ENDBRANCH   1  28
TORSDOF 13
