REMARK SMILES CC(C)[C@H](NC(=O)c1cc2cc(Cl)ccc2n1C)C(=O)N[C@@H](C(=O)OCCOC(=O)c1ccc(-c2c3nc(c(-c4c(F)c(F)c(F)c(F)c4F)c4ccc([nH]4)c(-c4c(F)c(F)c(F)c(F)c4F)c4nc(c(-c5c(F)c(F)c(F)c(F)c5F)c5ccc2[nH]5)C=C4)C=C3)cc1)c1ccccc1
REMARK SMILES IDX 26 1 25 2 23 3 24 4 22 5 21 6 19 7 20 8 4 10 2 11 1 12 3 13
REMARK SMILES IDX 5 14 6 15 7 17 8 18 9 19 17 20 10 21 16 22 18 23 11 24 15 25
REMARK SMILES IDX 12 26 14 27 13 28 94 29 95 30 99 31 96 32 98 33 97 34 27 35
REMARK SMILES IDX 28 36 29 37 30 38 31 39 32 40 93 41 33 42 92 43 34 44 35 45
REMARK SMILES IDX 36 46 86 47 37 48 91 49 85 50 87 51 38 52 90 53 84 54 83 55
REMARK SMILES IDX 39 57 71 58 51 59 70 60 52 61 55 62 69 63 88 64 53 65 54 66
REMARK SMILES IDX 68 68 89 69 56 70 40 71 41 72 49 73 42 74 43 75 47 76 50 77
REMARK SMILES IDX 44 78 45 79 48 80 46 81 72 82 73 83 81 84 74 85 75 86 79 87
REMARK SMILES IDX 82 88 76 89 77 90 80 91 78 92 57 93 58 94 66 95 59 96 60 97
REMARK SMILES IDX 64 98 67 99 61 100 62 101 65 102 63 103
REMARK H PARENT 21 9 5 16 87 56 55 67
REMARK Flexibility Score: inf
ROOT
ATOM      1  C   UNL     1       2.299   1.389  -4.705  1.00  0.00     0.274 C 
ENDROOT
BRANCH   1   2
ATOM      2  O   UNL     1       0.875   1.541  -4.371  1.00  0.00    -0.460 OA
BRANCH   2   3
ATOM      3  C   UNL     1       0.596   2.362  -3.328  1.00  0.00     0.333 C 
ATOM      4  O   UNL     1       1.446   3.153  -2.937  1.00  0.00    -0.249 OA
BRANCH   3   5
ATOM      5  C   UNL     1      -0.781   2.220  -2.579  1.00  0.00     0.223 C 
BRANCH   5   6
ATOM      6  N   UNL     1      -1.752   1.140  -2.770  1.00  0.00    -0.337 N 
ATOM      7  C   UNL     1      -2.110   0.150  -1.913  1.00  0.00     0.243 C 
ATOM      8  O   UNL     1      -3.298  -0.150  -1.792  1.00  0.00    -0.273 OA
ATOM      9  H   UNL     1      -2.210   1.131  -3.642  1.00  0.00     0.164 HD
BRANCH   7  10
ATOM     10  C   UNL     1      -1.048  -0.535  -1.112  1.00  0.00     0.174 C 
BRANCH  10  11
ATOM     11  C   UNL     1      -0.943   0.109   0.328  1.00  0.00     0.015 C 
ATOM     12  C   UNL     1       0.454   0.471   0.843  1.00  0.00     0.010 C 
ATOM     13  C   UNL     1      -1.889   1.292   0.636  1.00  0.00     0.010 C 
ENDBRANCH  10  11
BRANCH  10  14
ATOM     14  N   UNL     1       0.125  -0.633  -2.001  1.00  0.00    -0.339 N 
ATOM     15  C   UNL     1       0.175  -1.399  -3.187  1.00  0.00     0.268 C 
ATOM     16  H   UNL     1       0.931  -0.128  -1.750  1.00  0.00     0.164 HD
ATOM     17  O   UNL     1       1.063  -2.258  -3.165  1.00  0.00    -0.268 OA
BRANCH  15  18
ATOM     18  C   UNL     1      -0.464  -1.031  -4.482  1.00  0.00     0.107 A 
ATOM     19  C   UNL     1       0.219  -1.132  -5.706  1.00  0.00     0.042 A 
ATOM     20  N   UNL     1      -1.722  -0.599  -4.907  1.00  0.00    -0.340 N 
ATOM     21  C   UNL     1      -0.459  -0.379  -6.707  1.00  0.00     0.002 A 
ATOM     22  C   UNL     1      -1.618   0.096  -6.111  1.00  0.00     0.048 A 
ATOM     23  C   UNL     1      -3.032  -1.048  -4.472  1.00  0.00     0.150 C 
ATOM     24  C   UNL     1      -0.184  -0.020  -8.042  1.00  0.00     0.030 A 
ATOM     25  C   UNL     1      -2.494   0.985  -6.765  1.00  0.00     0.028 A 
ATOM     26  C   UNL     1      -1.047   0.861  -8.703  1.00  0.00     0.041 A 
ATOM     27  C   UNL     1      -2.171   1.381  -8.067  1.00  0.00     0.023 A 
ATOM     28  Cl  UNL     1      -0.723   1.298 -10.339  1.00  0.00    -0.084 Cl
ENDBRANCH  15  18
ENDBRANCH  10  14
ENDBRANCH   7  10
ENDBRANCH   5   6
BRANCH   5  29
ATOM     29  C   UNL     1      -1.730   3.433  -2.627  1.00  0.00    -0.014 A 
ATOM     30  C   UNL     1      -2.584   3.597  -3.744  1.00  0.00     0.006 A 
ATOM     31  C   UNL     1      -2.008   4.179  -1.476  1.00  0.00     0.006 A 
ATOM     32  C   UNL     1      -3.724   4.393  -3.668  1.00  0.00     0.000 A 
ATOM     33  C   UNL     1      -3.133   5.002  -1.411  1.00  0.00     0.000 A 
ATOM     34  C   UNL     1      -4.006   5.083  -2.493  1.00  0.00     0.000 A 
ENDBRANCH   5  29
ENDBRANCH   3   5
ENDBRANCH   2   3
ENDBRANCH   1   2
BRANCH   1  35
ATOM     35  C   UNL     1       2.665   1.679  -6.173  1.00  0.00     0.275 C 
BRANCH  35  36
ATOM     36  O   UNL     1       2.951   3.078  -6.332  1.00  0.00    -0.458 OA
BRANCH  36  37
ATOM     37  C   UNL     1       2.017   3.794  -6.985  1.00  0.00     0.338 C 
ATOM     38  O   UNL     1       1.313   3.424  -7.930  1.00  0.00    -0.246 OA
BRANCH  37  39
ATOM     39  C   UNL     1       1.665   4.863  -6.046  1.00  0.00     0.060 A 
ATOM     40  C   UNL     1       2.625   5.616  -5.351  1.00  0.00     0.016 A 
ATOM     41  C   UNL     1       0.355   4.827  -5.611  1.00  0.00     0.016 A 
ATOM     42  C   UNL     1       2.304   6.193  -4.109  1.00  0.00     0.010 A 
ATOM     43  C   UNL     1       0.072   5.400  -4.387  1.00  0.00     0.010 A 
ATOM     44  C   UNL     1       1.034   6.004  -3.567  1.00  0.00    -0.014 A 
BRANCH  44  45
ATOM     45  C   UNL     1       0.598   6.497  -2.234  1.00  0.00     0.031 A 
ATOM     46  C   UNL     1      -0.340   7.658  -2.313  1.00  0.00     0.074 A 
ATOM     47  C   UNL     1       0.812   5.947  -1.000  1.00  0.00     0.049 A 
ATOM     48  N   UNL     1      -0.105   8.835  -1.829  1.00  0.00    -0.248 NA
ATOM     49  C   UNL     1      -1.628   7.578  -3.023  1.00  0.00     0.031 C 
ATOM     50  C   UNL     1       1.512   4.709  -0.638  1.00  0.00     0.029 A 
ATOM     51  N   UNL     1       0.352   6.361   0.242  1.00  0.00    -0.354 N 
ATOM     52  C   UNL     1      -1.267   9.569  -2.023  1.00  0.00     0.074 A 
ATOM     53  C   UNL     1      -2.141   8.791  -2.844  1.00  0.00     0.031 C 
ATOM     54  C   UNL     1       1.245   4.350   0.643  1.00  0.00     0.029 A 
ATOM     55  C   UNL     1       0.550   5.449   1.289  1.00  0.00     0.049 A 
ATOM     56  H   UNL     1      -0.082   7.234   0.379  1.00  0.00     0.167 HD
ATOM     57  C   UNL     1      -1.519  10.674  -1.284  1.00  0.00     0.037 A 
ATOM     58  C   UNL     1       0.314   5.606   2.621  1.00  0.00     0.037 A 
ATOM     59  C   UNL     1      -0.331  11.165  -0.651  1.00  0.00     0.049 A 
ATOM     60  C   UNL     1       0.434   7.043   2.903  1.00  0.00     0.074 A 
ATOM     61  C   UNL     1       0.785  11.858  -1.065  1.00  0.00     0.029 A 
ATOM     62  N   UNL     1      -0.013  10.539   0.519  1.00  0.00    -0.354 N 
ATOM     63  N   UNL     1       1.569   7.676   2.878  1.00  0.00    -0.248 NA
ATOM     64  C   UNL     1      -0.755   7.864   3.083  1.00  0.00     0.031 C 
ATOM     65  C   UNL     1       1.839  11.500  -0.173  1.00  0.00     0.029 A 
ATOM     66  C   UNL     1       1.334  10.620   0.776  1.00  0.00     0.049 A 
ATOM     67  H   UNL     1      -0.664  10.089   1.104  1.00  0.00     0.167 HD
ATOM     68  C   UNL     1       1.205   8.960   2.570  1.00  0.00     0.074 A 
ATOM     69  C   UNL     1      -0.199   9.069   2.942  1.00  0.00     0.031 C 
ATOM     70  C   UNL     1       1.945   9.681   1.687  1.00  0.00     0.037 A 
BRANCH  57  71
ATOM     71  C   UNL     1      -2.894  11.036  -0.815  1.00  0.00     0.064 A 
ATOM     72  C   UNL     1      -3.158  12.343  -0.381  1.00  0.00     0.173 A 
ATOM     73  C   UNL     1      -3.879  10.066  -0.516  1.00  0.00     0.173 A 
ATOM     74  F   UNL     1      -2.257  13.316  -0.577  1.00  0.00    -0.203 F 
ATOM     75  C   UNL     1      -4.324  12.658   0.320  1.00  0.00     0.198 A 
ATOM     76  C   UNL     1      -5.062  10.393   0.141  1.00  0.00     0.198 A 
ATOM     77  F   UNL     1      -3.678   8.762  -0.757  1.00  0.00    -0.203 F 
ATOM     78  F   UNL     1      -4.500  13.898   0.794  1.00  0.00    -0.200 F 
ATOM     79  C   UNL     1      -5.276  11.684   0.577  1.00  0.00     0.200 A 
ATOM     80  F   UNL     1      -5.958   9.432   0.409  1.00  0.00    -0.200 F 
ATOM     81  F   UNL     1      -6.375  11.979   1.284  1.00  0.00    -0.200 F 
ENDBRANCH  57  71
BRANCH  58  82
ATOM     82  C   UNL     1       0.109   4.704   3.785  1.00  0.00     0.064 A 
ATOM     83  C   UNL     1       0.544   5.049   5.081  1.00  0.00     0.173 A 
ATOM     84  C   UNL     1      -0.850   3.685   3.708  1.00  0.00     0.173 A 
ATOM     85  F   UNL     1       1.434   6.035   5.258  1.00  0.00    -0.203 F 
ATOM     86  C   UNL     1       0.006   4.455   6.227  1.00  0.00     0.198 A 
ATOM     87  C   UNL     1      -1.375   3.073   4.854  1.00  0.00     0.198 A 
ATOM     88  F   UNL     1      -1.383   3.371   2.523  1.00  0.00    -0.203 F 
ATOM     89  F   UNL     1       0.376   4.887   7.441  1.00  0.00    -0.200 F 
ATOM     90  C   UNL     1      -0.964   3.476   6.114  1.00  0.00     0.200 A 
ATOM     91  F   UNL     1      -2.341   2.151   4.734  1.00  0.00    -0.200 F 
ATOM     92  F   UNL     1      -1.538   2.962   7.211  1.00  0.00    -0.200 F 
ENDBRANCH  58  82
BRANCH  70  93
ATOM     93  C   UNL     1       3.395   9.326   1.528  1.00  0.00     0.064 A 
ATOM     94  C   UNL     1       3.881   8.094   1.054  1.00  0.00     0.173 A 
ATOM     95  C   UNL     1       4.345  10.309   1.831  1.00  0.00     0.173 A 
ATOM     96  F   UNL     1       3.049   7.115   0.687  1.00  0.00    -0.203 F 
ATOM     97  C   UNL     1       5.248   7.853   0.919  1.00  0.00     0.198 A 
ATOM     98  C   UNL     1       5.708  10.081   1.659  1.00  0.00     0.198 A 
ATOM     99  F   UNL     1       3.947  11.512   2.273  1.00  0.00    -0.203 F 
ATOM    100  F   UNL     1       5.682   6.660   0.486  1.00  0.00    -0.200 F 
ATOM    101  C   UNL     1       6.160   8.851   1.212  1.00  0.00     0.200 A 
ATOM    102  F   UNL     1       6.583  11.063   1.915  1.00  0.00    -0.200 F 
ATOM    103  F   UNL     1       7.472   8.635   1.048  1.00  0.00    -0.200 F 
ENDBRANCH  70  93
ENDBRANCH  44  45
ENDBRANCH  37  39
ENDBRANCH  36  37
ENDBRANCH  35  36
ENDBRANCH   1  35
TORSDOF 17
