REMARK SMILES Cc1cccc(C[N@H+]2CC[C@@](C)(C(=O)OCCOC(=O)c3ccc(-c4c5nc(c(-c6c(F)c(F)c(F)c(F)c6F)c6ccc([nH]6)c(-c6c(F)c(F)c(F)c(F)c6F)c6nc(c(-c7c(F)c(F)c(F)c(F)c7F)c7ccc4[nH]7)C=C6)C=C5)cc3)C2)n1
REMARK SMILES IDX 16 1 15 2 13 3 14 4 11 5 8 6 9 7 84 8 10 10 12 11 7 12 6 13
REMARK SMILES IDX 1 14 2 15 3 16 85 17 4 18 5 19 17 20 18 21 19 22 20 23 21 24
REMARK SMILES IDX 22 25 83 26 23 27 82 28 24 29 25 30 26 31 76 32 27 33 81 34
REMARK SMILES IDX 75 35 77 36 28 37 80 38 74 39 73 40 29 42 61 43 41 44 60 45
REMARK SMILES IDX 42 46 45 47 59 48 78 49 43 50 44 51 58 53 79 54 46 55 30 56
REMARK SMILES IDX 31 57 39 58 32 59 33 60 37 61 40 62 34 63 35 64 38 65 36 66
REMARK SMILES IDX 62 67 63 68 71 69 64 70 65 71 69 72 72 73 66 74 67 75 70 76
REMARK SMILES IDX 68 77 47 78 48 79 56 80 49 81 50 82 54 83 57 84 51 85 52 86
REMARK SMILES IDX 55 87 53 88
REMARK H PARENT 8 9 77 41 45 52
REMARK Flexibility Score: inf
ROOT
ATOM      1  C   UNL     1       2.316   0.160   2.701  1.00  0.00     0.274 C 
ENDROOT
BRANCH   1   2
ATOM      2  O   UNL     1       1.499   1.273   2.277  1.00  0.00    -0.461 OA
BRANCH   2   3
ATOM      3  C   UNL     1       1.065   2.132   3.232  1.00  0.00     0.317 C 
ATOM      4  O   UNL     1       1.364   2.038   4.420  1.00  0.00    -0.251 OA
BRANCH   3   5
ATOM      5  C   UNL     1       0.130   3.234   2.711  1.00  0.00     0.119 C 
ATOM      6  N   UNL     1      -1.551   2.895   1.039  1.00  0.00    -0.329 N 
ATOM      7  C   UNL     1      -1.972   2.192   2.243  1.00  0.00     0.263 C 
ATOM      8  C   UNL     1      -0.125   3.220   1.193  1.00  0.00     0.281 C 
ATOM      9  H   UNL     1      -2.094   3.754   0.955  1.00  0.00     0.348 HD
ATOM     10  C   UNL     1      -1.258   2.982   3.322  1.00  0.00     0.086 C 
ATOM     11  C   UNL     1       0.672   4.602   3.138  1.00  0.00     0.030 C 
BRANCH   6  12
ATOM     12  C   UNL     1      -1.882   2.223  -0.228  1.00  0.00     0.319 C 
BRANCH  12  13
ATOM     13  C   UNL     1      -1.294   0.836  -0.428  1.00  0.00     0.095 A 
ATOM     14  C   UNL     1       2.040  -0.464  -1.283  1.00  0.00     0.067 C 
ATOM     15  C   UNL     1       0.596  -0.446  -0.885  1.00  0.00     0.038 A 
ATOM     16  C   UNL     1      -0.082  -1.621  -0.589  1.00  0.00     0.023 A 
ATOM     17  N   UNL     1      -0.002   0.764  -0.837  1.00  0.00    -0.252 NA
ATOM     18  C   UNL     1      -1.417  -1.544  -0.204  1.00  0.00     0.004 A 
ATOM     19  C   UNL     1      -2.033  -0.301  -0.116  1.00  0.00     0.030 A 
ENDBRANCH  12  13
ENDBRANCH   6  12
ENDBRANCH   3   5
ENDBRANCH   2   3
ENDBRANCH   1   2
BRANCH   1  20
ATOM     20  C   UNL     1       3.760   0.353   2.249  1.00  0.00     0.275 C 
BRANCH  20  21
ATOM     21  O   UNL     1       4.289   1.523   2.892  1.00  0.00    -0.458 OA
BRANCH  21  22
ATOM     22  C   UNL     1       4.779   2.482   2.079  1.00  0.00     0.338 C 
ATOM     23  O   UNL     1       4.955   2.424   0.869  1.00  0.00    -0.246 OA
BRANCH  22  24
ATOM     24  C   UNL     1       5.076   3.675   2.885  1.00  0.00     0.060 A 
ATOM     25  C   UNL     1       4.104   4.189   3.741  1.00  0.00     0.016 A 
ATOM     26  C   UNL     1       6.292   4.338   2.730  1.00  0.00     0.016 A 
ATOM     27  C   UNL     1       4.305   5.405   4.385  1.00  0.00     0.010 A 
ATOM     28  C   UNL     1       6.536   5.504   3.462  1.00  0.00     0.010 A 
ATOM     29  C   UNL     1       5.536   6.064   4.278  1.00  0.00    -0.014 A 
BRANCH  29  30
ATOM     30  C   UNL     1       5.771   7.342   5.001  1.00  0.00     0.031 A 
ATOM     31  C   UNL     1       6.138   8.582   4.234  1.00  0.00     0.074 A 
ATOM     32  C   UNL     1       5.654   7.396   6.343  1.00  0.00     0.049 A 
ATOM     33  N   UNL     1       6.599   9.725   4.676  1.00  0.00    -0.248 NA
ATOM     34  C   UNL     1       5.981   8.525   2.772  1.00  0.00     0.031 C 
ATOM     35  C   UNL     1       5.252   6.284   7.206  1.00  0.00     0.029 A 
ATOM     36  N   UNL     1       5.857   8.435   7.218  1.00  0.00    -0.354 N 
ATOM     37  C   UNL     1       6.847  10.495   3.548  1.00  0.00     0.074 A 
ATOM     38  C   UNL     1       6.477   9.697   2.399  1.00  0.00     0.031 C 
ATOM     39  C   UNL     1       5.198   6.709   8.477  1.00  0.00     0.029 A 
ATOM     40  C   UNL     1       5.652   8.093   8.533  1.00  0.00     0.049 A 
ATOM     41  H   UNL     1       6.124   9.338   6.931  1.00  0.00     0.167 HD
ATOM     42  C   UNL     1       7.347  11.753   3.482  1.00  0.00     0.037 A 
ATOM     43  C   UNL     1       5.851   8.798   9.662  1.00  0.00     0.037 A 
ATOM     44  C   UNL     1       7.656  12.561   4.633  1.00  0.00     0.049 A 
ATOM     45  C   UNL     1       6.411  10.188   9.562  1.00  0.00     0.074 A 
ATOM     46  C   UNL     1       8.182  13.840   4.677  1.00  0.00     0.029 A 
ATOM     47  N   UNL     1       7.441  12.172   5.947  1.00  0.00    -0.354 N 
ATOM     48  N   UNL     1       6.733  10.875   8.493  1.00  0.00    -0.248 NA
ATOM     49  C   UNL     1       6.662  10.893  10.827  1.00  0.00     0.031 C 
ATOM     50  C   UNL     1       8.301  14.219   6.019  1.00  0.00     0.029 A 
ATOM     51  C   UNL     1       7.819  13.188   6.809  1.00  0.00     0.049 A 
ATOM     52  H   UNL     1       7.073  11.302   6.226  1.00  0.00     0.167 HD
ATOM     53  C   UNL     1       7.218  12.089   8.953  1.00  0.00     0.074 A 
ATOM     54  C   UNL     1       7.126  12.058  10.398  1.00  0.00     0.031 C 
ATOM     55  C   UNL     1       7.709  13.134   8.243  1.00  0.00     0.037 A 
BRANCH  42  56
ATOM     56  C   UNL     1       7.623  12.322   2.123  1.00  0.00     0.064 A 
ATOM     57  C   UNL     1       6.594  12.760   1.278  1.00  0.00     0.173 A 
ATOM     58  C   UNL     1       8.946  12.467   1.676  1.00  0.00     0.173 A 
ATOM     59  F   UNL     1       5.312  12.629   1.653  1.00  0.00    -0.203 F 
ATOM     60  C   UNL     1       6.878  13.307   0.029  1.00  0.00     0.198 A 
ATOM     61  C   UNL     1       9.227  13.036   0.437  1.00  0.00     0.198 A 
ATOM     62  F   UNL     1       9.968  12.066   2.448  1.00  0.00    -0.203 F 
ATOM     63  F   UNL     1       5.877  13.687  -0.778  1.00  0.00    -0.200 F 
ATOM     64  C   UNL     1       8.193  13.451  -0.387  1.00  0.00     0.200 A 
ATOM     65  F   UNL     1      10.499  13.183   0.042  1.00  0.00    -0.200 F 
ATOM     66  F   UNL     1       8.464  13.985  -1.586  1.00  0.00    -0.200 F 
ENDBRANCH  42  56
BRANCH  43  67
ATOM     67  C   UNL     1       5.559   8.183  10.982  1.00  0.00     0.064 A 
ATOM     68  C   UNL     1       4.495   8.642  11.771  1.00  0.00     0.173 A 
ATOM     69  C   UNL     1       6.329   7.120  11.479  1.00  0.00     0.173 A 
ATOM     70  F   UNL     1       3.748   9.674  11.351  1.00  0.00    -0.203 F 
ATOM     71  C   UNL     1       4.218   8.067  13.009  1.00  0.00     0.198 A 
ATOM     72  C   UNL     1       6.032   6.526  12.703  1.00  0.00     0.198 A 
ATOM     73  F   UNL     1       7.359   6.645  10.764  1.00  0.00    -0.203 F 
ATOM     74  F   UNL     1       3.220   8.551  13.762  1.00  0.00    -0.200 F 
ATOM     75  C   UNL     1       4.981   7.004  13.471  1.00  0.00     0.200 A 
ATOM     76  F   UNL     1       6.763   5.491  13.138  1.00  0.00    -0.200 F 
ATOM     77  F   UNL     1       4.707   6.446  14.657  1.00  0.00    -0.200 F 
ENDBRANCH  43  67
BRANCH  55  78
ATOM     78  C   UNL     1       8.155  14.332   9.023  1.00  0.00     0.064 A 
ATOM     79  C   UNL     1       9.364  14.332   9.732  1.00  0.00     0.173 A 
ATOM     80  C   UNL     1       7.375  15.497   9.042  1.00  0.00     0.173 A 
ATOM     81  F   UNL     1      10.133  13.233   9.757  1.00  0.00    -0.203 F 
ATOM     82  C   UNL     1       9.768  15.453  10.453  1.00  0.00     0.198 A 
ATOM     83  C   UNL     1       7.792  16.623   9.746  1.00  0.00     0.198 A 
ATOM     84  F   UNL     1       6.212  15.543   8.376  1.00  0.00    -0.203 F 
ATOM     85  F   UNL     1      10.906  15.420  11.158  1.00  0.00    -0.200 F 
ATOM     86  C   UNL     1       8.984  16.598  10.455  1.00  0.00     0.200 A 
ATOM     87  F   UNL     1       7.038  17.730   9.742  1.00  0.00    -0.200 F 
ATOM     88  F   UNL     1       9.374  17.676  11.149  1.00  0.00    -0.200 F 
ENDBRANCH  55  78
ENDBRANCH  29  30
ENDBRANCH  22  24
ENDBRANCH  21  22
ENDBRANCH  20  21
ENDBRANCH   1  20
TORSDOF 13
