REMARK SMILES Cc1c(C(=O)NC(=S)Nc2ccccc2C(=O)OCCOC(=O)c2ccc(-c3c4nc(c(-c5c(F)c(F)c(F)c(F)c5F)c5ccc([nH]5)c(-c5c(F)c(F)c(F)c(F)c5F)c5nc(c(-c6c(F)c(F)c(F)c(F)c6F)c6ccc3[nH]6)C=C5)C=C4)cc2)cccc1[N+](=O)[O-]
REMARK SMILES IDX 18 1 16 2 17 3 15 4 10 5 11 6 12 7 14 8 13 9 9 10 7 12 8 13
REMARK SMILES IDX 6 14 4 15 5 16 3 18 1 19 2 20 90 21 87 22 89 23 88 24 91 25
REMARK SMILES IDX 92 26 93 27 19 28 20 29 21 30 22 31 23 32 24 33 25 34 86 35
REMARK SMILES IDX 26 36 85 37 27 38 28 39 29 40 79 41 30 42 84 43 78 44 80 45
REMARK SMILES IDX 31 46 83 47 77 48 76 49 32 51 64 52 44 53 63 54 45 55 48 56
REMARK SMILES IDX 62 57 81 58 46 59 47 60 61 62 82 63 49 64 33 65 34 66 42 67
REMARK SMILES IDX 35 68 36 69 40 70 43 71 37 72 38 73 41 74 39 75 65 76 66 77
REMARK SMILES IDX 74 78 67 79 68 80 72 81 75 82 69 83 70 84 73 85 71 86 50 87
REMARK SMILES IDX 51 88 59 89 52 90 53 91 57 92 60 93 54 94 55 95 58 96 56 97
REMARK H PARENT 9 11 6 17 80 50 48 61
REMARK Flexibility Score: inf
ROOT
ATOM      1  O   UNL     1       0.826  -3.134   1.370  1.00  0.00    -0.458 OA
ENDROOT
BRANCH   1   2
ATOM      2  C   UNL     1       0.337  -1.974   1.899  1.00  0.00     0.340 C 
ATOM      3  O   UNL     1      -0.392  -2.041   2.885  1.00  0.00    -0.246 OA
BRANCH   2   4
ATOM      4  C   UNL     1       0.267  -0.669   1.125  1.00  0.00     0.083 A 
ATOM      5  C   UNL     1       1.382   0.399   0.207  1.00  0.00     0.055 A 
ATOM      6  C   UNL     1       0.816   1.443  -1.198  1.00  0.00     0.027 A 
ATOM      7  C   UNL     1      -0.863   0.981  -1.898  1.00  0.00     0.002 A 
ATOM      8  C   UNL     1      -1.312  -0.862   0.758  1.00  0.00     0.018 A 
ATOM      9  C   UNL     1      -1.892  -0.257  -0.658  1.00  0.00     0.001 A 
BRANCH   5  10
ATOM     10  N   UNL     1       2.575  -0.275  -0.207  1.00  0.00    -0.332 N 
ATOM     11  H   UNL     1       3.414   0.220  -0.067  1.00  0.00     0.169 HD
BRANCH  10  12
ATOM     12  C   UNL     1       2.710  -1.532  -0.780  1.00  0.00     0.177 C 
ATOM     13  S   UNL     1       4.237  -1.908  -1.407  1.00  0.00    -0.040 S 
BRANCH  12  14
ATOM     14  N   UNL     1       1.621  -2.451  -1.083  1.00  0.00    -0.299 N 
ATOM     15  C   UNL     1       0.164  -2.671  -1.627  1.00  0.00     0.257 C 
ATOM     16  O   UNL     1      -0.261  -3.819  -1.722  1.00  0.00    -0.269 OA
ATOM     17  H   UNL     1       1.948  -3.344  -0.831  1.00  0.00     0.172 HD
BRANCH  15  18
ATOM     18  C   UNL     1      -0.732  -1.458  -1.994  1.00  0.00     0.049 A 
ATOM     19  C   UNL     1       1.028  -0.267  -2.663  1.00  0.00     0.053 C 
ATOM     20  C   UNL     1      -0.003  -0.394  -1.027  1.00  0.00     0.039 A 
ATOM     21  C   UNL     1      -0.876   1.199  -0.064  1.00  0.00     0.273 A 
ATOM     22  C   UNL     1      -2.239  -0.882  -2.668  1.00  0.00     0.014 A 
ATOM     23  C   UNL     1      -2.490   1.695  -0.804  1.00  0.00     0.086 A 
ATOM     24  C   UNL     1      -3.088   0.650  -2.157  1.00  0.00     0.008 A 
BRANCH  21  25
ATOM     25  N   UNL     1      -0.367   2.450   0.732  1.00  0.00     0.063 N 
ATOM     26  O   UNL     1      -0.897   3.534   0.431  1.00  0.00    -0.258 OA
ATOM     27  O   UNL     1       0.506   2.332   1.601  1.00  0.00    -0.258 OA
ENDBRANCH  21  25
ENDBRANCH  15  18
ENDBRANCH  12  14
ENDBRANCH  10  12
ENDBRANCH   5  10
ENDBRANCH   2   4
ENDBRANCH   1   2
BRANCH   1  28
ATOM     28  C   UNL     1       0.463  -4.322   2.150  1.00  0.00     0.275 C 
BRANCH  28  29
ATOM     29  C   UNL     1       1.508  -5.462   2.144  1.00  0.00     0.275 C 
BRANCH  29  30
ATOM     30  O   UNL     1       2.878  -5.173   2.497  1.00  0.00    -0.458 OA
BRANCH  30  31
ATOM     31  C   UNL     1       3.344  -3.957   2.145  1.00  0.00     0.338 C 
ATOM     32  O   UNL     1       3.820  -3.700   1.060  1.00  0.00    -0.246 OA
BRANCH  31  33
ATOM     33  C   UNL     1       3.006  -2.972   3.194  1.00  0.00     0.060 A 
ATOM     34  C   UNL     1       2.909  -1.612   2.844  1.00  0.00     0.016 A 
ATOM     35  C   UNL     1       2.421  -3.469   4.357  1.00  0.00     0.016 A 
ATOM     36  C   UNL     1       2.201  -0.727   3.638  1.00  0.00     0.010 A 
ATOM     37  C   UNL     1       1.532  -2.673   5.014  1.00  0.00     0.010 A 
ATOM     38  C   UNL     1       1.535  -1.292   4.717  1.00  0.00    -0.014 A 
BRANCH  38  39
ATOM     39  C   UNL     1       1.267  -0.514   5.905  1.00  0.00     0.031 A 
ATOM     40  C   UNL     1      -0.157  -0.011   5.985  1.00  0.00     0.074 A 
ATOM     41  C   UNL     1       2.390  -0.805   6.650  1.00  0.00     0.049 A 
ATOM     42  N   UNL     1      -0.587   1.053   6.580  1.00  0.00    -0.248 NA
ATOM     43  C   UNL     1      -1.301  -0.547   5.204  1.00  0.00     0.031 C 
ATOM     44  C   UNL     1       2.752  -0.996   8.045  1.00  0.00     0.029 A 
ATOM     45  N   UNL     1       3.675  -1.040   6.042  1.00  0.00    -0.354 N 
ATOM     46  C   UNL     1      -1.933   0.776   6.846  1.00  0.00     0.074 A 
ATOM     47  C   UNL     1      -2.385   0.044   5.717  1.00  0.00     0.031 C 
ATOM     48  C   UNL     1       4.093  -0.843   8.187  1.00  0.00     0.029 A 
ATOM     49  C   UNL     1       4.666  -0.550   6.880  1.00  0.00     0.049 A 
ATOM     50  H   UNL     1       3.825  -1.476   5.173  1.00  0.00     0.167 HD
ATOM     51  C   UNL     1      -2.329   0.681   8.153  1.00  0.00     0.037 A 
ATOM     52  C   UNL     1       5.249   0.610   6.458  1.00  0.00     0.037 A 
ATOM     53  C   UNL     1      -1.126   0.830   8.967  1.00  0.00     0.049 A 
ATOM     54  C   UNL     1       4.540   1.727   7.166  1.00  0.00     0.074 A 
ATOM     55  C   UNL     1      -0.306  -0.082   9.604  1.00  0.00     0.029 A 
ATOM     56  N   UNL     1      -0.375   1.978   8.792  1.00  0.00    -0.354 N 
ATOM     57  N   UNL     1       3.265   1.741   7.454  1.00  0.00    -0.248 NA
ATOM     58  C   UNL     1       5.298   2.800   7.778  1.00  0.00     0.031 C 
ATOM     59  C   UNL     1       0.943   0.571   9.830  1.00  0.00     0.029 A 
ATOM     60  C   UNL     1       0.929   1.804   9.196  1.00  0.00     0.049 A 
ATOM     61  H   UNL     1      -0.730   2.819   8.422  1.00  0.00     0.167 HD
ATOM     62  C   UNL     1       3.047   2.701   8.399  1.00  0.00     0.074 A 
ATOM     63  C   UNL     1       4.351   3.332   8.562  1.00  0.00     0.031 C 
ATOM     64  C   UNL     1       1.857   2.915   9.040  1.00  0.00     0.037 A 
BRANCH  51  65
ATOM     65  C   UNL     1      -3.637   0.194   8.749  1.00  0.00     0.064 A 
ATOM     66  C   UNL     1      -3.730   0.041  10.156  1.00  0.00     0.173 A 
ATOM     67  C   UNL     1      -4.837  -0.065   8.056  1.00  0.00     0.173 A 
ATOM     68  F   UNL     1      -2.690   0.304  10.958  1.00  0.00    -0.203 F 
ATOM     69  C   UNL     1      -4.898  -0.357  10.808  1.00  0.00     0.198 A 
ATOM     70  C   UNL     1      -6.015  -0.465   8.716  1.00  0.00     0.198 A 
ATOM     71  F   UNL     1      -4.931   0.089   6.729  1.00  0.00    -0.203 F 
ATOM     72  F   UNL     1      -4.902  -0.477  12.144  1.00  0.00    -0.200 F 
ATOM     73  C   UNL     1      -6.044  -0.610  10.090  1.00  0.00     0.200 A 
ATOM     74  F   UNL     1      -7.133  -0.694   8.010  1.00  0.00    -0.200 F 
ATOM     75  F   UNL     1      -7.170  -0.971  10.719  1.00  0.00    -0.200 F 
ENDBRANCH  51  65
BRANCH  52  76
ATOM     76  C   UNL     1       5.600   0.574   4.998  1.00  0.00     0.064 A 
ATOM     77  C   UNL     1       6.376  -0.524   4.551  1.00  0.00     0.173 A 
ATOM     78  C   UNL     1       4.935   1.328   4.023  1.00  0.00     0.173 A 
ATOM     79  F   UNL     1       7.061  -1.270   5.434  1.00  0.00    -0.203 F 
ATOM     80  C   UNL     1       6.336  -0.955   3.231  1.00  0.00     0.198 A 
ATOM     81  C   UNL     1       4.955   0.932   2.683  1.00  0.00     0.198 A 
ATOM     82  F   UNL     1       4.159   2.363   4.369  1.00  0.00    -0.203 F 
ATOM     83  F   UNL     1       6.859  -2.143   2.895  1.00  0.00    -0.200 F 
ATOM     84  C   UNL     1       5.630  -0.221   2.302  1.00  0.00     0.200 A 
ATOM     85  F   UNL     1       4.176   1.554   1.784  1.00  0.00    -0.200 F 
ATOM     86  F   UNL     1       5.474  -0.698   1.064  1.00  0.00    -0.200 F 
ENDBRANCH  52  76
BRANCH  64  87
ATOM     87  C   UNL     1       1.489   4.249   9.645  1.00  0.00     0.064 A 
ATOM     88  C   UNL     1       2.199   5.430   9.392  1.00  0.00     0.173 A 
ATOM     89  C   UNL     1       0.310   4.419  10.415  1.00  0.00     0.173 A 
ATOM     90  F   UNL     1       3.162   5.501   8.464  1.00  0.00    -0.203 F 
ATOM     91  C   UNL     1       1.900   6.622  10.039  1.00  0.00     0.198 A 
ATOM     92  C   UNL     1      -0.074   5.648  10.928  1.00  0.00     0.198 A 
ATOM     93  F   UNL     1      -0.538   3.419  10.687  1.00  0.00    -0.203 F 
ATOM     94  F   UNL     1       2.723   7.668   9.896  1.00  0.00    -0.200 F 
ATOM     95  C   UNL     1       0.757   6.734  10.800  1.00  0.00     0.200 A 
ATOM     96  F   UNL     1      -1.256   5.763  11.548  1.00  0.00    -0.200 F 
ATOM     97  F   UNL     1       0.444   7.895  11.384  1.00  0.00    -0.200 F 
ENDBRANCH  64  87
ENDBRANCH  38  39
ENDBRANCH  31  33
ENDBRANCH  30  31
ENDBRANCH  29  30
ENDBRANCH  28  29
ENDBRANCH   1  28
TORSDOF 16
