REMARK SMILES CCOc1ccccc1NC(=O)[C@H]1[C@@H]2C=C[C@@H]([C@@H]3C[C@H]23)[C@@H]1C(=O)OCCOC(=O)c1ccc(-c2c3nc(c(-c4c(F)c(F)c(F)c(F)c4F)c4ccc([nH]4)c(-c4c(F)c(F)c(F)c(F)c4F)c4nc(c(-c5c(F)c(F)c(F)c(F)c5F)c5ccc2[nH]5)C=C4)C=C3)cc1
REMARK SMILES IDX 25 1 24 2 22 3 23 4 21 5 13 6 14 7 15 8 20 9 17 10 16 11
REMARK SMILES IDX 18 12 19 13 11 14 10 15 12 17 9 18 4 19 5 20 6 21 8 22 7 23
REMARK SMILES IDX 3 24 2 25 1 26 26 27 27 28 28 29 29 30 30 31 31 32 92 33
REMARK SMILES IDX 32 34 91 35 33 36 34 37 35 38 85 39 36 40 90 41 84 42 86 43
REMARK SMILES IDX 37 44 89 45 83 46 82 47 38 49 70 50 50 51 69 52 51 53 54 54
REMARK SMILES IDX 68 55 87 56 52 57 53 58 67 60 88 61 55 62 39 63 40 64 48 65
REMARK SMILES IDX 41 66 42 67 46 68 49 69 43 70 44 71 47 72 45 73 71 74 72 75
REMARK SMILES IDX 80 76 73 77 74 78 78 79 81 80 75 81 76 82 79 83 77 84 56 85
REMARK SMILES IDX 57 86 65 87 58 88 59 89 63 90 66 91 60 92 61 93 64 94 62 95
REMARK H PARENT 10 16 86 48 54 59
REMARK Flexibility Score: inf
ROOT
ATOM      1  C   UNL     1       6.601  -4.428   3.008  1.00  0.00     0.274 C 
ENDROOT
BRANCH   1   2
ATOM      2  O   UNL     1       5.774  -3.247   2.905  1.00  0.00    -0.462 OA
BRANCH   2   3
ATOM      3  C   UNL     1       6.389  -2.059   3.177  1.00  0.00     0.310 C 
ATOM      4  O   UNL     1       7.565  -1.952   3.499  1.00  0.00    -0.252 OA
BRANCH   3   5
ATOM      5  C   UNL     1       5.406  -0.897   3.073  1.00  0.00     0.119 C 
ATOM      6  C   UNL     1       4.806  -0.781   1.617  1.00  0.00     0.101 C 
ATOM      7  C   UNL     1       5.079   0.669   1.092  1.00  0.00     0.028 C 
ATOM      8  C   UNL     1       6.604   0.874   1.143  1.00  0.00    -0.026 C 
ATOM      9  C   UNL     1       4.500   1.743   2.026  1.00  0.00     0.001 C 
ATOM     10  C   UNL     1       6.114   0.442   3.456  1.00  0.00     0.030 C 
ATOM     11  C   UNL     1       7.143   0.736   2.367  1.00  0.00    -0.026 C 
ATOM     12  C   UNL     1       5.124   1.621   3.418  1.00  0.00     0.001 C 
ATOM     13  C   UNL     1       3.632   1.559   3.246  1.00  0.00     0.009 C 
BRANCH   6  14
ATOM     14  C   UNL     1       3.325  -1.173   1.581  1.00  0.00     0.229 C 
ATOM     15  N   UNL     1       2.577  -1.192   0.448  1.00  0.00    -0.323 N 
ATOM     16  H   UNL     1       1.625  -1.024   0.634  1.00  0.00     0.170 HD
ATOM     17  O   UNL     1       2.717  -1.462   2.619  1.00  0.00    -0.274 OA
BRANCH  15  18
ATOM     18  C   UNL     1       2.816  -1.390  -0.920  1.00  0.00     0.083 A 
ATOM     19  C   UNL     1       1.736  -1.162  -1.795  1.00  0.00     0.142 A 
ATOM     20  C   UNL     1       1.816  -1.455  -3.157  1.00  0.00     0.048 A 
ATOM     21  C   UNL     1       2.986  -2.009  -3.663  1.00  0.00     0.004 A 
ATOM     22  C   UNL     1       3.974  -1.949  -1.441  1.00  0.00     0.030 A 
ATOM     23  C   UNL     1       4.051  -2.271  -2.802  1.00  0.00     0.002 A 
BRANCH  19  24
ATOM     24  O   UNL     1       0.526  -0.780  -1.270  1.00  0.00    -0.492 OA
BRANCH  24  25
ATOM     25  C   UNL     1       0.277   0.618  -1.447  1.00  0.00     0.226 C 
ATOM     26  C   UNL     1       0.156   1.253  -0.073  1.00  0.00     0.049 C 
ENDBRANCH  24  25
ENDBRANCH  19  24
ENDBRANCH  15  18
ENDBRANCH   6  14
ENDBRANCH   3   5
ENDBRANCH   2   3
ENDBRANCH   1   2
BRANCH   1  27
ATOM     27  C   UNL     1       6.761  -5.077   1.635  1.00  0.00     0.275 C 
BRANCH  27  28
ATOM     28  O   UNL     1       7.347  -4.123   0.734  1.00  0.00    -0.458 OA
BRANCH  28  29
ATOM     29  C   UNL     1       7.298  -4.463  -0.577  1.00  0.00     0.338 C 
ATOM     30  O   UNL     1       6.941  -5.534  -1.036  1.00  0.00    -0.246 OA
BRANCH  29  31
ATOM     31  C   UNL     1       7.649  -3.287  -1.418  1.00  0.00     0.060 A 
ATOM     32  C   UNL     1       7.490  -1.996  -0.922  1.00  0.00     0.016 A 
ATOM     33  C   UNL     1       8.000  -3.459  -2.761  1.00  0.00     0.016 A 
ATOM     34  C   UNL     1       7.546  -0.906  -1.787  1.00  0.00     0.010 A 
ATOM     35  C   UNL     1       8.184  -2.343  -3.596  1.00  0.00     0.010 A 
ATOM     36  C   UNL     1       7.921  -1.048  -3.126  1.00  0.00    -0.014 A 
BRANCH  36  37
ATOM     37  C   UNL     1       7.981   0.168  -3.994  1.00  0.00     0.031 A 
ATOM     38  C   UNL     1       7.090   0.298  -5.202  1.00  0.00     0.074 A 
ATOM     39  C   UNL     1       8.753   1.220  -3.645  1.00  0.00     0.049 A 
ATOM     40  N   UNL     1       7.022   1.260  -6.090  1.00  0.00    -0.248 NA
ATOM     41  C   UNL     1       6.121  -0.783  -5.430  1.00  0.00     0.031 C 
ATOM     42  C   UNL     1       9.586   1.304  -2.444  1.00  0.00     0.029 A 
ATOM     43  N   UNL     1       8.947   2.435  -4.261  1.00  0.00    -0.354 N 
ATOM     44  C   UNL     1       6.005   0.902  -6.966  1.00  0.00     0.074 A 
ATOM     45  C   UNL     1       5.483  -0.367  -6.513  1.00  0.00     0.031 C 
ATOM     46  C   UNL     1      10.169   2.510  -2.392  1.00  0.00     0.029 A 
ATOM     47  C   UNL     1       9.843   3.247  -3.608  1.00  0.00     0.049 A 
ATOM     48  H   UNL     1       8.487   2.697  -5.091  1.00  0.00     0.167 HD
ATOM     49  C   UNL     1       5.554   1.559  -8.060  1.00  0.00     0.037 A 
ATOM     50  C   UNL     1      10.397   4.420  -3.972  1.00  0.00     0.037 A 
ATOM     51  C   UNL     1       6.105   2.788  -8.559  1.00  0.00     0.049 A 
ATOM     52  C   UNL     1      10.035   5.021  -5.302  1.00  0.00     0.074 A 
ATOM     53  C   UNL     1       5.775   3.479  -9.713  1.00  0.00     0.029 A 
ATOM     54  N   UNL     1       7.119   3.502  -7.941  1.00  0.00    -0.354 N 
ATOM     55  N   UNL     1       9.123   4.641  -6.161  1.00  0.00    -0.248 NA
ATOM     56  C   UNL     1      10.811   6.194  -5.731  1.00  0.00     0.031 C 
ATOM     57  C   UNL     1       6.631   4.580  -9.822  1.00  0.00     0.029 A 
ATOM     58  C   UNL     1       7.460   4.600  -8.712  1.00  0.00     0.049 A 
ATOM     59  H   UNL     1       7.535   3.263  -7.082  1.00  0.00     0.167 HD
ATOM     60  C   UNL     1       9.211   5.525  -7.227  1.00  0.00     0.074 A 
ATOM     61  C   UNL     1      10.251   6.477  -6.898  1.00  0.00     0.031 C 
ATOM     62  C   UNL     1       8.499   5.538  -8.380  1.00  0.00     0.037 A 
BRANCH  49  63
ATOM     63  C   UNL     1       4.451   0.913  -8.840  1.00  0.00     0.064 A 
ATOM     64  C   UNL     1       3.115   0.979  -8.419  1.00  0.00     0.173 A 
ATOM     65  C   UNL     1       4.735   0.237 -10.036  1.00  0.00     0.173 A 
ATOM     66  F   UNL     1       2.799   1.595  -7.270  1.00  0.00    -0.203 F 
ATOM     67  C   UNL     1       2.103   0.383  -9.166  1.00  0.00     0.198 A 
ATOM     68  C   UNL     1       3.719  -0.344 -10.788  1.00  0.00     0.198 A 
ATOM     69  F   UNL     1       6.000   0.141 -10.472  1.00  0.00    -0.203 F 
ATOM     70  F   UNL     1       0.835   0.430  -8.733  1.00  0.00    -0.200 F 
ATOM     71  C   UNL     1       2.404  -0.273 -10.352  1.00  0.00     0.200 A 
ATOM     72  F   UNL     1       4.012  -0.978 -11.931  1.00  0.00    -0.200 F 
ATOM     73  F   UNL     1       1.428  -0.847 -11.069  1.00  0.00    -0.200 F 
ENDBRANCH  49  63
BRANCH  50  74
ATOM     74  C   UNL     1      11.434   5.052  -3.112  1.00  0.00     0.064 A 
ATOM     75  C   UNL     1      11.218   6.295  -2.503  1.00  0.00     0.173 A 
ATOM     76  C   UNL     1      12.675   4.429  -2.901  1.00  0.00     0.173 A 
ATOM     77  F   UNL     1      10.065   6.948  -2.703  1.00  0.00    -0.203 F 
ATOM     78  C   UNL     1      12.205   6.891  -1.719  1.00  0.00     0.198 A 
ATOM     79  C   UNL     1      13.646   5.010  -2.090  1.00  0.00     0.198 A 
ATOM     80  F   UNL     1      12.940   3.246  -3.475  1.00  0.00    -0.203 F 
ATOM     81  F   UNL     1      11.992   8.101  -1.183  1.00  0.00    -0.200 F 
ATOM     82  C   UNL     1      13.414   6.244  -1.505  1.00  0.00     0.200 A 
ATOM     83  F   UNL     1      14.807   4.374  -1.880  1.00  0.00    -0.200 F 
ATOM     84  F   UNL     1      14.358   6.814  -0.745  1.00  0.00    -0.200 F 
ENDBRANCH  50  74
BRANCH  62  85
ATOM     85  C   UNL     1       8.812   6.619  -9.370  1.00  0.00     0.064 A 
ATOM     86  C   UNL     1       9.980   6.581 -10.146  1.00  0.00     0.173 A 
ATOM     87  C   UNL     1       7.917   7.678  -9.576  1.00  0.00     0.173 A 
ATOM     88  F   UNL     1      10.873   5.596  -9.973  1.00  0.00    -0.203 F 
ATOM     89  C   UNL     1      10.248   7.576 -11.081  1.00  0.00     0.198 A 
ATOM     90  C   UNL     1       8.176   8.658 -10.529  1.00  0.00     0.198 A 
ATOM     91  F   UNL     1       6.784   7.755  -8.862  1.00  0.00    -0.203 F 
ATOM     92  F   UNL     1      11.387   7.542 -11.786  1.00  0.00    -0.200 F 
ATOM     93  C   UNL     1       9.343   8.610 -11.277  1.00  0.00     0.200 A 
ATOM     94  F   UNL     1       7.296   9.650 -10.725  1.00  0.00    -0.200 F 
ATOM     95  F   UNL     1       9.600   9.563 -12.183  1.00  0.00    -0.200 F 
ENDBRANCH  62  85
ENDBRANCH  36  37
ENDBRANCH  29  31
ENDBRANCH  28  29
ENDBRANCH  27  28
ENDBRANCH   1  27
TORSDOF 15
