REMARK SMILES CC[C@@H]1SC[C@@H](C(=O)OCCOC(=O)c2ccc(-c3c4nc(c(-c5c(F)c(F)c(F)c(F)c5F)c5ccc([nH]5)c(-c5c(F)c(F)c(F)c(F)c5F)c5nc(c(-c6c(F)c(F)c(F)c(F)c6F)c6ccc3[nH]6)C=C5)C=C4)cc2)N1C(=O)c1nc(C(C)(C)C)n[nH]1
REMARK SMILES IDX 10 1 9 2 7 3 8 4 6 5 3 6 4 7 78 8 5 9 2 10 1 11 79 12 80 13
REMARK SMILES IDX 81 14 82 15 89 16 83 17 88 18 84 20 85 21 86 22 87 23 11 24
REMARK SMILES IDX 12 25 13 26 14 27 15 28 16 29 77 30 17 31 76 32 18 33 19 34
REMARK SMILES IDX 20 35 70 36 21 37 75 38 69 39 71 40 22 41 74 42 68 43 67 44
REMARK SMILES IDX 23 46 55 47 35 48 54 49 36 50 39 51 53 52 72 53 37 54 38 55
REMARK SMILES IDX 52 57 73 58 40 59 24 60 25 61 33 62 26 63 27 64 31 65 34 66
REMARK SMILES IDX 28 67 29 68 32 69 30 70 56 71 57 72 65 73 58 74 59 75 63 76
REMARK SMILES IDX 66 77 60 78 61 79 64 80 62 81 41 82 42 83 50 84 43 85 44 86
REMARK SMILES IDX 48 87 51 88 45 89 46 90 49 91 47 92
REMARK H PARENT 89 19 71 45 39 56
REMARK Flexibility Score: inf
ROOT
ATOM      1  C   UNL     1       2.469   1.585   3.170  1.00  0.00     0.274 C 
ENDROOT
BRANCH   1   2
ATOM      2  O   UNL     1       2.244   1.968   1.798  1.00  0.00    -0.461 OA
BRANCH   2   3
ATOM      3  C   UNL     1       2.402   3.289   1.518  1.00  0.00     0.329 C 
ATOM      4  O   UNL     1       2.718   4.142   2.342  1.00  0.00    -0.250 OA
BRANCH   3   5
ATOM      5  C   UNL     1       2.060   3.655   0.065  1.00  0.00     0.206 C 
ATOM      6  C   UNL     1       0.562   1.961  -0.879  1.00  0.00     0.144 C 
ATOM      7  S   UNL     1      -0.542   3.323  -0.299  1.00  0.00    -0.134 SA
ATOM      8  N   UNL     1       1.903   2.547  -0.893  1.00  0.00    -0.309 N 
ATOM      9  C   UNL     1       0.790   4.487   0.067  1.00  0.00     0.109 C 
BRANCH   6  10
ATOM     10  C   UNL     1      -0.015   1.416  -2.195  1.00  0.00     0.033 C 
ATOM     11  C   UNL     1      -0.179  -0.100  -2.122  1.00  0.00     0.007 C 
ENDBRANCH   6  10
BRANCH   8  12
ATOM     12  C   UNL     1       3.063   2.112  -1.544  1.00  0.00     0.292 C 
ATOM     13  O   UNL     1       4.096   2.775  -1.430  1.00  0.00    -0.265 OA
BRANCH  12  14
ATOM     14  C   UNL     1       3.031   1.016  -2.480  1.00  0.00     0.214 A 
ATOM     15  N   UNL     1       3.097  -0.278  -2.222  1.00  0.00    -0.207 NA
ATOM     16  N   UNL     1       3.174   1.197  -3.824  1.00  0.00    -0.255 N 
ATOM     17  C   UNL     1       3.288  -0.847  -3.466  1.00  0.00     0.156 A 
ATOM     18  N   UNL     1       3.284   0.034  -4.477  1.00  0.00    -0.158 NA
ATOM     19  H   UNL     1       3.194   2.078  -4.262  1.00  0.00     0.192 HD
BRANCH  17  20
ATOM     20  C   UNL     1       3.609  -2.310  -3.679  1.00  0.00     0.024 C 
ATOM     21  C   UNL     1       5.140  -2.493  -3.722  1.00  0.00     0.019 C 
ATOM     22  C   UNL     1       3.042  -3.180  -2.542  1.00  0.00     0.019 C 
ATOM     23  C   UNL     1       3.020  -2.825  -5.010  1.00  0.00     0.019 C 
ENDBRANCH  17  20
ENDBRANCH  12  14
ENDBRANCH   8  12
ENDBRANCH   3   5
ENDBRANCH   2   3
ENDBRANCH   1   2
BRANCH   1  24
ATOM     24  C   UNL     1       3.832   0.920   3.349  1.00  0.00     0.275 C 
BRANCH  24  25
ATOM     25  O   UNL     1       4.890   1.817   2.971  1.00  0.00    -0.458 OA
BRANCH  25  26
ATOM     26  C   UNL     1       5.412   1.589   1.743  1.00  0.00     0.338 C 
ATOM     27  O   UNL     1       5.119   0.703   0.963  1.00  0.00    -0.246 OA
BRANCH  26  28
ATOM     28  C   UNL     1       6.411   2.622   1.446  1.00  0.00     0.060 A 
ATOM     29  C   UNL     1       6.005   3.798   0.814  1.00  0.00     0.016 A 
ATOM     30  C   UNL     1       7.762   2.371   1.677  1.00  0.00     0.016 A 
ATOM     31  C   UNL     1       6.952   4.708   0.357  1.00  0.00     0.010 A 
ATOM     32  C   UNL     1       8.711   3.307   1.260  1.00  0.00     0.010 A 
ATOM     33  C   UNL     1       8.314   4.468   0.572  1.00  0.00    -0.014 A 
BRANCH  33  34
ATOM     34  C   UNL     1       9.330   5.400   0.026  1.00  0.00     0.031 A 
ATOM     35  C   UNL     1      10.219   4.952  -1.099  1.00  0.00     0.074 A 
ATOM     36  C   UNL     1       9.447   6.643   0.527  1.00  0.00     0.049 A 
ATOM     37  N   UNL     1      11.276   5.537  -1.604  1.00  0.00    -0.248 NA
ATOM     38  C   UNL     1       9.874   3.674  -1.742  1.00  0.00     0.031 C 
ATOM     39  C   UNL     1       8.598   7.217   1.571  1.00  0.00     0.029 A 
ATOM     40  N   UNL     1      10.335   7.646   0.228  1.00  0.00    -0.354 N 
ATOM     41  C   UNL     1      11.735   4.689  -2.603  1.00  0.00     0.074 A 
ATOM     42  C   UNL     1      10.852   3.542  -2.627  1.00  0.00     0.031 C 
ATOM     43  C   UNL     1       9.009   8.469   1.830  1.00  0.00     0.029 A 
ATOM     44  C   UNL     1      10.185   8.761   1.016  1.00  0.00     0.049 A 
ATOM     45  H   UNL     1      11.013   7.574  -0.482  1.00  0.00     0.167 HD
ATOM     46  C   UNL     1      12.798   4.858  -3.426  1.00  0.00     0.037 A 
ATOM     47  C   UNL     1      10.939   9.873   1.102  1.00  0.00     0.037 A 
ATOM     48  C   UNL     1      13.661   6.009  -3.408  1.00  0.00     0.049 A 
ATOM     49  C   UNL     1      12.154  10.003   0.223  1.00  0.00     0.074 A 
ATOM     50  C   UNL     1      14.787   6.259  -4.174  1.00  0.00     0.029 A 
ATOM     51  N   UNL     1      13.483   7.113  -2.587  1.00  0.00    -0.354 N 
ATOM     52  N   UNL     1      12.616   9.174  -0.680  1.00  0.00    -0.248 NA
ATOM     53  C   UNL     1      12.959  11.223   0.384  1.00  0.00     0.031 C 
ATOM     54  C   UNL     1      15.303   7.505  -3.801  1.00  0.00     0.029 A 
ATOM     55  C   UNL     1      14.477   8.046  -2.829  1.00  0.00     0.049 A 
ATOM     56  H   UNL     1      12.758   7.217  -1.930  1.00  0.00     0.167 HD
ATOM     57  C   UNL     1      13.745   9.779  -1.212  1.00  0.00     0.074 A 
ATOM     58  C   UNL     1      13.893  11.053  -0.541  1.00  0.00     0.031 C 
ATOM     59  C   UNL     1      14.589   9.319  -2.167  1.00  0.00     0.037 A 
BRANCH  46  60
ATOM     60  C   UNL     1      13.100   3.765  -4.406  1.00  0.00     0.064 A 
ATOM     61  C   UNL     1      12.320   3.574  -5.555  1.00  0.00     0.173 A 
ATOM     62  C   UNL     1      14.216   2.934  -4.223  1.00  0.00     0.173 A 
ATOM     63  F   UNL     1      11.236   4.335  -5.769  1.00  0.00    -0.203 F 
ATOM     64  C   UNL     1      12.640   2.584  -6.481  1.00  0.00     0.198 A 
ATOM     65  C   UNL     1      14.546   1.960  -5.161  1.00  0.00     0.198 A 
ATOM     66  F   UNL     1      14.997   3.080  -3.141  1.00  0.00    -0.203 F 
ATOM     67  F   UNL     1      11.865   2.400  -7.558  1.00  0.00    -0.200 F 
ATOM     68  C   UNL     1      13.757   1.784  -6.287  1.00  0.00     0.200 A 
ATOM     69  F   UNL     1      15.633   1.197  -4.979  1.00  0.00    -0.200 F 
ATOM     70  F   UNL     1      14.071   0.840  -7.186  1.00  0.00    -0.200 F 
ENDBRANCH  46  60
BRANCH  47  71
ATOM     71  C   UNL     1      10.597  10.934   2.084  1.00  0.00     0.064 A 
ATOM     72  C   UNL     1      10.165  12.198   1.661  1.00  0.00     0.173 A 
ATOM     73  C   UNL     1      10.726  10.715   3.464  1.00  0.00     0.173 A 
ATOM     74  F   UNL     1      10.052  12.463   0.351  1.00  0.00    -0.203 F 
ATOM     75  C   UNL     1       9.898  13.211   2.580  1.00  0.00     0.198 A 
ATOM     76  C   UNL     1      10.429  11.719   4.383  1.00  0.00     0.198 A 
ATOM     77  F   UNL     1      11.137   9.524   3.921  1.00  0.00    -0.203 F 
ATOM     78  F   UNL     1       9.540  14.427   2.147  1.00  0.00    -0.200 F 
ATOM     79  C   UNL     1      10.026  12.969   3.940  1.00  0.00     0.200 A 
ATOM     80  F   UNL     1      10.543  11.478   5.696  1.00  0.00    -0.200 F 
ATOM     81  F   UNL     1       9.772  13.945   4.822  1.00  0.00    -0.200 F 
ENDBRANCH  47  71
BRANCH  59  82
ATOM     82  C   UNL     1      15.713  10.222  -2.580  1.00  0.00     0.064 A 
ATOM     83  C   UNL     1      16.834  10.421  -1.762  1.00  0.00     0.173 A 
ATOM     84  C   UNL     1      15.681  10.866  -3.825  1.00  0.00     0.173 A 
ATOM     85  F   UNL     1      16.901   9.839  -0.555  1.00  0.00    -0.203 F 
ATOM     86  C   UNL     1      17.874  11.252  -2.168  1.00  0.00     0.198 A 
ATOM     87  C   UNL     1      16.734  11.676  -4.238  1.00  0.00     0.198 A 
ATOM     88  F   UNL     1      14.631  10.703  -4.645  1.00  0.00    -0.203 F 
ATOM     89  F   UNL     1      18.918  11.462  -1.353  1.00  0.00    -0.200 F 
ATOM     90  C   UNL     1      17.827  11.873  -3.407  1.00  0.00     0.200 A 
ATOM     91  F   UNL     1      16.691  12.269  -5.440  1.00  0.00    -0.200 F 
ATOM     92  F   UNL     1      18.832  12.669  -3.798  1.00  0.00    -0.200 F 
ENDBRANCH  59  82
ENDBRANCH  33  34
ENDBRANCH  26  28
ENDBRANCH  25  26
ENDBRANCH  24  25
ENDBRANCH   1  24
TORSDOF 15
