REMARK SMILES CCCN(CC)S(=O)(=O)c1ccc(C(=O)OCCOC(=O)c2ccc(-c3c4nc(c(-c5c(F)c(F)c(F)c(F)c5F)c5ccc([nH]5)c(-c5c(F)c(F)c(F)c(F)c5F)c5nc(c(-c6c(F)c(F)c(F)c(F)c6F)c6ccc3[nH]6)C=C5)C=C4)cc2)o1
REMARK SMILES IDX 17 1 16 2 14 3 15 4 13 5 10 6 11 7 85 8 12 9 7 10 8 11 9 12
REMARK SMILES IDX 4 13 3 14 2 15 1 16 5 17 6 18 18 19 19 20 20 21 21 22 22 23
REMARK SMILES IDX 23 24 84 25 24 26 83 27 25 28 26 29 27 30 77 31 28 32 82 33
REMARK SMILES IDX 76 34 78 35 29 36 81 37 75 38 74 39 30 41 62 42 42 43 61 44
REMARK SMILES IDX 43 45 46 46 60 47 79 48 44 49 45 50 59 52 80 53 47 54 31 55
REMARK SMILES IDX 32 56 40 57 33 58 34 59 38 60 41 61 35 62 36 63 39 64 37 65
REMARK SMILES IDX 63 66 64 67 72 68 65 69 66 70 70 71 73 72 67 73 68 74 71 75
REMARK SMILES IDX 69 76 48 77 49 78 57 79 50 80 51 81 55 82 58 83 52 84 53 85
REMARK SMILES IDX 56 86 54 87
REMARK H PARENT 78 40 46 51
REMARK Flexibility Score: inf
ROOT
ATOM      1  C   UNL     1      -0.287   5.824  -7.916  1.00  0.00     0.275 C 
ENDROOT
BRANCH   1   2
ATOM      2  O   UNL     1      -0.312   4.604  -7.148  1.00  0.00    -0.456 OA
BRANCH   2   3
ATOM      3  C   UNL     1       0.650   4.460  -6.189  1.00  0.00     0.374 C 
ATOM      4  O   UNL     1       1.558   5.260  -5.993  1.00  0.00    -0.242 OA
BRANCH   3   5
ATOM      5  C   UNL     1       0.391   3.271  -5.403  1.00  0.00     0.213 A 
ATOM      6  C   UNL     1       0.639   1.910  -3.635  1.00  0.00     0.234 A 
ATOM      7  C   UNL     1      -0.316   1.355  -4.480  1.00  0.00     0.065 A 
ATOM      8  O   UNL     1       1.070   3.091  -4.219  1.00  0.00    -0.436 OA
ATOM      9  C   UNL     1      -0.472   2.211  -5.592  1.00  0.00     0.060 A 
BRANCH   6  10
ATOM     10  S   UNL     1       1.321   1.260  -2.084  1.00  0.00     0.276 S 
ATOM     11  O   UNL     1       2.756   1.329  -2.248  1.00  0.00    -0.204 OA
ATOM     12  O   UNL     1       0.650  -0.014  -1.944  1.00  0.00    -0.204 OA
BRANCH  10  13
ATOM     13  N   UNL     1       0.870   2.253  -0.761  1.00  0.00    -0.195 NA
BRANCH  13  14
ATOM     14  C   UNL     1       1.235   1.739   0.599  1.00  0.00     0.102 C 
BRANCH  14  15
ATOM     15  C   UNL     1       0.282   0.679   1.142  1.00  0.00     0.013 C 
ATOM     16  C   UNL     1       0.757  -0.750   0.911  1.00  0.00     0.005 C 
ENDBRANCH  14  15
ENDBRANCH  13  14
BRANCH  13  17
ATOM     17  C   UNL     1       1.212   3.697  -0.889  1.00  0.00     0.099 C 
ATOM     18  C   UNL     1       2.694   4.006  -0.713  1.00  0.00     0.022 C 
ENDBRANCH  13  17
ENDBRANCH  10  13
ENDBRANCH   6  10
ENDBRANCH   3   5
ENDBRANCH   2   3
ENDBRANCH   1   2
BRANCH   1  19
ATOM     19  C   UNL     1      -1.339   6.816  -7.409  1.00  0.00     0.275 C 
BRANCH  19  20
ATOM     20  O   UNL     1      -0.944   7.384  -6.145  1.00  0.00    -0.458 OA
BRANCH  20  21
ATOM     21  C   UNL     1      -1.531   6.841  -5.056  1.00  0.00     0.338 C 
ATOM     22  O   UNL     1      -2.374   5.961  -5.025  1.00  0.00    -0.246 OA
BRANCH  21  23
ATOM     23  C   UNL     1      -0.885   7.359  -3.842  1.00  0.00     0.060 A 
ATOM     24  C   UNL     1       0.124   6.587  -3.285  1.00  0.00     0.016 A 
ATOM     25  C   UNL     1      -1.337   8.501  -3.179  1.00  0.00     0.016 A 
ATOM     26  C   UNL     1       0.644   6.921  -2.044  1.00  0.00     0.010 A 
ATOM     27  C   UNL     1      -0.787   8.843  -1.929  1.00  0.00     0.010 A 
ATOM     28  C   UNL     1       0.182   8.027  -1.323  1.00  0.00    -0.014 A 
BRANCH  28  29
ATOM     29  C   UNL     1       0.644   8.196   0.090  1.00  0.00     0.031 A 
ATOM     30  C   UNL     1      -0.349   8.121   1.225  1.00  0.00     0.074 A 
ATOM     31  C   UNL     1       1.959   8.266   0.390  1.00  0.00     0.049 A 
ATOM     32  N   UNL     1      -0.159   8.302   2.510  1.00  0.00    -0.248 NA
ATOM     33  C   UNL     1      -1.738   7.796   0.870  1.00  0.00     0.031 C 
ATOM     34  C   UNL     1       3.051   8.250  -0.584  1.00  0.00     0.029 A 
ATOM     35  N   UNL     1       2.604   8.318   1.605  1.00  0.00    -0.354 N 
ATOM     36  C   UNL     1      -1.410   8.182   3.102  1.00  0.00     0.074 A 
ATOM     37  C   UNL     1      -2.352   7.900   2.041  1.00  0.00     0.031 C 
ATOM     38  C   UNL     1       4.224   8.222   0.069  1.00  0.00     0.029 A 
ATOM     39  C   UNL     1       3.975   8.318   1.504  1.00  0.00     0.049 A 
ATOM     40  H   UNL     1       2.127   8.352   2.466  1.00  0.00     0.167 HD
ATOM     41  C   UNL     1      -1.747   8.301   4.410  1.00  0.00     0.037 A 
ATOM     42  C   UNL     1       4.929   8.419   2.451  1.00  0.00     0.037 A 
ATOM     43  C   UNL     1      -0.809   8.509   5.483  1.00  0.00     0.049 A 
ATOM     44  C   UNL     1       4.529   8.583   3.893  1.00  0.00     0.074 A 
ATOM     45  C   UNL     1      -1.065   8.652   6.837  1.00  0.00     0.029 A 
ATOM     46  N   UNL     1       0.566   8.580   5.329  1.00  0.00    -0.354 N 
ATOM     47  N   UNL     1       3.333   8.565   4.428  1.00  0.00    -0.248 NA
ATOM     48  C   UNL     1       5.614   8.810   4.859  1.00  0.00     0.031 C 
ATOM     49  C   UNL     1       0.153   8.844   7.497  1.00  0.00     0.029 A 
ATOM     50  C   UNL     1       1.171   8.774   6.561  1.00  0.00     0.049 A 
ATOM     51  H   UNL     1       1.043   8.504   4.471  1.00  0.00     0.167 HD
ATOM     52  C   UNL     1       3.522   8.773   5.788  1.00  0.00     0.074 A 
ATOM     53  C   UNL     1       4.949   8.882   6.003  1.00  0.00     0.031 C 
ATOM     54  C   UNL     1       2.592   8.877   6.769  1.00  0.00     0.037 A 
BRANCH  41  55
ATOM     55  C   UNL     1      -3.207   8.260   4.757  1.00  0.00     0.064 A 
ATOM     56  C   UNL     1      -3.948   7.070   4.738  1.00  0.00     0.173 A 
ATOM     57  C   UNL     1      -3.863   9.437   5.154  1.00  0.00     0.173 A 
ATOM     58  F   UNL     1      -3.371   5.923   4.351  1.00  0.00    -0.203 F 
ATOM     59  C   UNL     1      -5.298   7.064   5.082  1.00  0.00     0.198 A 
ATOM     60  C   UNL     1      -5.205   9.421   5.524  1.00  0.00     0.198 A 
ATOM     61  F   UNL     1      -3.198  10.601   5.195  1.00  0.00    -0.203 F 
ATOM     62  F   UNL     1      -5.999   5.923   5.015  1.00  0.00    -0.200 F 
ATOM     63  C   UNL     1      -5.923   8.236   5.481  1.00  0.00     0.200 A 
ATOM     64  F   UNL     1      -5.802  10.553   5.922  1.00  0.00    -0.200 F 
ATOM     65  F   UNL     1      -7.220   8.226   5.819  1.00  0.00    -0.200 F 
ENDBRANCH  41  55
BRANCH  42  66
ATOM     66  C   UNL     1       6.367   8.423   2.065  1.00  0.00     0.064 A 
ATOM     67  C   UNL     1       7.226   7.387   2.458  1.00  0.00     0.173 A 
ATOM     68  C   UNL     1       6.916   9.475   1.318  1.00  0.00     0.173 A 
ATOM     69  F   UNL     1       6.758   6.375   3.204  1.00  0.00    -0.203 F 
ATOM     70  C   UNL     1       8.580   7.410   2.127  1.00  0.00     0.198 A 
ATOM     71  C   UNL     1       8.261   9.480   0.958  1.00  0.00     0.198 A 
ATOM     72  F   UNL     1       6.141  10.498   0.927  1.00  0.00    -0.203 F 
ATOM     73  F   UNL     1       9.390   6.434   2.559  1.00  0.00    -0.200 F 
ATOM     74  C   UNL     1       9.094   8.451   1.369  1.00  0.00     0.200 A 
ATOM     75  F   UNL     1       8.750  10.483   0.216  1.00  0.00    -0.200 F 
ATOM     76  F   UNL     1      10.395   8.471   1.047  1.00  0.00    -0.200 F 
ENDBRANCH  42  66
BRANCH  54  77
ATOM     77  C   UNL     1       3.088   9.097   8.168  1.00  0.00     0.064 A 
ATOM     78  C   UNL     1       3.627  10.328   8.571  1.00  0.00     0.173 A 
ATOM     79  C   UNL     1       3.000   8.074   9.124  1.00  0.00     0.173 A 
ATOM     80  F   UNL     1       3.747  11.333   7.691  1.00  0.00    -0.203 F 
ATOM     81  C   UNL     1       4.085  10.517   9.873  1.00  0.00     0.198 A 
ATOM     82  C   UNL     1       3.433   8.276  10.432  1.00  0.00     0.198 A 
ATOM     83  F   UNL     1       2.487   6.880   8.791  1.00  0.00    -0.203 F 
ATOM     84  F   UNL     1       4.640  11.686  10.223  1.00  0.00    -0.200 F 
ATOM     85  C   UNL     1       3.982   9.494  10.803  1.00  0.00     0.200 A 
ATOM     86  F   UNL     1       3.323   7.289  11.332  1.00  0.00    -0.200 F 
ATOM     87  F   UNL     1       4.421   9.678  12.056  1.00  0.00    -0.200 F 
ENDBRANCH  54  77
ENDBRANCH  28  29
ENDBRANCH  21  23
ENDBRANCH  20  21
ENDBRANCH  19  20
ENDBRANCH   1  19
TORSDOF 16
