REMARK SMILES C/C(Nc1ccc(C(=O)OCCOC(=O)c2ccc(-c3c4nc(c(-c5c(F)c(F)c(F)c(F)c5F)c5ccc([nH]5)c(-c5c(F)c(F)c(F)c(F)c5F)c5nc(c(-c6c(F)c(F)c(F)c(F)c6F)c6ccc3[nH]6)C=C5)C=C4)cc2)c(O)c1)=C1/C(=O)O[C@H](C)C1=O
REMARK SMILES IDX 11 1 10 2 8 3 9 4 7 5 4 6 5 7 81 8 6 9 79 10 3 11 2 13 1 14
REMARK SMILES IDX 82 15 83 16 88 17 84 18 85 19 86 20 89 21 87 22 80 23 12 25
REMARK SMILES IDX 13 26 14 27 15 28 16 29 17 30 78 31 18 32 77 33 19 34 20 35
REMARK SMILES IDX 21 36 71 37 22 38 76 39 70 40 72 41 23 42 75 43 69 44 68 45
REMARK SMILES IDX 24 47 56 48 36 49 55 50 37 51 40 52 54 53 73 54 38 55 39 56
REMARK SMILES IDX 53 58 74 59 41 60 25 61 26 62 34 63 27 64 28 65 32 66 35 67
REMARK SMILES IDX 29 68 30 69 33 70 31 71 57 72 58 73 66 74 59 75 60 76 64 77
REMARK SMILES IDX 67 78 61 79 62 80 65 81 63 82 42 83 43 84 51 85 44 86 45 87
REMARK SMILES IDX 49 88 52 89 46 90 47 91 50 92 48 93
REMARK H PARENT 3 12 80 24 72 46 40 57
REMARK Flexibility Score: inf
ROOT
ATOM      1  C   UNL     1      -4.312  -8.003   3.520  1.00  0.00     0.275 C 
ENDROOT
BRANCH   1   2
ATOM      2  O   UNL     1      -3.829  -6.673   3.219  1.00  0.00    -0.458 OA
BRANCH   2   3
ATOM      3  C   UNL     1      -2.618  -6.339   3.744  1.00  0.00     0.342 C 
ATOM      4  O   UNL     1      -1.923  -7.053   4.449  1.00  0.00    -0.246 OA
BRANCH   3   5
ATOM      5  C   UNL     1      -2.171  -5.008   3.249  1.00  0.00     0.101 A 
ATOM      6  C   UNL     1      -1.132  -2.674   2.044  1.00  0.00     0.042 A 
ATOM      7  C   UNL     1      -0.272  -3.623   2.599  1.00  0.00     0.027 A 
ATOM      8  C   UNL     1      -2.514  -2.851   2.201  1.00  0.00     0.073 A 
ATOM      9  C   UNL     1      -0.787  -4.762   3.226  1.00  0.00     0.022 A 
ATOM     10  C   UNL     1      -3.030  -4.018   2.771  1.00  0.00     0.132 A 
BRANCH   6  11
ATOM     11  N   UNL     1      -0.670  -1.601   1.269  1.00  0.00    -0.358 N 
ATOM     12  H   UNL     1      -1.090  -0.735   1.475  1.00  0.00     0.166 HD
BRANCH  11  13
ATOM     13  C   UNL     1       0.283  -1.556   0.256  1.00  0.00     0.030 C 
ATOM     14  C   UNL     1       0.812  -0.142   0.040  1.00  0.00     0.065 C 
ATOM     15  C   UNL     1       0.739  -2.552  -0.542  1.00  0.00     0.125 C 
ATOM     16  C   UNL     1       0.384  -3.990  -0.579  1.00  0.00     0.344 C 
ATOM     17  C   UNL     1       1.779  -2.394  -1.583  1.00  0.00     0.212 C 
ATOM     18  O   UNL     1      -0.603  -4.548  -0.152  1.00  0.00    -0.246 OA
ATOM     19  O   UNL     1       1.376  -4.646  -1.260  1.00  0.00    -0.451 OA
ATOM     20  C   UNL     1       2.242  -3.759  -1.994  1.00  0.00     0.245 C 
ATOM     21  O   UNL     1       2.197  -1.347  -2.049  1.00  0.00    -0.290 OA
ATOM     22  C   UNL     1       3.694  -4.000  -1.627  1.00  0.00     0.062 C 
ENDBRANCH  11  13
ENDBRANCH   6  11
BRANCH  10  23
ATOM     23  O   UNL     1      -4.395  -4.113   2.805  1.00  0.00    -0.507 OA
ATOM     24  H   UNL     1      -4.803  -4.871   3.174  1.00  0.00     0.293 HD
ENDBRANCH  10  23
ENDBRANCH   3   5
ENDBRANCH   2   3
ENDBRANCH   1   2
BRANCH   1  25
ATOM     25  C   UNL     1      -4.149  -8.957   2.333  1.00  0.00     0.275 C 
BRANCH  25  26
ATOM     26  O   UNL     1      -2.757  -9.211   2.065  1.00  0.00    -0.458 OA
BRANCH  26  27
ATOM     27  C   UNL     1      -2.261  -8.568   0.983  1.00  0.00     0.338 C 
ATOM     28  O   UNL     1      -2.866  -7.853   0.204  1.00  0.00    -0.246 OA
BRANCH  27  29
ATOM     29  C   UNL     1      -0.809  -8.775   0.903  1.00  0.00     0.060 A 
ATOM     30  C   UNL     1       0.008  -7.866   1.564  1.00  0.00     0.016 A 
ATOM     31  C   UNL     1      -0.251  -9.739   0.067  1.00  0.00     0.016 A 
ATOM     32  C   UNL     1       1.381  -7.857   1.344  1.00  0.00     0.010 A 
ATOM     33  C   UNL     1       1.142  -9.781  -0.095  1.00  0.00     0.010 A 
ATOM     34  C   UNL     1       1.972  -8.820   0.518  1.00  0.00    -0.014 A 
BRANCH  34  35
ATOM     35  C   UNL     1       3.442  -8.788   0.272  1.00  0.00     0.031 A 
ATOM     36  C   UNL     1       3.976  -8.622  -1.127  1.00  0.00     0.074 A 
ATOM     37  C   UNL     1       4.306  -8.885   1.303  1.00  0.00     0.049 A 
ATOM     38  N   UNL     1       5.208  -8.717  -1.563  1.00  0.00    -0.248 NA
ATOM     39  C   UNL     1       2.993  -8.319  -2.179  1.00  0.00     0.031 C 
ATOM     40  C   UNL     1       3.931  -8.997   2.713  1.00  0.00     0.029 A 
ATOM     41  N   UNL     1       5.681  -8.903   1.327  1.00  0.00    -0.354 N 
ATOM     42  C   UNL     1       5.141  -8.541  -2.940  1.00  0.00     0.074 A 
ATOM     43  C   UNL     1       3.745  -8.345  -3.270  1.00  0.00     0.031 C 
ATOM     44  C   UNL     1       5.041  -9.044   3.464  1.00  0.00     0.029 A 
ATOM     45  C   UNL     1       6.206  -9.062   2.587  1.00  0.00     0.049 A 
ATOM     46  H   UNL     1       6.236  -8.812   0.519  1.00  0.00     0.167 HD
ATOM     47  C   UNL     1       6.152  -8.541  -3.843  1.00  0.00     0.037 A 
ATOM     48  C   UNL     1       7.476  -9.253   2.994  1.00  0.00     0.037 A 
ATOM     49  C   UNL     1       7.544  -8.699  -3.502  1.00  0.00     0.049 A 
ATOM     50  C   UNL     1       8.572  -9.309   1.965  1.00  0.00     0.074 A 
ATOM     51  C   UNL     1       8.645  -8.690  -4.342  1.00  0.00     0.029 A 
ATOM     52  N   UNL     1       8.029  -8.893  -2.216  1.00  0.00    -0.354 N 
ATOM     53  N   UNL     1       8.496  -9.162   0.665  1.00  0.00    -0.248 NA
ATOM     54  C   UNL     1       9.931  -9.569   2.460  1.00  0.00     0.031 C 
ATOM     55  C   UNL     1       9.787  -8.936  -3.574  1.00  0.00     0.029 A 
ATOM     56  C   UNL     1       9.409  -9.028  -2.245  1.00  0.00     0.049 A 
ATOM     57  H   UNL     1       7.474  -8.930  -1.403  1.00  0.00     0.167 HD
ATOM     58  C   UNL     1       9.795  -9.284   0.191  1.00  0.00     0.074 A 
ATOM     59  C   UNL     1      10.642  -9.497   1.345  1.00  0.00     0.031 C 
ATOM     60  C   UNL     1      10.244  -9.227  -1.087  1.00  0.00     0.037 A 
BRANCH  47  61
ATOM     61  C   UNL     1       5.796  -8.399  -5.297  1.00  0.00     0.064 A 
ATOM     62  C   UNL     1       5.302  -7.199  -5.830  1.00  0.00     0.173 A 
ATOM     63  C   UNL     1       6.000  -9.471  -6.182  1.00  0.00     0.173 A 
ATOM     64  F   UNL     1       5.078  -6.145  -5.030  1.00  0.00    -0.203 F 
ATOM     65  C   UNL     1       5.001  -7.086  -7.186  1.00  0.00     0.198 A 
ATOM     66  C   UNL     1       5.731  -9.344  -7.542  1.00  0.00     0.198 A 
ATOM     67  F   UNL     1       6.479 -10.640  -5.729  1.00  0.00    -0.203 F 
ATOM     68  F   UNL     1       4.484  -5.945  -7.663  1.00  0.00    -0.200 F 
ATOM     69  C   UNL     1       5.223  -8.155  -8.042  1.00  0.00     0.200 A 
ATOM     70  F   UNL     1       5.964 -10.373  -8.369  1.00  0.00    -0.200 F 
ATOM     71  F   UNL     1       4.944  -8.040  -9.348  1.00  0.00    -0.200 F 
ENDBRANCH  47  61
BRANCH  48  72
ATOM     72  C   UNL     1       7.776  -9.451   4.438  1.00  0.00     0.064 A 
ATOM     73  C   UNL     1       8.545  -8.521   5.152  1.00  0.00     0.173 A 
ATOM     74  C   UNL     1       7.316 -10.582   5.131  1.00  0.00     0.173 A 
ATOM     75  F   UNL     1       9.031  -7.436   4.531  1.00  0.00    -0.203 F 
ATOM     76  C   UNL     1       8.861  -8.726   6.494  1.00  0.00     0.198 A 
ATOM     77  C   UNL     1       7.599 -10.766   6.482  1.00  0.00     0.198 A 
ATOM     78  F   UNL     1       6.578 -11.505   4.497  1.00  0.00    -0.203 F 
ATOM     79  F   UNL     1       9.647  -7.851   7.136  1.00  0.00    -0.200 F 
ATOM     80  C   UNL     1       8.381  -9.844   7.160  1.00  0.00     0.200 A 
ATOM     81  F   UNL     1       7.119 -11.839   7.125  1.00  0.00    -0.200 F 
ATOM     82  F   UNL     1       8.681 -10.038   8.451  1.00  0.00    -0.200 F 
ENDBRANCH  48  72
BRANCH  60  83
ATOM     83  C   UNL     1      11.727  -9.343  -1.301  1.00  0.00     0.064 A 
ATOM     84  C   UNL     1      12.416 -10.548  -1.095  1.00  0.00     0.173 A 
ATOM     85  C   UNL     1      12.465  -8.235  -1.748  1.00  0.00     0.173 A 
ATOM     86  F   UNL     1      11.762 -11.632  -0.651  1.00  0.00    -0.203 F 
ATOM     87  C   UNL     1      13.791 -10.630  -1.296  1.00  0.00     0.198 A 
ATOM     88  C   UNL     1      13.833  -8.331  -1.984  1.00  0.00     0.198 A 
ATOM     89  F   UNL     1      11.855  -7.060  -1.968  1.00  0.00    -0.203 F 
ATOM     90  F   UNL     1      14.437 -11.775  -1.036  1.00  0.00    -0.200 F 
ATOM     91  C   UNL     1      14.497  -9.525  -1.749  1.00  0.00     0.200 A 
ATOM     92  F   UNL     1      14.509  -7.266  -2.437  1.00  0.00    -0.200 F 
ATOM     93  F   UNL     1      15.819  -9.608  -1.950  1.00  0.00    -0.200 F 
ENDBRANCH  60  83
ENDBRANCH  34  35
ENDBRANCH  27  29
ENDBRANCH  26  27
ENDBRANCH  25  26
ENDBRANCH   1  25
TORSDOF 14
