REMARK SMILES O=C(Nc1cccc(C(=O)OCCOC(=O)c2ccc(-c3c4nc(c(-c5c(F)c(F)c(F)c(F)c5F)c5ccc([nH]5)c(-c5c(F)c(F)c(F)c(F)c5F)c5nc(c(-c6c(F)c(F)c(F)c(F)c6F)c6ccc3[nH]6)C=C5)C=C4)cc2)c1)Nc1cc(Cl)c(Cl)cc1Cl
REMARK SMILES IDX 12 1 11 2 9 3 10 4 8 5 4 6 5 7 80 8 6 9 7 10 3 11 1 12 2 13
REMARK SMILES IDX 81 14 82 17 83 18 89 19 84 20 88 21 90 22 85 23 86 24 87 25
REMARK SMILES IDX 13 26 14 27 15 28 16 29 17 30 18 31 79 32 19 33 78 34 20 35
REMARK SMILES IDX 21 36 22 37 72 38 23 39 77 40 71 41 73 42 24 43 76 44 70 45
REMARK SMILES IDX 69 46 25 48 57 49 37 50 56 51 38 52 41 53 55 54 74 55 39 56
REMARK SMILES IDX 40 57 54 59 75 60 42 61 26 62 27 63 35 64 28 65 29 66 33 67
REMARK SMILES IDX 36 68 30 69 31 70 34 71 32 72 58 73 59 74 67 75 60 76 61 77
REMARK SMILES IDX 65 78 68 79 62 80 63 81 66 82 64 83 43 84 44 85 52 86 45 87
REMARK SMILES IDX 46 88 50 89 53 90 47 91 48 92 51 93 49 94
REMARK H PARENT 3 15 81 16 73 47 41 58
REMARK Flexibility Score: inf
ROOT
ATOM      1  C   UNL     1       7.200  -2.668   2.876  1.00  0.00     0.275 C 
ENDROOT
BRANCH   1   2
ATOM      2  O   UNL     1       6.472  -2.098   1.769  1.00  0.00    -0.458 OA
BRANCH   2   3
ATOM      3  C   UNL     1       6.995  -0.980   1.206  1.00  0.00     0.338 C 
ATOM      4  O   UNL     1       7.996  -0.386   1.557  1.00  0.00    -0.246 OA
BRANCH   3   5
ATOM      5  C   UNL     1       6.207  -0.593   0.009  1.00  0.00     0.062 A 
ATOM      6  C   UNL     1       4.086  -0.253  -1.097  1.00  0.00     0.043 A 
ATOM      7  C   UNL     1       4.746   0.155  -2.258  1.00  0.00     0.026 A 
ATOM      8  C   UNL     1       4.820  -0.716  -0.000  1.00  0.00     0.041 A 
ATOM      9  C   UNL     1       6.131   0.284  -2.253  1.00  0.00     0.003 A 
ATOM     10  C   UNL     1       6.849  -0.025  -1.099  1.00  0.00     0.016 A 
BRANCH   6  11
ATOM     11  N   UNL     1       2.691  -0.110  -1.057  1.00  0.00    -0.308 N 
ATOM     12  O   UNL     1       0.665   0.152  -0.122  1.00  0.00    -0.248 OA
ATOM     13  C   UNL     1       1.883   0.163   0.022  1.00  0.00     0.323 C 
ATOM     14  N   UNL     1       2.537   0.597   1.149  1.00  0.00    -0.306 N 
ATOM     15  H   UNL     1       2.227  -0.220  -1.919  1.00  0.00     0.171 HD
ATOM     16  H   UNL     1       3.482   0.847   1.032  1.00  0.00     0.171 HD
BRANCH  14  17
ATOM     17  C   UNL     1       2.018   0.726   2.453  1.00  0.00     0.063 A 
ATOM     18  C   UNL     1       2.624   1.714   3.247  1.00  0.00     0.049 A 
ATOM     19  C   UNL     1       1.004  -0.067   3.016  1.00  0.00     0.066 A 
ATOM     20  C   UNL     1       2.167   1.974   4.543  1.00  0.00     0.061 A 
ATOM     21  C   UNL     1       0.538   0.208   4.308  1.00  0.00     0.044 A 
ATOM     22  Cl  UNL     1       0.408  -1.520   2.292  1.00  0.00    -0.082 Cl
ATOM     23  Cl  UNL     1       2.961   3.220   5.439  1.00  0.00    -0.083 Cl
ATOM     24  C   UNL     1       1.105   1.234   5.065  1.00  0.00     0.061 A 
ATOM     25  Cl  UNL     1       0.471   1.512   6.647  1.00  0.00    -0.083 Cl
ENDBRANCH  14  17
ENDBRANCH   6  11
ENDBRANCH   3   5
ENDBRANCH   2   3
ENDBRANCH   1   2
BRANCH   1  26
ATOM     26  C   UNL     1       7.955  -3.929   2.449  1.00  0.00     0.275 C 
BRANCH  26  27
ATOM     27  O   UNL     1       9.044  -3.593   1.569  1.00  0.00    -0.458 OA
BRANCH  27  28
ATOM     28  C   UNL     1       8.810  -3.814   0.257  1.00  0.00     0.338 C 
ATOM     29  O   UNL     1       7.816  -4.301  -0.255  1.00  0.00    -0.246 OA
BRANCH  28  30
ATOM     30  C   UNL     1       9.907  -3.258  -0.544  1.00  0.00     0.060 A 
ATOM     31  C   UNL     1       9.842  -1.908  -0.867  1.00  0.00     0.016 A 
ATOM     32  C   UNL     1      10.881  -4.065  -1.120  1.00  0.00     0.016 A 
ATOM     33  C   UNL     1      10.661  -1.372  -1.851  1.00  0.00     0.010 A 
ATOM     34  C   UNL     1      11.789  -3.496  -2.025  1.00  0.00     0.010 A 
ATOM     35  C   UNL     1      11.665  -2.151  -2.431  1.00  0.00    -0.014 A 
BRANCH  35  36
ATOM     36  C   UNL     1      12.562  -1.567  -3.469  1.00  0.00     0.031 A 
ATOM     37  C   UNL     1      12.666  -2.213  -4.826  1.00  0.00     0.074 A 
ATOM     38  C   UNL     1      13.283  -0.457  -3.203  1.00  0.00     0.049 A 
ATOM     39  N   UNL     1      13.530  -1.993  -5.786  1.00  0.00    -0.248 NA
ATOM     40  C   UNL     1      11.677  -3.256  -5.144  1.00  0.00     0.031 C 
ATOM     41  C   UNL     1      13.240   0.307  -1.954  1.00  0.00     0.029 A 
ATOM     42  N   UNL     1      14.204   0.221  -3.966  1.00  0.00    -0.354 N 
ATOM     43  C   UNL     1      13.233  -2.913  -6.784  1.00  0.00     0.074 A 
ATOM     44  C   UNL     1      12.104  -3.690  -6.322  1.00  0.00     0.031 C 
ATOM     45  C   UNL     1      14.075   1.352  -2.042  1.00  0.00     0.029 A 
ATOM     46  C   UNL     1      14.792   1.276  -3.308  1.00  0.00     0.049 A 
ATOM     47  H   UNL     1      14.422  -0.025  -4.894  1.00  0.00     0.167 HD
ATOM     48  C   UNL     1      13.856  -3.093  -7.973  1.00  0.00     0.037 A 
ATOM     49  C   UNL     1      15.835   2.056  -3.651  1.00  0.00     0.037 A 
ATOM     50  C   UNL     1      14.935  -2.269  -8.453  1.00  0.00     0.049 A 
ATOM     51  C   UNL     1      16.532   1.805  -4.961  1.00  0.00     0.074 A 
ATOM     52  C   UNL     1      15.596  -2.339  -9.668  1.00  0.00     0.029 A 
ATOM     53  N   UNL     1      15.505  -1.221  -7.747  1.00  0.00    -0.354 N 
ATOM     54  N   UNL     1      16.255   0.923  -5.890  1.00  0.00    -0.248 NA
ATOM     55  C   UNL     1      17.697   2.647  -5.264  1.00  0.00     0.031 C 
ATOM     56  C   UNL     1      16.605  -1.373  -9.673  1.00  0.00     0.029 A 
ATOM     57  C   UNL     1      16.531  -0.656  -8.489  1.00  0.00     0.049 A 
ATOM     58  H   UNL     1      15.224  -0.922  -6.852  1.00  0.00     0.167 HD
ATOM     59  C   UNL     1      17.189   1.124  -6.896  1.00  0.00     0.074 A 
ATOM     60  C   UNL     1      18.030   2.223  -6.474  1.00  0.00     0.031 C 
ATOM     61  C   UNL     1      17.341   0.455  -8.065  1.00  0.00     0.037 A 
BRANCH  48  62
ATOM     62  C   UNL     1      13.427  -4.244  -8.836  1.00  0.00     0.064 A 
ATOM     63  C   UNL     1      12.217  -4.242  -9.542  1.00  0.00     0.173 A 
ATOM     64  C   UNL     1      14.297  -5.330  -9.029  1.00  0.00     0.173 A 
ATOM     65  F   UNL     1      11.346  -3.234  -9.386  1.00  0.00    -0.203 F 
ATOM     66  C   UNL     1      11.888  -5.289 -10.402  1.00  0.00     0.198 A 
ATOM     67  C   UNL     1      13.979  -6.359  -9.911  1.00  0.00     0.198 A 
ATOM     68  F   UNL     1      15.472  -5.378  -8.383  1.00  0.00    -0.203 F 
ATOM     69  F   UNL     1      10.713  -5.280 -11.046  1.00  0.00    -0.200 F 
ATOM     70  C   UNL     1      12.774  -6.339 -10.594  1.00  0.00     0.200 A 
ATOM     71  F   UNL     1      14.845  -7.364 -10.107  1.00  0.00    -0.200 F 
ATOM     72  F   UNL     1      12.466  -7.332 -11.440  1.00  0.00    -0.200 F 
ENDBRANCH  48  62
BRANCH  49  73
ATOM     73  C   UNL     1      16.336   3.102  -2.716  1.00  0.00     0.064 A 
ATOM     74  C   UNL     1      16.295   4.460  -3.057  1.00  0.00     0.173 A 
ATOM     75  C   UNL     1      16.910   2.760  -1.481  1.00  0.00     0.173 A 
ATOM     76  F   UNL     1      15.779   4.839  -4.236  1.00  0.00    -0.203 F 
ATOM     77  C   UNL     1      16.838   5.432  -2.218  1.00  0.00     0.198 A 
ATOM     78  C   UNL     1      17.415   3.735  -0.624  1.00  0.00     0.198 A 
ATOM     79  F   UNL     1      16.977   1.475  -1.102  1.00  0.00    -0.203 F 
ATOM     80  F   UNL     1      16.849   6.715  -2.602  1.00  0.00    -0.200 F 
ATOM     81  C   UNL     1      17.393   5.069  -1.000  1.00  0.00     0.200 A 
ATOM     82  F   UNL     1      17.933   3.380   0.559  1.00  0.00    -0.200 F 
ATOM     83  F   UNL     1      17.919   6.002  -0.195  1.00  0.00    -0.200 F 
ENDBRANCH  49  73
BRANCH  61  84
ATOM     84  C   UNL     1      18.415   0.932  -8.997  1.00  0.00     0.064 A 
ATOM     85  C   UNL     1      19.776   0.739  -8.720  1.00  0.00     0.173 A 
ATOM     86  C   UNL     1      18.072   1.556 -10.207  1.00  0.00     0.173 A 
ATOM     87  F   UNL     1      20.155   0.163  -7.569  1.00  0.00    -0.203 F 
ATOM     88  C   UNL     1      20.755   1.177  -9.607  1.00  0.00     0.198 A 
ATOM     89  C   UNL     1      19.052   1.961 -11.107  1.00  0.00     0.198 A 
ATOM     90  F   UNL     1      16.784   1.758 -10.522  1.00  0.00    -0.203 F 
ATOM     91  F   UNL     1      22.051   1.029  -9.298  1.00  0.00    -0.200 F 
ATOM     92  C   UNL     1      20.392   1.778 -10.803  1.00  0.00     0.200 A 
ATOM     93  F   UNL     1      18.699   2.527 -12.269  1.00  0.00    -0.200 F 
ATOM     94  F   UNL     1      21.336   2.189 -11.661  1.00  0.00    -0.200 F 
ENDBRANCH  61  84
ENDBRANCH  35  36
ENDBRANCH  28  30
ENDBRANCH  27  28
ENDBRANCH  26  27
ENDBRANCH   1  26
TORSDOF 13
