REMARK SMILES O=C(CCCNc1ccccc1SC(F)F)OCCOC(=O)c1ccc(-c2c3nc(c(-c4c(F)c(F)c(F)c(F)c4F)c4ccc([nH]4)c(-c4c(F)c(F)c(F)c(F)c4F)c4nc(c(-c5c(F)c(F)c(F)c(F)c5F)c5ccc2[nH]5)C=C4)C=C3)cc1
REMARK SMILES IDX 1 1 2 2 3 3 4 4 5 5 6 6 7 8 8 9 12 10 9 11 11 12 10 13 13 14
REMARK SMILES IDX 14 15 15 16 16 17 17 18 18 19 19 20 20 21 21 22 22 23 23 24
REMARK SMILES IDX 24 25 85 26 25 27 84 28 26 29 27 30 28 31 78 32 29 33 83 34
REMARK SMILES IDX 77 35 79 36 30 37 82 38 76 39 75 40 31 42 63 43 43 44 62 45
REMARK SMILES IDX 44 46 47 47 61 48 80 49 45 50 46 51 60 53 81 54 48 55 32 56
REMARK SMILES IDX 33 57 41 58 34 59 35 60 39 61 42 62 36 63 37 64 40 65 38 66
REMARK SMILES IDX 64 67 65 68 73 69 66 70 67 71 71 72 74 73 68 74 69 75 72 76
REMARK SMILES IDX 70 77 49 78 50 79 58 80 51 81 52 82 56 83 59 84 53 85 54 86
REMARK SMILES IDX 57 87 55 88
REMARK H PARENT 6 7 79 41 47 52
REMARK Flexibility Score: inf
ROOT
ATOM      1  O   UNL     1       1.723  -0.706  -1.683  1.00  0.00    -0.252 OA
ATOM      2  C   UNL     1       2.453  -0.388  -0.750  1.00  0.00     0.305 C 
ENDROOT
BRANCH   2   3
ATOM      3  C   UNL     1       3.012  -1.421   0.204  1.00  0.00     0.124 C 
BRANCH   3   4
ATOM      4  C   UNL     1       3.774  -2.550  -0.482  1.00  0.00     0.033 C 
BRANCH   4   5
ATOM      5  C   UNL     1       5.091  -2.093  -1.108  1.00  0.00     0.113 C 
BRANCH   5   6
ATOM      6  N   UNL     1       6.004  -1.600  -0.093  1.00  0.00    -0.384 N 
ATOM      7  H   UNL     1       5.671  -1.627   0.833  1.00  0.00     0.160 HD
BRANCH   6   8
ATOM      8  C   UNL     1       7.287  -1.096  -0.261  1.00  0.00     0.048 A 
ATOM      9  C   UNL     1       7.931  -0.689   0.933  1.00  0.00     0.027 A 
ATOM     10  C   UNL     1       8.011  -0.929  -1.466  1.00  0.00     0.036 A 
ATOM     11  C   UNL     1       9.238  -0.198   0.959  1.00  0.00     0.002 A 
ATOM     12  C   UNL     1       9.334  -0.434  -1.425  1.00  0.00     0.017 A 
ATOM     13  C   UNL     1       9.945  -0.077  -0.224  1.00  0.00     0.001 A 
BRANCH  10  14
ATOM     14  S   UNL     1       7.471  -1.423  -3.106  1.00  0.00    -0.053 SA
BRANCH  14  15
ATOM     15  C   UNL     1       6.389  -0.048  -3.558  1.00  0.00     0.405 C 
ATOM     16  F   UNL     1       5.204  -0.541  -4.007  1.00  0.00    -0.198 F 
ATOM     17  F   UNL     1       6.093   0.762  -2.511  1.00  0.00    -0.198 F 
ENDBRANCH  14  15
ENDBRANCH  10  14
ENDBRANCH   6   8
ENDBRANCH   5   6
ENDBRANCH   4   5
ENDBRANCH   3   4
ENDBRANCH   2   3
BRANCH   2  18
ATOM     18  O   UNL     1       2.651   0.914  -0.420  1.00  0.00    -0.462 OA
BRANCH  18  19
ATOM     19  C   UNL     1       3.987   1.393  -0.162  1.00  0.00     0.274 C 
BRANCH  19  20
ATOM     20  C   UNL     1       4.120   2.013   1.229  1.00  0.00     0.275 C 
BRANCH  20  21
ATOM     21  O   UNL     1       3.792   1.045   2.240  1.00  0.00    -0.458 OA
BRANCH  21  22
ATOM     22  C   UNL     1       2.495   1.080   2.647  1.00  0.00     0.338 C 
ATOM     23  O   UNL     1       1.680   1.944   2.413  1.00  0.00    -0.246 OA
BRANCH  22  24
ATOM     24  C   UNL     1       2.148  -0.205   3.300  1.00  0.00     0.060 A 
ATOM     25  C   UNL     1       0.843  -0.680   3.117  1.00  0.00     0.016 A 
ATOM     26  C   UNL     1       3.061  -0.935   4.070  1.00  0.00     0.016 A 
ATOM     27  C   UNL     1       0.425  -1.840   3.764  1.00  0.00     0.010 A 
ATOM     28  C   UNL     1       2.642  -2.102   4.719  1.00  0.00     0.010 A 
ATOM     29  C   UNL     1       1.306  -2.524   4.612  1.00  0.00    -0.014 A 
BRANCH  29  30
ATOM     30  C   UNL     1       0.740  -3.507   5.566  1.00  0.00     0.031 A 
ATOM     31  C   UNL     1       0.360  -3.016   6.937  1.00  0.00     0.074 A 
ATOM     32  C   UNL     1       0.491  -4.779   5.209  1.00  0.00     0.049 A 
ATOM     33  N   UNL     1      -0.270  -3.637   7.901  1.00  0.00    -0.248 NA
ATOM     34  C   UNL     1       0.740  -1.631   7.263  1.00  0.00     0.031 C 
ATOM     35  C   UNL     1       0.799  -5.371   3.910  1.00  0.00     0.029 A 
ATOM     36  N   UNL     1      -0.097  -5.798   5.916  1.00  0.00    -0.354 N 
ATOM     37  C   UNL     1      -0.376  -2.715   8.934  1.00  0.00     0.074 A 
ATOM     38  C   UNL     1       0.300  -1.512   8.505  1.00  0.00     0.031 C 
ATOM     39  C   UNL     1       0.391  -6.653   3.910  1.00  0.00     0.029 A 
ATOM     40  C   UNL     1      -0.206  -6.968   5.207  1.00  0.00     0.049 A 
ATOM     41  H   UNL     1      -0.410  -5.699   6.844  1.00  0.00     0.167 HD
ATOM     42  C   UNL     1      -1.002  -2.848  10.127  1.00  0.00     0.037 A 
ATOM     43  C   UNL     1      -0.742  -8.151   5.567  1.00  0.00     0.037 A 
ATOM     44  C   UNL     1      -1.669  -4.044  10.561  1.00  0.00     0.049 A 
ATOM     45  C   UNL     1      -1.389  -8.290   6.923  1.00  0.00     0.074 A 
ATOM     46  C   UNL     1      -2.343  -4.277  11.745  1.00  0.00     0.029 A 
ATOM     47  N   UNL     1      -1.735  -5.216   9.823  1.00  0.00    -0.354 N 
ATOM     48  N   UNL     1      -1.546  -7.393   7.866  1.00  0.00    -0.248 NA
ATOM     49  C   UNL     1      -1.954  -9.607   7.253  1.00  0.00     0.031 C 
ATOM     50  C   UNL     1      -2.780  -5.606  11.743  1.00  0.00     0.029 A 
ATOM     51  C   UNL     1      -2.421  -6.184  10.536  1.00  0.00     0.049 A 
ATOM     52  H   UNL     1      -1.351  -5.341   8.925  1.00  0.00     0.167 HD
ATOM     53  C   UNL     1      -2.264  -8.020   8.877  1.00  0.00     0.074 A 
ATOM     54  C   UNL     1      -2.516  -9.374   8.431  1.00  0.00     0.031 C 
ATOM     55  C   UNL     1      -2.684  -7.519  10.065  1.00  0.00     0.037 A 
BRANCH  42  56
ATOM     56  C   UNL     1      -0.975  -1.665  11.048  1.00  0.00     0.064 A 
ATOM     57  C   UNL     1      -1.728  -0.511  10.783  1.00  0.00     0.173 A 
ATOM     58  C   UNL     1      -0.190  -1.687  12.210  1.00  0.00     0.173 A 
ATOM     59  F   UNL     1      -2.477  -0.434   9.673  1.00  0.00    -0.203 F 
ATOM     60  C   UNL     1      -1.673   0.589  11.634  1.00  0.00     0.198 A 
ATOM     61  C   UNL     1      -0.159  -0.595  13.072  1.00  0.00     0.198 A 
ATOM     62  F   UNL     1       0.550  -2.766  12.506  1.00  0.00    -0.203 F 
ATOM     63  F   UNL     1      -2.360   1.701  11.334  1.00  0.00    -0.200 F 
ATOM     64  C   UNL     1      -0.894   0.544  12.780  1.00  0.00     0.200 A 
ATOM     65  F   UNL     1       0.590  -0.642  14.183  1.00  0.00    -0.200 F 
ATOM     66  F   UNL     1      -0.842   1.604  13.598  1.00  0.00    -0.200 F 
ENDBRANCH  42  56
BRANCH  43  67
ATOM     67  C   UNL     1      -0.725  -9.298   4.622  1.00  0.00     0.064 A 
ATOM     68  C   UNL     1      -1.910  -9.775   4.042  1.00  0.00     0.173 A 
ATOM     69  C   UNL     1       0.468  -9.965   4.311  1.00  0.00     0.173 A 
ATOM     70  F   UNL     1      -3.080  -9.186   4.331  1.00  0.00    -0.203 F 
ATOM     71  C   UNL     1      -1.904 -10.891   3.208  1.00  0.00     0.198 A 
ATOM     72  C   UNL     1       0.476 -11.066   3.456  1.00  0.00     0.198 A 
ATOM     73  F   UNL     1       1.627  -9.550   4.843  1.00  0.00    -0.203 F 
ATOM     74  F   UNL     1      -3.058 -11.358   2.710  1.00  0.00    -0.200 F 
ATOM     75  C   UNL     1      -0.712 -11.533   2.913  1.00  0.00     0.200 A 
ATOM     76  F   UNL     1       1.631 -11.681   3.169  1.00  0.00    -0.200 F 
ATOM     77  F   UNL     1      -0.708 -12.611   2.116  1.00  0.00    -0.200 F 
ENDBRANCH  43  67
BRANCH  55  78
ATOM     78  C   UNL     1      -3.507  -8.416  10.944  1.00  0.00     0.064 A 
ATOM     79  C   UNL     1      -2.944  -9.505  11.624  1.00  0.00     0.173 A 
ATOM     80  C   UNL     1      -4.871  -8.152  11.141  1.00  0.00     0.173 A 
ATOM     81  F   UNL     1      -1.647  -9.806  11.461  1.00  0.00    -0.203 F 
ATOM     82  C   UNL     1      -3.724 -10.315  12.446  1.00  0.00     0.198 A 
ATOM     83  C   UNL     1      -5.641  -8.945  11.987  1.00  0.00     0.198 A 
ATOM     84  F   UNL     1      -5.456  -7.115  10.521  1.00  0.00    -0.203 F 
ATOM     85  F   UNL     1      -3.176 -11.379  13.049  1.00  0.00    -0.200 F 
ATOM     86  C   UNL     1      -5.068 -10.031  12.632  1.00  0.00     0.200 A 
ATOM     87  F   UNL     1      -6.936  -8.660  12.177  1.00  0.00    -0.200 F 
ATOM     88  F   UNL     1      -5.815 -10.808  13.428  1.00  0.00    -0.200 F 
ENDBRANCH  55  78
ENDBRANCH  29  30
ENDBRANCH  22  24
ENDBRANCH  21  22
ENDBRANCH  20  21
ENDBRANCH  19  20
ENDBRANCH  18  19
ENDBRANCH   2  18
TORSDOF 17
