REMARK SMILES CC[C@](O)(C(=O)OCCOC(=O)c1ccc(-c2c3nc(c(-c4c(F)c(F)c(F)c(F)c4F)c4ccc([nH]4)c(-c4c(F)c(F)c(F)c(F)c4F)c4nc(c(-c5c(F)c(F)c(F)c(F)c5F)c5ccc2[nH]5)C=C4)C=C3)cc1)[C@@H](C)c1ccc(C)s1
REMARK SMILES IDX 8 1 7 2 5 3 6 4 3 5 2 6 1 7 76 8 77 9 78 10 79 11 83 12
REMARK SMILES IDX 80 13 81 14 82 15 4 16 9 18 10 19 11 20 12 21 13 22 14 23
REMARK SMILES IDX 75 24 15 25 74 26 16 27 17 28 18 29 68 30 19 31 73 32 67 33
REMARK SMILES IDX 69 34 20 35 72 36 66 37 65 38 21 40 53 41 33 42 52 43 34 44
REMARK SMILES IDX 37 45 51 46 70 47 35 48 36 49 50 51 71 52 38 53 22 54 23 55
REMARK SMILES IDX 31 56 24 57 25 58 29 59 32 60 26 61 27 62 30 63 28 64 54 65
REMARK SMILES IDX 55 66 63 67 56 68 57 69 61 70 64 71 58 72 59 73 62 74 60 75
REMARK SMILES IDX 39 76 40 77 48 78 41 79 42 80 46 81 49 82 43 83 44 84 47 85
REMARK SMILES IDX 45 86
REMARK H PARENT 4 17 69 39 37 50
REMARK Flexibility Score: inf
ROOT
ATOM      1  C   UNL     1      -1.236  -4.223  -2.526  1.00  0.00     0.274 C 
ENDROOT
BRANCH   1   2
ATOM      2  O   UNL     1      -0.776  -3.082  -1.773  1.00  0.00    -0.460 OA
BRANCH   2   3
ATOM      3  C   UNL     1       0.282  -3.312  -0.947  1.00  0.00     0.338 C 
ATOM      4  O   UNL     1       0.873  -4.387  -0.868  1.00  0.00    -0.249 OA
BRANCH   3   5
ATOM      5  C   UNL     1       0.626  -2.096  -0.031  1.00  0.00     0.168 C 
BRANCH   5   6
ATOM      6  C   UNL     1       0.195  -2.641   1.364  1.00  0.00     0.044 C 
ATOM      7  C   UNL     1       0.556  -1.873   2.621  1.00  0.00     0.007 C 
ENDBRANCH   5   6
BRANCH   5   8
ATOM      8  C   UNL     1       2.136  -1.764  -0.297  1.00  0.00     0.070 C 
ATOM      9  C   UNL     1       2.333  -1.134  -1.695  1.00  0.00     0.017 C 
BRANCH   8  10
ATOM     10  C   UNL     1       2.779  -0.839   0.721  1.00  0.00     0.011 A 
ATOM     11  C   UNL     1       2.561   0.509   0.942  1.00  0.00     0.016 A 
ATOM     12  S   UNL     1       4.033  -1.428   1.741  1.00  0.00    -0.145 S 
ATOM     13  C   UNL     1       3.297   1.002   2.057  1.00  0.00     0.015 A 
ATOM     14  C   UNL     1       4.078   0.026   2.638  1.00  0.00     0.002 A 
ATOM     15  C   UNL     1       4.906   0.132   3.873  1.00  0.00     0.056 C 
ENDBRANCH   8  10
ENDBRANCH   5   8
BRANCH   5  16
ATOM     16  O   UNL     1      -0.168  -0.939  -0.323  1.00  0.00    -0.378 OA
ATOM     17  H   UNL     1       0.086  -0.584  -1.189  1.00  0.00     0.212 HD
ENDBRANCH   5  16
ENDBRANCH   3   5
ENDBRANCH   2   3
ENDBRANCH   1   2
BRANCH   1  18
ATOM     18  C   UNL     1      -0.623  -4.249  -3.925  1.00  0.00     0.275 C 
BRANCH  18  19
ATOM     19  O   UNL     1       0.803  -4.378  -3.813  1.00  0.00    -0.458 OA
BRANCH  19  20
ATOM     20  C   UNL     1       1.528  -3.827  -4.810  1.00  0.00     0.338 C 
ATOM     21  O   UNL     1       1.086  -3.340  -5.844  1.00  0.00    -0.246 OA
BRANCH  20  22
ATOM     22  C   UNL     1       2.973  -3.845  -4.469  1.00  0.00     0.060 A 
ATOM     23  C   UNL     1       3.412  -3.952  -3.147  1.00  0.00     0.016 A 
ATOM     24  C   UNL     1       3.913  -3.658  -5.484  1.00  0.00     0.016 A 
ATOM     25  C   UNL     1       4.757  -3.774  -2.827  1.00  0.00     0.010 A 
ATOM     26  C   UNL     1       5.276  -3.588  -5.171  1.00  0.00     0.010 A 
ATOM     27  C   UNL     1       5.715  -3.615  -3.836  1.00  0.00    -0.014 A 
BRANCH  27  28
ATOM     28  C   UNL     1       7.162  -3.458  -3.513  1.00  0.00     0.031 A 
ATOM     29  C   UNL     1       7.928  -2.272  -4.035  1.00  0.00     0.074 A 
ATOM     30  C   UNL     1       7.812  -4.381  -2.774  1.00  0.00     0.049 A 
ATOM     31  N   UNL     1       9.222  -2.091  -4.126  1.00  0.00    -0.248 NA
ATOM     32  C   UNL     1       7.129  -1.145  -4.543  1.00  0.00     0.031 C 
ATOM     33  C   UNL     1       7.204  -5.554  -2.146  1.00  0.00     0.029 A 
ATOM     34  N   UNL     1       9.139  -4.474  -2.429  1.00  0.00    -0.354 N 
ATOM     35  C   UNL     1       9.391  -0.875  -4.775  1.00  0.00     0.074 A 
ATOM     36  C   UNL     1       8.068  -0.348  -5.036  1.00  0.00     0.031 C 
ATOM     37  C   UNL     1       8.142  -6.226  -1.462  1.00  0.00     0.029 A 
ATOM     38  C   UNL     1       9.436  -5.594  -1.690  1.00  0.00     0.049 A 
ATOM     39  H   UNL     1       9.813  -3.804  -2.686  1.00  0.00     0.167 HD
ATOM     40  C   UNL     1      10.547  -0.265  -5.131  1.00  0.00     0.037 A 
ATOM     41  C   UNL     1      10.619  -6.095  -1.288  1.00  0.00     0.037 A 
ATOM     42  C   UNL     1      11.860  -0.751  -4.793  1.00  0.00     0.049 A 
ATOM     43  C   UNL     1      11.889  -5.405  -1.696  1.00  0.00     0.074 A 
ATOM     44  C   UNL     1      13.091  -0.189  -5.086  1.00  0.00     0.029 A 
ATOM     45  N   UNL     1      12.111  -1.901  -4.060  1.00  0.00    -0.354 N 
ATOM     46  N   UNL     1      12.045  -4.310  -2.399  1.00  0.00    -0.248 NA
ATOM     47  C   UNL     1      13.148  -6.041  -1.284  1.00  0.00     0.031 C 
ATOM     48  C   UNL     1      14.088  -1.012  -4.551  1.00  0.00     0.029 A 
ATOM     49  C   UNL     1      13.477  -2.067  -3.894  1.00  0.00     0.049 A 
ATOM     50  H   UNL     1      11.421  -2.509  -3.709  1.00  0.00     0.167 HD
ATOM     51  C   UNL     1      13.415  -4.124  -2.513  1.00  0.00     0.074 A 
ATOM     52  C   UNL     1      14.047  -5.206  -1.787  1.00  0.00     0.031 C 
ATOM     53  C   UNL     1      14.089  -3.150  -3.170  1.00  0.00     0.037 A 
BRANCH  40  54
ATOM     54  C   UNL     1      10.454   0.978  -5.965  1.00  0.00     0.064 A 
ATOM     55  C   UNL     1      10.066   2.212  -5.425  1.00  0.00     0.173 A 
ATOM     56  C   UNL     1      10.819   0.939  -7.320  1.00  0.00     0.173 A 
ATOM     57  F   UNL     1       9.695   2.299  -4.139  1.00  0.00    -0.203 F 
ATOM     58  C   UNL     1      10.030   3.358  -6.216  1.00  0.00     0.198 A 
ATOM     59  C   UNL     1      10.807   2.091  -8.101  1.00  0.00     0.198 A 
ATOM     60  F   UNL     1      11.205  -0.216  -7.883  1.00  0.00    -0.203 F 
ATOM     61  F   UNL     1       9.624   4.521  -5.689  1.00  0.00    -0.200 F 
ATOM     62  C   UNL     1      10.408   3.299  -7.550  1.00  0.00     0.200 A 
ATOM     63  F   UNL     1      11.184   2.033  -9.386  1.00  0.00    -0.200 F 
ATOM     64  F   UNL     1      10.385   4.406  -8.305  1.00  0.00    -0.200 F 
ENDBRANCH  40  54
BRANCH  41  65
ATOM     65  C   UNL     1      10.655  -7.351  -0.496  1.00  0.00     0.064 A 
ATOM     66  C   UNL     1      11.024  -7.337   0.855  1.00  0.00     0.173 A 
ATOM     67  C   UNL     1      10.306  -8.584  -1.067  1.00  0.00     0.173 A 
ATOM     68  F   UNL     1      11.395  -6.186   1.436  1.00  0.00    -0.203 F 
ATOM     69  C   UNL     1      11.041  -8.509   1.607  1.00  0.00     0.198 A 
ATOM     70  C   UNL     1      10.295  -9.751  -0.307  1.00  0.00     0.198 A 
ATOM     71  F   UNL     1       9.950  -8.650  -2.358  1.00  0.00    -0.203 F 
ATOM     72  F   UNL     1      11.428  -8.475   2.889  1.00  0.00    -0.200 F 
ATOM     73  C   UNL     1      10.667  -9.713   1.029  1.00  0.00     0.200 A 
ATOM     74  F   UNL     1       9.920 -10.909  -0.866  1.00  0.00    -0.200 F 
ATOM     75  F   UNL     1      10.670 -10.838   1.756  1.00  0.00    -0.200 F 
ENDBRANCH  41  65
BRANCH  53  76
ATOM     76  C   UNL     1      15.585  -3.200  -3.113  1.00  0.00     0.064 A 
ATOM     77  C   UNL     1      16.314  -4.124  -3.876  1.00  0.00     0.173 A 
ATOM     78  C   UNL     1      16.296  -2.302  -2.305  1.00  0.00     0.173 A 
ATOM     79  F   UNL     1      15.675  -5.014  -4.649  1.00  0.00    -0.203 F 
ATOM     80  C   UNL     1      17.704  -4.160  -3.813  1.00  0.00     0.198 A 
ATOM     81  C   UNL     1      17.687  -2.327  -2.262  1.00  0.00     0.198 A 
ATOM     82  F   UNL     1      15.642  -1.398  -1.560  1.00  0.00    -0.203 F 
ATOM     83  F   UNL     1      18.381  -5.078  -4.518  1.00  0.00    -0.200 F 
ATOM     84  C   UNL     1      18.389  -3.260  -3.011  1.00  0.00     0.200 A 
ATOM     85  F   UNL     1      18.348  -1.453  -1.492  1.00  0.00    -0.200 F 
ATOM     86  F   UNL     1      19.727  -3.297  -2.952  1.00  0.00    -0.200 F 
ENDBRANCH  53  76
ENDBRANCH  27  28
ENDBRANCH  20  22
ENDBRANCH  19  20
ENDBRANCH  18  19
ENDBRANCH   1  18
TORSDOF 15
