REMARK SMILES O=C(CCOc1cc(-c2ccncc2)nc(-c2ccc(C(F)(F)F)cc2)n1)OCCOC(=O)c1ccc(-c2c3nc(c(-c4c(F)c(F)c(F)c(F)c4F)c4ccc([nH]4)c(-c4c(F)c(F)c(F)c(F)c4F)c4nc(c(-c5c(F)c(F)c(F)c(F)c5F)c5ccc2[nH]5)C=C4)C=C3)cc1
REMARK SMILES IDX 28 1 2 2 1 3 3 4 4 5 5 6 6 7 7 8 27 9 8 10 16 11 15 12 9 13
REMARK SMILES IDX 10 14 14 15 11 16 13 17 12 18 17 19 18 20 26 21 19 22 25 23
REMARK SMILES IDX 20 24 21 25 22 26 23 27 24 28 29 29 30 30 31 31 32 32 33 33
REMARK SMILES IDX 34 34 35 35 96 36 36 37 95 38 37 39 38 40 39 41 89 42 40 43
REMARK SMILES IDX 94 44 88 45 90 46 41 47 93 48 87 49 86 50 42 52 74 53 54 54
REMARK SMILES IDX 73 55 55 56 58 57 72 58 91 59 56 60 57 61 71 63 92 64 59 65
REMARK SMILES IDX 43 66 44 67 52 68 45 69 46 70 50 71 53 72 47 73 48 74 51 75
REMARK SMILES IDX 49 76 75 77 76 78 84 79 77 80 78 81 82 82 85 83 79 84 80 85
REMARK SMILES IDX 83 86 81 87 60 88 61 89 69 90 62 91 63 92 67 93 70 94 64 95
REMARK SMILES IDX 65 96 68 97 66 98
REMARK H PARENT 90 51 58 62
REMARK Flexibility Score: inf
ROOT
ATOM      1  O   UNL     1       3.152  -0.741   0.076  1.00  0.00    -0.462 OA
ENDROOT
BRANCH   1   2
ATOM      2  C   UNL     1       2.569   0.279  -0.586  1.00  0.00     0.309 C 
ATOM      3  O   UNL     1       1.341   0.348  -0.645  1.00  0.00    -0.252 OA
BRANCH   2   4
ATOM      4  C   UNL     1       3.397   1.413  -1.105  1.00  0.00     0.164 C 
BRANCH   4   5
ATOM      5  C   UNL     1       3.219   2.623  -0.192  1.00  0.00     0.243 C 
BRANCH   5   6
ATOM      6  O   UNL     1       4.081   2.606   0.943  1.00  0.00    -0.477 OA
BRANCH   6   7
ATOM      7  C   UNL     1       3.756   1.876   2.046  1.00  0.00     0.217 A 
ATOM      8  C   UNL     1       2.587   1.194   2.260  1.00  0.00     0.097 A 
ATOM      9  N   UNL     1       4.760   1.832   2.923  1.00  0.00    -0.193 NA
ATOM     10  C   UNL     1       2.601   0.253   3.274  1.00  0.00     0.078 A 
ATOM     11  C   UNL     1       4.605   1.042   3.999  1.00  0.00     0.163 A 
ATOM     12  N   UNL     1       3.603   0.166   4.169  1.00  0.00    -0.228 NA
BRANCH  10  13
ATOM     13  C   UNL     1       1.577  -0.795   3.322  1.00  0.00     0.003 A 
ATOM     14  C   UNL     1       1.847  -2.060   2.781  1.00  0.00     0.030 A 
ATOM     15  C   UNL     1       0.289  -0.552   3.804  1.00  0.00     0.030 A 
ATOM     16  C   UNL     1       0.832  -3.000   2.720  1.00  0.00     0.111 A 
ATOM     17  C   UNL     1      -0.655  -1.565   3.717  1.00  0.00     0.111 A 
ATOM     18  N   UNL     1      -0.414  -2.781   3.183  1.00  0.00    -0.265 NA
ENDBRANCH  10  13
BRANCH  11  19
ATOM     19  C   UNL     1       5.467   1.348   5.144  1.00  0.00     0.019 A 
ATOM     20  C   UNL     1       5.723   2.698   5.458  1.00  0.00     0.012 A 
ATOM     21  C   UNL     1       6.015   0.364   5.976  1.00  0.00     0.012 A 
ATOM     22  C   UNL     1       6.488   3.057   6.564  1.00  0.00     0.014 A 
ATOM     23  C   UNL     1       6.801   0.721   7.082  1.00  0.00     0.014 A 
ATOM     24  C   UNL     1       7.038   2.070   7.388  1.00  0.00     0.056 A 
BRANCH  24  25
ATOM     25  C   UNL     1       7.856   2.488   8.584  1.00  0.00     0.416 C 
ATOM     26  F   UNL     1       8.912   3.278   8.240  1.00  0.00    -0.166 F 
ATOM     27  F   UNL     1       7.130   3.210   9.482  1.00  0.00    -0.166 F 
ATOM     28  F   UNL     1       8.383   1.444   9.281  1.00  0.00    -0.166 F 
ENDBRANCH  24  25
ENDBRANCH  11  19
ENDBRANCH   6   7
ENDBRANCH   5   6
ENDBRANCH   4   5
ENDBRANCH   2   4
ENDBRANCH   1   2
BRANCH   1  29
ATOM     29  C   UNL     1       4.552  -1.099   0.069  1.00  0.00     0.274 C 
BRANCH  29  30
ATOM     30  C   UNL     1       4.750  -2.311  -0.839  1.00  0.00     0.275 C 
BRANCH  30  31
ATOM     31  O   UNL     1       4.285  -1.981  -2.157  1.00  0.00    -0.458 OA
BRANCH  31  32
ATOM     32  C   UNL     1       2.992  -2.318  -2.416  1.00  0.00     0.338 C 
ATOM     33  O   UNL     1       2.272  -3.039  -1.756  1.00  0.00    -0.246 OA
BRANCH  32  34
ATOM     34  C   UNL     1       2.530  -1.465  -3.532  1.00  0.00     0.060 A 
ATOM     35  C   UNL     1       1.258  -0.882  -3.454  1.00  0.00     0.016 A 
ATOM     36  C   UNL     1       3.368  -1.193  -4.615  1.00  0.00     0.016 A 
ATOM     37  C   UNL     1       0.824  -0.011  -4.452  1.00  0.00     0.010 A 
ATOM     38  C   UNL     1       2.924  -0.349  -5.628  1.00  0.00     0.010 A 
ATOM     39  C   UNL     1       1.646   0.231  -5.559  1.00  0.00    -0.014 A 
BRANCH  39  40
ATOM     40  C   UNL     1       1.121   0.911  -6.760  1.00  0.00     0.031 A 
ATOM     41  C   UNL     1       0.520   0.052  -7.833  1.00  0.00     0.074 A 
ATOM     42  C   UNL     1       1.268   2.235  -6.931  1.00  0.00     0.049 A 
ATOM     43  N   UNL     1       0.162   0.370  -9.049  1.00  0.00    -0.248 NA
ATOM     44  C   UNL     1       0.314  -1.366  -7.493  1.00  0.00     0.031 C 
ATOM     45  C   UNL     1       1.818   3.160  -5.943  1.00  0.00     0.029 A 
ATOM     46  N   UNL     1       0.999   3.023  -8.021  1.00  0.00    -0.354 N 
ATOM     47  C   UNL     1      -0.295  -0.808  -9.621  1.00  0.00     0.074 A 
ATOM     48  C   UNL     1      -0.157  -1.852  -8.630  1.00  0.00     0.031 C 
ATOM     49  C   UNL     1       1.884   4.388  -6.488  1.00  0.00     0.029 A 
ATOM     50  C   UNL     1       1.415   4.323  -7.872  1.00  0.00     0.049 A 
ATOM     51  H   UNL     1       0.552   2.689  -8.832  1.00  0.00     0.167 HD
ATOM     52  C   UNL     1      -0.783  -0.999 -10.867  1.00  0.00     0.037 A 
ATOM     53  C   UNL     1       1.447   5.328  -8.770  1.00  0.00     0.037 A 
ATOM     54  C   UNL     1      -0.910   0.044 -11.846  1.00  0.00     0.049 A 
ATOM     55  C   UNL     1       0.957   5.072 -10.174  1.00  0.00     0.074 A 
ATOM     56  C   UNL     1      -1.439  -0.030 -13.121  1.00  0.00     0.029 A 
ATOM     57  N   UNL     1      -0.486   1.351 -11.657  1.00  0.00    -0.354 N 
ATOM     58  N   UNL     1       0.471   3.971 -10.694  1.00  0.00    -0.248 NA
ATOM     59  C   UNL     1       1.026   6.197 -11.118  1.00  0.00     0.031 C 
ATOM     60  C   UNL     1      -1.286   1.222 -13.725  1.00  0.00     0.029 A 
ATOM     61  C   UNL     1      -0.707   2.086 -12.808  1.00  0.00     0.049 A 
ATOM     62  H   UNL     1      -0.088   1.702 -10.829  1.00  0.00     0.167 HD
ATOM     63  C   UNL     1       0.154   4.275 -12.012  1.00  0.00     0.074 A 
ATOM     64  C   UNL     1       0.493   5.669 -12.211  1.00  0.00     0.031 C 
ATOM     65  C   UNL     1      -0.368   3.476 -12.975  1.00  0.00     0.037 A 
BRANCH  52  66
ATOM     66  C   UNL     1      -1.183  -2.392 -11.248  1.00  0.00     0.064 A 
ATOM     67  C   UNL     1      -2.336  -2.996 -10.728  1.00  0.00     0.173 A 
ATOM     68  C   UNL     1      -0.413  -3.121 -12.166  1.00  0.00     0.173 A 
ATOM     69  F   UNL     1      -3.093  -2.346  -9.831  1.00  0.00    -0.203 F 
ATOM     70  C   UNL     1      -2.695  -4.288 -11.100  1.00  0.00     0.198 A 
ATOM     71  C   UNL     1      -0.788  -4.403 -12.555  1.00  0.00     0.198 A 
ATOM     72  F   UNL     1       0.703  -2.588 -12.687  1.00  0.00    -0.203 F 
ATOM     73  F   UNL     1      -3.779  -4.863 -10.561  1.00  0.00    -0.200 F 
ATOM     74  C   UNL     1      -1.926  -4.987 -12.019  1.00  0.00     0.200 A 
ATOM     75  F   UNL     1      -0.048  -5.074 -13.448  1.00  0.00    -0.200 F 
ATOM     76  F   UNL     1      -2.277  -6.229 -12.382  1.00  0.00    -0.200 F 
ENDBRANCH  52  66
BRANCH  53  77
ATOM     77  C   UNL     1       1.994   6.657  -8.390  1.00  0.00     0.064 A 
ATOM     78  C   UNL     1       1.165   7.784  -8.314  1.00  0.00     0.173 A 
ATOM     79  C   UNL     1       3.361   6.836  -8.131  1.00  0.00     0.173 A 
ATOM     80  F   UNL     1      -0.145   7.670  -8.579  1.00  0.00    -0.203 F 
ATOM     81  C   UNL     1       1.684   9.043  -8.016  1.00  0.00     0.198 A 
ATOM     82  C   UNL     1       3.876   8.090  -7.806  1.00  0.00     0.198 A 
ATOM     83  F   UNL     1       4.200   5.792  -8.193  1.00  0.00    -0.203 F 
ATOM     84  F   UNL     1       0.877  10.112  -8.002  1.00  0.00    -0.200 F 
ATOM     85  C   UNL     1       3.038   9.194  -7.759  1.00  0.00     0.200 A 
ATOM     86  F   UNL     1       5.183   8.230  -7.548  1.00  0.00    -0.200 F 
ATOM     87  F   UNL     1       3.538  10.405  -7.475  1.00  0.00    -0.200 F 
ENDBRANCH  53  77
BRANCH  65  88
ATOM     88  C   UNL     1      -0.632   4.089 -14.318  1.00  0.00     0.064 A 
ATOM     89  C   UNL     1       0.412   4.383 -15.206  1.00  0.00     0.173 A 
ATOM     90  C   UNL     1      -1.948   4.312 -14.749  1.00  0.00     0.173 A 
ATOM     91  F   UNL     1       1.687   4.200 -14.834  1.00  0.00    -0.203 F 
ATOM     92  C   UNL     1       0.147   4.890 -16.475  1.00  0.00     0.198 A 
ATOM     93  C   UNL     1      -2.211   4.793 -16.028  1.00  0.00     0.198 A 
ATOM     94  F   UNL     1      -2.981   4.038 -13.938  1.00  0.00    -0.203 F 
ATOM     95  F   UNL     1       1.160   5.195 -17.298  1.00  0.00    -0.200 F 
ATOM     96  C   UNL     1      -1.163   5.085 -16.889  1.00  0.00     0.200 A 
ATOM     97  F   UNL     1      -3.477   4.965 -16.431  1.00  0.00    -0.200 F 
ATOM     98  F   UNL     1      -1.416   5.557 -18.117  1.00  0.00    -0.200 F 
ENDBRANCH  65  88
ENDBRANCH  39  40
ENDBRANCH  32  34
ENDBRANCH  31  32
ENDBRANCH  30  31
ENDBRANCH  29  30
ENDBRANCH   1  29
TORSDOF 17
