REMARK SMILES CCOCCn1nc(C)cc1C(=O)N1CCc2nc[nH]c2[C@@H]1C(=O)OCCOC(=O)c1ccc(-c2c3nc(c(-c4c(F)c(F)c(F)c(F)c4F)c4ccc([nH]4)c(-c4c(F)c(F)c(F)c(F)c4F)c4nc(c(-c5c(F)c(F)c(F)c(F)c5F)c5ccc2[nH]5)C=C4)C=C3)cc1
REMARK SMILES IDX 23 1 24 2 22 3 14 4 15 5 16 6 21 7 17 8 20 9 18 10 19 11
REMARK SMILES IDX 12 13 13 14 11 15 6 16 7 17 8 18 10 19 9 20 5 21 4 22 3 23
REMARK SMILES IDX 2 24 1 25 25 26 26 27 27 28 28 29 29 30 30 31 31 32 32 33
REMARK SMILES IDX 93 34 33 35 92 36 34 37 35 38 36 39 86 40 37 41 91 42 85 43
REMARK SMILES IDX 87 44 38 45 90 46 84 47 83 48 39 50 71 51 51 52 70 53 52 54
REMARK SMILES IDX 55 55 69 56 88 57 53 58 54 59 68 61 89 62 56 63 40 64 41 65
REMARK SMILES IDX 49 66 42 67 43 68 47 69 50 70 44 71 45 72 48 73 46 74 72 75
REMARK SMILES IDX 73 76 81 77 74 78 75 79 79 80 82 81 76 82 77 83 80 84 78 85
REMARK SMILES IDX 57 86 58 87 66 88 59 89 60 90 64 91 67 92 61 93 62 94 65 95
REMARK SMILES IDX 63 96
REMARK H PARENT 20 12 87 49 55 60
REMARK Flexibility Score: inf
ROOT
ATOM      1  C   UNL     1       2.253   1.885  -1.186  1.00  0.00     0.335 C 
ATOM      2  O   UNL     1       2.705   2.336  -2.237  1.00  0.00    -0.249 OA
ENDROOT
BRANCH   1   3
ATOM      3  C   UNL     1       3.231   1.591  -0.084  1.00  0.00     0.244 C 
ATOM      4  N   UNL     1       4.535   1.076  -0.612  1.00  0.00    -0.318 N 
ATOM      5  C   UNL     1       5.708   1.561   0.173  1.00  0.00     0.127 C 
ATOM      6  C   UNL     1       5.423   1.780   1.692  1.00  0.00     0.080 C 
ATOM      7  C   UNL     1       3.145   0.871   1.238  1.00  0.00     0.072 A 
ATOM      8  C   UNL     1       4.254   0.949   2.078  1.00  0.00     0.066 A 
ATOM      9  N   UNL     1       2.427  -0.154   1.784  1.00  0.00    -0.346 N 
ATOM     10  N   UNL     1       4.276  -0.029   3.020  1.00  0.00    -0.242 NA
ATOM     11  C   UNL     1       3.201  -0.734   2.765  1.00  0.00     0.197 A 
ATOM     12  H   UNL     1       1.518  -0.429   1.523  1.00  0.00     0.167 HD
BRANCH   4  13
ATOM     13  C   UNL     1       4.629  -0.178  -1.272  1.00  0.00     0.273 C 
ATOM     14  O   UNL     1       5.512  -0.979  -0.973  1.00  0.00    -0.267 OA
BRANCH  13  15
ATOM     15  C   UNL     1       3.700  -0.504  -2.352  1.00  0.00     0.126 A 
ATOM     16  N   UNL     1       2.988  -1.675  -2.530  1.00  0.00    -0.257 N 
ATOM     17  N   UNL     1       2.158  -1.647  -3.596  1.00  0.00    -0.177 NA
ATOM     18  C   UNL     1       2.467  -0.518  -4.231  1.00  0.00     0.060 A 
ATOM     19  C   UNL     1       3.484   0.177  -3.546  1.00  0.00     0.059 A 
ATOM     20  C   UNL     1       1.724  -0.131  -5.454  1.00  0.00     0.069 C 
BRANCH  16  21
ATOM     21  C   UNL     1       3.013  -2.900  -1.749  1.00  0.00     0.173 C 
BRANCH  21  22
ATOM     22  C   UNL     1       2.237  -2.796  -0.445  1.00  0.00     0.183 C 
BRANCH  22  23
ATOM     23  O   UNL     1       0.853  -3.152  -0.497  1.00  0.00    -0.380 OA
BRANCH  23  24
ATOM     24  C   UNL     1      -0.068  -2.193  -1.010  1.00  0.00     0.157 C 
ATOM     25  C   UNL     1      -0.254  -1.012  -0.084  1.00  0.00     0.035 C 
ENDBRANCH  23  24
ENDBRANCH  22  23
ENDBRANCH  21  22
ENDBRANCH  16  21
ENDBRANCH  13  15
ENDBRANCH   4  13
ENDBRANCH   1   3
BRANCH   1  26
ATOM     26  O   UNL     1       0.933   1.725  -0.979  1.00  0.00    -0.460 OA
BRANCH  26  27
ATOM     27  C   UNL     1       0.151   1.542  -2.189  1.00  0.00     0.274 C 
BRANCH  27  28
ATOM     28  C   UNL     1      -0.122   2.727  -3.115  1.00  0.00     0.275 C 
BRANCH  28  29
ATOM     29  O   UNL     1       0.968   3.121  -3.943  1.00  0.00    -0.458 OA
BRANCH  29  30
ATOM     30  C   UNL     1       1.546   4.283  -3.542  1.00  0.00     0.338 C 
ATOM     31  O   UNL     1       1.538   4.757  -2.423  1.00  0.00    -0.246 OA
BRANCH  30  32
ATOM     32  C   UNL     1       1.906   5.070  -4.736  1.00  0.00     0.060 A 
ATOM     33  C   UNL     1       2.501   6.308  -4.493  1.00  0.00     0.016 A 
ATOM     34  C   UNL     1       1.356   4.754  -5.990  1.00  0.00     0.016 A 
ATOM     35  C   UNL     1       2.373   7.295  -5.447  1.00  0.00     0.010 A 
ATOM     36  C   UNL     1       1.224   5.747  -6.942  1.00  0.00     0.010 A 
ATOM     37  C   UNL     1       1.672   7.027  -6.633  1.00  0.00    -0.014 A 
BRANCH  37  38
ATOM     38  C   UNL     1       1.596   8.102  -7.604  1.00  0.00     0.031 A 
ATOM     39  C   UNL     1       2.920   8.421  -8.171  1.00  0.00     0.074 A 
ATOM     40  C   UNL     1       0.473   8.745  -7.974  1.00  0.00     0.049 A 
ATOM     41  N   UNL     1       3.638   9.457  -7.900  1.00  0.00    -0.248 NA
ATOM     42  C   UNL     1       3.604   7.398  -8.973  1.00  0.00     0.031 C 
ATOM     43  C   UNL     1      -0.913   8.377  -7.685  1.00  0.00     0.029 A 
ATOM     44  N   UNL     1       0.344   9.848  -8.772  1.00  0.00    -0.354 N 
ATOM     45  C   UNL     1       4.790   9.319  -8.661  1.00  0.00     0.074 A 
ATOM     46  C   UNL     1       4.798   7.968  -9.153  1.00  0.00     0.031 C 
ATOM     47  C   UNL     1      -1.738   9.106  -8.472  1.00  0.00     0.029 A 
ATOM     48  C   UNL     1      -0.952  10.081  -9.213  1.00  0.00     0.049 A 
ATOM     49  H   UNL     1       1.104  10.426  -9.012  1.00  0.00     0.167 HD
ATOM     50  C   UNL     1       5.462  10.429  -9.064  1.00  0.00     0.037 A 
ATOM     51  C   UNL     1      -1.330  10.979 -10.156  1.00  0.00     0.037 A 
ATOM     52  C   UNL     1       5.076  11.575  -8.275  1.00  0.00     0.049 A 
ATOM     53  C   UNL     1      -0.291  12.034 -10.204  1.00  0.00     0.074 A 
ATOM     54  C   UNL     1       5.212  11.979  -6.965  1.00  0.00     0.029 A 
ATOM     55  N   UNL     1       4.076  12.329  -8.827  1.00  0.00    -0.354 N 
ATOM     56  N   UNL     1      -0.092  12.900  -9.251  1.00  0.00    -0.248 NA
ATOM     57  C   UNL     1       0.772  11.945 -11.197  1.00  0.00     0.031 C 
ATOM     58  C   UNL     1       4.080  12.808  -6.693  1.00  0.00     0.029 A 
ATOM     59  C   UNL     1       3.315  12.912  -7.855  1.00  0.00     0.049 A 
ATOM     60  H   UNL     1       3.925  12.436  -9.794  1.00  0.00     0.167 HD
ATOM     61  C   UNL     1       1.273  13.110  -9.264  1.00  0.00     0.074 A 
ATOM     62  C   UNL     1       1.712  12.665 -10.580  1.00  0.00     0.031 C 
ATOM     63  C   UNL     1       1.947  13.316  -8.096  1.00  0.00     0.037 A 
BRANCH  50  64
ATOM     64  C   UNL     1       6.010  10.603 -10.466  1.00  0.00     0.064 A 
ATOM     65  C   UNL     1       6.715  11.786 -10.768  1.00  0.00     0.173 A 
ATOM     66  C   UNL     1       5.571   9.856 -11.583  1.00  0.00     0.173 A 
ATOM     67  F   UNL     1       7.154  12.588  -9.786  1.00  0.00    -0.203 F 
ATOM     68  C   UNL     1       6.884  12.229 -12.083  1.00  0.00     0.198 A 
ATOM     69  C   UNL     1       5.788  10.276 -12.893  1.00  0.00     0.198 A 
ATOM     70  F   UNL     1       4.808   8.764 -11.465  1.00  0.00    -0.203 F 
ATOM     71  F   UNL     1       7.433  13.428 -12.315  1.00  0.00    -0.200 F 
ATOM     72  C   UNL     1       6.413  11.477 -13.144  1.00  0.00     0.200 A 
ATOM     73  F   UNL     1       5.297   9.546 -13.905  1.00  0.00    -0.200 F 
ATOM     74  F   UNL     1       6.510  11.932 -14.399  1.00  0.00    -0.200 F 
ENDBRANCH  50  64
BRANCH  51  75
ATOM     75  C   UNL     1      -2.395  10.883 -11.186  1.00  0.00     0.064 A 
ATOM     76  C   UNL     1      -2.752  12.005 -11.959  1.00  0.00     0.173 A 
ATOM     77  C   UNL     1      -2.861   9.638 -11.647  1.00  0.00     0.173 A 
ATOM     78  F   UNL     1      -2.328  13.229 -11.612  1.00  0.00    -0.203 F 
ATOM     79  C   UNL     1      -3.476  11.880 -13.149  1.00  0.00     0.198 A 
ATOM     80  C   UNL     1      -3.593   9.516 -12.830  1.00  0.00     0.198 A 
ATOM     81  F   UNL     1      -2.531   8.502 -11.018  1.00  0.00    -0.203 F 
ATOM     82  F   UNL     1      -3.720  12.963 -13.899  1.00  0.00    -0.200 F 
ATOM     83  C   UNL     1      -3.881  10.633 -13.592  1.00  0.00     0.200 A 
ATOM     84  F   UNL     1      -3.953   8.300 -13.264  1.00  0.00    -0.200 F 
ATOM     85  F   UNL     1      -4.509  10.503 -14.769  1.00  0.00    -0.200 F 
ENDBRANCH  51  75
BRANCH  63  86
ATOM     86  C   UNL     1       1.160  13.839  -6.933  1.00  0.00     0.064 A 
ATOM     87  C   UNL     1       0.112  13.155  -6.298  1.00  0.00     0.173 A 
ATOM     88  C   UNL     1       1.550  15.075  -6.396  1.00  0.00     0.173 A 
ATOM     89  F   UNL     1      -0.262  11.932  -6.699  1.00  0.00    -0.203 F 
ATOM     90  C   UNL     1      -0.546  13.712  -5.202  1.00  0.00     0.198 A 
ATOM     91  C   UNL     1       0.920  15.607  -5.277  1.00  0.00     0.198 A 
ATOM     92  F   UNL     1       2.572  15.753  -6.941  1.00  0.00    -0.203 F 
ATOM     93  F   UNL     1      -1.564  13.056  -4.625  1.00  0.00    -0.200 F 
ATOM     94  C   UNL     1      -0.136  14.932  -4.689  1.00  0.00     0.200 A 
ATOM     95  F   UNL     1       1.350  16.766  -4.760  1.00  0.00    -0.200 F 
ATOM     96  F   UNL     1      -0.746  15.450  -3.613  1.00  0.00    -0.200 F 
ENDBRANCH  63  86
ENDBRANCH  37  38
ENDBRANCH  30  32
ENDBRANCH  29  30
ENDBRANCH  28  29
ENDBRANCH  27  28
ENDBRANCH  26  27
ENDBRANCH   1  26
TORSDOF 17
