REMARK SMILES C[C@@H](Nc1cccc(Cl)c1)[C@@H](C)C(=O)OCCOC(=O)c1ccc(-c2c3nc(c(-c4c(F)c(F)c(F)c(F)c4F)c4ccc([nH]4)c(-c4c(F)c(F)c(F)c(F)c4F)c4nc(c(-c5c(F)c(F)c(F)c(F)c5F)c5ccc2[nH]5)C=C4)C=C3)cc1
REMARK SMILES IDX 16 1 15 2 13 3 14 4 11 5 12 6 2 7 1 8 3 9 4 11 5 12 10 13
REMARK SMILES IDX 6 14 8 15 7 16 9 17 17 18 18 19 19 20 20 21 21 22 22 23
REMARK SMILES IDX 83 24 23 25 82 26 24 27 25 28 26 29 76 30 27 31 81 32 75 33
REMARK SMILES IDX 77 34 28 35 80 36 74 37 73 38 29 40 61 41 41 42 60 43 42 44
REMARK SMILES IDX 45 45 59 46 78 47 43 48 44 49 58 51 79 52 46 53 30 54 31 55
REMARK SMILES IDX 39 56 32 57 33 58 37 59 40 60 34 61 35 62 38 63 36 64 62 65
REMARK SMILES IDX 63 66 71 67 64 68 65 69 69 70 72 71 66 72 67 73 70 74 68 75
REMARK SMILES IDX 47 76 48 77 56 78 49 79 50 80 54 81 57 82 51 83 52 84 55 85
REMARK SMILES IDX 53 86
REMARK H PARENT 3 10 77 39 45 50
REMARK Flexibility Score: inf
ROOT
ATOM      1  C   UNL     1      -1.417  -3.397   3.975  1.00  0.00     0.274 C 
ENDROOT
BRANCH   1   2
ATOM      2  O   UNL     1      -0.758  -2.940   2.765  1.00  0.00    -0.462 OA
BRANCH   2   3
ATOM      3  C   UNL     1      -1.494  -2.898   1.615  1.00  0.00     0.310 C 
ATOM      4  O   UNL     1      -2.528  -3.538   1.453  1.00  0.00    -0.252 OA
BRANCH   3   5
ATOM      5  C   UNL     1      -1.043  -1.776   0.653  1.00  0.00     0.118 C 
ATOM      6  C   UNL     1      -1.360  -2.179  -0.788  1.00  0.00     0.022 C 
BRANCH   5   7
ATOM      7  C   UNL     1       0.398  -1.309   0.920  1.00  0.00     0.090 C 
ATOM      8  C   UNL     1       0.981  -0.434  -0.202  1.00  0.00     0.031 C 
BRANCH   7   9
ATOM      9  N   UNL     1       0.589  -0.557   2.172  1.00  0.00    -0.382 N 
ATOM     10  H   UNL     1       1.494  -0.603   2.555  1.00  0.00     0.160 HD
BRANCH   9  11
ATOM     11  C   UNL     1      -0.321   0.208   2.893  1.00  0.00     0.036 A 
ATOM     12  C   UNL     1      -2.047  -0.248   3.073  1.00  0.00     0.026 A 
ATOM     13  C   UNL     1       0.317   1.728   3.531  1.00  0.00     0.046 A 
ATOM     14  C   UNL     1      -3.258   0.705   3.878  1.00  0.00     0.004 A 
ATOM     15  C   UNL     1      -0.817   2.850   4.379  1.00  0.00     0.043 A 
ATOM     16  C   UNL     1      -2.749   2.264   4.545  1.00  0.00     0.020 A 
ATOM     17  Cl  UNL     1       0.322   4.073   5.132  1.00  0.00    -0.084 Cl
ENDBRANCH   9  11
ENDBRANCH   7   9
ENDBRANCH   5   7
ENDBRANCH   3   5
ENDBRANCH   2   3
ENDBRANCH   1   2
BRANCH   1  18
ATOM     18  C   UNL     1      -0.866  -2.631   5.202  1.00  0.00     0.275 C 
BRANCH  18  19
ATOM     19  O   UNL     1      -1.483  -1.323   5.278  1.00  0.00    -0.458 OA
BRANCH  19  20
ATOM     20  C   UNL     1      -0.655  -0.249   5.380  1.00  0.00     0.338 C 
ATOM     21  O   UNL     1       0.466  -0.263   5.870  1.00  0.00    -0.246 OA
BRANCH  20  22
ATOM     22  C   UNL     1      -1.311   1.060   4.824  1.00  0.00     0.060 A 
ATOM     23  C   UNL     1      -1.713   1.887   3.017  1.00  0.00     0.016 A 
ATOM     24  C   UNL     1      -1.577   2.137   6.268  1.00  0.00     0.016 A 
ATOM     25  C   UNL     1      -2.285   3.548   2.891  1.00  0.00     0.010 A 
ATOM     26  C   UNL     1      -2.192   3.799   5.988  1.00  0.00     0.010 A 
ATOM     27  C   UNL     1      -2.538   4.443   4.354  1.00  0.00    -0.014 A 
BRANCH  27  28
ATOM     28  C   UNL     1      -3.186   5.737   4.059  1.00  0.00     0.031 A 
ATOM     29  C   UNL     1      -2.323   6.936   3.981  1.00  0.00     0.074 A 
ATOM     30  C   UNL     1      -4.432   5.798   3.549  1.00  0.00     0.049 A 
ATOM     31  N   UNL     1      -2.613   8.196   4.108  1.00  0.00    -0.248 NA
ATOM     32  C   UNL     1      -0.905   6.666   3.756  1.00  0.00     0.031 C 
ATOM     33  C   UNL     1      -5.305   4.658   3.254  1.00  0.00     0.029 A 
ATOM     34  N   UNL     1      -5.157   6.881   3.123  1.00  0.00    -0.354 N 
ATOM     35  C   UNL     1      -1.381   8.831   4.175  1.00  0.00     0.074 A 
ATOM     36  C   UNL     1      -0.357   7.818   4.096  1.00  0.00     0.031 C 
ATOM     37  C   UNL     1      -6.442   5.105   2.692  1.00  0.00     0.029 A 
ATOM     38  C   UNL     1      -6.414   6.562   2.666  1.00  0.00     0.049 A 
ATOM     39  H   UNL     1      -4.810   7.802   3.142  1.00  0.00     0.167 HD
ATOM     40  C   UNL     1      -1.147  10.158   4.239  1.00  0.00     0.037 A 
ATOM     41  C   UNL     1      -7.429   7.378   2.322  1.00  0.00     0.037 A 
ATOM     42  C   UNL     1      -2.189  11.118   4.014  1.00  0.00     0.049 A 
ATOM     43  C   UNL     1      -7.185   8.865   2.427  1.00  0.00     0.074 A 
ATOM     44  C   UNL     1      -2.126  12.495   4.031  1.00  0.00     0.029 A 
ATOM     45  N   UNL     1      -3.483  10.772   3.636  1.00  0.00    -0.354 N 
ATOM     46  N   UNL     1      -6.082   9.503   2.751  1.00  0.00    -0.248 NA
ATOM     47  C   UNL     1      -8.322   9.747   2.142  1.00  0.00     0.031 C 
ATOM     48  C   UNL     1      -3.390  12.983   3.680  1.00  0.00     0.029 A 
ATOM     49  C   UNL     1      -4.227  11.910   3.400  1.00  0.00     0.049 A 
ATOM     50  H   UNL     1      -3.819   9.851   3.550  1.00  0.00     0.167 HD
ATOM     51  C   UNL     1      -6.383  10.856   2.688  1.00  0.00     0.074 A 
ATOM     52  C   UNL     1      -7.771  10.945   2.275  1.00  0.00     0.031 C 
ATOM     53  C   UNL     1      -5.599  11.932   2.953  1.00  0.00     0.037 A 
BRANCH  40  54
ATOM     54  C   UNL     1       0.237  10.600   4.608  1.00  0.00     0.064 A 
ATOM     55  C   UNL     1       1.359  10.389   3.793  1.00  0.00     0.173 A 
ATOM     56  C   UNL     1       0.447  11.194   5.863  1.00  0.00     0.173 A 
ATOM     57  F   UNL     1       1.224   9.810   2.590  1.00  0.00    -0.203 F 
ATOM     58  C   UNL     1       2.641  10.695   4.244  1.00  0.00     0.198 A 
ATOM     59  C   UNL     1       1.724  11.546   6.290  1.00  0.00     0.198 A 
ATOM     60  F   UNL     1      -0.588  11.420   6.686  1.00  0.00    -0.203 F 
ATOM     61  F   UNL     1       3.705  10.392   3.487  1.00  0.00    -0.200 F 
ATOM     62  C   UNL     1       2.822  11.279   5.488  1.00  0.00     0.200 A 
ATOM     63  F   UNL     1       1.892  12.125   7.486  1.00  0.00    -0.200 F 
ATOM     64  F   UNL     1       4.056  11.574   5.920  1.00  0.00    -0.200 F 
ENDBRANCH  40  54
BRANCH  41  65
ATOM     65  C   UNL     1      -8.763   6.828   1.943  1.00  0.00     0.064 A 
ATOM     66  C   UNL     1      -9.327   7.063   0.680  1.00  0.00     0.173 A 
ATOM     67  C   UNL     1      -9.527   6.081   2.856  1.00  0.00     0.173 A 
ATOM     68  F   UNL     1      -8.658   7.791  -0.227  1.00  0.00    -0.203 F 
ATOM     69  C   UNL     1     -10.601   6.594   0.355  1.00  0.00     0.198 A 
ATOM     70  C   UNL     1     -10.785   5.584   2.519  1.00  0.00     0.198 A 
ATOM     71  F   UNL     1      -9.050   5.829   4.084  1.00  0.00    -0.203 F 
ATOM     72  F   UNL     1     -11.135   6.882  -0.841  1.00  0.00    -0.200 F 
ATOM     73  C   UNL     1     -11.327   5.849   1.272  1.00  0.00     0.200 A 
ATOM     74  F   UNL     1     -11.475   4.854   3.406  1.00  0.00    -0.200 F 
ATOM     75  F   UNL     1     -12.549   5.399   0.959  1.00  0.00    -0.200 F 
ENDBRANCH  41  65
BRANCH  53  76
ATOM     76  C   UNL     1      -6.206  13.284   2.739  1.00  0.00     0.064 A 
ATOM     77  C   UNL     1      -7.165  13.806   3.617  1.00  0.00     0.173 A 
ATOM     78  C   UNL     1      -5.759  14.095   1.684  1.00  0.00     0.173 A 
ATOM     79  F   UNL     1      -7.630  13.061   4.631  1.00  0.00    -0.203 F 
ATOM     80  C   UNL     1      -7.673  15.088   3.433  1.00  0.00     0.198 A 
ATOM     81  C   UNL     1      -6.241  15.388   1.526  1.00  0.00     0.198 A 
ATOM     82  F   UNL     1      -4.832  13.640   0.827  1.00  0.00    -0.203 F 
ATOM     83  F   UNL     1      -8.622  15.553   4.256  1.00  0.00    -0.200 F 
ATOM     84  C   UNL     1      -7.202  15.881   2.396  1.00  0.00     0.200 A 
ATOM     85  F   UNL     1      -5.770  16.161   0.538  1.00  0.00    -0.200 F 
ATOM     86  F   UNL     1      -7.679  17.123   2.233  1.00  0.00    -0.200 F 
ENDBRANCH  53  76
ENDBRANCH  27  28
ENDBRANCH  20  22
ENDBRANCH  19  20
ENDBRANCH  18  19
ENDBRANCH   1  18
TORSDOF 14
