REMARK SMILES COc1ccc(NS(=O)(=O)c2ccc(NC(=O)[C@H]3CCCC[C@@H]3C(=O)OCCOC(=O)c3ccc(-c4c5nc(c(-c6c(F)c(F)c(F)c(F)c6F)c6ccc([nH]6)c(-c6c(F)c(F)c(F)c(F)c6F)c6nc(c(-c7c(F)c(F)c(F)c(F)c7F)c7ccc4[nH]7)C=C6)C=C5)cc3)cc2)cc1
REMARK SMILES IDX 24 1 25 2 23 3 18 4 19 5 20 6 22 7 21 8 16 9 15 10 17 12
REMARK SMILES IDX 14 13 11 14 12 15 96 16 13 17 95 18 8 19 9 20 10 21 7 22
REMARK SMILES IDX 6 24 3 25 4 26 98 27 5 28 97 29 2 30 1 31 26 32 27 33 28 34
REMARK SMILES IDX 29 35 30 36 31 37 32 38 33 39 94 40 34 41 93 42 35 43 36 44
REMARK SMILES IDX 37 45 87 46 38 47 92 48 86 49 88 50 39 51 91 52 85 53 84 54
REMARK SMILES IDX 40 56 72 57 52 58 71 59 53 60 56 61 70 62 89 63 54 64 55 65
REMARK SMILES IDX 69 67 90 68 57 69 41 70 42 71 50 72 43 73 44 74 48 75 51 76
REMARK SMILES IDX 45 77 46 78 49 79 47 80 73 81 74 82 82 83 75 84 76 85 80 86
REMARK SMILES IDX 83 87 77 88 78 89 81 90 79 91 58 92 59 93 67 94 60 95 61 96
REMARK SMILES IDX 65 97 68 98 62 99 63 100 66 101 64 102
REMARK H PARENT 15 11 7 23 88 55 56 66
REMARK Flexibility Score: inf
ROOT
ATOM      1  C   UNL     1      -5.954   0.447  -1.997  1.00  0.00     0.309 C 
ATOM      2  O   UNL     1      -5.654   1.089  -0.998  1.00  0.00    -0.252 OA
ENDROOT
BRANCH   1   3
ATOM      3  C   UNL     1      -5.313   0.665  -3.363  1.00  0.00     0.111 C 
ATOM      4  C   UNL     1      -5.066  -0.587  -4.212  1.00  0.00     0.093 C 
ATOM      5  C   UNL     1      -3.692  -1.194  -3.812  1.00  0.00     0.014 C 
ATOM      6  C   UNL     1      -2.542  -0.183  -3.873  1.00  0.00     0.001 C 
ATOM      7  C   UNL     1      -4.159   1.661  -3.364  1.00  0.00     0.016 C 
ATOM      8  C   UNL     1      -2.815   1.058  -3.039  1.00  0.00     0.001 C 
BRANCH   4   9
ATOM      9  C   UNL     1      -5.129  -0.472  -5.762  1.00  0.00     0.228 C 
ATOM     10  N   UNL     1      -5.802   0.472  -6.482  1.00  0.00    -0.326 N 
ATOM     11  H   UNL     1      -5.679   0.393  -7.456  1.00  0.00     0.169 HD
ATOM     12  O   UNL     1      -4.505  -1.293  -6.452  1.00  0.00    -0.274 OA
BRANCH  10  13
ATOM     13  C   UNL     1      -6.630   1.529  -6.101  1.00  0.00     0.041 A 
ATOM     14  C   UNL     1      -7.717   3.770  -4.867  1.00  0.00     0.087 A 
ATOM     15  C   UNL     1      -8.218   2.494  -4.569  1.00  0.00     0.024 A 
ATOM     16  C   UNL     1      -6.847   3.934  -5.944  1.00  0.00     0.024 A 
ATOM     17  C   UNL     1      -7.699   1.369  -5.220  1.00  0.00     0.027 A 
ATOM     18  C   UNL     1      -6.291   2.807  -6.557  1.00  0.00     0.027 A 
BRANCH  14  19
ATOM     19  S   UNL     1      -8.325   5.174  -3.976  1.00  0.00     0.261 S 
ATOM     20  O   UNL     1      -9.120   4.672  -2.875  1.00  0.00    -0.201 OA
ATOM     21  O   UNL     1      -8.927   6.055  -4.958  1.00  0.00    -0.201 OA
BRANCH  19  22
ATOM     22  N   UNL     1      -7.083   6.065  -3.238  1.00  0.00    -0.280 N 
ATOM     23  H   UNL     1      -7.221   7.035  -3.143  1.00  0.00     0.180 HD
BRANCH  22  24
ATOM     24  C   UNL     1      -5.849   5.525  -2.742  1.00  0.00     0.049 A 
ATOM     25  C   UNL     1      -3.257   4.942  -1.769  1.00  0.00     0.119 A 
ATOM     26  C   UNL     1      -3.528   4.940  -3.137  1.00  0.00     0.048 A 
ATOM     27  C   UNL     1      -4.279   5.277  -0.883  1.00  0.00     0.048 A 
ATOM     28  C   UNL     1      -4.812   5.225  -3.619  1.00  0.00     0.030 A 
ATOM     29  C   UNL     1      -5.569   5.567  -1.369  1.00  0.00     0.030 A 
BRANCH  25  30
ATOM     30  O   UNL     1      -1.968   4.630  -1.438  1.00  0.00    -0.497 OA
ATOM     31  C   UNL     1      -1.722   4.281  -0.081  1.00  0.00     0.278 C 
ENDBRANCH  25  30
ENDBRANCH  22  24
ENDBRANCH  19  22
ENDBRANCH  14  19
ENDBRANCH  10  13
ENDBRANCH   4   9
ENDBRANCH   1   3
BRANCH   1  32
ATOM     32  O   UNL     1      -7.017  -0.407  -2.075  1.00  0.00    -0.462 OA
BRANCH  32  33
ATOM     33  C   UNL     1      -7.903  -0.420  -0.934  1.00  0.00     0.274 C 
BRANCH  33  34
ATOM     34  C   UNL     1      -7.663  -1.630  -0.033  1.00  0.00     0.275 C 
BRANCH  34  35
ATOM     35  O   UNL     1      -6.286  -1.653   0.374  1.00  0.00    -0.458 OA
BRANCH  35  36
ATOM     36  C   UNL     1      -5.625  -2.816   0.182  1.00  0.00     0.338 C 
ATOM     37  O   UNL     1      -6.104  -3.893  -0.149  1.00  0.00    -0.246 OA
BRANCH  36  38
ATOM     38  C   UNL     1      -4.173  -2.602   0.351  1.00  0.00     0.060 A 
ATOM     39  C   UNL     1      -3.592  -1.422  -0.101  1.00  0.00     0.016 A 
ATOM     40  C   UNL     1      -3.352  -3.630   0.813  1.00  0.00     0.016 A 
ATOM     41  C   UNL     1      -2.212  -1.318  -0.217  1.00  0.00     0.010 A 
ATOM     42  C   UNL     1      -1.958  -3.467   0.808  1.00  0.00     0.010 A 
ATOM     43  C   UNL     1      -1.365  -2.324   0.243  1.00  0.00    -0.014 A 
BRANCH  43  44
ATOM     44  C   UNL     1       0.109  -2.213   0.026  1.00  0.00     0.031 A 
ATOM     45  C   UNL     1       0.846  -3.349  -0.632  1.00  0.00     0.074 A 
ATOM     46  C   UNL     1       0.800  -1.091   0.324  1.00  0.00     0.049 A 
ATOM     47  N   UNL     1       2.126  -3.617  -0.631  1.00  0.00    -0.248 NA
ATOM     48  C   UNL     1       0.030  -4.324  -1.373  1.00  0.00     0.031 C 
ATOM     49  C   UNL     1       0.235   0.154   0.847  1.00  0.00     0.029 A 
ATOM     50  N   UNL     1       2.141  -0.809   0.200  1.00  0.00    -0.354 N 
ATOM     51  C   UNL     1       2.253  -4.847  -1.263  1.00  0.00     0.074 A 
ATOM     52  C   UNL     1       0.927  -5.253  -1.675  1.00  0.00     0.031 C 
ATOM     53  C   UNL     1       1.198   1.084   0.918  1.00  0.00     0.029 A 
ATOM     54  C   UNL     1       2.477   0.463   0.600  1.00  0.00     0.049 A 
ATOM     55  H   UNL     1       2.798  -1.457  -0.142  1.00  0.00     0.167 HD
ATOM     56  C   UNL     1       3.378  -5.577  -1.452  1.00  0.00     0.037 A 
ATOM     57  C   UNL     1       3.679   1.045   0.769  1.00  0.00     0.037 A 
ATOM     58  C   UNL     1       4.702  -5.108  -1.137  1.00  0.00     0.049 A 
ATOM     59  C   UNL     1       4.920   0.222   0.567  1.00  0.00     0.074 A 
ATOM     60  C   UNL     1       5.910  -5.772  -1.263  1.00  0.00     0.029 A 
ATOM     61  N   UNL     1       4.994  -3.833  -0.677  1.00  0.00    -0.354 N 
ATOM     62  N   UNL     1       5.031  -1.019   0.159  1.00  0.00    -0.248 NA
ATOM     63  C   UNL     1       6.199   0.862   0.901  1.00  0.00     0.031 C 
ATOM     64  C   UNL     1       6.931  -4.903  -0.861  1.00  0.00     0.029 A 
ATOM     65  C   UNL     1       6.362  -3.687  -0.520  1.00  0.00     0.049 A 
ATOM     66  H   UNL     1       4.326  -3.134  -0.490  1.00  0.00     0.167 HD
ATOM     67  C   UNL     1       6.386  -1.312   0.197  1.00  0.00     0.074 A 
ATOM     68  C   UNL     1       7.063  -0.108   0.634  1.00  0.00     0.031 C 
ATOM     69  C   UNL     1       7.013  -2.480  -0.084  1.00  0.00     0.037 A 
BRANCH  56  70
ATOM     70  C   UNL     1       3.221  -6.980  -1.955  1.00  0.00     0.064 A 
ATOM     71  C   UNL     1       2.899  -7.273  -3.286  1.00  0.00     0.173 A 
ATOM     72  C   UNL     1       3.429  -8.057  -1.077  1.00  0.00     0.173 A 
ATOM     73  F   UNL     1       2.671  -6.281  -4.160  1.00  0.00    -0.203 F 
ATOM     74  C   UNL     1       2.771  -8.593  -3.716  1.00  0.00     0.198 A 
ATOM     75  C   UNL     1       3.327  -9.373  -1.516  1.00  0.00     0.198 A 
ATOM     76  F   UNL     1       3.740  -7.830   0.208  1.00  0.00    -0.203 F 
ATOM     77  F   UNL     1       2.420  -8.851  -4.984  1.00  0.00    -0.200 F 
ATOM     78  C   UNL     1       2.992  -9.640  -2.834  1.00  0.00     0.200 A 
ATOM     79  F   UNL     1       3.553 -10.382  -0.663  1.00  0.00    -0.200 F 
ATOM     80  F   UNL     1       2.876 -10.908  -3.252  1.00  0.00    -0.200 F 
ENDBRANCH  56  70
BRANCH  57  81
ATOM     81  C   UNL     1       3.766   2.452   1.248  1.00  0.00     0.064 A 
ATOM     82  C   UNL     1       4.289   3.462   0.429  1.00  0.00     0.173 A 
ATOM     83  C   UNL     1       3.321   2.818   2.528  1.00  0.00     0.173 A 
ATOM     84  F   UNL     1       4.760   3.160  -0.790  1.00  0.00    -0.203 F 
ATOM     85  C   UNL     1       4.360   4.782   0.871  1.00  0.00     0.198 A 
ATOM     86  C   UNL     1       3.358   4.143   2.955  1.00  0.00     0.198 A 
ATOM     87  F   UNL     1       2.820   1.890   3.357  1.00  0.00    -0.203 F 
ATOM     88  F   UNL     1       4.899   5.723   0.083  1.00  0.00    -0.200 F 
ATOM     89  C   UNL     1       3.883   5.124   2.128  1.00  0.00     0.200 A 
ATOM     90  F   UNL     1       2.877   4.469   4.162  1.00  0.00    -0.200 F 
ATOM     91  F   UNL     1       3.933   6.396   2.545  1.00  0.00    -0.200 F 
ENDBRANCH  57  81
BRANCH  69  92
ATOM     92  C   UNL     1       8.505  -2.500   0.054  1.00  0.00     0.064 A 
ATOM     93  C   UNL     1       9.120  -2.537   1.314  1.00  0.00     0.173 A 
ATOM     94  C   UNL     1       9.324  -2.505  -1.083  1.00  0.00     0.173 A 
ATOM     95  F   UNL     1       8.375  -2.515   2.430  1.00  0.00    -0.203 F 
ATOM     96  C   UNL     1      10.507  -2.555   1.430  1.00  0.00     0.198 A 
ATOM     97  C   UNL     1      10.710  -2.547  -0.964  1.00  0.00     0.198 A 
ATOM     98  F   UNL     1       8.780  -2.473  -2.309  1.00  0.00    -0.203 F 
ATOM     99  F   UNL     1      11.076  -2.546   2.643  1.00  0.00    -0.200 F 
ATOM    100  C   UNL     1      11.300  -2.565   0.292  1.00  0.00     0.200 A 
ATOM    101  F   UNL     1      11.476  -2.563  -2.063  1.00  0.00    -0.200 F 
ATOM    102  F   UNL     1      12.635  -2.583   0.405  1.00  0.00    -0.200 F 
ENDBRANCH  69  92
ENDBRANCH  43  44
ENDBRANCH  36  38
ENDBRANCH  35  36
ENDBRANCH  34  35
ENDBRANCH  33  34
ENDBRANCH  32  33
ENDBRANCH   1  32
TORSDOF 17
