REMARK SMILES C#CCN(CC(=O)OCCOC(=O)c1ccc(-c2c3nc(c(-c4c(F)c(F)c(F)c(F)c4F)c4ccc([nH]4)c(-c4c(F)c(F)c(F)c(F)c4F)c4nc(c(-c5c(F)c(F)c(F)c(F)c5F)c5ccc2[nH]5)C=C4)C=C3)cc1)C(=O)N1CC[N@H+]2CCC[C@H]2C1
REMARK SMILES IDX 9 1 8 2 6 3 7 4 5 5 4 6 3 7 2 8 1 9 77 10 78 11 79 12 80 13
REMARK SMILES IDX 87 14 81 15 86 16 82 17 85 18 83 19 84 21 10 22 11 23 12 24
REMARK SMILES IDX 13 25 14 26 15 27 76 28 16 29 75 30 17 31 18 32 19 33 69 34
REMARK SMILES IDX 20 35 74 36 68 37 70 38 21 39 73 40 67 41 66 42 22 44 54 45
REMARK SMILES IDX 34 46 53 47 35 48 38 49 52 50 71 51 36 52 37 53 51 55 72 56
REMARK SMILES IDX 39 57 23 58 24 59 32 60 25 61 26 62 30 63 33 64 27 65 28 66
REMARK SMILES IDX 31 67 29 68 55 69 56 70 64 71 57 72 58 73 62 74 65 75 59 76
REMARK SMILES IDX 60 77 63 78 61 79 40 80 41 81 49 82 42 83 43 84 47 85 50 86
REMARK SMILES IDX 44 87 45 88 48 89 46 90
REMARK H PARENT 82 20 70 43 38 54
REMARK Flexibility Score: inf
ROOT
ATOM      1  C   UNL     1      -6.832   0.381   1.069  1.00  0.00     0.274 C 
ENDROOT
BRANCH   1   2
ATOM      2  O   UNL     1      -5.445   0.452   0.611  1.00  0.00    -0.461 OA
BRANCH   2   3
ATOM      3  C   UNL     1      -4.639   1.264   1.349  1.00  0.00     0.325 C 
ATOM      4  O   UNL     1      -5.058   2.290   1.885  1.00  0.00    -0.250 OA
BRANCH   3   5
ATOM      5  C   UNL     1      -3.180   0.734   1.653  1.00  0.00     0.245 C 
BRANCH   5   6
ATOM      6  N   UNL     1      -2.505  -0.468   1.091  1.00  0.00    -0.302 N 
BRANCH   6   7
ATOM      7  C   UNL     1      -1.815  -0.050  -0.086  1.00  0.00     0.211 C 
BRANCH   7   8
ATOM      8  C   UNL     1      -0.295  -0.050  -0.086  1.00  0.00    -0.085 C 
ATOM      9  C   UNL     1       1.009  -0.050  -0.086  1.00  0.00     0.006 C 
ENDBRANCH   7   8
ENDBRANCH   6   7
BRANCH   6  10
ATOM     10  C   UNL     1      -2.671  -1.909   1.311  1.00  0.00     0.321 C 
ATOM     11  O   UNL     1      -2.359  -2.736   0.450  1.00  0.00    -0.248 OA
BRANCH  10  12
ATOM     12  N   UNL     1      -2.901  -2.378   2.653  1.00  0.00    -0.313 N 
ATOM     13  C   UNL     1      -4.463  -3.181   3.379  1.00  0.00     0.183 C 
ATOM     14  C   UNL     1      -1.575  -1.935   3.578  1.00  0.00     0.186 C 
ATOM     15  C   UNL     1      -5.056  -2.553   5.187  1.00  0.00     0.284 C 
ATOM     16  C   UNL     1      -1.957  -1.179   5.261  1.00  0.00     0.204 C 
ATOM     17  N   UNL     1      -3.890  -1.395   6.180  1.00  0.00    -0.330 N 
ATOM     18  C   UNL     1      -0.649  -2.021   6.550  1.00  0.00     0.073 C 
ATOM     19  C   UNL     1      -3.648  -2.176   7.893  1.00  0.00     0.262 C 
ATOM     20  H   UNL     1      -4.314  -0.469   6.222  1.00  0.00     0.348 HD
ATOM     21  C   UNL     1      -1.734  -2.609   8.183  1.00  0.00     0.068 C 
ENDBRANCH  10  12
ENDBRANCH   6  10
ENDBRANCH   5   6
ENDBRANCH   3   5
ENDBRANCH   2   3
ENDBRANCH   1   2
BRANCH   1  22
ATOM     22  C   UNL     1      -7.074  -0.448   2.375  1.00  0.00     0.275 C 
BRANCH  22  23
ATOM     23  O   UNL     1      -6.104  -0.213   3.444  1.00  0.00    -0.458 OA
BRANCH  23  24
ATOM     24  C   UNL     1      -4.947  -0.846   3.107  1.00  0.00     0.338 C 
ATOM     25  O   UNL     1      -4.905  -1.329   1.985  1.00  0.00    -0.246 OA
BRANCH  24  26
ATOM     26  C   UNL     1      -3.790  -1.016   4.206  1.00  0.00     0.060 A 
ATOM     27  C   UNL     1      -3.608   0.476   4.960  1.00  0.00     0.016 A 
ATOM     28  C   UNL     1      -3.083  -2.669   4.894  1.00  0.00     0.016 A 
ATOM     29  C   UNL     1      -2.817   0.599   6.332  1.00  0.00     0.010 A 
ATOM     30  C   UNL     1      -2.455  -2.615   6.321  1.00  0.00     0.010 A 
ATOM     31  C   UNL     1      -2.207  -0.801   7.144  1.00  0.00    -0.014 A 
BRANCH  31  32
ATOM     32  C   UNL     1      -1.190  -0.165   8.462  1.00  0.00     0.031 A 
ATOM     33  C   UNL     1       0.177  -0.824   9.123  1.00  0.00     0.074 A 
ATOM     34  C   UNL     1      -1.606   0.922   9.167  1.00  0.00     0.049 A 
ATOM     35  N   UNL     1       0.514  -0.829  10.410  1.00  0.00    -0.248 NA
ATOM     36  C   UNL     1       1.078  -1.758   8.401  1.00  0.00     0.031 C 
ATOM     37  C   UNL     1      -2.833   1.686   8.955  1.00  0.00     0.029 A 
ATOM     38  N   UNL     1      -1.020   1.591  10.228  1.00  0.00    -0.354 N 
ATOM     39  C   UNL     1       1.405  -1.904  10.550  1.00  0.00     0.074 A 
ATOM     40  C   UNL     1       1.327  -2.656   9.336  1.00  0.00     0.031 C 
ATOM     41  C   UNL     1      -2.820   2.799   9.697  1.00  0.00     0.029 A 
ATOM     42  C   UNL     1      -1.710   2.715  10.629  1.00  0.00     0.049 A 
ATOM     43  H   UNL     1      -0.186   1.291  10.657  1.00  0.00     0.167 HD
ATOM     44  C   UNL     1       2.374  -2.195  11.455  1.00  0.00     0.037 A 
ATOM     45  C   UNL     1      -1.547   3.551  11.675  1.00  0.00     0.037 A 
ATOM     46  C   UNL     1       2.686  -1.343  12.552  1.00  0.00     0.049 A 
ATOM     47  C   UNL     1      -0.482   3.256  12.696  1.00  0.00     0.074 A 
ATOM     48  C   UNL     1       3.661  -1.483  13.519  1.00  0.00     0.029 A 
ATOM     49  N   UNL     1       2.034  -0.148  12.783  1.00  0.00    -0.354 N 
ATOM     50  N   UNL     1       0.362   2.255  12.757  1.00  0.00    -0.248 NA
ATOM     51  C   UNL     1      -0.369   4.202  13.815  1.00  0.00     0.031 C 
ATOM     52  C   UNL     1       3.554  -0.390  14.383  1.00  0.00     0.029 A 
ATOM     53  C   UNL     1       2.565   0.454  13.902  1.00  0.00     0.049 A 
ATOM     54  H   UNL     1       1.304   0.217  12.234  1.00  0.00     0.167 HD
ATOM     55  C   UNL     1       1.126   2.472  13.898  1.00  0.00     0.074 A 
ATOM     56  C   UNL     1       0.656   3.705  14.489  1.00  0.00     0.031 C 
ATOM     57  C   UNL     1       2.121   1.716  14.421  1.00  0.00     0.037 A 
BRANCH  44  58
ATOM     58  C   UNL     1       3.201  -3.449  11.235  1.00  0.00     0.064 A 
ATOM     59  C   UNL     1       4.057  -3.605  10.126  1.00  0.00     0.173 A 
ATOM     60  C   UNL     1       3.054  -4.550  12.091  1.00  0.00     0.173 A 
ATOM     61  F   UNL     1       4.231  -2.595   9.258  1.00  0.00    -0.203 F 
ATOM     62  C   UNL     1       4.636  -4.838   9.825  1.00  0.00     0.198 A 
ATOM     63  C   UNL     1       3.680  -5.767  11.816  1.00  0.00     0.198 A 
ATOM     64  F   UNL     1       2.276  -4.460  13.179  1.00  0.00    -0.203 F 
ATOM     65  F   UNL     1       5.324  -4.993   8.684  1.00  0.00    -0.200 F 
ATOM     66  C   UNL     1       4.445  -5.918  10.670  1.00  0.00     0.200 A 
ATOM     67  F   UNL     1       3.510  -6.807  12.644  1.00  0.00    -0.200 F 
ATOM     68  F   UNL     1       4.976  -7.111  10.366  1.00  0.00    -0.200 F 
ENDBRANCH  44  58
BRANCH  45  69
ATOM     69  C   UNL     1      -2.435   4.742  11.831  1.00  0.00     0.064 A 
ATOM     70  C   UNL     1      -1.910   6.038  11.715  1.00  0.00     0.173 A 
ATOM     71  C   UNL     1      -3.808   4.625  12.101  1.00  0.00     0.173 A 
ATOM     72  F   UNL     1      -0.601   6.210  11.480  1.00  0.00    -0.203 F 
ATOM     73  C   UNL     1      -2.713   7.164  11.889  1.00  0.00     0.198 A 
ATOM     74  C   UNL     1      -4.620   5.752  12.229  1.00  0.00     0.198 A 
ATOM     75  F   UNL     1      -4.372   3.413  12.213  1.00  0.00    -0.203 F 
ATOM     76  F   UNL     1      -2.168   8.387  11.835  1.00  0.00    -0.200 F 
ATOM     77  C   UNL     1      -4.069   7.021  12.137  1.00  0.00     0.200 A 
ATOM     78  F   UNL     1      -5.935   5.608  12.444  1.00  0.00    -0.200 F 
ATOM     79  F   UNL     1      -4.842   8.104  12.298  1.00  0.00    -0.200 F 
ENDBRANCH  45  69
BRANCH  57  80
ATOM     80  C   UNL     1       2.841   2.235  15.621  1.00  0.00     0.064 A 
ATOM     81  C   UNL     1       2.251   2.243  16.890  1.00  0.00     0.173 A 
ATOM     82  C   UNL     1       4.181   2.635  15.504  1.00  0.00     0.173 A 
ATOM     83  F   UNL     1       0.971   1.871  17.043  1.00  0.00    -0.203 F 
ATOM     84  C   UNL     1       2.974   2.654  18.003  1.00  0.00     0.198 A 
ATOM     85  C   UNL     1       4.911   3.008  16.624  1.00  0.00     0.198 A 
ATOM     86  F   UNL     1       4.788   2.625  14.308  1.00  0.00    -0.203 F 
ATOM     87  F   UNL     1       2.383   2.692  19.205  1.00  0.00    -0.200 F 
ATOM     88  C   UNL     1       4.306   3.023  17.872  1.00  0.00     0.200 A 
ATOM     89  F   UNL     1       6.204   3.338  16.498  1.00  0.00    -0.200 F 
ATOM     90  F   UNL     1       5.008   3.395  18.950  1.00  0.00    -0.200 F 
ENDBRANCH  57  80
ENDBRANCH  31  32
ENDBRANCH  24  26
ENDBRANCH  23  24
ENDBRANCH  22  23
ENDBRANCH   1  22
TORSDOF 16
