REMARK SMILES COc1ccc([N+](=O)[O-])cc1OCC(C)(C)C(=O)OCCOC(=O)c1ccc(-c2c3nc(c(-c4c(F)c(F)c(F)c(F)c4F)c4ccc([nH]4)c(-c4c(F)c(F)c(F)c(F)c4F)c4nc(c(-c5c(F)c(F)c(F)c(F)c5F)c5ccc2[nH]5)C=C4)C=C3)cc1
REMARK SMILES IDX 20 1 19 2 17 3 18 4 14 5 15 6 16 7 13 8 12 9 11 10 3 11 4 12
REMARK SMILES IDX 5 13 10 14 6 15 2 16 1 17 7 18 8 19 9 20 21 21 22 22 23 23
REMARK SMILES IDX 24 24 25 25 26 26 87 27 27 28 86 29 28 30 29 31 30 32 80 33
REMARK SMILES IDX 31 34 85 35 79 36 81 37 32 38 84 39 78 40 77 41 33 43 65 44
REMARK SMILES IDX 45 45 64 46 46 47 49 48 63 49 82 50 47 51 48 52 62 54 83 55
REMARK SMILES IDX 50 56 34 57 35 58 43 59 36 60 37 61 41 62 44 63 38 64 39 65
REMARK SMILES IDX 42 66 40 67 66 68 67 69 75 70 68 71 69 72 73 73 76 74 70 75
REMARK SMILES IDX 71 76 74 77 72 78 51 79 52 80 60 81 53 82 54 83 58 84 61 85
REMARK SMILES IDX 55 86 56 87 59 88 57 89
REMARK H PARENT 81 42 49 53
REMARK Flexibility Score: inf
ROOT
ATOM      1  C   UNL     1       2.275  -2.131  -4.611  1.00  0.00     0.274 C 
ENDROOT
BRANCH   1   2
ATOM      2  O   UNL     1       1.707  -1.264  -3.611  1.00  0.00    -0.462 OA
BRANCH   2   3
ATOM      3  C   UNL     1       1.864  -1.641  -2.313  1.00  0.00     0.315 C 
ATOM      4  O   UNL     1       2.468  -2.648  -1.963  1.00  0.00    -0.251 OA
BRANCH   3   5
ATOM      5  C   UNL     1       1.094  -0.733  -1.353  1.00  0.00     0.096 C 
ATOM      6  C   UNL     1      -0.179  -1.508  -0.992  1.00  0.00     0.027 C 
ATOM      7  C   UNL     1       0.677   0.599  -2.013  1.00  0.00     0.027 C 
BRANCH   5   8
ATOM      8  C   UNL     1       1.976  -0.344  -0.135  1.00  0.00     0.248 C 
BRANCH   8   9
ATOM      9  O   UNL     1       2.579  -1.402   0.617  1.00  0.00    -0.488 OA
BRANCH   9  10
ATOM     10  C   UNL     1       1.785  -2.152   1.437  1.00  0.00     0.168 A 
ATOM     11  C   UNL     1       0.782  -1.657   2.283  1.00  0.00     0.161 A 
ATOM     12  C   UNL     1      -0.041  -2.552   2.977  1.00  0.00     0.057 A 
ATOM     13  C   UNL     1       0.176  -3.931   2.877  1.00  0.00     0.090 A 
ATOM     14  C   UNL     1       2.052  -3.525   1.389  1.00  0.00     0.136 A 
ATOM     15  C   UNL     1       1.249  -4.407   2.114  1.00  0.00     0.273 A 
BRANCH  11  16
ATOM     16  O   UNL     1       0.734  -0.309   2.505  1.00  0.00    -0.493 OA
ATOM     17  C   UNL     1      -0.565   0.269   2.523  1.00  0.00     0.278 C 
ENDBRANCH  11  16
BRANCH  15  18
ATOM     18  N   UNL     1       1.544  -5.841   2.087  1.00  0.00     0.062 N 
ATOM     19  O   UNL     1       0.636  -6.618   2.417  1.00  0.00    -0.258 OA
ATOM     20  O   UNL     1       2.686  -6.189   1.755  1.00  0.00    -0.258 OA
ENDBRANCH  15  18
ENDBRANCH   9  10
ENDBRANCH   8   9
ENDBRANCH   5   8
ENDBRANCH   3   5
ENDBRANCH   2   3
ENDBRANCH   1   2
BRANCH   1  21
ATOM     21  C   UNL     1       3.571  -1.545  -5.164  1.00  0.00     0.275 C 
BRANCH  21  22
ATOM     22  O   UNL     1       4.586  -1.526  -4.144  1.00  0.00    -0.458 OA
BRANCH  22  23
ATOM     23  C   UNL     1       4.871  -0.308  -3.632  1.00  0.00     0.338 C 
ATOM     24  O   UNL     1       4.407   0.770  -3.960  1.00  0.00    -0.246 OA
BRANCH  23  25
ATOM     25  C   UNL     1       5.814  -0.451  -2.515  1.00  0.00     0.060 A 
ATOM     26  C   UNL     1       5.322  -0.874  -1.284  1.00  0.00     0.016 A 
ATOM     27  C   UNL     1       7.130  -0.014  -2.630  1.00  0.00     0.016 A 
ATOM     28  C   UNL     1       6.101  -0.762  -0.138  1.00  0.00     0.010 A 
ATOM     29  C   UNL     1       7.949  -0.007  -1.494  1.00  0.00     0.010 A 
ATOM     30  C   UNL     1       7.434  -0.345  -0.227  1.00  0.00    -0.014 A 
BRANCH  30  31
ATOM     31  C   UNL     1       8.274  -0.220   0.999  1.00  0.00     0.031 A 
ATOM     32  C   UNL     1       8.927   1.096   1.329  1.00  0.00     0.074 A 
ATOM     33  C   UNL     1       8.457  -1.270   1.824  1.00  0.00     0.049 A 
ATOM     34  N   UNL     1       9.886   1.357   2.182  1.00  0.00    -0.248 NA
ATOM     35  C   UNL     1       8.448   2.274   0.589  1.00  0.00     0.031 C 
ATOM     36  C   UNL     1       7.836  -2.588   1.678  1.00  0.00     0.029 A 
ATOM     37  N   UNL     1       9.225  -1.393   2.958  1.00  0.00    -0.354 N 
ATOM     38  C   UNL     1      10.179   2.705   2.021  1.00  0.00     0.074 A 
ATOM     39  C   UNL     1       9.284   3.215   1.004  1.00  0.00     0.031 C 
ATOM     40  C   UNL     1       8.220  -3.373   2.696  1.00  0.00     0.029 A 
ATOM     41  C   UNL     1       9.193  -2.652   3.508  1.00  0.00     0.049 A 
ATOM     42  H   UNL     1       9.748  -0.651   3.338  1.00  0.00     0.167 HD
ATOM     43  C   UNL     1      11.120   3.443   2.657  1.00  0.00     0.037 A 
ATOM     44  C   UNL     1       9.908  -3.188   4.515  1.00  0.00     0.037 A 
ATOM     45  C   UNL     1      11.949   2.952   3.727  1.00  0.00     0.049 A 
ATOM     46  C   UNL     1      10.954  -2.353   5.199  1.00  0.00     0.074 A 
ATOM     47  C   UNL     1      12.912   3.631   4.456  1.00  0.00     0.029 A 
ATOM     48  N   UNL     1      11.895   1.665   4.239  1.00  0.00    -0.354 N 
ATOM     49  N   UNL     1      11.285  -1.103   4.986  1.00  0.00    -0.248 NA
ATOM     50  C   UNL     1      11.747  -3.015   6.245  1.00  0.00     0.031 C 
ATOM     51  C   UNL     1      13.460   2.744   5.389  1.00  0.00     0.029 A 
ATOM     52  C   UNL     1      12.813   1.526   5.267  1.00  0.00     0.049 A 
ATOM     53  H   UNL     1      11.293   0.954   3.920  1.00  0.00     0.167 HD
ATOM     54  C   UNL     1      12.315  -0.826   5.873  1.00  0.00     0.074 A 
ATOM     55  C   UNL     1      12.541  -2.031   6.643  1.00  0.00     0.031 C 
ATOM     56  C   UNL     1      13.018   0.322   6.028  1.00  0.00     0.037 A 
BRANCH  43  57
ATOM     57  C   UNL     1      11.342   4.850   2.187  1.00  0.00     0.064 A 
ATOM     58  C   UNL     1      10.444   5.886   2.475  1.00  0.00     0.173 A 
ATOM     59  C   UNL     1      12.509   5.170   1.474  1.00  0.00     0.173 A 
ATOM     60  F   UNL     1       9.309   5.630   3.140  1.00  0.00    -0.203 F 
ATOM     61  C   UNL     1      10.697   7.189   2.050  1.00  0.00     0.198 A 
ATOM     62  C   UNL     1      12.771   6.477   1.074  1.00  0.00     0.198 A 
ATOM     63  F   UNL     1      13.404   4.215   1.178  1.00  0.00    -0.203 F 
ATOM     64  F   UNL     1       9.807   8.159   2.304  1.00  0.00    -0.200 F 
ATOM     65  C   UNL     1      11.863   7.485   1.358  1.00  0.00     0.200 A 
ATOM     66  F   UNL     1      13.903   6.762   0.416  1.00  0.00    -0.200 F 
ATOM     67  F   UNL     1      12.108   8.741   0.960  1.00  0.00    -0.200 F 
ENDBRANCH  43  57
BRANCH  44  68
ATOM     68  C   UNL     1       9.704  -4.611   4.893  1.00  0.00     0.064 A 
ATOM     69  C   UNL     1       9.143  -4.957   6.130  1.00  0.00     0.173 A 
ATOM     70  C   UNL     1      10.072  -5.654   4.028  1.00  0.00     0.173 A 
ATOM     71  F   UNL     1       8.806  -3.997   7.003  1.00  0.00    -0.203 F 
ATOM     72  C   UNL     1       8.970  -6.291   6.492  1.00  0.00     0.198 A 
ATOM     73  C   UNL     1       9.868  -6.986   4.378  1.00  0.00     0.198 A 
ATOM     74  F   UNL     1      10.620  -5.376   2.836  1.00  0.00    -0.203 F 
ATOM     75  F   UNL     1       8.476  -6.595   7.700  1.00  0.00    -0.200 F 
ATOM     76  C   UNL     1       9.324  -7.304   5.613  1.00  0.00     0.200 A 
ATOM     77  F   UNL     1      10.204  -7.960   3.522  1.00  0.00    -0.200 F 
ATOM     78  F   UNL     1       9.154  -8.586   5.962  1.00  0.00    -0.200 F 
ENDBRANCH  44  68
BRANCH  56  79
ATOM     79  C   UNL     1      14.075   0.335   7.091  1.00  0.00     0.064 A 
ATOM     80  C   UNL     1      15.298  -0.327   6.915  1.00  0.00     0.173 A 
ATOM     81  C   UNL     1      13.872   1.042   8.285  1.00  0.00     0.173 A 
ATOM     82  F   UNL     1      15.530  -1.031   5.797  1.00  0.00    -0.203 F 
ATOM     83  C   UNL     1      16.273  -0.300   7.909  1.00  0.00     0.198 A 
ATOM     84  C   UNL     1      14.858   1.087   9.265  1.00  0.00     0.198 A 
ATOM     85  F   UNL     1      12.719   1.695   8.496  1.00  0.00    -0.203 F 
ATOM     86  F   UNL     1      17.419  -0.975   7.739  1.00  0.00    -0.200 F 
ATOM     87  C   UNL     1      16.055   0.411   9.079  1.00  0.00     0.200 A 
ATOM     88  F   UNL     1      14.650   1.782  10.392  1.00  0.00    -0.200 F 
ATOM     89  F   UNL     1      16.996   0.439  10.033  1.00  0.00    -0.200 F 
ENDBRANCH  56  79
ENDBRANCH  30  31
ENDBRANCH  23  25
ENDBRANCH  22  23
ENDBRANCH  21  22
ENDBRANCH   1  21
TORSDOF 16
