REMARK SMILES CCc1c(C(=O)NCC(=O)OCCOC(=O)c2ccc(-c3c4nc(c(-c5c(F)c(F)c(F)c(F)c5F)c5ccc([nH]5)c(-c5c(F)c(F)c(F)c(F)c5F)c5nc(c(-c6c(F)c(F)c(F)c(F)c6F)c6ccc3[nH]6)C=C5)C=C4)cc2)nnn1-c1ccc(Cl)cc1
REMARK SMILES IDX 12 1 11 2 9 3 10 4 8 5 7 6 5 7 6 8 4 10 3 11 82 12 80 13
REMARK SMILES IDX 81 14 2 15 1 16 83 17 84 18 89 19 85 20 88 21 86 22 87 23
REMARK SMILES IDX 13 24 14 25 15 26 16 27 17 28 18 29 79 30 19 31 78 32 20 33
REMARK SMILES IDX 21 34 22 35 72 36 23 37 77 38 71 39 73 40 24 41 76 42 70 43
REMARK SMILES IDX 69 44 25 46 57 47 37 48 56 49 38 50 41 51 55 52 74 53 39 54
REMARK SMILES IDX 40 55 54 57 75 58 42 59 26 60 27 61 35 62 28 63 29 64 33 65
REMARK SMILES IDX 36 66 30 67 31 68 34 69 32 70 58 71 59 72 67 73 60 74 61 75
REMARK SMILES IDX 65 76 68 77 62 78 63 79 66 80 64 81 43 82 44 83 52 84 45 85
REMARK SMILES IDX 46 86 50 87 53 88 47 89 48 90 51 91 49 92
REMARK H PARENT 7 9 73 45 41 56
REMARK Flexibility Score: inf
ROOT
ATOM      1  C   UNL     1       4.491   2.103  -0.504  1.00  0.00     0.274 C 
ENDROOT
BRANCH   1   2
ATOM      2  O   UNL     1       3.495   1.862  -1.517  1.00  0.00    -0.461 OA
BRANCH   2   3
ATOM      3  C   UNL     1       2.291   2.482  -1.351  1.00  0.00     0.325 C 
ATOM      4  O   UNL     1       1.907   2.996  -0.306  1.00  0.00    -0.250 OA
BRANCH   3   5
ATOM      5  C   UNL     1       1.506   2.593  -2.662  1.00  0.00     0.239 C 
BRANCH   5   6
ATOM      6  N   UNL     1       2.067   1.882  -3.777  1.00  0.00    -0.340 N 
ATOM      7  C   UNL     1       2.042   0.582  -4.182  1.00  0.00     0.274 C 
ATOM      8  O   UNL     1       2.608   0.395  -5.265  1.00  0.00    -0.267 OA
ATOM      9  H   UNL     1       2.584   2.462  -4.381  1.00  0.00     0.164 HD
BRANCH   7  10
ATOM     10  C   UNL     1       1.457  -0.554  -3.450  1.00  0.00     0.174 A 
ATOM     11  C   UNL     1       0.692  -0.791  -2.297  1.00  0.00     0.077 A 
ATOM     12  N   UNL     1       0.537  -2.184  -2.294  1.00  0.00    -0.217 N 
ATOM     13  N   UNL     1       1.782  -1.791  -3.991  1.00  0.00    -0.124 NA
ATOM     14  N   UNL     1       1.314  -2.749  -3.225  1.00  0.00    -0.061 NA
BRANCH  11  15
ATOM     15  C   UNL     1       0.176   0.009  -1.143  1.00  0.00     0.055 C 
ATOM     16  C   UNL     1       0.996  -0.195   0.126  1.00  0.00     0.011 C 
ENDBRANCH  11  15
BRANCH  12  17
ATOM     17  C   UNL     1      -0.181  -3.002  -1.389  1.00  0.00     0.067 A 
ATOM     18  C   UNL     1       0.451  -4.136  -0.862  1.00  0.00     0.030 A 
ATOM     19  C   UNL     1      -1.478  -2.665  -0.985  1.00  0.00     0.030 A 
ATOM     20  C   UNL     1      -0.180  -4.870   0.142  1.00  0.00     0.023 A 
ATOM     21  C   UNL     1      -2.108  -3.410   0.011  1.00  0.00     0.023 A 
ATOM     22  C   UNL     1      -1.449  -4.496   0.585  1.00  0.00     0.041 A 
ATOM     23  Cl  UNL     1      -2.207  -5.377   1.851  1.00  0.00    -0.084 Cl
ENDBRANCH  12  17
ENDBRANCH   7  10
ENDBRANCH   5   6
ENDBRANCH   3   5
ENDBRANCH   2   3
ENDBRANCH   1   2
BRANCH   1  24
ATOM     24  C   UNL     1       5.351   3.312  -0.865  1.00  0.00     0.275 C 
BRANCH  24  25
ATOM     25  O   UNL     1       4.562   4.501  -0.929  1.00  0.00    -0.458 OA
BRANCH  25  26
ATOM     26  C   UNL     1       4.040   4.762  -2.148  1.00  0.00     0.338 C 
ATOM     27  O   UNL     1       4.065   4.052  -3.136  1.00  0.00    -0.246 OA
BRANCH  26  28
ATOM     28  C   UNL     1       3.479   6.112  -2.170  1.00  0.00     0.060 A 
ATOM     29  C   UNL     1       2.702   6.460  -3.281  1.00  0.00     0.016 A 
ATOM     30  C   UNL     1       3.979   7.064  -1.276  1.00  0.00     0.016 A 
ATOM     31  C   UNL     1       2.599   7.789  -3.617  1.00  0.00     0.010 A 
ATOM     32  C   UNL     1       3.897   8.387  -1.626  1.00  0.00     0.010 A 
ATOM     33  C   UNL     1       3.285   8.718  -2.835  1.00  0.00    -0.014 A 
BRANCH  33  34
ATOM     34  C   UNL     1       3.375  10.075  -3.320  1.00  0.00     0.031 A 
ATOM     35  C   UNL     1       2.167  10.889  -3.079  1.00  0.00     0.074 A 
ATOM     36  C   UNL     1       4.535  10.550  -3.810  1.00  0.00     0.049 A 
ATOM     37  N   UNL     1       1.437  11.513  -3.942  1.00  0.00    -0.248 NA
ATOM     38  C   UNL     1       1.643  10.921  -1.704  1.00  0.00     0.031 C 
ATOM     39  C   UNL     1       5.846   9.889  -3.803  1.00  0.00     0.029 A 
ATOM     40  N   UNL     1       4.811  11.783  -4.309  1.00  0.00    -0.354 N 
ATOM     41  C   UNL     1       0.461  12.164  -3.197  1.00  0.00     0.074 A 
ATOM     42  C   UNL     1       0.532  11.637  -1.861  1.00  0.00     0.031 C 
ATOM     43  C   UNL     1       6.803  10.804  -4.068  1.00  0.00     0.029 A 
ATOM     44  C   UNL     1       6.164  12.071  -4.378  1.00  0.00     0.049 A 
ATOM     45  H   UNL     1       4.112  12.414  -4.595  1.00  0.00     0.167 HD
ATOM     46  C   UNL     1      -0.155  13.279  -3.668  1.00  0.00     0.037 A 
ATOM     47  C   UNL     1       6.711  13.291  -4.590  1.00  0.00     0.037 A 
ATOM     48  C   UNL     1      -0.055  13.372  -5.100  1.00  0.00     0.049 A 
ATOM     49  C   UNL     1       5.662  14.159  -5.178  1.00  0.00     0.074 A 
ATOM     50  C   UNL     1      -0.501  12.606  -6.158  1.00  0.00     0.029 A 
ATOM     51  N   UNL     1       0.894  14.217  -5.615  1.00  0.00    -0.354 N 
ATOM     52  N   UNL     1       5.162  14.000  -6.371  1.00  0.00    -0.248 NA
ATOM     53  C   UNL     1       4.868  14.987  -4.279  1.00  0.00     0.031 C 
ATOM     54  C   UNL     1       0.496  12.739  -7.168  1.00  0.00     0.029 A 
ATOM     55  C   UNL     1       1.486  13.596  -6.684  1.00  0.00     0.049 A 
ATOM     56  H   UNL     1       1.112  15.115  -5.276  1.00  0.00     0.167 HD
ATOM     57  C   UNL     1       3.824  14.344  -6.245  1.00  0.00     0.074 A 
ATOM     58  C   UNL     1       3.736  15.068  -4.983  1.00  0.00     0.031 C 
ATOM     59  C   UNL     1       2.878  13.759  -7.036  1.00  0.00     0.037 A 
BRANCH  46  60
ATOM     60  C   UNL     1      -0.493  14.463  -2.797  1.00  0.00     0.064 A 
ATOM     61  C   UNL     1      -1.263  15.511  -3.336  1.00  0.00     0.173 A 
ATOM     62  C   UNL     1       0.153  14.749  -1.572  1.00  0.00     0.173 A 
ATOM     63  F   UNL     1      -1.896  15.358  -4.508  1.00  0.00    -0.203 F 
ATOM     64  C   UNL     1      -1.320  16.768  -2.730  1.00  0.00     0.198 A 
ATOM     65  C   UNL     1       0.044  15.985  -0.941  1.00  0.00     0.198 A 
ATOM     66  F   UNL     1       1.005  13.893  -0.994  1.00  0.00    -0.203 F 
ATOM     67  F   UNL     1      -1.958  17.773  -3.345  1.00  0.00    -0.200 F 
ATOM     68  C   UNL     1      -0.664  17.006  -1.536  1.00  0.00     0.200 A 
ATOM     69  F   UNL     1       0.706  16.199   0.205  1.00  0.00    -0.200 F 
ATOM     70  F   UNL     1      -0.667  18.226  -0.986  1.00  0.00    -0.200 F 
ENDBRANCH  46  60
BRANCH  47  71
ATOM     71  C   UNL     1       7.980  13.820  -4.043  1.00  0.00     0.064 A 
ATOM     72  C   UNL     1       8.615  14.930  -4.620  1.00  0.00     0.173 A 
ATOM     73  C   UNL     1       8.468  13.400  -2.789  1.00  0.00     0.173 A 
ATOM     74  F   UNL     1       8.178  15.424  -5.788  1.00  0.00    -0.203 F 
ATOM     75  C   UNL     1       9.666  15.589  -3.975  1.00  0.00     0.198 A 
ATOM     76  C   UNL     1       9.524  14.050  -2.152  1.00  0.00     0.198 A 
ATOM     77  F   UNL     1       7.869  12.408  -2.114  1.00  0.00    -0.203 F 
ATOM     78  F   UNL     1      10.211  16.681  -4.528  1.00  0.00    -0.200 F 
ATOM     79  C   UNL     1      10.116  15.152  -2.739  1.00  0.00     0.200 A 
ATOM     80  F   UNL     1       9.923  13.638  -0.940  1.00  0.00    -0.200 F 
ATOM     81  F   UNL     1      11.087  15.815  -2.096  1.00  0.00    -0.200 F 
ENDBRANCH  47  71
BRANCH  59  82
ATOM     82  C   UNL     1       3.364  13.008  -8.242  1.00  0.00     0.064 A 
ATOM     83  C   UNL     1       4.126  11.829  -8.174  1.00  0.00     0.173 A 
ATOM     84  C   UNL     1       2.933  13.425  -9.508  1.00  0.00     0.173 A 
ATOM     85  F   UNL     1       4.487  11.310  -6.994  1.00  0.00    -0.203 F 
ATOM     86  C   UNL     1       4.483  11.131  -9.325  1.00  0.00     0.198 A 
ATOM     87  C   UNL     1       3.258  12.705 -10.654  1.00  0.00     0.198 A 
ATOM     88  F   UNL     1       2.152  14.511  -9.627  1.00  0.00    -0.203 F 
ATOM     89  F   UNL     1       5.225  10.017  -9.234  1.00  0.00    -0.200 F 
ATOM     90  C   UNL     1       4.042  11.566 -10.564  1.00  0.00     0.200 A 
ATOM     91  F   UNL     1       2.787  13.101 -11.845  1.00  0.00    -0.200 F 
ATOM     92  F   UNL     1       4.349  10.872 -11.669  1.00  0.00    -0.200 F 
ENDBRANCH  59  82
ENDBRANCH  33  34
ENDBRANCH  26  28
ENDBRANCH  25  26
ENDBRANCH  24  25
ENDBRANCH   1  24
TORSDOF 15
