REMARK SMILES O=C(OCCOC(=O)c1ccc(-c2c3nc(c(-c4c(F)c(F)c(F)c(F)c4F)c4ccc([nH]4)c(-c4c(F)c(F)c(F)c(F)c4F)c4nc(c(-c5c(F)c(F)c(F)c(F)c5F)c5ccc2[nH]5)C=C4)C=C3)cc1)c1ccc(NC(=O)[C@@H]2CC=CC[C@@H]2C(=O)Nc2ccc(Br)cc2)cc1
REMARK SMILES IDX 4 1 3 2 2 3 1 4 72 5 73 6 96 7 74 8 95 9 75 10 76 11 77 12
REMARK SMILES IDX 78 14 79 15 80 16 84 17 81 18 83 19 82 20 85 21 86 22 87 23
REMARK SMILES IDX 88 25 89 26 94 27 90 28 93 29 91 30 92 31 5 32 6 33 7 34
REMARK SMILES IDX 8 35 9 36 10 37 71 38 11 39 70 40 12 41 13 42 14 43 64 44
REMARK SMILES IDX 15 45 69 46 63 47 65 48 16 49 68 50 62 51 61 52 17 54 49 55
REMARK SMILES IDX 29 56 48 57 30 58 33 59 47 60 66 61 31 62 32 63 46 65 67 66
REMARK SMILES IDX 34 67 18 68 19 69 27 70 20 71 21 72 25 73 28 74 22 75 23 76
REMARK SMILES IDX 26 77 24 78 50 79 51 80 59 81 52 82 53 83 57 84 60 85 54 86
REMARK SMILES IDX 55 87 58 88 56 89 35 90 36 91 44 92 37 93 38 94 42 95 45 96
REMARK SMILES IDX 39 97 40 98 43 99 41 100
REMARK H PARENT 76 13 87 24 65 53 33 64
REMARK Flexibility Score: inf
ROOT
ATOM      1  C   UNL     1       1.996   7.305  -4.325  1.00  0.00     0.275 C 
ENDROOT
BRANCH   1   2
ATOM      2  O   UNL     1       1.822   7.833  -2.994  1.00  0.00    -0.458 OA
BRANCH   2   3
ATOM      3  C   UNL     1       2.304   7.433  -1.793  1.00  0.00     0.338 C 
ATOM      4  O   UNL     1       2.079   8.134  -0.807  1.00  0.00    -0.246 OA
BRANCH   3   5
ATOM      5  C   UNL     1       3.185   6.238  -1.593  1.00  0.00     0.060 A 
ATOM      6  C   UNL     1       3.253   5.122  -2.418  1.00  0.00     0.018 A 
ATOM      7  C   UNL     1       4.011   6.232  -0.459  1.00  0.00     0.018 A 
ATOM      8  C   UNL     1       4.257   4.150  -2.247  1.00  0.00     0.027 A 
ATOM      9  C   UNL     1       4.995   5.247  -0.284  1.00  0.00     0.027 A 
ATOM     10  C   UNL     1       5.224   4.271  -1.256  1.00  0.00     0.041 A 
BRANCH  10  11
ATOM     11  N   UNL     1       6.463   3.592  -1.165  1.00  0.00    -0.326 N 
ATOM     12  C   UNL     1       7.236   2.853  -2.025  1.00  0.00     0.228 C 
ATOM     13  H   UNL     1       6.867   3.668  -0.271  1.00  0.00     0.169 HD
ATOM     14  O   UNL     1       8.395   2.614  -1.675  1.00  0.00    -0.274 OA
BRANCH  12  15
ATOM     15  C   UNL     1       6.710   2.322  -3.335  1.00  0.00     0.095 C 
ATOM     16  C   UNL     1       6.322   0.858  -3.142  1.00  0.00     0.041 C 
ATOM     17  C   UNL     1       7.516   2.580  -4.616  1.00  0.00     0.095 C 
ATOM     18  C   UNL     1       5.670   0.316  -4.375  1.00  0.00    -0.030 C 
ATOM     19  C   UNL     1       6.651   2.119  -5.825  1.00  0.00     0.041 C 
ATOM     20  C   UNL     1       5.797   0.900  -5.576  1.00  0.00    -0.030 C 
BRANCH  17  21
ATOM     21  C   UNL     1       8.908   1.935  -4.716  1.00  0.00     0.228 C 
ATOM     22  O   UNL     1       9.048   0.710  -4.709  1.00  0.00    -0.274 OA
ATOM     23  N   UNL     1      10.009   2.703  -5.031  1.00  0.00    -0.326 N 
ATOM     24  H   UNL     1      10.791   2.192  -5.344  1.00  0.00     0.169 HD
BRANCH  23  25
ATOM     25  C   UNL     1      10.201   4.093  -4.980  1.00  0.00     0.041 A 
ATOM     26  C   UNL     1      11.104   4.693  -5.865  1.00  0.00     0.027 A 
ATOM     27  C   UNL     1       9.522   4.903  -4.077  1.00  0.00     0.027 A 
ATOM     28  C   UNL     1      11.174   6.090  -5.968  1.00  0.00     0.018 A 
ATOM     29  C   UNL     1       9.573   6.288  -4.197  1.00  0.00     0.018 A 
ATOM     30  C   UNL     1      10.363   6.880  -5.165  1.00  0.00     0.018 A 
ATOM     31  Br  UNL     1      10.295   8.754  -5.384  1.00  0.00    -0.051 Br
ENDBRANCH  23  25
ENDBRANCH  17  21
ENDBRANCH  12  15
ENDBRANCH  10  11
ENDBRANCH   3   5
ENDBRANCH   2   3
ENDBRANCH   1   2
BRANCH   1  32
ATOM     32  C   UNL     1       3.340   7.619  -4.987  1.00  0.00     0.275 C 
BRANCH  32  33
ATOM     33  O   UNL     1       4.438   7.560  -4.070  1.00  0.00    -0.458 OA
BRANCH  33  34
ATOM     34  C   UNL     1       4.825   8.757  -3.540  1.00  0.00     0.338 C 
ATOM     35  O   UNL     1       4.370   9.845  -3.815  1.00  0.00    -0.246 OA
BRANCH  34  36
ATOM     36  C   UNL     1       5.881   8.532  -2.510  1.00  0.00     0.060 A 
ATOM     37  C   UNL     1       6.151   9.532  -1.565  1.00  0.00     0.016 A 
ATOM     38  C   UNL     1       6.603   7.340  -2.457  1.00  0.00     0.016 A 
ATOM     39  C   UNL     1       7.162   9.355  -0.603  1.00  0.00     0.010 A 
ATOM     40  C   UNL     1       7.586   7.155  -1.480  1.00  0.00     0.010 A 
ATOM     41  C   UNL     1       7.909   8.171  -0.573  1.00  0.00    -0.014 A 
BRANCH  41  42
ATOM     42  C   UNL     1       9.018   7.917   0.386  1.00  0.00     0.031 A 
ATOM     43  C   UNL     1      10.452   8.159   0.000  1.00  0.00     0.074 A 
ATOM     44  C   UNL     1       8.759   7.255   1.528  1.00  0.00     0.049 A 
ATOM     45  N   UNL     1      11.541   7.949   0.700  1.00  0.00    -0.248 NA
ATOM     46  C   UNL     1      10.699   8.682  -1.350  1.00  0.00     0.031 C 
ATOM     47  C   UNL     1       7.430   6.866   1.988  1.00  0.00     0.029 A 
ATOM     48  N   UNL     1       9.607   6.728   2.470  1.00  0.00    -0.354 N 
ATOM     49  C   UNL     1      12.598   8.344  -0.109  1.00  0.00     0.074 A 
ATOM     50  C   UNL     1      12.026   8.737  -1.381  1.00  0.00     0.031 C 
ATOM     51  C   UNL     1       7.554   6.078   3.069  1.00  0.00     0.029 A 
ATOM     52  C   UNL     1       8.969   5.964   3.414  1.00  0.00     0.049 A 
ATOM     53  H   UNL     1      10.579   6.884   2.467  1.00  0.00     0.167 HD
ATOM     54  C   UNL     1      13.918   8.406   0.199  1.00  0.00     0.037 A 
ATOM     55  C   UNL     1       9.463   5.267   4.455  1.00  0.00     0.037 A 
ATOM     56  C   UNL     1      14.485   8.000   1.463  1.00  0.00     0.049 A 
ATOM     57  C   UNL     1      10.930   5.351   4.783  1.00  0.00     0.074 A 
ATOM     58  C   UNL     1      15.779   8.175   1.926  1.00  0.00     0.029 A 
ATOM     59  N   UNL     1      13.805   7.301   2.447  1.00  0.00    -0.354 N 
ATOM     60  N   UNL     1      11.891   5.957   4.132  1.00  0.00    -0.248 NA
ATOM     61  C   UNL     1      11.369   4.699   6.026  1.00  0.00     0.031 C 
ATOM     62  C   UNL     1      15.901   7.520   3.156  1.00  0.00     0.029 A 
ATOM     63  C   UNL     1      14.666   6.992   3.491  1.00  0.00     0.049 A 
ATOM     64  H   UNL     1      12.852   7.059   2.412  1.00  0.00     0.167 HD
ATOM     65  C   UNL     1      13.033   5.803   4.909  1.00  0.00     0.074 A 
ATOM     66  C   UNL     1      12.644   5.057   6.084  1.00  0.00     0.031 C 
ATOM     67  C   UNL     1      14.289   6.251   4.666  1.00  0.00     0.037 A 
BRANCH  54  68
ATOM     68  C   UNL     1      14.863   8.984  -0.817  1.00  0.00     0.064 A 
ATOM     69  C   UNL     1      14.845  10.354  -1.122  1.00  0.00     0.173 A 
ATOM     70  C   UNL     1      15.886   8.202  -1.376  1.00  0.00     0.173 A 
ATOM     71  F   UNL     1      13.897  11.149  -0.605  1.00  0.00    -0.203 F 
ATOM     72  C   UNL     1      15.808  10.916  -1.956  1.00  0.00     0.198 A 
ATOM     73  C   UNL     1      16.863   8.773  -2.188  1.00  0.00     0.198 A 
ATOM     74  F   UNL     1      15.963   6.891  -1.101  1.00  0.00    -0.203 F 
ATOM     75  F   UNL     1      15.762  12.225  -2.243  1.00  0.00    -0.200 F 
ATOM     76  C   UNL     1      16.823  10.129  -2.478  1.00  0.00     0.200 A 
ATOM     77  F   UNL     1      17.858   8.016  -2.672  1.00  0.00    -0.200 F 
ATOM     78  F   UNL     1      17.767  10.678  -3.255  1.00  0.00    -0.200 F 
ENDBRANCH  54  68
BRANCH  55  79
ATOM     79  C   UNL     1       8.543   4.497   5.328  1.00  0.00     0.064 A 
ATOM     80  C   UNL     1       8.243   4.949   6.620  1.00  0.00     0.173 A 
ATOM     81  C   UNL     1       7.970   3.292   4.902  1.00  0.00     0.173 A 
ATOM     82  F   UNL     1       8.778   6.094   7.068  1.00  0.00    -0.203 F 
ATOM     83  C   UNL     1       7.437   4.201   7.472  1.00  0.00     0.198 A 
ATOM     84  C   UNL     1       7.142   2.556   5.748  1.00  0.00     0.198 A 
ATOM     85  F   UNL     1       8.210   2.831   3.666  1.00  0.00    -0.203 F 
ATOM     86  F   UNL     1       7.215   4.627   8.723  1.00  0.00    -0.200 F 
ATOM     87  C   UNL     1       6.887   3.005   7.036  1.00  0.00     0.200 A 
ATOM     88  F   UNL     1       6.597   1.409   5.319  1.00  0.00    -0.200 F 
ATOM     89  F   UNL     1       6.118   2.281   7.861  1.00  0.00    -0.200 F 
ENDBRANCH  55  79
BRANCH  67  90
ATOM     90  C   UNL     1      15.342   5.972   5.704  1.00  0.00     0.064 A 
ATOM     91  C   UNL     1      15.818   4.673   5.942  1.00  0.00     0.173 A 
ATOM     92  C   UNL     1      15.904   7.020   6.451  1.00  0.00     0.173 A 
ATOM     93  F   UNL     1      15.304   3.633   5.268  1.00  0.00    -0.203 F 
ATOM     94  C   UNL     1      16.793   4.431   6.906  1.00  0.00     0.198 A 
ATOM     95  C   UNL     1      16.903   6.778   7.391  1.00  0.00     0.198 A 
ATOM     96  F   UNL     1      15.491   8.282   6.263  1.00  0.00    -0.203 F 
ATOM     97  F   UNL     1      17.192   3.175   7.152  1.00  0.00    -0.200 F 
ATOM     98  C   UNL     1      17.341   5.483   7.624  1.00  0.00     0.200 A 
ATOM     99  F   UNL     1      17.441   7.798   8.073  1.00  0.00    -0.200 F 
ATOM    100  F   UNL     1      18.285   5.249   8.546  1.00  0.00    -0.200 F 
ENDBRANCH  67  90
ENDBRANCH  41  42
ENDBRANCH  34  36
ENDBRANCH  33  34
ENDBRANCH  32  33
ENDBRANCH   1  32
TORSDOF 15
