REMARK SMILES CC1(C)[C@H](C(=O)Nc2ccc(C(F)(F)F)nc2)[C@@H]1C(=O)OCCOC(=O)c1ccc(-c2c3nc(c(-c4c(F)c(F)c(F)c(F)c4F)c4ccc([nH]4)c(-c4c(F)c(F)c(F)c(F)c4F)c4nc(c(-c5c(F)c(F)c(F)c(F)c5F)c5ccc2[nH]5)C=C4)C=C3)cc1
REMARK SMILES IDX 22 1 21 2 19 3 20 4 18 5 1 6 2 7 3 8 4 9 5 10 6 11 7 12 8 14
REMARK SMILES IDX 9 15 17 16 10 17 16 18 11 19 12 20 13 21 14 22 15 23 23 24
REMARK SMILES IDX 24 25 25 26 26 27 27 28 28 29 89 30 29 31 88 32 30 33 31 34
REMARK SMILES IDX 32 35 82 36 33 37 87 38 81 39 83 40 34 41 86 42 80 43 79 44
REMARK SMILES IDX 35 46 67 47 47 48 66 49 48 50 51 51 65 52 84 53 49 54 50 55
REMARK SMILES IDX 64 57 85 58 52 59 36 60 37 61 45 62 38 63 39 64 43 65 46 66
REMARK SMILES IDX 40 67 41 68 44 69 42 70 68 71 69 72 77 73 70 74 71 75 75 76
REMARK SMILES IDX 78 77 72 78 73 79 76 80 74 81 53 82 54 83 62 84 55 85 56 86
REMARK SMILES IDX 60 87 63 88 57 89 58 90 61 91 59 92
REMARK H PARENT 7 13 83 45 51 56
REMARK Flexibility Score: inf
ROOT
ATOM      1  C   UNL     1      -3.187   2.554   2.357  1.00  0.00     0.274 C 
ENDROOT
BRANCH   1   2
ATOM      2  O   UNL     1      -2.792   1.604   1.346  1.00  0.00    -0.462 OA
BRANCH   2   3
ATOM      3  C   UNL     1      -1.472   1.288   1.301  1.00  0.00     0.310 C 
ATOM      4  O   UNL     1      -0.598   1.767   2.022  1.00  0.00    -0.252 OA
BRANCH   3   5
ATOM      5  C   UNL     1      -1.220   0.146   0.401  1.00  0.00     0.118 C 
ATOM      6  C   UNL     1       0.501  -1.680  -0.307  1.00  0.00     0.013 C 
ATOM      7  C   UNL     1       0.134  -0.208  -0.237  1.00  0.00    -0.009 C 
ATOM      8  C   UNL     1       1.364   0.634  -0.038  1.00  0.00     0.013 C 
ATOM      9  C   UNL     1      -1.059   0.228  -1.089  1.00  0.00     0.100 C 
BRANCH   9  10
ATOM     10  C   UNL     1      -1.233   1.407  -1.999  1.00  0.00     0.228 C 
ATOM     11  O   UNL     1      -1.309   1.171  -3.204  1.00  0.00    -0.274 OA
ATOM     12  N   UNL     1      -1.675   2.624  -1.537  1.00  0.00    -0.324 N 
ATOM     13  H   UNL     1      -2.590   2.881  -1.795  1.00  0.00     0.169 HD
BRANCH  12  14
ATOM     14  C   UNL     1      -0.975   3.540  -0.743  1.00  0.00     0.059 A 
ATOM     15  C   UNL     1       0.404   3.538  -0.645  1.00  0.00     0.030 A 
ATOM     16  C   UNL     1      -1.667   4.461   0.029  1.00  0.00     0.137 A 
ATOM     17  C   UNL     1       1.018   4.224   0.400  1.00  0.00     0.035 A 
ATOM     18  N   UNL     1      -1.106   5.145   1.055  1.00  0.00    -0.250 NA
ATOM     19  C   UNL     1       0.222   4.931   1.300  1.00  0.00     0.144 A 
BRANCH  19  20
ATOM     20  C   UNL     1       0.830   5.392   2.619  1.00  0.00     0.433 C 
ATOM     21  F   UNL     1       1.180   6.709   2.616  1.00  0.00    -0.165 F 
ATOM     22  F   UNL     1      -0.002   5.224   3.688  1.00  0.00    -0.165 F 
ATOM     23  F   UNL     1       1.974   4.714   2.946  1.00  0.00    -0.165 F 
ENDBRANCH  19  20
ENDBRANCH  12  14
ENDBRANCH   9  10
ENDBRANCH   3   5
ENDBRANCH   2   3
ENDBRANCH   1   2
BRANCH   1  24
ATOM     24  C   UNL     1      -3.646   1.880   3.654  1.00  0.00     0.275 C 
BRANCH  24  25
ATOM     25  O   UNL     1      -2.544   1.284   4.362  1.00  0.00    -0.458 OA
BRANCH  25  26
ATOM     26  C   UNL     1      -2.272   0.005   4.014  1.00  0.00     0.338 C 
ATOM     27  O   UNL     1      -2.906  -0.697   3.244  1.00  0.00    -0.246 OA
BRANCH  26  28
ATOM     28  C   UNL     1      -0.970  -0.408   4.568  1.00  0.00     0.060 A 
ATOM     29  C   UNL     1      -0.069  -1.026   3.695  1.00  0.00     0.016 A 
ATOM     30  C   UNL     1      -0.660  -0.266   5.921  1.00  0.00     0.016 A 
ATOM     31  C   UNL     1       1.134  -1.532   4.169  1.00  0.00     0.010 A 
ATOM     32  C   UNL     1       0.548  -0.783   6.401  1.00  0.00     0.010 A 
ATOM     33  C   UNL     1       1.436  -1.441   5.531  1.00  0.00    -0.014 A 
BRANCH  33  34
ATOM     34  C   UNL     1       2.633  -2.144   6.043  1.00  0.00     0.031 A 
ATOM     35  C   UNL     1       2.464  -3.451   6.761  1.00  0.00     0.074 A 
ATOM     36  C   UNL     1       3.860  -1.649   5.803  1.00  0.00     0.049 A 
ATOM     37  N   UNL     1       3.371  -4.232   7.291  1.00  0.00    -0.248 NA
ATOM     38  C   UNL     1       1.087  -3.949   6.900  1.00  0.00     0.031 C 
ATOM     39  C   UNL     1       4.141  -0.415   5.071  1.00  0.00     0.029 A 
ATOM     40  N   UNL     1       5.098  -2.128   6.148  1.00  0.00    -0.354 N 
ATOM     41  C   UNL     1       2.675  -5.303   7.835  1.00  0.00     0.074 A 
ATOM     42  C   UNL     1       1.269  -5.061   7.597  1.00  0.00     0.031 C 
ATOM     43  C   UNL     1       5.471  -0.233   5.021  1.00  0.00     0.029 A 
ATOM     44  C   UNL     1       6.129  -1.315   5.750  1.00  0.00     0.049 A 
ATOM     45  H   UNL     1       5.234  -2.973   6.634  1.00  0.00     0.167 HD
ATOM     46  C   UNL     1       3.170  -6.394   8.468  1.00  0.00     0.037 A 
ATOM     47  C   UNL     1       7.453  -1.424   5.971  1.00  0.00     0.037 A 
ATOM     48  C   UNL     1       4.573  -6.626   8.695  1.00  0.00     0.049 A 
ATOM     49  C   UNL     1       7.971  -2.613   6.738  1.00  0.00     0.074 A 
ATOM     50  C   UNL     1       5.180  -7.702   9.318  1.00  0.00     0.029 A 
ATOM     51  N   UNL     1       5.589  -5.762   8.312  1.00  0.00    -0.354 N 
ATOM     52  N   UNL     1       7.310  -3.629   7.238  1.00  0.00    -0.248 NA
ATOM     53  C   UNL     1       9.421  -2.671   6.965  1.00  0.00     0.031 C 
ATOM     54  C   UNL     1       6.557  -7.462   9.362  1.00  0.00     0.029 A 
ATOM     55  C   UNL     1       6.816  -6.269   8.707  1.00  0.00     0.049 A 
ATOM     56  H   UNL     1       5.457  -4.913   7.830  1.00  0.00     0.167 HD
ATOM     57  C   UNL     1       8.263  -4.462   7.809  1.00  0.00     0.074 A 
ATOM     58  C   UNL     1       9.550  -3.838   7.580  1.00  0.00     0.031 C 
ATOM     59  C   UNL     1       8.089  -5.639   8.461  1.00  0.00     0.037 A 
BRANCH  46  60
ATOM     60  C   UNL     1       2.186  -7.400   8.989  1.00  0.00     0.064 A 
ATOM     61  C   UNL     1       1.441  -8.224   8.131  1.00  0.00     0.173 A 
ATOM     62  C   UNL     1       2.006  -7.563  10.371  1.00  0.00     0.173 A 
ATOM     63  F   UNL     1       1.564  -8.099   6.800  1.00  0.00    -0.203 F 
ATOM     64  C   UNL     1       0.535  -9.153   8.636  1.00  0.00     0.198 A 
ATOM     65  C   UNL     1       1.122  -8.515  10.873  1.00  0.00     0.198 A 
ATOM     66  F   UNL     1       2.694  -6.804  11.237  1.00  0.00    -0.203 F 
ATOM     67  F   UNL     1      -0.202  -9.894   7.796  1.00  0.00    -0.200 F 
ATOM     68  C   UNL     1       0.382  -9.303  10.006  1.00  0.00     0.200 A 
ATOM     69  F   UNL     1       0.986  -8.667  12.198  1.00  0.00    -0.200 F 
ATOM     70  F   UNL     1      -0.485 -10.203  10.491  1.00  0.00    -0.200 F 
ENDBRANCH  46  60
BRANCH  47  71
ATOM     71  C   UNL     1       8.379  -0.374   5.471  1.00  0.00     0.064 A 
ATOM     72  C   UNL     1       9.312  -0.651   4.462  1.00  0.00     0.173 A 
ATOM     73  C   UNL     1       8.359   0.924   6.002  1.00  0.00     0.173 A 
ATOM     74  F   UNL     1       9.386  -1.883   3.938  1.00  0.00    -0.203 F 
ATOM     75  C   UNL     1      10.203   0.324   4.019  1.00  0.00     0.198 A 
ATOM     76  C   UNL     1       9.229   1.907   5.535  1.00  0.00     0.198 A 
ATOM     77  F   UNL     1       7.486   1.242   6.969  1.00  0.00    -0.203 F 
ATOM     78  F   UNL     1      11.119   0.019   3.090  1.00  0.00    -0.200 F 
ATOM     79  C   UNL     1      10.157   1.604   4.551  1.00  0.00     0.200 A 
ATOM     80  F   UNL     1       9.171   3.146   6.043  1.00  0.00    -0.200 F 
ATOM     81  F   UNL     1      11.012   2.542   4.122  1.00  0.00    -0.200 F 
ENDBRANCH  47  71
BRANCH  59  82
ATOM     82  C   UNL     1       9.325  -6.354   8.931  1.00  0.00     0.064 A 
ATOM     83  C   UNL     1      10.104  -5.870   9.991  1.00  0.00     0.173 A 
ATOM     84  C   UNL     1       9.713  -7.561   8.329  1.00  0.00     0.173 A 
ATOM     85  F   UNL     1       9.784  -4.713  10.592  1.00  0.00    -0.203 F 
ATOM     86  C   UNL     1      11.245  -6.550  10.410  1.00  0.00     0.198 A 
ATOM     87  C   UNL     1      10.834  -8.257   8.773  1.00  0.00     0.198 A 
ATOM     88  F   UNL     1       8.998  -8.074   7.316  1.00  0.00    -0.203 F 
ATOM     89  F   UNL     1      12.006  -6.039  11.387  1.00  0.00    -0.200 F 
ATOM     90  C   UNL     1      11.605  -7.746   9.806  1.00  0.00     0.200 A 
ATOM     91  F   UNL     1      11.170  -9.420   8.199  1.00  0.00    -0.200 F 
ATOM     92  F   UNL     1      12.699  -8.402  10.214  1.00  0.00    -0.200 F 
ENDBRANCH  59  82
ENDBRANCH  33  34
ENDBRANCH  26  28
ENDBRANCH  25  26
ENDBRANCH  24  25
ENDBRANCH   1  24
TORSDOF 14
