REMARK SMILES C[C@@H](SCC(=O)N1c2ccccc2SC[C@H]1c1ccccc1)C(=O)OCCOC(=O)c1ccc(-c2c3nc(c(-c4c(F)c(F)c(F)c(F)c4F)c4ccc([nH]4)c(-c4c(F)c(F)c(F)c(F)c4F)c4nc(c(-c5c(F)c(F)c(F)c(F)c5F)c5ccc2[nH]5)C=C4)C=C3)cc1
REMARK SMILES IDX 25 1 23 2 24 3 2 4 1 5 3 6 4 7 5 8 6 9 7 10 8 11 16 12 9 13
REMARK SMILES IDX 13 14 15 15 10 16 12 17 14 18 11 19 17 20 18 21 22 22 19 23
REMARK SMILES IDX 21 24 20 25 26 26 27 27 28 28 29 29 30 30 31 31 32 32 93 33
REMARK SMILES IDX 33 34 92 35 34 36 35 37 36 38 86 39 37 40 91 41 85 42 87 43
REMARK SMILES IDX 38 44 90 45 84 46 83 47 39 49 71 50 51 51 70 52 52 53 55 54
REMARK SMILES IDX 69 55 88 56 53 57 54 58 68 60 89 61 56 62 40 63 41 64 49 65
REMARK SMILES IDX 42 66 43 67 47 68 50 69 44 70 45 71 48 72 46 73 72 74 73 75
REMARK SMILES IDX 81 76 74 77 75 78 79 79 82 80 76 81 77 82 80 83 78 84 57 85
REMARK SMILES IDX 58 86 66 87 59 88 60 89 64 90 67 91 61 92 62 93 65 94 63 95
REMARK H PARENT 87 48 55 59
REMARK Flexibility Score: inf
ROOT
ATOM      1  O   UNL     1      -1.139  -0.766  -0.121  1.00  0.00    -0.461 OA
ENDROOT
BRANCH   1   2
ATOM      2  C   UNL     1      -0.373   0.113  -0.823  1.00  0.00     0.318 C 
ATOM      3  O   UNL     1      -0.835   0.938  -1.605  1.00  0.00    -0.251 OA
BRANCH   2   4
ATOM      4  C   UNL     1       1.121   0.022  -0.535  1.00  0.00     0.154 C 
ATOM      5  C   UNL     1       1.434  -0.182   0.938  1.00  0.00     0.032 C 
BRANCH   4   6
ATOM      6  S   UNL     1       1.884  -1.281  -1.565  1.00  0.00    -0.137 SA
BRANCH   6   7
ATOM      7  C   UNL     1       3.226  -0.409  -2.458  1.00  0.00     0.170 C 
BRANCH   7   8
ATOM      8  C   UNL     1       2.907   0.965  -3.052  1.00  0.00     0.237 C 
ATOM      9  O   UNL     1       2.804   1.972  -2.348  1.00  0.00    -0.274 OA
BRANCH   8  10
ATOM     10  N   UNL     1       2.925   1.037  -4.456  1.00  0.00    -0.302 N 
ATOM     11  C   UNL     1       4.005   1.815  -5.081  1.00  0.00     0.058 A 
ATOM     12  C   UNL     1       1.613   1.087  -5.149  1.00  0.00     0.131 C 
ATOM     13  C   UNL     1       5.200   2.063  -4.374  1.00  0.00     0.027 A 
ATOM     14  C   UNL     1       3.920   2.347  -6.393  1.00  0.00     0.031 A 
ATOM     15  C   UNL     1       1.726   0.826  -6.656  1.00  0.00     0.105 C 
ATOM     16  C   UNL     1       6.256   2.796  -4.940  1.00  0.00     0.002 A 
ATOM     17  C   UNL     1       4.988   3.076  -6.950  1.00  0.00     0.017 A 
ATOM     18  S   UNL     1       2.506   2.215  -7.471  1.00  0.00    -0.121 SA
ATOM     19  C   UNL     1       6.153   3.296  -6.231  1.00  0.00     0.001 A 
BRANCH  12  20
ATOM     20  C   UNL     1       0.539   0.109  -4.685  1.00  0.00    -0.024 A 
ATOM     21  C   UNL     1       0.737  -1.278  -4.650  1.00  0.00     0.006 A 
ATOM     22  C   UNL     1      -0.755   0.604  -4.455  1.00  0.00     0.006 A 
ATOM     23  C   UNL     1      -0.314  -2.136  -4.314  1.00  0.00     0.000 A 
ATOM     24  C   UNL     1      -1.811  -0.257  -4.156  1.00  0.00     0.000 A 
ATOM     25  C   UNL     1      -1.585  -1.626  -4.064  1.00  0.00     0.000 A 
ENDBRANCH  12  20
ENDBRANCH   8  10
ENDBRANCH   7   8
ENDBRANCH   6   7
ENDBRANCH   4   6
ENDBRANCH   2   4
ENDBRANCH   1   2
BRANCH   1  26
ATOM     26  C   UNL     1      -2.560  -0.686  -0.365  1.00  0.00     0.274 C 
BRANCH  26  27
ATOM     27  C   UNL     1      -3.274   0.322   0.547  1.00  0.00     0.275 C 
BRANCH  27  28
ATOM     28  O   UNL     1      -2.985   1.687   0.193  1.00  0.00    -0.458 OA
BRANCH  28  29
ATOM     29  C   UNL     1      -1.932   2.246   0.840  1.00  0.00     0.338 C 
ATOM     30  O   UNL     1      -1.263   1.748   1.725  1.00  0.00    -0.246 OA
BRANCH  29  31
ATOM     31  C   UNL     1      -1.606   3.535   0.208  1.00  0.00     0.060 A 
ATOM     32  C   UNL     1      -2.480   4.617   0.303  1.00  0.00     0.016 A 
ATOM     33  C   UNL     1      -0.380   3.670  -0.453  1.00  0.00     0.016 A 
ATOM     34  C   UNL     1      -2.125   5.831  -0.289  1.00  0.00     0.010 A 
ATOM     35  C   UNL     1      -0.034   4.871  -1.059  1.00  0.00     0.010 A 
ATOM     36  C   UNL     1      -0.904   5.960  -0.977  1.00  0.00    -0.014 A 
BRANCH  36  37
ATOM     37  C   UNL     1      -0.487   7.262  -1.536  1.00  0.00     0.031 A 
ATOM     38  C   UNL     1      -0.549   7.525  -3.007  1.00  0.00     0.074 A 
ATOM     39  C   UNL     1      -0.010   8.192  -0.691  1.00  0.00     0.049 A 
ATOM     40  N   UNL     1      -0.292   8.632  -3.656  1.00  0.00    -0.248 NA
ATOM     41  C   UNL     1      -0.944   6.398  -3.864  1.00  0.00     0.031 C 
ATOM     42  C   UNL     1       0.146   8.008   0.751  1.00  0.00     0.029 A 
ATOM     43  N   UNL     1       0.424   9.471  -0.919  1.00  0.00    -0.354 N 
ATOM     44  C   UNL     1      -0.521   8.346  -4.994  1.00  0.00     0.074 A 
ATOM     45  C   UNL     1      -0.876   6.943  -5.071  1.00  0.00     0.031 C 
ATOM     46  C   UNL     1       0.609   9.146   1.288  1.00  0.00     0.029 A 
ATOM     47  C   UNL     1       0.803  10.127   0.224  1.00  0.00     0.049 A 
ATOM     48  H   UNL     1       0.461   9.878  -1.814  1.00  0.00     0.167 HD
ATOM     49  C   UNL     1      -0.463   9.189  -6.053  1.00  0.00     0.037 A 
ATOM     50  C   UNL     1       1.246  11.386   0.393  1.00  0.00     0.037 A 
ATOM     51  C   UNL     1      -0.070  10.574  -5.961  1.00  0.00     0.049 A 
ATOM     52  C   UNL     1       1.347  12.289  -0.804  1.00  0.00     0.074 A 
ATOM     53  C   UNL     1      -0.005  11.523  -6.965  1.00  0.00     0.029 A 
ATOM     54  N   UNL     1       0.347  11.202  -4.794  1.00  0.00    -0.354 N 
ATOM     55  N   UNL     1       1.044  12.041  -2.055  1.00  0.00    -0.248 NA
ATOM     56  C   UNL     1       1.844  13.649  -0.562  1.00  0.00     0.031 C 
ATOM     57  C   UNL     1       0.505  12.706  -6.418  1.00  0.00     0.029 A 
ATOM     58  C   UNL     1       0.702  12.516  -5.060  1.00  0.00     0.049 A 
ATOM     59  H   UNL     1       0.385  10.776  -3.907  1.00  0.00     0.167 HD
ATOM     60  C   UNL     1       1.301  13.213  -2.751  1.00  0.00     0.074 A 
ATOM     61  C   UNL     1       1.756  14.182  -1.773  1.00  0.00     0.031 C 
ATOM     62  C   UNL     1       1.178  13.462  -4.079  1.00  0.00     0.037 A 
BRANCH  49  63
ATOM     63  C   UNL     1      -0.840   8.638  -7.399  1.00  0.00     0.064 A 
ATOM     64  C   UNL     1      -2.163   8.265  -7.691  1.00  0.00     0.173 A 
ATOM     65  C   UNL     1       0.111   8.521  -8.424  1.00  0.00     0.173 A 
ATOM     66  F   UNL     1      -3.113   8.351  -6.748  1.00  0.00    -0.203 F 
ATOM     67  C   UNL     1      -2.511   7.769  -8.945  1.00  0.00     0.198 A 
ATOM     68  C   UNL     1      -0.247   8.054  -9.687  1.00  0.00     0.198 A 
ATOM     69  F   UNL     1       1.387   8.872  -8.207  1.00  0.00    -0.203 F 
ATOM     70  F   UNL     1      -3.770   7.377  -9.183  1.00  0.00    -0.200 F 
ATOM     71  C   UNL     1      -1.555   7.671  -9.944  1.00  0.00     0.200 A 
ATOM     72  F   UNL     1       0.673   7.978 -10.658  1.00  0.00    -0.200 F 
ATOM     73  F   UNL     1      -1.894   7.205 -11.154  1.00  0.00    -0.200 F 
ENDBRANCH  49  63
BRANCH  50  74
ATOM     74  C   UNL     1       1.558  11.866   1.762  1.00  0.00     0.064 A 
ATOM     75  C   UNL     1       0.720  12.788   2.404  1.00  0.00     0.173 A 
ATOM     76  C   UNL     1       2.653  11.366   2.481  1.00  0.00     0.173 A 
ATOM     77  F   UNL     1      -0.330  13.306   1.750  1.00  0.00    -0.203 F 
ATOM     78  C   UNL     1       0.966  13.192   3.713  1.00  0.00     0.198 A 
ATOM     79  C   UNL     1       2.882  11.749   3.800  1.00  0.00     0.198 A 
ATOM     80  F   UNL     1       3.480  10.476   1.913  1.00  0.00    -0.203 F 
ATOM     81  F   UNL     1       0.162  14.091   4.297  1.00  0.00    -0.200 F 
ATOM     82  C   UNL     1       2.040  12.664   4.415  1.00  0.00     0.200 A 
ATOM     83  F   UNL     1       3.910  11.223   4.480  1.00  0.00    -0.200 F 
ATOM     84  F   UNL     1       2.262  13.035   5.683  1.00  0.00    -0.200 F 
ENDBRANCH  50  74
BRANCH  62  85
ATOM     85  C   UNL     1       1.554  14.839  -4.553  1.00  0.00     0.064 A 
ATOM     86  C   UNL     1       2.888  15.276  -4.549  1.00  0.00     0.173 A 
ATOM     87  C   UNL     1       0.578  15.719  -5.044  1.00  0.00     0.173 A 
ATOM     88  F   UNL     1       3.858  14.479  -4.076  1.00  0.00    -0.203 F 
ATOM     89  C   UNL     1       3.225  16.553  -4.988  1.00  0.00     0.198 A 
ATOM     90  C   UNL     1       0.924  16.983  -5.517  1.00  0.00     0.198 A 
ATOM     91  F   UNL     1      -0.712  15.351  -5.078  1.00  0.00    -0.203 F 
ATOM     92  F   UNL     1       4.498  16.968  -4.920  1.00  0.00    -0.200 F 
ATOM     93  C   UNL     1       2.245  17.402  -5.479  1.00  0.00     0.200 A 
ATOM     94  F   UNL     1      -0.022  17.795  -6.007  1.00  0.00    -0.200 F 
ATOM     95  F   UNL     1       2.573  18.629  -5.908  1.00  0.00    -0.200 F 
ENDBRANCH  62  85
ENDBRANCH  36  37
ENDBRANCH  29  31
ENDBRANCH  28  29
ENDBRANCH  27  28
ENDBRANCH  26  27
ENDBRANCH   1  26
TORSDOF 16
