REMARK SMILES COc1cccc([C@@H]2CN(C(=O)CSc3nc(C)n[nH]3)C[C@H]2C(=O)OCCOC(=O)c2ccc(-c3c4nc(c(-c5c(F)c(F)c(F)c(F)c5F)c5ccc([nH]5)c(-c5c(F)c(F)c(F)c(F)c5F)c5nc(c(-c6c(F)c(F)c(F)c(F)c6F)c6ccc3[nH]6)C=C5)C=C4)cc2)c1
REMARK SMILES IDX 26 1 25 2 23 3 24 4 22 5 8 6 9 7 10 8 21 9 7 10 3 11 4 12
REMARK SMILES IDX 94 13 5 14 6 15 2 16 1 17 11 18 12 19 13 20 14 21 15 22
REMARK SMILES IDX 16 23 20 24 17 25 19 26 18 28 27 29 28 30 29 31 30 32 31 33
REMARK SMILES IDX 32 34 93 35 33 36 92 37 34 38 35 39 36 40 86 41 37 42 91 43
REMARK SMILES IDX 85 44 87 45 38 46 90 47 84 48 83 49 39 51 71 52 51 53 70 54
REMARK SMILES IDX 52 55 55 56 69 57 88 58 53 59 54 60 68 62 89 63 56 64 40 65
REMARK SMILES IDX 41 66 49 67 42 68 43 69 47 70 50 71 44 72 45 73 48 74 46 75
REMARK SMILES IDX 72 76 73 77 81 78 74 79 75 80 79 81 82 82 76 83 77 84 80 85
REMARK SMILES IDX 78 86 57 87 58 88 66 89 59 90 60 91 64 92 67 93 61 94 62 95
REMARK SMILES IDX 65 96 63 97
REMARK H PARENT 20 27 87 50 55 61
REMARK Flexibility Score: inf
ROOT
ATOM      1  C   UNL     1       5.261   1.857   7.065  1.00  0.00     0.274 C 
ENDROOT
BRANCH   1   2
ATOM      2  O   UNL     1       5.189   2.189   5.660  1.00  0.00    -0.462 OA
BRANCH   2   3
ATOM      3  C   UNL     1       4.825   1.186   4.813  1.00  0.00     0.311 C 
ATOM      4  O   UNL     1       4.594   0.032   5.159  1.00  0.00    -0.252 OA
BRANCH   3   5
ATOM      5  C   UNL     1       4.834   1.600   3.358  1.00  0.00     0.128 C 
ATOM      6  C   UNL     1       4.197   2.964   3.006  1.00  0.00     0.055 C 
ATOM      7  C   UNL     1       5.120   3.526   1.920  1.00  0.00     0.128 C 
ATOM      8  N   UNL     1       6.414   2.916   2.152  1.00  0.00    -0.340 N 
ATOM      9  C   UNL     1       6.301   1.717   2.956  1.00  0.00     0.135 C 
BRANCH   6  10
ATOM     10  C   UNL     1       2.763   2.974   2.490  1.00  0.00    -0.039 A 
ATOM     11  C   UNL     1       0.982   2.173   1.019  1.00  0.00     0.119 A 
ATOM     12  C   UNL     1       0.128   3.158   1.513  1.00  0.00     0.046 A 
ATOM     13  C   UNL     1       2.298   2.089   1.495  1.00  0.00     0.050 A 
ATOM     14  C   UNL     1       0.569   4.043   2.492  1.00  0.00     0.004 A 
ATOM     15  C   UNL     1       1.877   3.955   2.970  1.00  0.00     0.004 A 
BRANCH  11  16
ATOM     16  O   UNL     1       0.431   1.378   0.051  1.00  0.00    -0.497 OA
ATOM     17  C   UNL     1       1.006   0.088  -0.112  1.00  0.00     0.278 C 
ENDBRANCH  11  16
ENDBRANCH   6  10
BRANCH   8  18
ATOM     18  C   UNL     1       7.643   3.332   1.689  1.00  0.00     0.233 C 
ATOM     19  O   UNL     1       8.662   2.689   1.949  1.00  0.00    -0.274 OA
BRANCH  18  20
ATOM     20  C   UNL     1       7.716   4.589   0.841  1.00  0.00     0.178 C 
BRANCH  20  21
ATOM     21  S   UNL     1       6.967   4.345  -0.794  1.00  0.00    -0.077 SA
BRANCH  21  22
ATOM     22  C   UNL     1       7.912   3.047  -1.406  1.00  0.00     0.184 A 
ATOM     23  N   UNL     1       8.943   3.124  -2.207  1.00  0.00    -0.206 NA
ATOM     24  N   UNL     1       7.605   1.746  -1.163  1.00  0.00    -0.254 N 
ATOM     25  C   UNL     1       9.239   1.804  -2.439  1.00  0.00     0.148 A 
ATOM     26  N   UNL     1       8.436   0.923  -1.825  1.00  0.00    -0.158 NA
ATOM     27  H   UNL     1       6.872   1.446  -0.578  1.00  0.00     0.192 HD
ATOM     28  C   UNL     1      10.346   1.397  -3.325  1.00  0.00     0.092 C 
ENDBRANCH  21  22
ENDBRANCH  20  21
ENDBRANCH  18  20
ENDBRANCH   8  18
ENDBRANCH   3   5
ENDBRANCH   2   3
ENDBRANCH   1   2
BRANCH   1  29
ATOM     29  C   UNL     1       3.945   2.089   7.809  1.00  0.00     0.275 C 
BRANCH  29  30
ATOM     30  O   UNL     1       2.920   1.190   7.379  1.00  0.00    -0.458 OA
BRANCH  30  31
ATOM     31  C   UNL     1       2.254   1.643   6.295  1.00  0.00     0.338 C 
ATOM     32  O   UNL     1       2.501   2.652   5.660  1.00  0.00    -0.246 OA
BRANCH  31  33
ATOM     33  C   UNL     1       1.066   0.836   6.022  1.00  0.00     0.060 A 
ATOM     34  C   UNL     1       0.544   0.901   4.727  1.00  0.00     0.016 A 
ATOM     35  C   UNL     1       0.317   0.366   7.099  1.00  0.00     0.016 A 
ATOM     36  C   UNL     1      -0.806   0.710   4.537  1.00  0.00     0.010 A 
ATOM     37  C   UNL     1      -1.032   0.165   6.910  1.00  0.00     0.010 A 
ATOM     38  C   UNL     1      -1.591   0.438   5.655  1.00  0.00    -0.014 A 
BRANCH  38  39
ATOM     39  C   UNL     1      -3.033   0.504   5.509  1.00  0.00     0.031 A 
ATOM     40  C   UNL     1      -3.681  -0.669   4.877  1.00  0.00     0.074 A 
ATOM     41  C   UNL     1      -3.725   1.494   6.108  1.00  0.00     0.049 A 
ATOM     42  N   UNL     1      -4.592  -0.696   3.957  1.00  0.00    -0.248 NA
ATOM     43  C   UNL     1      -3.221  -1.999   5.311  1.00  0.00     0.031 C 
ATOM     44  C   UNL     1      -3.200   2.529   7.006  1.00  0.00     0.029 A 
ATOM     45  N   UNL     1      -5.071   1.684   6.166  1.00  0.00    -0.354 N 
ATOM     46  C   UNL     1      -4.933  -2.037   3.808  1.00  0.00     0.074 A 
ATOM     47  C   UNL     1      -3.990  -2.802   4.582  1.00  0.00     0.031 C 
ATOM     48  C   UNL     1      -4.224   3.069   7.700  1.00  0.00     0.029 A 
ATOM     49  C   UNL     1      -5.469   2.498   7.214  1.00  0.00     0.049 A 
ATOM     50  H   UNL     1      -5.702   1.282   5.525  1.00  0.00     0.167 HD
ATOM     51  C   UNL     1      -6.098  -2.431   3.233  1.00  0.00     0.037 A 
ATOM     52  C   UNL     1      -6.720   2.608   7.720  1.00  0.00     0.037 A 
ATOM     53  C   UNL     1      -6.658  -1.429   2.373  1.00  0.00     0.049 A 
ATOM     54  C   UNL     1      -7.671   2.061   6.723  1.00  0.00     0.074 A 
ATOM     55  C   UNL     1      -6.218  -0.774   1.239  1.00  0.00     0.029 A 
ATOM     56  N   UNL     1      -7.751  -0.721   2.803  1.00  0.00    -0.354 N 
ATOM     57  N   UNL     1      -7.947   2.622   5.579  1.00  0.00    -0.248 NA
ATOM     58  C   UNL     1      -8.037   0.656   6.832  1.00  0.00     0.031 C 
ATOM     59  C   UNL     1      -6.763   0.540   1.329  1.00  0.00     0.029 A 
ATOM     60  C   UNL     1      -7.509   0.596   2.506  1.00  0.00     0.049 A 
ATOM     61  H   UNL     1      -8.554  -1.086   3.239  1.00  0.00     0.167 HD
ATOM     62  C   UNL     1      -8.136   1.563   4.703  1.00  0.00     0.074 A 
ATOM     63  C   UNL     1      -8.295   0.388   5.550  1.00  0.00     0.031 C 
ATOM     64  C   UNL     1      -7.864   1.694   3.372  1.00  0.00     0.037 A 
BRANCH  51  65
ATOM     65  C   UNL     1      -6.869  -3.625   3.716  1.00  0.00     0.064 A 
ATOM     66  C   UNL     1      -7.875  -4.189   2.914  1.00  0.00     0.173 A 
ATOM     67  C   UNL     1      -6.830  -4.064   5.059  1.00  0.00     0.173 A 
ATOM     68  F   UNL     1      -8.028  -3.800   1.640  1.00  0.00    -0.203 F 
ATOM     69  C   UNL     1      -8.793  -5.107   3.430  1.00  0.00     0.198 A 
ATOM     70  C   UNL     1      -7.710  -5.021   5.555  1.00  0.00     0.198 A 
ATOM     71  F   UNL     1      -6.009  -3.505   5.959  1.00  0.00    -0.203 F 
ATOM     72  F   UNL     1      -9.801  -5.542   2.662  1.00  0.00    -0.200 F 
ATOM     73  C   UNL     1      -8.708  -5.525   4.747  1.00  0.00     0.200 A 
ATOM     74  F   UNL     1      -7.626  -5.393   6.840  1.00  0.00    -0.200 F 
ATOM     75  F   UNL     1      -9.615  -6.370   5.254  1.00  0.00    -0.200 F 
ENDBRANCH  51  65
BRANCH  52  76
ATOM     76  C   UNL     1      -7.095   2.884   9.124  1.00  0.00     0.064 A 
ATOM     77  C   UNL     1      -8.361   3.386   9.455  1.00  0.00     0.173 A 
ATOM     78  C   UNL     1      -6.292   2.447  10.197  1.00  0.00     0.173 A 
ATOM     79  F   UNL     1      -9.208   3.768   8.489  1.00  0.00    -0.203 F 
ATOM     80  C   UNL     1      -8.796   3.453  10.783  1.00  0.00     0.198 A 
ATOM     81  C   UNL     1      -6.719   2.529  11.521  1.00  0.00     0.198 A 
ATOM     82  F   UNL     1      -5.109   1.854   9.977  1.00  0.00    -0.203 F 
ATOM     83  F   UNL     1     -10.031   3.893  11.060  1.00  0.00    -0.200 F 
ATOM     84  C   UNL     1      -7.975   3.023  11.814  1.00  0.00     0.200 A 
ATOM     85  F   UNL     1      -5.927   2.077  12.504  1.00  0.00    -0.200 F 
ATOM     86  F   UNL     1      -8.407   3.049  13.082  1.00  0.00    -0.200 F 
ENDBRANCH  52  76
BRANCH  64  87
ATOM     87  C   UNL     1      -7.626   3.079   2.846  1.00  0.00     0.064 A 
ATOM     88  C   UNL     1      -6.537   3.877   3.240  1.00  0.00     0.173 A 
ATOM     89  C   UNL     1      -8.441   3.562   1.815  1.00  0.00     0.173 A 
ATOM     90  F   UNL     1      -5.649   3.433   4.137  1.00  0.00    -0.203 F 
ATOM     91  C   UNL     1      -6.312   5.127   2.668  1.00  0.00     0.198 A 
ATOM     92  C   UNL     1      -8.191   4.796   1.219  1.00  0.00     0.198 A 
ATOM     93  F   UNL     1      -9.454   2.814   1.352  1.00  0.00    -0.203 F 
ATOM     94  F   UNL     1      -5.275   5.875   3.074  1.00  0.00    -0.200 F 
ATOM     95  C   UNL     1      -7.137   5.583   1.654  1.00  0.00     0.200 A 
ATOM     96  F   UNL     1      -8.959   5.212   0.202  1.00  0.00    -0.200 F 
ATOM     97  F   UNL     1      -6.898   6.769   1.076  1.00  0.00    -0.200 F 
ENDBRANCH  64  87
ENDBRANCH  38  39
ENDBRANCH  31  33
ENDBRANCH  30  31
ENDBRANCH  29  30
ENDBRANCH   1  29
TORSDOF 17
