REMARK SMILES CC(=O)N[C@@H](CCc1nc2ccccc2[nH]1)C(=O)OCCOC(=O)c1ccc(-c2c3nc(c(-c4c(F)c(F)c(F)c(F)c4F)c4ccc([nH]4)c(-c4c(F)c(F)c(F)c(F)c4F)c4nc(c(-c5c(F)c(F)c(F)c(F)c5F)c5ccc2[nH]5)C=C4)C=C3)cc1
REMARK SMILES IDX 20 1 19 2 17 3 18 4 5 5 4 6 1 7 2 8 3 9 6 11 7 12 8 13 9 14
REMARK SMILES IDX 16 15 10 16 15 17 11 19 14 20 12 21 13 22 21 23 22 24 23 25
REMARK SMILES IDX 24 26 25 27 26 28 87 29 27 30 86 31 28 32 29 33 30 34 80 35
REMARK SMILES IDX 31 36 85 37 79 38 81 39 32 40 84 41 78 42 77 43 33 45 65 46
REMARK SMILES IDX 45 47 64 48 46 49 49 50 63 51 82 52 47 53 48 54 62 56 83 57
REMARK SMILES IDX 50 58 34 59 35 60 43 61 36 62 37 63 41 64 44 65 38 66 39 67
REMARK SMILES IDX 42 68 40 69 66 70 67 71 75 72 68 73 69 74 73 75 76 76 70 77
REMARK SMILES IDX 71 78 74 79 72 80 51 81 52 82 60 83 53 84 54 85 58 86 61 87
REMARK SMILES IDX 55 88 56 89 59 90 57 91
REMARK H PARENT 4 10 16 18 81 44 49 55
REMARK Flexibility Score: inf
ROOT
ATOM      1  C   UNL     1      -0.824   0.281  -5.615  1.00  0.00     0.274 C 
ENDROOT
BRANCH   1   2
ATOM      2  O   UNL     1      -0.117  -0.388  -4.551  1.00  0.00    -0.461 OA
BRANCH   2   3
ATOM      3  C   UNL     1       1.067   0.152  -4.165  1.00  0.00     0.328 C 
ATOM      4  O   UNL     1       1.552   1.194  -4.601  1.00  0.00    -0.250 OA
BRANCH   3   5
ATOM      5  C   UNL     1       1.821  -0.723  -3.150  1.00  0.00     0.192 C 
BRANCH   5   6
ATOM      6  N   UNL     1       1.034  -1.795  -2.548  1.00  0.00    -0.343 N 
ATOM      7  C   UNL     1       1.028  -0.895  -0.237  1.00  0.00     0.114 C 
ATOM      8  C   UNL     1       0.597  -1.914  -1.260  1.00  0.00     0.217 C 
ATOM      9  O   UNL     1      -0.135  -2.854  -0.955  1.00  0.00    -0.275 OA
ATOM     10  H   UNL     1       0.784  -2.531  -3.152  1.00  0.00     0.164 HD
ENDBRANCH   5   6
BRANCH   5  11
ATOM     11  C   UNL     1       3.152  -1.245  -3.727  1.00  0.00     0.045 C 
BRANCH  11  12
ATOM     12  C   UNL     1       3.062  -2.232  -4.899  1.00  0.00     0.078 C 
BRANCH  12  13
ATOM     13  C   UNL     1       2.529  -1.659  -6.171  1.00  0.00     0.107 A 
ATOM     14  N   UNL     1       1.615  -2.215  -6.939  1.00  0.00    -0.233 NA
ATOM     15  N   UNL     1       2.915  -0.441  -6.685  1.00  0.00    -0.342 N 
ATOM     16  C   UNL     1       1.317  -1.283  -7.903  1.00  0.00     0.089 A 
ATOM     17  C   UNL     1       2.085  -0.138  -7.734  1.00  0.00     0.065 A 
ATOM     18  H   UNL     1       3.658   0.115  -6.356  1.00  0.00     0.168 HD
ATOM     19  C   UNL     1       0.354  -1.317  -8.921  1.00  0.00     0.030 A 
ATOM     20  C   UNL     1       1.919   1.019  -8.497  1.00  0.00     0.028 A 
ATOM     21  C   UNL     1       0.162  -0.168  -9.701  1.00  0.00     0.002 A 
ATOM     22  C   UNL     1       0.925   0.982  -9.482  1.00  0.00     0.002 A 
ENDBRANCH  12  13
ENDBRANCH  11  12
ENDBRANCH   5  11
ENDBRANCH   3   5
ENDBRANCH   2   3
ENDBRANCH   1   2
BRANCH   1  23
ATOM     23  C   UNL     1      -2.057   1.028  -5.110  1.00  0.00     0.275 C 
BRANCH  23  24
ATOM     24  O   UNL     1      -1.681   2.155  -4.298  1.00  0.00    -0.458 OA
BRANCH  24  25
ATOM     25  C   UNL     1      -1.519   1.851  -2.993  1.00  0.00     0.338 C 
ATOM     26  O   UNL     1      -1.729   0.782  -2.445  1.00  0.00    -0.246 OA
BRANCH  25  27
ATOM     27  C   UNL     1      -0.875   2.957  -2.279  1.00  0.00     0.060 A 
ATOM     28  C   UNL     1       0.320   2.656  -1.622  1.00  0.00     0.016 A 
ATOM     29  C   UNL     1      -1.507   4.184  -2.088  1.00  0.00     0.016 A 
ATOM     30  C   UNL     1       0.839   3.530  -0.684  1.00  0.00     0.010 A 
ATOM     31  C   UNL     1      -0.970   5.080  -1.158  1.00  0.00     0.010 A 
ATOM     32  C   UNL     1       0.170   4.727  -0.412  1.00  0.00    -0.014 A 
BRANCH  32  33
ATOM     33  C   UNL     1       0.586   5.500   0.779  1.00  0.00     0.031 A 
ATOM     34  C   UNL     1      -0.258   5.431   2.021  1.00  0.00     0.074 A 
ATOM     35  C   UNL     1       1.761   6.150   0.784  1.00  0.00     0.049 A 
ATOM     36  N   UNL     1      -0.101   6.046   3.165  1.00  0.00    -0.248 NA
ATOM     37  C   UNL     1      -1.435   4.548   1.970  1.00  0.00     0.031 C 
ATOM     38  C   UNL     1       2.696   6.210  -0.340  1.00  0.00     0.029 A 
ATOM     39  N   UNL     1       2.379   6.864   1.776  1.00  0.00    -0.354 N 
ATOM     40  C   UNL     1      -1.178   5.657   3.951  1.00  0.00     0.074 A 
ATOM     41  C   UNL     1      -1.982   4.754   3.158  1.00  0.00     0.031 C 
ATOM     42  C   UNL     1       3.780   6.908   0.033  1.00  0.00     0.029 A 
ATOM     43  C   UNL     1       3.594   7.380   1.403  1.00  0.00     0.049 A 
ATOM     44  H   UNL     1       1.989   6.994   2.671  1.00  0.00     0.167 HD
ATOM     45  C   UNL     1      -1.467   6.025   5.221  1.00  0.00     0.037 A 
ATOM     46  C   UNL     1       4.448   8.161   2.088  1.00  0.00     0.037 A 
ATOM     47  C   UNL     1      -0.640   6.893   6.016  1.00  0.00     0.049 A 
ATOM     48  C   UNL     1       4.101   8.561   3.495  1.00  0.00     0.074 A 
ATOM     49  C   UNL     1      -0.851   7.352   7.304  1.00  0.00     0.029 A 
ATOM     50  N   UNL     1       0.574   7.418   5.596  1.00  0.00    -0.354 N 
ATOM     51  N   UNL     1       3.048   8.244   4.209  1.00  0.00    -0.248 NA
ATOM     52  C   UNL     1       5.059   9.431   4.190  1.00  0.00     0.031 C 
ATOM     53  C   UNL     1       0.228   8.173   7.656  1.00  0.00     0.029 A 
ATOM     54  C   UNL     1       1.124   8.197   6.599  1.00  0.00     0.049 A 
ATOM     55  H   UNL     1       0.983   7.259   4.715  1.00  0.00     0.167 HD
ATOM     56  C   UNL     1       3.216   8.867   5.436  1.00  0.00     0.074 A 
ATOM     57  C   UNL     1       4.487   9.562   5.380  1.00  0.00     0.031 C 
ATOM     58  C   UNL     1       2.392   8.874   6.513  1.00  0.00     0.037 A 
BRANCH  45  59
ATOM     59  C   UNL     1      -2.752   5.523   5.806  1.00  0.00     0.064 A 
ATOM     60  C   UNL     1      -2.907   4.194   6.225  1.00  0.00     0.173 A 
ATOM     61  C   UNL     1      -3.846   6.390   5.952  1.00  0.00     0.173 A 
ATOM     62  F   UNL     1      -1.898   3.321   6.086  1.00  0.00    -0.203 F 
ATOM     63  C   UNL     1      -4.118   3.746   6.750  1.00  0.00     0.198 A 
ATOM     64  C   UNL     1      -5.047   5.945   6.497  1.00  0.00     0.198 A 
ATOM     65  F   UNL     1      -3.749   7.670   5.563  1.00  0.00    -0.203 F 
ATOM     66  F   UNL     1      -4.258   2.461   7.104  1.00  0.00    -0.200 F 
ATOM     67  C   UNL     1      -5.184   4.622   6.889  1.00  0.00     0.200 A 
ATOM     68  F   UNL     1      -6.074   6.795   6.636  1.00  0.00    -0.200 F 
ATOM     69  F   UNL     1      -6.348   4.190   7.394  1.00  0.00    -0.200 F 
ENDBRANCH  45  59
BRANCH  46  70
ATOM     70  C   UNL     1       5.702   8.623   1.443  1.00  0.00     0.064 A 
ATOM     71  C   UNL     1       6.949   8.133   1.850  1.00  0.00     0.173 A 
ATOM     72  C   UNL     1       5.675   9.555   0.394  1.00  0.00     0.173 A 
ATOM     73  F   UNL     1       7.026   7.256   2.862  1.00  0.00    -0.203 F 
ATOM     74  C   UNL     1       8.124   8.563   1.237  1.00  0.00     0.198 A 
ATOM     75  C   UNL     1       6.848   9.965  -0.234  1.00  0.00     0.198 A 
ATOM     76  F   UNL     1       4.505  10.052  -0.032  1.00  0.00    -0.203 F 
ATOM     77  F   UNL     1       9.308   8.103   1.665  1.00  0.00    -0.200 F 
ATOM     78  C   UNL     1       8.072   9.473   0.191  1.00  0.00     0.200 A 
ATOM     79  F   UNL     1       6.791  10.833  -1.253  1.00  0.00    -0.200 F 
ATOM     80  F   UNL     1       9.202   9.878  -0.404  1.00  0.00    -0.200 F 
ENDBRANCH  46  70
BRANCH  58  81
ATOM     81  C   UNL     1       2.854   9.643   7.713  1.00  0.00     0.064 A 
ATOM     82  C   UNL     1       2.811  11.044   7.742  1.00  0.00     0.173 A 
ATOM     83  C   UNL     1       3.323   8.970   8.850  1.00  0.00     0.173 A 
ATOM     84  F   UNL     1       2.384  11.729   6.670  1.00  0.00    -0.203 F 
ATOM     85  C   UNL     1       3.249  11.747   8.860  1.00  0.00     0.198 A 
ATOM     86  C   UNL     1       3.739   9.676   9.974  1.00  0.00     0.198 A 
ATOM     87  F   UNL     1       3.378   7.630   8.868  1.00  0.00    -0.203 F 
ATOM     88  F   UNL     1       3.242  13.087   8.852  1.00  0.00    -0.200 F 
ATOM     89  C   UNL     1       3.708  11.063   9.976  1.00  0.00     0.200 A 
ATOM     90  F   UNL     1       4.178   9.014  11.054  1.00  0.00    -0.200 F 
ATOM     91  F   UNL     1       4.132  11.741  11.051  1.00  0.00    -0.200 F 
ENDBRANCH  58  81
ENDBRANCH  32  33
ENDBRANCH  25  27
ENDBRANCH  24  25
ENDBRANCH  23  24
ENDBRANCH   1  23
TORSDOF 15
