REMARK SMILES O=C(OCCOC(=O)c1ccc(S(=O)(=O)Cc2ncccn2)c(F)c1)c1ccc(-c2c3nc(c(-c4c(F)c(F)c(F)c(F)c4F)c4ccc([nH]4)c(-c4c(F)c(F)c(F)c(F)c4F)c4nc(c(-c5c(F)c(F)c(F)c(F)c5F)c5ccc2[nH]5)C=C4)C=C3)cc1
REMARK SMILES IDX 5 1 4 2 3 3 2 4 1 5 26 6 27 7 88 8 28 9 87 10 29 11 30 12
REMARK SMILES IDX 31 13 81 14 32 15 86 16 80 17 82 18 33 19 85 20 79 21 78 22
REMARK SMILES IDX 34 24 66 25 46 26 65 27 47 28 50 29 64 30 83 31 48 32 49 33
REMARK SMILES IDX 63 35 84 36 51 37 35 38 36 39 44 40 37 41 38 42 42 43 45 44
REMARK SMILES IDX 39 45 40 46 43 47 41 48 67 49 68 50 76 51 69 52 70 53 74 54
REMARK SMILES IDX 77 55 71 56 72 57 75 58 73 59 52 60 53 61 61 62 54 63 55 64
REMARK SMILES IDX 59 65 62 66 56 67 57 68 60 69 58 70 6 71 7 72 8 73 9 74
REMARK SMILES IDX 10 75 25 76 11 77 23 78 12 79 24 80 13 81 14 82 15 83 16 84
REMARK SMILES IDX 17 85 18 86 22 87 19 88 21 89 20 90
REMARK H PARENT 82 23 50 34
REMARK Flexibility Score: inf
ROOT
ATOM      1  C   UNL     1       3.679  -2.327   0.013  1.00  0.00     0.275 C 
ENDROOT
BRANCH   1   2
ATOM      2  C   UNL     1       3.989  -1.185   0.983  1.00  0.00     0.275 C 
BRANCH   2   3
ATOM      3  O   UNL     1       3.003  -0.139   0.979  1.00  0.00    -0.458 OA
BRANCH   3   4
ATOM      4  C   UNL     1       3.086   1.074   0.382  1.00  0.00     0.338 C 
ATOM      5  O   UNL     1       2.420   2.010   0.820  1.00  0.00    -0.246 OA
BRANCH   4   6
ATOM      6  C   UNL     1       3.768   1.267  -0.933  1.00  0.00     0.060 A 
ATOM      7  C   UNL     1       5.011   0.746  -1.303  1.00  0.00     0.016 A 
ATOM      8  C   UNL     1       3.098   2.091  -1.853  1.00  0.00     0.016 A 
ATOM      9  C   UNL     1       5.534   0.972  -2.583  1.00  0.00     0.010 A 
ATOM     10  C   UNL     1       3.606   2.304  -3.136  1.00  0.00     0.010 A 
ATOM     11  C   UNL     1       4.832   1.745  -3.509  1.00  0.00    -0.014 A 
BRANCH  11  12
ATOM     12  C   UNL     1       5.431   2.099  -4.816  1.00  0.00     0.031 A 
ATOM     13  C   UNL     1       5.930   3.499  -5.017  1.00  0.00     0.074 A 
ATOM     14  C   UNL     1       5.497   1.203  -5.816  1.00  0.00     0.049 A 
ATOM     15  N   UNL     1       6.446   4.052  -6.083  1.00  0.00    -0.248 NA
ATOM     16  C   UNL     1       5.854   4.394  -3.850  1.00  0.00     0.031 C 
ATOM     17  C   UNL     1       5.070  -0.191  -5.731  1.00  0.00     0.029 A 
ATOM     18  N   UNL     1       5.900   1.349  -7.120  1.00  0.00    -0.354 N 
ATOM     19  C   UNL     1       6.777   5.344  -5.708  1.00  0.00     0.074 A 
ATOM     20  C   UNL     1       6.341   5.522  -4.341  1.00  0.00     0.031 C 
ATOM     21  C   UNL     1       5.142  -0.748  -6.952  1.00  0.00     0.029 A 
ATOM     22  C   UNL     1       5.631   0.251  -7.899  1.00  0.00     0.049 A 
ATOM     23  H   UNL     1       6.339   2.161  -7.462  1.00  0.00     0.167 HD
ATOM     24  C   UNL     1       7.430   6.284  -6.428  1.00  0.00     0.037 A 
ATOM     25  C   UNL     1       5.742   0.084  -9.231  1.00  0.00     0.037 A 
ATOM     26  C   UNL     1       7.845   6.101  -7.790  1.00  0.00     0.049 A 
ATOM     27  C   UNL     1       6.340   1.187 -10.058  1.00  0.00     0.074 A 
ATOM     28  C   UNL     1       8.571   6.958  -8.595  1.00  0.00     0.029 A 
ATOM     29  N   UNL     1       7.542   4.983  -8.555  1.00  0.00    -0.354 N 
ATOM     30  N   UNL     1       6.755   2.370  -9.673  1.00  0.00    -0.248 NA
ATOM     31  C   UNL     1       6.523   0.926 -11.492  1.00  0.00     0.031 C 
ATOM     32  C   UNL     1       8.670   6.377  -9.864  1.00  0.00     0.029 A 
ATOM     33  C   UNL     1       8.040   5.142  -9.836  1.00  0.00     0.049 A 
ATOM     34  H   UNL     1       7.047   4.195  -8.234  1.00  0.00     0.167 HD
ATOM     35  C   UNL     1       7.292   2.974 -10.799  1.00  0.00     0.074 A 
ATOM     36  C   UNL     1       7.131   2.037 -11.892  1.00  0.00     0.031 C 
ATOM     37  C   UNL     1       7.886   4.188 -10.907  1.00  0.00     0.037 A 
BRANCH  24  38
ATOM     38  C   UNL     1       7.740   7.574  -5.735  1.00  0.00     0.064 A 
ATOM     39  C   UNL     1       7.055   8.750  -6.068  1.00  0.00     0.173 A 
ATOM     40  C   UNL     1       8.708   7.638  -4.720  1.00  0.00     0.173 A 
ATOM     41  F   UNL     1       6.120   8.741  -7.030  1.00  0.00    -0.203 F 
ATOM     42  C   UNL     1       7.322   9.944  -5.402  1.00  0.00     0.198 A 
ATOM     43  C   UNL     1       8.955   8.827  -4.040  1.00  0.00     0.198 A 
ATOM     44  F   UNL     1       9.377   6.534  -4.354  1.00  0.00    -0.203 F 
ATOM     45  F   UNL     1       6.657  11.058  -5.735  1.00  0.00    -0.200 F 
ATOM     46  C   UNL     1       8.263   9.979  -4.383  1.00  0.00     0.200 A 
ATOM     47  F   UNL     1       9.843   8.851  -3.037  1.00  0.00    -0.200 F 
ATOM     48  F   UNL     1       8.495  11.121  -3.722  1.00  0.00    -0.200 F 
ENDBRANCH  24  38
BRANCH  25  49
ATOM     49  C   UNL     1       5.290  -1.190  -9.844  1.00  0.00     0.064 A 
ATOM     50  C   UNL     1       3.924  -1.469 -10.002  1.00  0.00     0.173 A 
ATOM     51  C   UNL     1       6.207  -2.172 -10.236  1.00  0.00     0.173 A 
ATOM     52  F   UNL     1       3.010  -0.557  -9.644  1.00  0.00    -0.203 F 
ATOM     53  C   UNL     1       3.493  -2.692 -10.512  1.00  0.00     0.198 A 
ATOM     54  C   UNL     1       5.775  -3.389 -10.761  1.00  0.00     0.198 A 
ATOM     55  F   UNL     1       7.523  -1.944 -10.120  1.00  0.00    -0.203 F 
ATOM     56  F   UNL     1       2.182  -2.947 -10.628  1.00  0.00    -0.200 F 
ATOM     57  C   UNL     1       4.419  -3.651 -10.890  1.00  0.00     0.200 A 
ATOM     58  F   UNL     1       6.672  -4.311 -11.138  1.00  0.00    -0.200 F 
ATOM     59  F   UNL     1       4.006  -4.829 -11.379  1.00  0.00    -0.200 F 
ENDBRANCH  25  49
BRANCH  37  60
ATOM     60  C   UNL     1       8.464   4.568 -12.235  1.00  0.00     0.064 A 
ATOM     61  C   UNL     1       9.856   4.595 -12.412  1.00  0.00     0.173 A 
ATOM     62  C   UNL     1       7.654   5.021 -13.283  1.00  0.00     0.173 A 
ATOM     63  F   UNL     1      10.670   4.176 -11.431  1.00  0.00    -0.203 F 
ATOM     64  C   UNL     1      10.417   5.092 -13.583  1.00  0.00     0.198 A 
ATOM     65  C   UNL     1       8.219   5.497 -14.463  1.00  0.00     0.198 A 
ATOM     66  F   UNL     1       6.318   5.000 -13.163  1.00  0.00    -0.203 F 
ATOM     67  F   UNL     1      11.750   5.153 -13.713  1.00  0.00    -0.200 F 
ATOM     68  C   UNL     1       9.599   5.545 -14.606  1.00  0.00     0.200 A 
ATOM     69  F   UNL     1       7.429   5.919 -15.460  1.00  0.00    -0.200 F 
ATOM     70  F   UNL     1      10.140   6.034 -15.731  1.00  0.00    -0.200 F 
ENDBRANCH  37  60
ENDBRANCH  11  12
ENDBRANCH   4   6
ENDBRANCH   3   4
ENDBRANCH   2   3
ENDBRANCH   1   2
BRANCH   1  71
ATOM     71  O   UNL     1       3.221  -1.866  -1.268  1.00  0.00    -0.458 OA
BRANCH  71  72
ATOM     72  C   UNL     1       1.872  -1.879  -1.433  1.00  0.00     0.338 C 
ATOM     73  O   UNL     1       1.029  -2.269  -0.646  1.00  0.00    -0.246 OA
BRANCH  72  74
ATOM     74  C   UNL     1       1.548  -1.189  -2.692  1.00  0.00     0.063 A 
ATOM     75  C   UNL     1       2.026  -1.652  -3.920  1.00  0.00     0.017 A 
ATOM     76  C   UNL     1       0.802  -0.012  -2.616  1.00  0.00     0.056 A 
ATOM     77  C   UNL     1       1.780  -0.904  -5.075  1.00  0.00     0.024 A 
ATOM     78  C   UNL     1       0.636   0.766  -3.759  1.00  0.00     0.142 A 
ATOM     79  C   UNL     1       1.115   0.328  -4.984  1.00  0.00     0.103 A 
ATOM     80  F   UNL     1       0.098   1.982  -3.615  1.00  0.00    -0.206 F 
BRANCH  79  81
ATOM     81  S   UNL     1       1.018   1.331  -6.437  1.00  0.00     0.188 S 
ATOM     82  O   UNL     1       2.264   2.083  -6.431  1.00  0.00    -0.223 OA
ATOM     83  O   UNL     1       0.746   0.427  -7.543  1.00  0.00    -0.223 OA
BRANCH  81  84
ATOM     84  C   UNL     1      -0.266   2.523  -6.363  1.00  0.00     0.219 C 
BRANCH  84  85
ATOM     85  C   UNL     1      -1.541   1.992  -5.805  1.00  0.00     0.143 A 
ATOM     86  N   UNL     1      -1.806   0.675  -5.808  1.00  0.00    -0.240 NA
ATOM     87  N   UNL     1      -2.365   2.920  -5.273  1.00  0.00    -0.240 NA
ATOM     88  C   UNL     1      -2.941   0.281  -5.199  1.00  0.00     0.115 A 
ATOM     89  C   UNL     1      -3.487   2.476  -4.679  1.00  0.00     0.115 A 
ATOM     90  C   UNL     1      -3.823   1.148  -4.603  1.00  0.00     0.040 A 
ENDBRANCH  84  85
ENDBRANCH  81  84
ENDBRANCH  79  81
ENDBRANCH  72  74
ENDBRANCH  71  72
ENDBRANCH   1  71
TORSDOF 14
