REMARK SMILES CC[C@H]1CCCC[N@H+]1[C@@H]1CC(=O)N(c2nc(CC(=O)OCCOC(=O)c3ccc(-c4c5nc(c(-c6c(F)c(F)c(F)c(F)c6F)c6ccc([nH]6)c(-c6c(F)c(F)c(F)c(F)c6F)c6nc(c(-c7c(F)c(F)c(F)c(F)c7F)c7ccc4[nH]7)C=C6)C=C5)cc3)cs2)C1=O
REMARK SMILES IDX 21 1 20 2 18 3 19 4 17 5 16 6 14 7 15 8 90 9 89 10 13 11
REMARK SMILES IDX 9 12 10 13 91 14 11 15 92 16 12 17 8 18 3 19 4 20 5 21 7 22
REMARK SMILES IDX 6 24 2 25 1 26 22 27 23 28 24 29 25 30 26 31 27 32 88 33
REMARK SMILES IDX 28 34 87 35 29 36 30 37 31 38 81 39 32 40 86 41 80 42 82 43
REMARK SMILES IDX 33 44 85 45 79 46 78 47 34 49 66 50 46 51 65 52 47 53 50 54
REMARK SMILES IDX 64 55 83 56 48 57 49 58 63 60 84 61 51 62 35 63 36 64 44 65
REMARK SMILES IDX 37 66 38 67 42 68 45 69 39 70 40 71 43 72 41 73 67 74 68 75
REMARK SMILES IDX 76 76 69 77 70 78 74 79 77 80 71 81 72 82 75 83 73 84 52 85
REMARK SMILES IDX 53 86 61 87 54 88 55 89 59 90 62 91 56 92 57 93 60 94 58 95
REMARK H PARENT 8 23 82 48 50 59
REMARK Flexibility Score: inf
ROOT
ATOM      1  C   UNL     1       0.567  10.000  -2.961  1.00  0.00     0.274 C 
ENDROOT
BRANCH   1   2
ATOM      2  O   UNL     1       1.413   9.087  -2.237  1.00  0.00    -0.462 OA
BRANCH   2   3
ATOM      3  C   UNL     1       2.693   9.494  -2.018  1.00  0.00     0.312 C 
ATOM      4  O   UNL     1       3.176  10.537  -2.447  1.00  0.00    -0.252 OA
BRANCH   3   5
ATOM      5  C   UNL     1       3.502   8.509  -1.212  1.00  0.00     0.179 C 
BRANCH   5   6
ATOM      6  C   UNL     1       2.709   7.662  -0.274  1.00  0.00     0.065 A 
ATOM      7  C   UNL     1       2.118   5.671   0.499  1.00  0.00     0.199 A 
ATOM      8  N   UNL     1       2.928   6.300  -0.319  1.00  0.00    -0.224 NA
ATOM      9  S   UNL     1       1.080   6.674   1.417  1.00  0.00    -0.104 S 
ATOM     10  C   UNL     1       1.807   8.051   0.699  1.00  0.00     0.093 A 
BRANCH   7  11
ATOM     11  N   UNL     1       2.141   4.326   0.743  1.00  0.00    -0.219 N 
ATOM     12  C   UNL     1       1.520   2.110   1.151  1.00  0.00     0.285 C 
ATOM     13  C   UNL     1       3.035   2.206   1.003  1.00  0.00     0.176 C 
ATOM     14  C   UNL     1       1.036   3.550   0.967  1.00  0.00     0.294 C 
ATOM     15  C   UNL     1       3.316   3.636   0.690  1.00  0.00     0.242 C 
ATOM     16  O   UNL     1      -0.142   3.885   0.957  1.00  0.00    -0.267 OA
ATOM     17  O   UNL     1       4.455   4.043   0.506  1.00  0.00    -0.274 OA
BRANCH  12  18
ATOM     18  N   UNL     1       0.986   1.521   2.390  1.00  0.00    -0.322 N 
ATOM     19  C   UNL     1       1.051   0.048   2.493  1.00  0.00     0.184 C 
ATOM     20  C   UNL     1       0.132  -0.409   3.647  1.00  0.00     0.065 C 
ATOM     21  C   UNL     1       0.464   0.281   4.965  1.00  0.00     0.012 C 
ATOM     22  C   UNL     1       1.311   2.240   3.627  1.00  0.00     0.263 C 
ATOM     23  H   UNL     1      -0.013   1.691   2.277  1.00  0.00     0.349 HD
ATOM     24  C   UNL     1       0.418   1.790   4.783  1.00  0.00     0.062 C 
BRANCH  19  25
ATOM     25  C   UNL     1       2.467  -0.558   2.665  1.00  0.00     0.061 C 
ATOM     26  C   UNL     1       3.097  -1.017   1.355  1.00  0.00     0.010 C 
ENDBRANCH  19  25
ENDBRANCH  12  18
ENDBRANCH   7  11
ENDBRANCH   5   6
ENDBRANCH   3   5
ENDBRANCH   2   3
ENDBRANCH   1   2
BRANCH   1  27
ATOM     27  C   UNL     1      -0.237  10.867  -1.995  1.00  0.00     0.275 C 
BRANCH  27  28
ATOM     28  O   UNL     1       0.656  11.688  -1.217  1.00  0.00    -0.458 OA
BRANCH  28  29
ATOM     29  C   UNL     1       0.539  11.577   0.121  1.00  0.00     0.338 C 
ATOM     30  O   UNL     1      -0.267  10.913   0.753  1.00  0.00    -0.246 OA
BRANCH  29  31
ATOM     31  C   UNL     1       1.593  12.357   0.779  1.00  0.00     0.060 A 
ATOM     32  C   UNL     1       2.877  11.819   0.900  1.00  0.00     0.016 A 
ATOM     33  C   UNL     1       1.259  13.551   1.416  1.00  0.00     0.016 A 
ATOM     34  C   UNL     1       3.824  12.454   1.702  1.00  0.00     0.010 A 
ATOM     35  C   UNL     1       2.219  14.206   2.189  1.00  0.00     0.010 A 
ATOM     36  C   UNL     1       3.496  13.643   2.365  1.00  0.00    -0.014 A 
BRANCH  36  37
ATOM     37  C   UNL     1       4.455  14.258   3.314  1.00  0.00     0.031 A 
ATOM     38  C   UNL     1       4.185  14.190   4.790  1.00  0.00     0.074 A 
ATOM     39  C   UNL     1       5.559  14.873   2.857  1.00  0.00     0.049 A 
ATOM     40  N   UNL     1       4.832  14.753   5.779  1.00  0.00    -0.248 NA
ATOM     41  C   UNL     1       3.028  13.383   5.209  1.00  0.00     0.031 C 
ATOM     42  C   UNL     1       5.948  14.976   1.451  1.00  0.00     0.029 A 
ATOM     43  N   UNL     1       6.554  15.534   3.532  1.00  0.00    -0.354 N 
ATOM     44  C   UNL     1       4.142  14.399   6.931  1.00  0.00     0.074 A 
ATOM     45  C   UNL     1       3.024  13.577   6.520  1.00  0.00     0.031 C 
ATOM     46  C   UNL     1       7.100  15.661   1.367  1.00  0.00     0.029 A 
ATOM     47  C   UNL     1       7.506  16.078   2.707  1.00  0.00     0.049 A 
ATOM     48  H   UNL     1       6.582  15.611   4.513  1.00  0.00     0.167 HD
ATOM     49  C   UNL     1       4.419  14.730   8.214  1.00  0.00     0.037 A 
ATOM     50  C   UNL     1       8.572  16.846   3.000  1.00  0.00     0.037 A 
ATOM     51  C   UNL     1       5.547  15.523   8.626  1.00  0.00     0.049 A 
ATOM     52  C   UNL     1       8.853  17.207   4.432  1.00  0.00     0.074 A 
ATOM     53  C   UNL     1       5.916  15.906   9.903  1.00  0.00     0.029 A 
ATOM     54  N   UNL     1       6.495  16.049   7.761  1.00  0.00    -0.354 N 
ATOM     55  N   UNL     1       8.186  16.883   5.513  1.00  0.00    -0.248 NA
ATOM     56  C   UNL     1      10.035  18.043   4.684  1.00  0.00     0.031 C 
ATOM     57  C   UNL     1       7.076  16.684   9.809  1.00  0.00     0.029 A 
ATOM     58  C   UNL     1       7.446  16.758   8.476  1.00  0.00     0.049 A 
ATOM     59  H   UNL     1       6.492  15.936   6.783  1.00  0.00     0.167 HD
ATOM     60  C   UNL     1       8.874  17.458   6.572  1.00  0.00     0.074 A 
ATOM     61  C   UNL     1      10.019  18.142   6.006  1.00  0.00     0.031 C 
ATOM     62  C   UNL     1       8.582  17.424   7.895  1.00  0.00     0.037 A 
BRANCH  49  63
ATOM     63  C   UNL     1       3.463  14.256   9.267  1.00  0.00     0.064 A 
ATOM     64  C   UNL     1       3.434  12.918   9.686  1.00  0.00     0.173 A 
ATOM     65  C   UNL     1       2.578  15.158   9.876  1.00  0.00     0.173 A 
ATOM     66  F   UNL     1       4.249  12.016   9.121  1.00  0.00    -0.203 F 
ATOM     67  C   UNL     1       2.537  12.496  10.664  1.00  0.00     0.198 A 
ATOM     68  C   UNL     1       1.698  14.737  10.869  1.00  0.00     0.198 A 
ATOM     69  F   UNL     1       2.569  16.448   9.510  1.00  0.00    -0.203 F 
ATOM     70  F   UNL     1       2.497  11.205  11.022  1.00  0.00    -0.200 F 
ATOM     71  C   UNL     1       1.674  13.406  11.258  1.00  0.00     0.200 A 
ATOM     72  F   UNL     1       0.869  15.618  11.446  1.00  0.00    -0.200 F 
ATOM     73  F   UNL     1       0.812  12.998  12.200  1.00  0.00    -0.200 F 
ENDBRANCH  49  63
BRANCH  50  74
ATOM     74  C   UNL     1       9.449  17.329   1.906  1.00  0.00     0.064 A 
ATOM     75  C   UNL     1      10.731  16.796   1.723  1.00  0.00     0.173 A 
ATOM     76  C   UNL     1       9.018  18.324   1.016  1.00  0.00     0.173 A 
ATOM     77  F   UNL     1      11.192  15.860   2.566  1.00  0.00    -0.203 F 
ATOM     78  C   UNL     1      11.555  17.245   0.694  1.00  0.00     0.198 A 
ATOM     79  C   UNL     1       9.835  18.757  -0.026  1.00  0.00     0.198 A 
ATOM     80  F   UNL     1       7.799  18.865   1.153  1.00  0.00    -0.203 F 
ATOM     81  F   UNL     1      12.790  16.742   0.560  1.00  0.00    -0.200 F 
ATOM     82  C   UNL     1      11.104  18.221  -0.183  1.00  0.00     0.200 A 
ATOM     83  F   UNL     1       9.393  19.693  -0.876  1.00  0.00    -0.200 F 
ATOM     84  F   UNL     1      11.895  18.648  -1.176  1.00  0.00    -0.200 F 
ENDBRANCH  50  74
BRANCH  62  85
ATOM     85  C   UNL     1       9.533  18.119   8.821  1.00  0.00     0.064 A 
ATOM     86  C   UNL     1       9.551  19.516   8.939  1.00  0.00     0.173 A 
ATOM     87  C   UNL     1      10.413  17.377   9.622  1.00  0.00     0.173 A 
ATOM     88  F   UNL     1       8.738  20.267   8.181  1.00  0.00    -0.203 F 
ATOM     89  C   UNL     1      10.433  20.147   9.812  1.00  0.00     0.198 A 
ATOM     90  C   UNL     1      11.279  18.010  10.509  1.00  0.00     0.198 A 
ATOM     91  F   UNL     1      10.430  16.037   9.547  1.00  0.00    -0.203 F 
ATOM     92  F   UNL     1      10.461  21.485   9.882  1.00  0.00    -0.200 F 
ATOM     93  C   UNL     1      11.292  19.394  10.600  1.00  0.00     0.200 A 
ATOM     94  F   UNL     1      12.104  17.282  11.274  1.00  0.00    -0.200 F 
ATOM     95  F   UNL     1      12.139  20.003  11.440  1.00  0.00    -0.200 F 
ENDBRANCH  62  85
ENDBRANCH  36  37
ENDBRANCH  29  31
ENDBRANCH  28  29
ENDBRANCH  27  28
ENDBRANCH   1  27
TORSDOF 15
