REMARK SMILES O=C(OCCOC(=O)c1ccc(-c2c3nc(c(-c4c(F)c(F)c(F)c(F)c4F)c4ccc([nH]4)c(-c4c(F)c(F)c(F)c(F)c4F)c4nc(c(-c5c(F)c(F)c(F)c(F)c5F)c5ccc2[nH]5)C=C4)C=C3)cc1)C1=Cc2cc(S(F)(F)(F)(F)F)ccc2O[C@@H]1C(F)(F)F
REMARK SMILES IDX 5 1 4 2 3 3 2 4 1 5 72 6 73 7 87 8 74 9 86 10 75 11 85 12
REMARK SMILES IDX 76 13 84 14 83 15 88 16 89 17 90 18 91 19 77 20 78 21 79 22
REMARK SMILES IDX 80 23 81 24 82 25 6 26 7 27 8 28 9 29 10 30 71 31 11 32
REMARK SMILES IDX 70 33 12 34 13 35 14 36 64 37 15 38 69 39 63 40 65 41 16 42
REMARK SMILES IDX 68 43 62 44 61 45 17 47 49 48 29 49 48 50 30 51 33 52 47 53
REMARK SMILES IDX 66 54 31 55 32 56 46 58 67 59 34 60 18 61 19 62 27 63 20 64
REMARK SMILES IDX 21 65 25 66 28 67 22 68 23 69 26 70 24 71 50 72 51 73 59 74
REMARK SMILES IDX 52 75 53 76 57 77 60 78 54 79 55 80 58 81 56 82 35 83 36 84
REMARK SMILES IDX 44 85 37 86 38 87 42 88 45 89 39 90 40 91 43 92 41 93
REMARK H PARENT 65 46 33 57
REMARK Flexibility Score: inf
ROOT
ATOM      1  C   UNL     1       4.838   1.272   0.013  1.00  0.00     0.275 C 
ENDROOT
BRANCH   1   2
ATOM      2  C   UNL     1       4.332   0.399  -1.123  1.00  0.00     0.275 C 
BRANCH   2   3
ATOM      3  O   UNL     1       2.912   0.399  -1.123  1.00  0.00    -0.459 OA
BRANCH   3   4
ATOM      4  C   UNL     1       2.202  -0.071   0.013  1.00  0.00     0.338 C 
ATOM      5  O   UNL     1       0.931  -0.071   0.013  1.00  0.00    -0.246 OA
BRANCH   4   6
ATOM      6  C   UNL     1       2.962  -0.574   1.229  1.00  0.00     0.087 C 
ATOM      7  C   UNL     1       4.322  -0.574   1.229  1.00  0.00     0.027 C 
ATOM      8  C   UNL     1       2.202  -1.078   2.446  1.00  0.00     0.316 C 
ATOM      9  C   UNL     1       5.082  -0.071   0.013  1.00  0.00     0.019 A 
ATOM     10  O   UNL     1       3.514   1.714  -0.059  1.00  0.00    -0.475 OA
ATOM     11  C   UNL     1       6.114  -0.816  -0.534  1.00  0.00     0.036 A 
ATOM     12  C   UNL     1       4.675   1.060  -0.551  1.00  0.00     0.128 A 
ATOM     13  C   UNL     1       6.853  -0.130  -1.527  1.00  0.00     0.107 A 
ATOM     14  C   UNL     1       5.367   1.604  -1.607  1.00  0.00     0.048 A 
ATOM     15  C   UNL     1       6.433   0.951  -2.160  1.00  0.00     0.028 A 
BRANCH   8  16
ATOM     16  C   UNL     1       2.569  -0.236   3.657  1.00  0.00     0.430 C 
ATOM     17  F   UNL     1       2.248   1.034   3.427  1.00  0.00    -0.167 F 
ATOM     18  F   UNL     1       1.904  -0.676   4.721  1.00  0.00    -0.167 F 
ATOM     19  F   UNL     1       3.876  -0.329   3.881  1.00  0.00    -0.167 F 
ENDBRANCH   8  16
BRANCH  13  20
ATOM     20  S   UNL     1       8.486  -0.779  -1.960  1.00  0.00     0.310 S 
ATOM     21  F   UNL     1       8.954  -0.808  -0.445  1.00  0.00    -0.094 F 
ATOM     22  F   UNL     1       9.035   0.696  -2.030  1.00  0.00    -0.094 F 
ATOM     23  F   UNL     1       9.883  -1.347  -2.338  1.00  0.00    -0.094 F 
ATOM     24  F   UNL     1       7.954  -2.251  -1.747  1.00  0.00    -0.094 F 
ATOM     25  F   UNL     1       7.093  -0.220  -1.464  1.00  0.00    -0.094 F 
ENDBRANCH  13  20
ENDBRANCH   4   6
ENDBRANCH   3   4
ENDBRANCH   2   3
ENDBRANCH   1   2
BRANCH   1  26
ATOM     26  O   UNL     1       4.365   0.760   1.250  1.00  0.00    -0.458 OA
BRANCH  26  27
ATOM     27  C   UNL     1       2.969   0.661   1.490  1.00  0.00     0.338 C 
ATOM     28  O   UNL     1       2.143   1.030   0.598  1.00  0.00    -0.246 OA
BRANCH  27  29
ATOM     29  C   UNL     1       2.462   0.113   2.814  1.00  0.00     0.060 A 
ATOM     30  C   UNL     1       1.354  -0.718   2.846  1.00  0.00     0.016 A 
ATOM     31  C   UNL     1       3.032   0.545   3.933  1.00  0.00     0.016 A 
ATOM     32  C   UNL     1       0.740  -0.806   4.118  1.00  0.00     0.010 A 
ATOM     33  C   UNL     1       2.447   0.305   5.153  1.00  0.00     0.010 A 
ATOM     34  C   UNL     1       1.318  -0.458   5.254  1.00  0.00    -0.014 A 
BRANCH  34  35
ATOM     35  C   UNL     1       0.756  -0.884   6.601  1.00  0.00     0.031 A 
ATOM     36  C   UNL     1       0.383   0.131   7.484  1.00  0.00     0.074 A 
ATOM     37  C   UNL     1       0.568  -2.233   6.848  1.00  0.00     0.049 A 
ATOM     38  N   UNL     1      -0.229   0.000   8.662  1.00  0.00    -0.248 NA
ATOM     39  C   UNL     1       0.613   1.563   7.239  1.00  0.00     0.031 C 
ATOM     40  C   UNL     1       0.934  -3.262   5.959  1.00  0.00     0.029 A 
ATOM     41  N   UNL     1       0.010  -2.818   7.963  1.00  0.00    -0.354 N 
ATOM     42  C   UNL     1      -0.439   1.200   9.208  1.00  0.00     0.074 A 
ATOM     43  C   UNL     1       0.105   2.222   8.303  1.00  0.00     0.031 C 
ATOM     44  C   UNL     1       0.612  -4.450   6.534  1.00  0.00     0.029 A 
ATOM     45  C   UNL     1       0.039  -4.184   7.792  1.00  0.00     0.049 A 
ATOM     46  H   UNL     1      -0.348  -2.341   8.747  1.00  0.00     0.167 HD
ATOM     47  C   UNL     1      -1.065   1.482  10.423  1.00  0.00     0.037 A 
ATOM     48  C   UNL     1      -0.403  -5.159   8.673  1.00  0.00     0.037 A 
ATOM     49  C   UNL     1      -1.546   0.508  11.284  1.00  0.00     0.049 A 
ATOM     50  C   UNL     1      -0.976  -4.879   9.915  1.00  0.00     0.074 A 
ATOM     51  C   UNL     1      -2.186   0.775  12.509  1.00  0.00     0.029 A 
ATOM     52  N   UNL     1      -1.494  -0.859  11.124  1.00  0.00    -0.354 N 
ATOM     53  N   UNL     1      -1.221  -3.679  10.443  1.00  0.00    -0.248 NA
ATOM     54  C   UNL     1      -1.417  -5.905  10.870  1.00  0.00     0.031 C 
ATOM     55  C   UNL     1      -2.507  -0.414  13.085  1.00  0.00     0.029 A 
ATOM     56  C   UNL     1      -2.073  -1.443  12.229  1.00  0.00     0.049 A 
ATOM     57  H   UNL     1      -1.110  -1.336  10.353  1.00  0.00     0.167 HD
ATOM     58  C   UNL     1      -1.796  -3.812  11.640  1.00  0.00     0.074 A 
ATOM     59  C   UNL     1      -1.924  -5.246  11.935  1.00  0.00     0.031 C 
ATOM     60  C   UNL     1      -2.222  -2.795  12.496  1.00  0.00     0.037 A 
BRANCH  47  61
ATOM     61  C   UNL     1      -1.228   2.939  10.825  1.00  0.00     0.064 A 
ATOM     62  C   UNL     1      -1.899   3.825   9.999  1.00  0.00     0.173 A 
ATOM     63  C   UNL     1      -0.661   3.345  11.955  1.00  0.00     0.173 A 
ATOM     64  F   UNL     1      -2.688   3.432   9.003  1.00  0.00    -0.203 F 
ATOM     65  C   UNL     1      -1.668   5.186  10.310  1.00  0.00     0.198 A 
ATOM     66  C   UNL     1      -0.591   4.683  12.261  1.00  0.00     0.198 A 
ATOM     67  F   UNL     1      -0.157   2.449  12.799  1.00  0.00    -0.203 F 
ATOM     68  F   UNL     1      -1.963   6.091   9.381  1.00  0.00    -0.200 F 
ATOM     69  C   UNL     1      -1.181   5.619  11.458  1.00  0.00     0.200 A 
ATOM     70  F   UNL     1       0.060   5.072  13.353  1.00  0.00    -0.200 F 
ATOM     71  F   UNL     1      -1.260   6.898  11.815  1.00  0.00    -0.200 F 
ENDBRANCH  47  61
BRANCH  48  72
ATOM     72  C   UNL     1      -0.255  -6.615   8.263  1.00  0.00     0.064 A 
ATOM     73  C   UNL     1      -1.420  -7.356   8.151  1.00  0.00     0.173 A 
ATOM     74  C   UNL     1       0.931  -7.153   8.000  1.00  0.00     0.173 A 
ATOM     75  F   UNL     1      -2.631  -6.806   8.155  1.00  0.00    -0.203 F 
ATOM     76  C   UNL     1      -1.205  -8.749   8.033  1.00  0.00     0.198 A 
ATOM     77  C   UNL     1       1.050  -8.500   7.759  1.00  0.00     0.198 A 
ATOM     78  F   UNL     1       2.013  -6.380   7.970  1.00  0.00    -0.203 F 
ATOM     79  F   UNL     1      -2.232  -9.557   8.280  1.00  0.00    -0.200 F 
ATOM     80  C   UNL     1      -0.055  -9.303   7.693  1.00  0.00     0.200 A 
ATOM     81  F   UNL     1       2.257  -9.031   7.587  1.00  0.00    -0.200 F 
ATOM     82  F   UNL     1       0.024 -10.574   7.308  1.00  0.00    -0.200 F 
ENDBRANCH  48  72
BRANCH  60  83
ATOM     83  C   UNL     1      -2.891  -3.195  13.802  1.00  0.00     0.064 A 
ATOM     84  C   UNL     1      -2.228  -4.022  14.694  1.00  0.00     0.173 A 
ATOM     85  C   UNL     1      -4.135  -2.792  14.030  1.00  0.00     0.173 A 
ATOM     86  F   UNL     1      -0.918  -4.244  14.641  1.00  0.00    -0.203 F 
ATOM     87  C   UNL     1      -3.072  -4.608  15.667  1.00  0.00     0.198 A 
ATOM     88  C   UNL     1      -4.856  -3.307  15.081  1.00  0.00     0.198 A 
ATOM     89  F   UNL     1      -4.689  -1.882  13.234  1.00  0.00    -0.203 F 
ATOM     90  F   UNL     1      -2.614  -5.670  16.324  1.00  0.00    -0.200 F 
ATOM     91  C   UNL     1      -4.282  -4.174  15.968  1.00  0.00     0.200 A 
ATOM     92  F   UNL     1      -6.129  -2.956  15.236  1.00  0.00    -0.200 F 
ATOM     93  F   UNL     1      -4.910  -4.561  17.075  1.00  0.00    -0.200 F 
ENDBRANCH  60  83
ENDBRANCH  34  35
ENDBRANCH  27  29
ENDBRANCH  26  27
ENDBRANCH   1  26
TORSDOF 13
