REMARK SMILES O=C(CC[C@@H]1CN(c2ccncc2)CC[C@@H]1[NH+]1CCOCC1)OCCOC(=O)c1ccc(-c2c3nc(c(-c4c(F)c(F)c(F)c(F)c4F)c4ccc([nH]4)c(-c4c(F)c(F)c(F)c(F)c4F)c4nc(c(-c5c(F)c(F)c(F)c(F)c5F)c5ccc2[nH]5)C=C4)C=C3)cc1
REMARK SMILES IDX 24 1 23 2 2 3 1 4 3 5 4 6 5 7 6 8 16 9 7 10 15 11 14 12
REMARK SMILES IDX 17 13 18 14 22 15 19 17 21 18 20 19 8 20 9 21 13 22 10 23
REMARK SMILES IDX 12 24 11 25 25 26 26 27 27 28 28 29 29 30 30 31 91 32 31 33
REMARK SMILES IDX 90 34 32 35 33 36 34 37 84 38 35 39 89 40 83 41 85 42 36 43
REMARK SMILES IDX 88 44 82 45 81 46 37 48 69 49 49 50 68 51 50 52 53 53 67 54
REMARK SMILES IDX 86 55 51 56 52 57 66 59 87 60 54 61 38 62 39 63 47 64 40 65
REMARK SMILES IDX 41 66 45 67 48 68 42 69 43 70 46 71 44 72 70 73 71 74 79 75
REMARK SMILES IDX 72 76 73 77 77 78 80 79 74 80 75 81 78 82 76 83 55 84 56 85
REMARK SMILES IDX 64 86 57 87 58 88 62 89 65 90 59 91 60 92 63 93 61 94
REMARK H PARENT 17 16 85 47 53 58
REMARK Flexibility Score: inf
ROOT
ATOM      1  C   UNL     1       6.291   0.320  -1.652  1.00  0.00     0.274 C 
ENDROOT
BRANCH   1   2
ATOM      2  O   UNL     1       6.535  -1.035  -2.091  1.00  0.00    -0.462 OA
BRANCH   2   3
ATOM      3  C   UNL     1       5.701  -2.085  -1.929  1.00  0.00     0.305 C 
ATOM      4  O   UNL     1       5.995  -3.191  -2.380  1.00  0.00    -0.252 OA
BRANCH   3   5
ATOM      5  C   UNL     1       4.381  -1.859  -1.245  1.00  0.00     0.123 C 
BRANCH   5   6
ATOM      6  C   UNL     1       4.289  -2.370   0.191  1.00  0.00     0.023 C 
BRANCH   6   7
ATOM      7  C   UNL     1       5.020  -1.625   1.342  1.00  0.00     0.067 C 
ATOM      8  C   UNL     1       4.789  -0.096   1.382  1.00  0.00     0.126 C 
ATOM      9  C   UNL     1       6.428  -2.192   1.745  1.00  0.00     0.190 C 
ATOM     10  N   UNL     1       5.777   0.674   2.143  1.00  0.00    -0.371 N 
ATOM     11  C   UNL     1       7.005  -1.313   2.850  1.00  0.00     0.087 C 
ATOM     12  C   UNL     1       7.093   0.142   2.457  1.00  0.00     0.122 C 
BRANCH   9  13
ATOM     13  N   UNL     1       7.320  -2.661   0.663  1.00  0.00    -0.328 N 
ATOM     14  C   UNL     1       7.936  -3.988   0.954  1.00  0.00     0.291 C 
ATOM     15  C   UNL     1       8.408  -1.813   0.139  1.00  0.00     0.291 C 
ATOM     16  H   UNL     1       6.614  -2.665  -0.073  1.00  0.00     0.348 HD
ATOM     17  C   UNL     1       9.213  -3.915   1.813  1.00  0.00     0.221 C 
ATOM     18  C   UNL     1       9.729  -1.794   0.927  1.00  0.00     0.221 C 
ATOM     19  O   UNL     1      10.218  -3.109   1.190  1.00  0.00    -0.370 OA
ENDBRANCH   9  13
BRANCH  10  20
ATOM     20  C   UNL     1       5.592   2.040   2.359  1.00  0.00     0.040 A 
ATOM     21  C   UNL     1       6.619   2.970   2.140  1.00  0.00     0.046 A 
ATOM     22  C   UNL     1       4.402   2.533   2.894  1.00  0.00     0.046 A 
ATOM     23  C   UNL     1       6.434   4.299   2.492  1.00  0.00     0.113 A 
ATOM     24  C   UNL     1       4.311   3.878   3.228  1.00  0.00     0.113 A 
ATOM     25  N   UNL     1       5.300   4.774   3.038  1.00  0.00    -0.265 NA
ENDBRANCH  10  20
ENDBRANCH   6   7
ENDBRANCH   5   6
ENDBRANCH   3   5
ENDBRANCH   2   3
ENDBRANCH   1   2
BRANCH   1  26
ATOM     26  C   UNL     1       7.223   1.266  -2.409  1.00  0.00     0.275 C 
BRANCH  26  27
ATOM     27  O   UNL     1       6.669   1.458  -3.716  1.00  0.00    -0.458 OA
BRANCH  27  28
ATOM     28  C   UNL     1       6.873   0.388  -4.521  1.00  0.00     0.338 C 
ATOM     29  O   UNL     1       7.934  -0.188  -4.688  1.00  0.00    -0.246 OA
BRANCH  28  30
ATOM     30  C   UNL     1       5.556  -0.102  -5.000  1.00  0.00     0.060 A 
ATOM     31  C   UNL     1       5.454  -1.445  -5.381  1.00  0.00     0.016 A 
ATOM     32  C   UNL     1       4.430   0.732  -5.047  1.00  0.00     0.016 A 
ATOM     33  C   UNL     1       4.266  -1.925  -5.927  1.00  0.00     0.010 A 
ATOM     34  C   UNL     1       3.238   0.253  -5.584  1.00  0.00     0.010 A 
ATOM     35  C   UNL     1       3.184  -1.052  -6.099  1.00  0.00    -0.014 A 
BRANCH  35  36
ATOM     36  C   UNL     1       2.154  -1.373  -7.111  1.00  0.00     0.031 A 
ATOM     37  C   UNL     1       2.383  -0.851  -8.505  1.00  0.00     0.074 A 
ATOM     38  C   UNL     1       1.068  -2.101  -6.812  1.00  0.00     0.049 A 
ATOM     39  N   UNL     1       1.631  -0.950  -9.570  1.00  0.00    -0.248 NA
ATOM     40  C   UNL     1       3.635  -0.102  -8.724  1.00  0.00     0.031 C 
ATOM     41  C   UNL     1       0.762  -2.673  -5.504  1.00  0.00     0.029 A 
ATOM     42  N   UNL     1       0.011  -2.474  -7.602  1.00  0.00    -0.354 N 
ATOM     43  C   UNL     1       2.323  -0.289 -10.577  1.00  0.00     0.074 A 
ATOM     44  C   UNL     1       3.525   0.255  -9.992  1.00  0.00     0.031 C 
ATOM     45  C   UNL     1      -0.418  -3.315  -5.577  1.00  0.00     0.029 A 
ATOM     46  C   UNL     1      -0.953  -3.182  -6.931  1.00  0.00     0.049 A 
ATOM     47  H   UNL     1      -0.049  -2.255  -8.560  1.00  0.00     0.167 HD
ATOM     48  C   UNL     1       1.996  -0.165 -11.884  1.00  0.00     0.037 A 
ATOM     49  C   UNL     1      -2.135  -3.654  -7.372  1.00  0.00     0.037 A 
ATOM     50  C   UNL     1       0.792  -0.695 -12.456  1.00  0.00     0.049 A 
ATOM     51  C   UNL     1      -2.510  -3.447  -8.819  1.00  0.00     0.074 A 
ATOM     52  C   UNL     1       0.346  -0.617 -13.762  1.00  0.00     0.029 A 
ATOM     53  N   UNL     1      -0.164  -1.403 -11.743  1.00  0.00    -0.354 N 
ATOM     54  N   UNL     1      -1.839  -2.846  -9.773  1.00  0.00    -0.248 NA
ATOM     55  C   UNL     1      -3.802  -3.996  -9.253  1.00  0.00     0.031 C 
ATOM     56  C   UNL     1      -0.901  -1.248 -13.831  1.00  0.00     0.029 A 
ATOM     57  C   UNL     1      -1.208  -1.758 -12.579  1.00  0.00     0.049 A 
ATOM     58  H   UNL     1      -0.108  -1.621 -10.784  1.00  0.00     0.167 HD
ATOM     59  C   UNL     1      -2.609  -2.971 -10.922  1.00  0.00     0.074 A 
ATOM     60  C   UNL     1      -3.793  -3.717 -10.548  1.00  0.00     0.031 C 
ATOM     61  C   UNL     1      -2.365  -2.513 -12.175  1.00  0.00     0.037 A 
BRANCH  48  62
ATOM     62  C   UNL     1       2.954   0.583 -12.762  1.00  0.00     0.064 A 
ATOM     63  C   UNL     1       4.203   0.043 -13.111  1.00  0.00     0.173 A 
ATOM     64  C   UNL     1       2.627   1.853 -13.258  1.00  0.00     0.173 A 
ATOM     65  F   UNL     1       4.573  -1.158 -12.641  1.00  0.00    -0.203 F 
ATOM     66  C   UNL     1       5.098   0.758 -13.902  1.00  0.00     0.198 A 
ATOM     67  C   UNL     1       3.513   2.554 -14.072  1.00  0.00     0.198 A 
ATOM     68  F   UNL     1       1.450   2.417 -12.949  1.00  0.00    -0.203 F 
ATOM     69  F   UNL     1       6.304   0.244 -14.178  1.00  0.00    -0.200 F 
ATOM     70  C   UNL     1       4.750   2.009 -14.387  1.00  0.00     0.200 A 
ATOM     71  F   UNL     1       3.174   3.761 -14.545  1.00  0.00    -0.200 F 
ATOM     72  F   UNL     1       5.611   2.697 -15.150  1.00  0.00    -0.200 F 
ENDBRANCH  48  62
BRANCH  49  73
ATOM     73  C   UNL     1      -3.049  -4.368  -6.442  1.00  0.00     0.064 A 
ATOM     74  C   UNL     1      -3.308  -5.738  -6.590  1.00  0.00     0.173 A 
ATOM     75  C   UNL     1      -3.704  -3.690  -5.404  1.00  0.00     0.173 A 
ATOM     76  F   UNL     1      -2.725  -6.426  -7.583  1.00  0.00    -0.203 F 
ATOM     77  C   UNL     1      -4.205  -6.396  -5.751  1.00  0.00     0.198 A 
ATOM     78  C   UNL     1      -4.580  -4.355  -4.548  1.00  0.00     0.198 A 
ATOM     79  F   UNL     1      -3.492  -2.378  -5.219  1.00  0.00    -0.203 F 
ATOM     80  F   UNL     1      -4.474  -7.694  -5.947  1.00  0.00    -0.200 F 
ATOM     81  C   UNL     1      -4.837  -5.705  -4.728  1.00  0.00     0.200 A 
ATOM     82  F   UNL     1      -5.180  -3.685  -3.555  1.00  0.00    -0.200 F 
ATOM     83  F   UNL     1      -5.701  -6.338  -3.923  1.00  0.00    -0.200 F 
ENDBRANCH  49  73
BRANCH  61  84
ATOM     84  C   UNL     1      -3.375  -2.841 -13.235  1.00  0.00     0.064 A 
ATOM     85  C   UNL     1      -4.625  -2.208 -13.279  1.00  0.00     0.173 A 
ATOM     86  C   UNL     1      -3.067  -3.765 -14.245  1.00  0.00     0.173 A 
ATOM     87  F   UNL     1      -4.969  -1.325 -12.328  1.00  0.00    -0.203 F 
ATOM     88  C   UNL     1      -5.543  -2.509 -14.281  1.00  0.00     0.198 A 
ATOM     89  C   UNL     1      -3.975  -4.042 -15.262  1.00  0.00     0.198 A 
ATOM     90  F   UNL     1      -1.879  -4.388 -14.252  1.00  0.00    -0.203 F 
ATOM     91  F   UNL     1      -6.750  -1.928 -14.278  1.00  0.00    -0.200 F 
ATOM     92  C   UNL     1      -5.214  -3.420 -15.275  1.00  0.00     0.200 A 
ATOM     93  F   UNL     1      -3.650  -4.910 -16.229  1.00  0.00    -0.200 F 
ATOM     94  F   UNL     1      -6.096  -3.704 -16.243  1.00  0.00    -0.200 F 
ENDBRANCH  61  84
ENDBRANCH  35  36
ENDBRANCH  28  30
ENDBRANCH  27  28
ENDBRANCH  26  27
ENDBRANCH   1  26
TORSDOF 15
