REMARK SMILES Cc1ccc([C@H](C)Nc2ccc(C(=O)OCCOC(=O)c3ccc(-c4c5nc(c(-c6c(F)c(F)c(F)c(F)c6F)c6ccc([nH]6)c(-c6c(F)c(F)c(F)c(F)c6F)c6nc(c(-c7c(F)c(F)c(F)c(F)c7F)c7ccc4[nH]7)C=C6)C=C5)cc3)cc2Cl)cc1F
REMARK SMILES IDX 16 1 15 2 13 3 14 4 12 5 9 6 10 7 85 8 11 9 84 10 86 11 8 12
REMARK SMILES IDX 6 14 7 15 5 16 1 17 2 18 3 19 88 20 4 21 87 22 89 23 17 24
REMARK SMILES IDX 18 25 19 26 20 27 21 28 22 29 83 30 23 31 82 32 24 33 25 34
REMARK SMILES IDX 26 35 76 36 27 37 81 38 75 39 77 40 28 41 80 42 74 43 73 44
REMARK SMILES IDX 29 46 61 47 41 48 60 49 42 50 45 51 59 52 78 53 43 54 44 55
REMARK SMILES IDX 58 57 79 58 46 59 30 60 31 61 39 62 32 63 33 64 37 65 40 66
REMARK SMILES IDX 34 67 35 68 38 69 36 70 62 71 63 72 71 73 64 74 65 75 69 76
REMARK SMILES IDX 72 77 66 78 67 79 70 80 68 81 47 82 48 83 56 84 49 85 50 86
REMARK SMILES IDX 54 87 57 88 51 89 52 90 55 91 53 92
REMARK H PARENT 8 13 77 45 45 56
REMARK Flexibility Score: inf
ROOT
ATOM      1  C   UNL     1      -9.655  -1.617   5.445  1.00  0.00     0.275 C 
ENDROOT
BRANCH   1   2
ATOM      2  O   UNL     1      -8.584  -1.726   4.481  1.00  0.00    -0.458 OA
BRANCH   2   3
ATOM      3  C   UNL     1      -7.360  -1.241   4.845  1.00  0.00     0.338 C 
ATOM      4  O   UNL     1      -7.081  -0.700   5.889  1.00  0.00    -0.246 OA
BRANCH   3   5
ATOM      5  C   UNL     1      -6.344  -1.574   3.805  1.00  0.00     0.061 A 
ATOM      6  C   UNL     1      -4.371  -2.285   1.892  1.00  0.00     0.053 A 
ATOM      7  C   UNL     1      -4.031  -2.029   3.229  1.00  0.00     0.028 A 
ATOM      8  C   UNL     1      -5.726  -2.123   1.530  1.00  0.00     0.065 A 
ATOM      9  C   UNL     1      -4.994  -1.630   4.161  1.00  0.00     0.018 A 
ATOM     10  C   UNL     1      -6.705  -1.821   2.486  1.00  0.00     0.038 A 
ATOM     11  Cl  UNL     1      -6.326  -2.326  -0.080  1.00  0.00    -0.082 Cl
BRANCH   6  12
ATOM     12  N   UNL     1      -3.330  -2.627   1.040  1.00  0.00    -0.377 N 
ATOM     13  H   UNL     1      -2.776  -3.405   1.278  1.00  0.00     0.161 HD
BRANCH  12  14
ATOM     14  C   UNL     1      -3.005  -1.904  -0.187  1.00  0.00     0.106 C 
ATOM     15  C   UNL     1      -1.831  -0.966   0.139  1.00  0.00     0.036 C 
BRANCH  14  16
ATOM     16  C   UNL     1      -2.790  -2.912  -1.316  1.00  0.00    -0.023 A 
ATOM     17  C   UNL     1      -2.792  -5.529  -4.778  1.00  0.00     0.047 C 
ATOM     18  C   UNL     1      -2.738  -4.651  -3.568  1.00  0.00    -0.015 A 
ATOM     19  C   UNL     1      -1.814  -3.609  -3.447  1.00  0.00     0.007 A 
ATOM     20  C   UNL     1      -3.662  -4.834  -2.546  1.00  0.00     0.126 A 
ATOM     21  C   UNL     1      -1.843  -2.748  -2.338  1.00  0.00     0.006 A 
ATOM     22  C   UNL     1      -3.679  -3.998  -1.436  1.00  0.00     0.045 A 
ATOM     23  F   UNL     1      -4.575  -5.812  -2.634  1.00  0.00    -0.207 F 
ENDBRANCH  14  16
ENDBRANCH  12  14
ENDBRANCH   6  12
ENDBRANCH   3   5
ENDBRANCH   2   3
ENDBRANCH   1   2
BRANCH   1  24
ATOM     24  C   UNL     1      -9.790  -2.848   6.342  1.00  0.00     0.275 C 
BRANCH  24  25
ATOM     25  O   UNL     1      -8.712  -2.897   7.275  1.00  0.00    -0.458 OA
BRANCH  25  26
ATOM     26  C   UNL     1      -7.626  -3.498   6.753  1.00  0.00     0.338 C 
ATOM     27  O   UNL     1      -7.509  -4.013   5.650  1.00  0.00    -0.246 OA
BRANCH  26  28
ATOM     28  C   UNL     1      -6.577  -3.621   7.758  1.00  0.00     0.060 A 
ATOM     29  C   UNL     1      -5.282  -3.669   7.217  1.00  0.00     0.016 A 
ATOM     30  C   UNL     1      -6.974  -4.410   8.829  1.00  0.00     0.016 A 
ATOM     31  C   UNL     1      -4.484  -4.750   7.494  1.00  0.00     0.010 A 
ATOM     32  C   UNL     1      -6.190  -5.494   9.099  1.00  0.00     0.010 A 
ATOM     33  C   UNL     1      -5.005  -5.692   8.363  1.00  0.00    -0.014 A 
BRANCH  33  34
ATOM     34  C   UNL     1      -4.284  -6.874   8.744  1.00  0.00     0.031 A 
ATOM     35  C   UNL     1      -3.380  -6.711   9.886  1.00  0.00     0.074 A 
ATOM     36  C   UNL     1      -4.783  -8.043   8.301  1.00  0.00     0.049 A 
ATOM     37  N   UNL     1      -2.681  -7.654  10.393  1.00  0.00    -0.248 NA
ATOM     38  C   UNL     1      -3.160  -5.415  10.530  1.00  0.00     0.031 C 
ATOM     39  C   UNL     1      -4.769  -9.328   8.978  1.00  0.00     0.029 A 
ATOM     40  N   UNL     1      -5.288  -8.322   7.021  1.00  0.00    -0.354 N 
ATOM     41  C   UNL     1      -2.204  -7.196  11.600  1.00  0.00     0.074 A 
ATOM     42  C   UNL     1      -2.391  -5.769  11.561  1.00  0.00     0.031 C 
ATOM     43  C   UNL     1      -4.979 -10.297   8.070  1.00  0.00     0.029 A 
ATOM     44  C   UNL     1      -4.908  -9.665   6.763  1.00  0.00     0.049 A 
ATOM     45  H   UNL     1      -5.795  -7.718   6.431  1.00  0.00     0.167 HD
ATOM     46  C   UNL     1      -1.861  -8.128  12.531  1.00  0.00     0.037 A 
ATOM     47  C   UNL     1      -3.935  -9.931   5.834  1.00  0.00     0.037 A 
ATOM     48  C   UNL     1      -1.951  -9.465  11.943  1.00  0.00     0.049 A 
ATOM     49  C   UNL     1      -2.683 -10.567   6.409  1.00  0.00     0.074 A 
ATOM     50  C   UNL     1      -2.906 -10.467  11.940  1.00  0.00     0.029 A 
ATOM     51  N   UNL     1      -1.077  -9.767  10.922  1.00  0.00    -0.354 N 
ATOM     52  N   UNL     1      -2.407 -10.604   7.684  1.00  0.00    -0.248 NA
ATOM     53  C   UNL     1      -1.617 -11.153   5.598  1.00  0.00     0.031 C 
ATOM     54  C   UNL     1      -2.588 -11.369  10.877  1.00  0.00     0.029 A 
ATOM     55  C   UNL     1      -1.439 -10.913  10.254  1.00  0.00     0.049 A 
ATOM     56  H   UNL     1      -0.286  -9.226  10.697  1.00  0.00     0.167 HD
ATOM     57  C   UNL     1      -1.182 -11.176   7.876  1.00  0.00     0.074 A 
ATOM     58  C   UNL     1      -0.715 -11.491   6.539  1.00  0.00     0.031 C 
ATOM     59  C   UNL     1      -0.634 -11.321   9.116  1.00  0.00     0.037 A 
BRANCH  46  60
ATOM     60  C   UNL     1      -1.629  -7.908  14.006  1.00  0.00     0.064 A 
ATOM     61  C   UNL     1      -1.552  -9.030  14.863  1.00  0.00     0.173 A 
ATOM     62  C   UNL     1      -1.521  -6.667  14.661  1.00  0.00     0.173 A 
ATOM     63  F   UNL     1      -1.567 -10.281  14.384  1.00  0.00    -0.203 F 
ATOM     64  C   UNL     1      -1.455  -8.914  16.250  1.00  0.00     0.198 A 
ATOM     65  C   UNL     1      -1.431  -6.551  16.051  1.00  0.00     0.198 A 
ATOM     66  F   UNL     1      -1.466  -5.509  14.003  1.00  0.00    -0.203 F 
ATOM     67  F   UNL     1      -1.412 -10.021  17.004  1.00  0.00    -0.200 F 
ATOM     68  C   UNL     1      -1.409  -7.674  16.847  1.00  0.00     0.200 A 
ATOM     69  F   UNL     1      -1.363  -5.333  16.609  1.00  0.00    -0.200 F 
ATOM     70  F   UNL     1      -1.329  -7.560  18.178  1.00  0.00    -0.200 F 
ENDBRANCH  46  60
BRANCH  47  71
ATOM     71  C   UNL     1      -3.954  -8.936   4.720  1.00  0.00     0.064 A 
ATOM     72  C   UNL     1      -5.110  -8.874   3.915  1.00  0.00     0.173 A 
ATOM     73  C   UNL     1      -3.137  -7.798   4.771  1.00  0.00     0.173 A 
ATOM     74  F   UNL     1      -5.919  -9.942   3.825  1.00  0.00    -0.203 F 
ATOM     75  C   UNL     1      -5.516  -7.678   3.327  1.00  0.00     0.198 A 
ATOM     76  C   UNL     1      -3.545  -6.603   4.175  1.00  0.00     0.198 A 
ATOM     77  F   UNL     1      -2.013  -7.804   5.502  1.00  0.00    -0.203 F 
ATOM     78  F   UNL     1      -6.689  -7.616   2.681  1.00  0.00    -0.200 F 
ATOM     79  C   UNL     1      -4.751  -6.534   3.491  1.00  0.00     0.200 A 
ATOM     80  F   UNL     1      -2.808  -5.493   4.334  1.00  0.00    -0.200 F 
ATOM     81  F   UNL     1      -5.189  -5.359   3.017  1.00  0.00    -0.200 F 
ENDBRANCH  47  71
BRANCH  59  82
ATOM     82  C   UNL     1       0.746 -11.849   9.366  1.00  0.00     0.064 A 
ATOM     83  C   UNL     1       1.200 -13.049   8.808  1.00  0.00     0.173 A 
ATOM     84  C   UNL     1       1.616 -11.216  10.284  1.00  0.00     0.173 A 
ATOM     85  F   UNL     1       0.426 -13.745   7.963  1.00  0.00    -0.203 F 
ATOM     86  C   UNL     1       2.459 -13.565   9.124  1.00  0.00     0.198 A 
ATOM     87  C   UNL     1       2.838 -11.767  10.648  1.00  0.00     0.198 A 
ATOM     88  F   UNL     1       1.320 -10.026  10.829  1.00  0.00    -0.203 F 
ATOM     89  F   UNL     1       2.886 -14.684   8.524  1.00  0.00    -0.200 F 
ATOM     90  C   UNL     1       3.268 -12.934  10.055  1.00  0.00     0.200 A 
ATOM     91  F   UNL     1       3.597 -11.152  11.567  1.00  0.00    -0.200 F 
ATOM     92  F   UNL     1       4.466 -13.444  10.372  1.00  0.00    -0.200 F 
ENDBRANCH  59  82
ENDBRANCH  33  34
ENDBRANCH  26  28
ENDBRANCH  25  26
ENDBRANCH  24  25
ENDBRANCH   1  24
TORSDOF 14
