REMARK SMILES CC(C)C[C@H](NC(=O)[C@H](Cc1ccccc1)NC(=O)CNC(=O)C[NH3+])C(=O)OCCOC(=O)c1ccc(-c2c3nc(c(-c4c(F)c(F)c(F)c(F)c4F)c4ccc([nH]4)c(-c4c(F)c(F)c(F)c(F)c4F)c4nc(c(-c5c(F)c(F)c(F)c(F)c5F)c5ccc2[nH]5)C=C4)C=C3)cc1
REMARK SMILES IDX 26 1 27 2 5 3 4 4 2 5 1 6 3 7 6 8 7 9 8 11 9 12 17 13 18 14
REMARK SMILES IDX 19 16 20 17 21 18 22 19 23 21 24 22 25 23 10 27 11 28 12 29
REMARK SMILES IDX 16 30 13 31 15 32 14 33 28 34 29 35 30 36 31 37 32 38 33 39
REMARK SMILES IDX 34 40 35 41 96 42 36 43 95 44 37 45 38 46 39 47 89 48 40 49
REMARK SMILES IDX 94 50 88 51 90 52 41 53 93 54 87 55 86 56 42 58 74 59 54 60
REMARK SMILES IDX 73 61 55 62 58 63 72 64 91 65 56 66 57 67 71 69 92 70 59 71
REMARK SMILES IDX 43 72 44 73 52 74 45 75 46 76 50 77 53 78 47 79 48 80 51 81
REMARK SMILES IDX 49 82 75 83 76 84 84 85 77 86 78 87 82 88 85 89 79 90 80 91
REMARK SMILES IDX 83 92 81 93 60 94 61 95 69 96 62 97 63 98 67 99 70 100
REMARK SMILES IDX 64 101 65 102 68 103 66 104
REMARK H PARENT 6 10 17 15 21 20 25 24 25 25 25 26 90 57 58 68
REMARK Flexibility Score: inf
ROOT
ATOM      1  C   UNL     1      -4.303   4.613  -0.805  1.00  0.00     0.328 C 
ATOM      2  O   UNL     1      -5.142   3.833  -0.371  1.00  0.00    -0.250 OA
ENDROOT
BRANCH   1   3
ATOM      3  C   UNL     1      -4.011   4.781  -2.364  1.00  0.00     0.192 C 
BRANCH   3   4
ATOM      4  C   UNL     1      -3.766   3.396  -3.030  1.00  0.00     0.040 C 
BRANCH   4   5
ATOM      5  C   UNL     1      -2.500   3.109  -3.880  1.00  0.00    -0.015 C 
ATOM      6  C   UNL     1      -1.163   3.606  -3.345  1.00  0.00     0.007 C 
ATOM      7  C   UNL     1      -2.384   1.596  -4.106  1.00  0.00     0.007 C 
ENDBRANCH   4   5
ENDBRANCH   3   4
BRANCH   3   8
ATOM      8  N   UNL     1      -3.343   5.877  -3.117  1.00  0.00    -0.341 N 
ATOM      9  C   UNL     1      -2.130   6.505  -2.998  1.00  0.00     0.243 C 
ATOM     10  H   UNL     1      -3.888   6.225  -3.860  1.00  0.00     0.164 HD
ATOM     11  O   UNL     1      -1.544   6.850  -4.024  1.00  0.00    -0.273 OA
BRANCH   9  12
ATOM     12  C   UNL     1      -1.677   6.969  -1.619  1.00  0.00     0.175 C 
BRANCH  12  13
ATOM     13  N   UNL     1      -0.260   6.874  -1.262  1.00  0.00    -0.342 N 
ATOM     14  C   UNL     1       0.325   5.994  -0.375  1.00  0.00     0.240 C 
ATOM     15  H   UNL     1       0.344   7.513  -1.705  1.00  0.00     0.164 HD
ATOM     16  O   UNL     1       1.394   6.315   0.148  1.00  0.00    -0.273 OA
BRANCH  14  17
ATOM     17  C   UNL     1      -0.347   4.641  -0.033  1.00  0.00     0.216 C 
BRANCH  17  18
ATOM     18  N   UNL     1      -0.649   4.429   1.369  1.00  0.00    -0.342 N 
ATOM     19  C   UNL     1      -1.412   3.478   1.979  1.00  0.00     0.275 C 
ATOM     20  H   UNL     1      -0.234   5.078   1.982  1.00  0.00     0.164 HD
ATOM     21  O   UNL     1      -1.461   3.526   3.216  1.00  0.00    -0.268 OA
BRANCH  19  22
ATOM     22  C   UNL     1      -2.302   2.448   1.258  1.00  0.00     0.360 C 
BRANCH  22  23
ATOM     23  N   UNL     1      -1.976   2.145  -0.141  1.00  0.00    -0.350 N 
ATOM     24  H   UNL     1      -2.105   2.982  -0.710  1.00  0.00     0.344 HD
ATOM     25  H   UNL     1      -2.591   1.405  -0.481  1.00  0.00     0.344 HD
ATOM     26  H   UNL     1      -1.006   1.837  -0.205  1.00  0.00     0.344 HD
ENDBRANCH  22  23
ENDBRANCH  19  22
ENDBRANCH  17  18
ENDBRANCH  14  17
ENDBRANCH  12  13
BRANCH  12  27
ATOM     27  C   UNL     1      -2.273   8.382  -1.460  1.00  0.00     0.070 C 
BRANCH  27  28
ATOM     28  C   UNL     1      -3.258   8.458  -0.327  1.00  0.00    -0.045 A 
ATOM     29  C   UNL     1      -2.834   9.521   1.062  1.00  0.00     0.004 A 
ATOM     30  C   UNL     1      -4.814   7.526  -0.293  1.00  0.00     0.004 A 
ATOM     31  C   UNL     1      -3.924   9.633   2.474  1.00  0.00     0.000 A 
ATOM     32  C   UNL     1      -5.915   7.634   1.159  1.00  0.00     0.000 A 
ATOM     33  C   UNL     1      -5.467   8.708   2.528  1.00  0.00     0.000 A 
ENDBRANCH  27  28
ENDBRANCH  12  27
ENDBRANCH   9  12
ENDBRANCH   3   8
ENDBRANCH   1   3
BRANCH   1  34
ATOM     34  O   UNL     1      -3.554   5.406  -0.007  1.00  0.00    -0.461 OA
BRANCH  34  35
ATOM     35  C   UNL     1      -4.008   5.834   1.317  1.00  0.00     0.274 C 
BRANCH  35  36
ATOM     36  C   UNL     1      -3.781   7.495   1.621  1.00  0.00     0.275 C 
BRANCH  36  37
ATOM     37  O   UNL     1      -4.706   9.082   0.778  1.00  0.00    -0.458 OA
BRANCH  37  38
ATOM     38  C   UNL     1      -5.499  10.037   0.098  1.00  0.00     0.338 C 
ATOM     39  O   UNL     1      -5.236  11.239   0.124  1.00  0.00    -0.246 OA
BRANCH  38  40
ATOM     40  C   UNL     1      -6.745   9.644  -0.654  1.00  0.00     0.060 A 
ATOM     41  C   UNL     1      -6.717   8.899  -1.846  1.00  0.00     0.016 A 
ATOM     42  C   UNL     1      -7.978  10.102  -0.183  1.00  0.00     0.016 A 
ATOM     43  C   UNL     1      -7.896   8.473  -2.464  1.00  0.00     0.010 A 
ATOM     44  C   UNL     1      -9.159   9.766  -0.858  1.00  0.00     0.010 A 
ATOM     45  C   UNL     1      -9.126   8.941  -1.994  1.00  0.00    -0.014 A 
BRANCH  45  46
ATOM     46  C   UNL     1     -10.341   8.791  -2.831  1.00  0.00     0.031 A 
ATOM     47  C   UNL     1     -10.594   9.837  -3.879  1.00  0.00     0.074 A 
ATOM     48  C   UNL     1     -11.204   7.775  -2.659  1.00  0.00     0.049 A 
ATOM     49  N   UNL     1     -11.668  10.065  -4.590  1.00  0.00    -0.248 NA
ATOM     50  C   UNL     1      -9.478  10.754  -4.162  1.00  0.00     0.031 C 
ATOM     51  C   UNL     1     -11.020   6.652  -1.742  1.00  0.00     0.029 A 
ATOM     52  N   UNL     1     -12.428   7.540  -3.238  1.00  0.00    -0.354 N 
ATOM     53  C   UNL     1     -11.363  11.163  -5.383  1.00  0.00     0.074 A 
ATOM     54  C   UNL     1     -10.005  11.552  -5.076  1.00  0.00     0.031 C 
ATOM     55  C   UNL     1     -12.115   5.872  -1.785  1.00  0.00     0.029 A 
ATOM     56  C   UNL     1     -13.093   6.467  -2.694  1.00  0.00     0.049 A 
ATOM     57  H   UNL     1     -12.793   8.088  -3.970  1.00  0.00     0.167 HD
ATOM     58  C   UNL     1     -12.154  11.802  -6.276  1.00  0.00     0.037 A 
ATOM     59  C   UNL     1     -14.364   6.054  -2.874  1.00  0.00     0.037 A 
ATOM     60  C   UNL     1     -13.515  11.427  -6.548  1.00  0.00     0.049 A 
ATOM     61  C   UNL     1     -15.255   6.822  -3.818  1.00  0.00     0.074 A 
ATOM     62  C   UNL     1     -14.432  12.035  -7.385  1.00  0.00     0.029 A 
ATOM     63  N   UNL     1     -14.154  10.336  -5.975  1.00  0.00    -0.354 N 
ATOM     64  N   UNL     1     -14.986   7.897  -4.522  1.00  0.00    -0.248 NA
ATOM     65  C   UNL     1     -16.628   6.326  -3.989  1.00  0.00     0.031 C 
ATOM     66  C   UNL     1     -15.637  11.328  -7.296  1.00  0.00     0.029 A 
ATOM     67  C   UNL     1     -15.454  10.252  -6.440  1.00  0.00     0.049 A 
ATOM     68  H   UNL     1     -13.742   9.714  -5.333  1.00  0.00     0.167 HD
ATOM     69  C   UNL     1     -16.145   8.196  -5.226  1.00  0.00     0.074 A 
ATOM     70  C   UNL     1     -17.114   7.175  -4.883  1.00  0.00     0.031 C 
ATOM     71  C   UNL     1     -16.394   9.223  -6.077  1.00  0.00     0.037 A 
BRANCH  58  72
ATOM     72  C   UNL     1     -11.575  12.997  -6.973  1.00  0.00     0.064 A 
ATOM     73  C   UNL     1     -10.586  12.866  -7.960  1.00  0.00     0.173 A 
ATOM     74  C   UNL     1     -12.009  14.290  -6.647  1.00  0.00     0.173 A 
ATOM     75  F   UNL     1     -10.116  11.653  -8.288  1.00  0.00    -0.203 F 
ATOM     76  C   UNL     1     -10.039  13.988  -8.579  1.00  0.00     0.198 A 
ATOM     77  C   UNL     1     -11.479  15.408  -7.287  1.00  0.00     0.198 A 
ATOM     78  F   UNL     1     -12.947  14.471  -5.705  1.00  0.00    -0.203 F 
ATOM     79  F   UNL     1      -9.060  13.842  -9.483  1.00  0.00    -0.200 F 
ATOM     80  C   UNL     1     -10.490  15.257  -8.246  1.00  0.00     0.200 A 
ATOM     81  F   UNL     1     -11.921  16.632  -6.968  1.00  0.00    -0.200 F 
ATOM     82  F   UNL     1      -9.964  16.334  -8.844  1.00  0.00    -0.200 F 
ENDBRANCH  58  72
BRANCH  59  83
ATOM     83  C   UNL     1     -14.890   4.893  -2.104  1.00  0.00     0.064 A 
ATOM     84  C   UNL     1     -15.235   3.692  -2.739  1.00  0.00     0.173 A 
ATOM     85  C   UNL     1     -15.077   4.970  -0.715  1.00  0.00     0.173 A 
ATOM     86  F   UNL     1     -15.108   3.578  -4.069  1.00  0.00    -0.203 F 
ATOM     87  C   UNL     1     -15.756   2.618  -2.017  1.00  0.00     0.198 A 
ATOM     88  C   UNL     1     -15.569   3.885   0.009  1.00  0.00     0.198 A 
ATOM     89  F   UNL     1     -14.772   6.098  -0.057  1.00  0.00    -0.203 F 
ATOM     90  F   UNL     1     -16.119   1.497  -2.657  1.00  0.00    -0.200 F 
ATOM     91  C   UNL     1     -15.915   2.712  -0.643  1.00  0.00     0.200 A 
ATOM     92  F   UNL     1     -15.710   3.978   1.339  1.00  0.00    -0.200 F 
ATOM     93  F   UNL     1     -16.407   1.677   0.050  1.00  0.00    -0.200 F 
ENDBRANCH  59  83
BRANCH  71  94
ATOM     94  C   UNL     1     -17.752   9.267  -6.713  1.00  0.00     0.064 A 
ATOM     95  C   UNL     1     -18.894   9.627  -5.984  1.00  0.00     0.173 A 
ATOM     96  C   UNL     1     -17.906   8.962  -8.074  1.00  0.00     0.173 A 
ATOM     97  F   UNL     1     -18.798   9.914  -4.677  1.00  0.00    -0.203 F 
ATOM     98  C   UNL     1     -20.149   9.648  -6.588  1.00  0.00     0.198 A 
ATOM     99  C   UNL     1     -19.157   9.012  -8.680  1.00  0.00     0.198 A 
ATOM    100  F   UNL     1     -16.842   8.621  -8.816  1.00  0.00    -0.203 F 
ATOM    101  F   UNL     1     -21.235   9.943  -5.860  1.00  0.00    -0.200 F 
ATOM    102  C   UNL     1     -20.279   9.345  -7.935  1.00  0.00     0.200 A 
ATOM    103  F   UNL     1     -19.280   8.729  -9.985  1.00  0.00    -0.200 F 
ATOM    104  F   UNL     1     -21.487   9.363  -8.513  1.00  0.00    -0.200 F 
ENDBRANCH  71  94
ENDBRANCH  45  46
ENDBRANCH  38  40
ENDBRANCH  37  38
ENDBRANCH  36  37
ENDBRANCH  35  36
ENDBRANCH  34  35
ENDBRANCH   1  34
TORSDOF 22
