REMARK SMILES CCOc1cc(C=O)ccc1OCc1ccc(C(=O)OCCOC(=O)c2ccc(-c3c4nc(c(-c5c(F)c(F)c(F)c(F)c5F)c5ccc([nH]5)c(-c5c(F)c(F)c(F)c(F)c5F)c5nc(c(-c6c(F)c(F)c(F)c(F)c6F)c6ccc3[nH]6)C=C5)C=C4)cc2)cc1
REMARK SMILES IDX 20 1 18 2 19 3 17 4 14 5 15 6 90 7 16 8 89 9 13 10 12 11
REMARK SMILES IDX 11 12 4 13 5 14 6 15 10 16 9 17 3 18 2 19 1 20 7 21 8 22
REMARK SMILES IDX 21 23 22 24 23 25 24 26 25 27 26 28 27 29 88 30 28 31 87 32
REMARK SMILES IDX 29 33 30 34 31 35 81 36 32 37 86 38 80 39 82 40 33 41 85 42
REMARK SMILES IDX 79 43 78 44 34 46 66 47 46 48 65 49 47 50 50 51 64 52 83 53
REMARK SMILES IDX 48 54 49 55 63 57 84 58 51 59 35 60 36 61 44 62 37 63 38 64
REMARK SMILES IDX 42 65 45 66 39 67 40 68 43 69 41 70 67 71 68 72 76 73 69 74
REMARK SMILES IDX 70 75 74 76 77 77 71 78 72 79 75 80 73 81 52 82 53 83 61 84
REMARK SMILES IDX 54 85 55 86 59 87 62 88 56 89 57 90 60 91 58 92
REMARK H PARENT 82 45 50 56
REMARK Flexibility Score: inf
ROOT
ATOM      1  O   UNL     1       1.055  -4.239  -4.455  1.00  0.00    -0.458 OA
ENDROOT
BRANCH   1   2
ATOM      2  C   UNL     1       1.302  -2.931  -4.710  1.00  0.00     0.338 C 
ATOM      3  O   UNL     1       1.245  -2.386  -5.805  1.00  0.00    -0.246 OA
BRANCH   2   4
ATOM      4  C   UNL     1       1.633  -2.166  -3.483  1.00  0.00     0.060 A 
ATOM      5  C   UNL     1       2.397  -0.527  -1.295  1.00  0.00    -0.011 A 
ATOM      6  C   UNL     1       1.421  -0.106  -2.203  1.00  0.00     0.008 A 
ATOM      7  C   UNL     1       3.016  -1.766  -1.540  1.00  0.00     0.008 A 
ATOM      8  C   UNL     1       1.076  -0.897  -3.295  1.00  0.00     0.016 A 
ATOM      9  C   UNL     1       2.607  -2.605  -2.593  1.00  0.00     0.016 A 
BRANCH   5  10
ATOM     10  C   UNL     1       2.681   0.419  -0.127  1.00  0.00     0.265 C 
BRANCH  10  11
ATOM     11  O   UNL     1       3.579   0.070   0.932  1.00  0.00    -0.485 OA
BRANCH  11  12
ATOM     12  C   UNL     1       3.486  -1.190   1.453  1.00  0.00     0.161 A 
ATOM     13  C   UNL     1       2.303  -1.925   1.632  1.00  0.00     0.161 A 
ATOM     14  C   UNL     1       2.395  -3.301   1.856  1.00  0.00     0.062 A 
ATOM     15  C   UNL     1       3.664  -3.901   1.951  1.00  0.00     0.018 A 
ATOM     16  C   UNL     1       4.738  -1.775   1.663  1.00  0.00     0.051 A 
ATOM     17  C   UNL     1       4.832  -3.137   1.902  1.00  0.00     0.015 A 
BRANCH  13  18
ATOM     18  O   UNL     1       1.128  -1.228   1.659  1.00  0.00    -0.490 OA
BRANCH  18  19
ATOM     19  C   UNL     1       0.025  -1.770   0.931  1.00  0.00     0.226 C 
ATOM     20  C   UNL     1      -0.933  -0.612   0.671  1.00  0.00     0.049 C 
ENDBRANCH  18  19
ENDBRANCH  13  18
BRANCH  15  21
ATOM     21  C   UNL     1       3.811  -5.364   2.083  1.00  0.00     0.260 C 
ATOM     22  O   UNL     1       2.856  -6.125   2.019  1.00  0.00    -0.298 OA
ENDBRANCH  15  21
ENDBRANCH  11  12
ENDBRANCH  10  11
ENDBRANCH   5  10
ENDBRANCH   2   4
ENDBRANCH   1   2
BRANCH   1  23
ATOM     23  C   UNL     1       0.836  -5.068  -5.620  1.00  0.00     0.275 C 
BRANCH  23  24
ATOM     24  C   UNL     1      -0.643  -5.330  -5.929  1.00  0.00     0.275 C 
BRANCH  24  25
ATOM     25  O   UNL     1      -1.333  -4.128  -6.318  1.00  0.00    -0.458 OA
BRANCH  25  26
ATOM     26  C   UNL     1      -2.136  -3.605  -5.365  1.00  0.00     0.338 C 
ATOM     27  O   UNL     1      -2.348  -4.042  -4.247  1.00  0.00    -0.246 OA
BRANCH  26  28
ATOM     28  C   UNL     1      -2.644  -2.292  -5.785  1.00  0.00     0.060 A 
ATOM     29  C   UNL     1      -1.861  -1.201  -5.447  1.00  0.00     0.016 A 
ATOM     30  C   UNL     1      -3.926  -2.095  -6.280  1.00  0.00     0.016 A 
ATOM     31  C   UNL     1      -2.371   0.088  -5.476  1.00  0.00     0.010 A 
ATOM     32  C   UNL     1      -4.405  -0.783  -6.430  1.00  0.00     0.010 A 
ATOM     33  C   UNL     1      -3.648   0.324  -5.993  1.00  0.00    -0.014 A 
BRANCH  33  34
ATOM     34  C   UNL     1      -4.179   1.718  -6.043  1.00  0.00     0.031 A 
ATOM     35  C   UNL     1      -5.479   2.062  -5.364  1.00  0.00     0.074 A 
ATOM     36  C   UNL     1      -3.485   2.689  -6.672  1.00  0.00     0.049 A 
ATOM     37  N   UNL     1      -6.190   3.160  -5.438  1.00  0.00    -0.248 NA
ATOM     38  C   UNL     1      -6.065   1.029  -4.496  1.00  0.00     0.031 C 
ATOM     39  C   UNL     1      -2.183   2.517  -7.321  1.00  0.00     0.029 A 
ATOM     40  N   UNL     1      -3.773   4.019  -6.870  1.00  0.00    -0.354 N 
ATOM     41  C   UNL     1      -7.331   2.927  -4.680  1.00  0.00     0.074 A 
ATOM     42  C   UNL     1      -7.223   1.581  -4.160  1.00  0.00     0.031 C 
ATOM     43  C   UNL     1      -1.770   3.695  -7.810  1.00  0.00     0.029 A 
ATOM     44  C   UNL     1      -2.823   4.681  -7.610  1.00  0.00     0.049 A 
ATOM     45  H   UNL     1      -4.582   4.454  -6.515  1.00  0.00     0.167 HD
ATOM     46  C   UNL     1      -8.374   3.761  -4.444  1.00  0.00     0.037 A 
ATOM     47  C   UNL     1      -2.819   5.925  -8.127  1.00  0.00     0.037 A 
ATOM     48  C   UNL     1      -8.450   5.116  -4.929  1.00  0.00     0.049 A 
ATOM     49  C   UNL     1      -4.012   6.810  -7.903  1.00  0.00     0.074 A 
ATOM     50  C   UNL     1      -9.451   6.051  -4.727  1.00  0.00     0.029 A 
ATOM     51  N   UNL     1      -7.482   5.733  -5.710  1.00  0.00    -0.354 N 
ATOM     52  N   UNL     1      -5.104   6.567  -7.221  1.00  0.00    -0.248 NA
ATOM     53  C   UNL     1      -3.979   8.135  -8.535  1.00  0.00     0.031 C 
ATOM     54  C   UNL     1      -9.118   7.211  -5.434  1.00  0.00     0.029 A 
ATOM     55  C   UNL     1      -7.877   7.026  -6.021  1.00  0.00     0.049 A 
ATOM     56  H   UNL     1      -6.640   5.315  -6.000  1.00  0.00     0.167 HD
ATOM     57  C   UNL     1      -5.880   7.713  -7.323  1.00  0.00     0.074 A 
ATOM     58  C   UNL     1      -5.122   8.659  -8.117  1.00  0.00     0.031 C 
ATOM     59  C   UNL     1      -7.110   7.958  -6.809  1.00  0.00     0.037 A 
BRANCH  46  60
ATOM     60  C   UNL     1      -9.541   3.220  -3.666  1.00  0.00     0.064 A 
ATOM     61  C   UNL     1      -9.459   2.924  -2.297  1.00  0.00     0.173 A 
ATOM     62  C   UNL     1     -10.778   3.021  -4.303  1.00  0.00     0.173 A 
ATOM     63  F   UNL     1      -8.300   3.084  -1.641  1.00  0.00    -0.203 F 
ATOM     64  C   UNL     1     -10.558   2.418  -1.605  1.00  0.00     0.198 A 
ATOM     65  C   UNL     1     -11.883   2.549  -3.599  1.00  0.00     0.198 A 
ATOM     66  F   UNL     1     -10.918   3.295  -5.609  1.00  0.00    -0.203 F 
ATOM     67  F   UNL     1     -10.438   2.091  -0.310  1.00  0.00    -0.200 F 
ATOM     68  C   UNL     1     -11.770   2.239  -2.254  1.00  0.00     0.200 A 
ATOM     69  F   UNL     1     -13.057   2.392  -4.226  1.00  0.00    -0.200 F 
ATOM     70  F   UNL     1     -12.827   1.758  -1.584  1.00  0.00    -0.200 F 
ENDBRANCH  46  60
BRANCH  47  71
ATOM     71  C   UNL     1      -1.667   6.381  -8.952  1.00  0.00     0.064 A 
ATOM     72  C   UNL     1      -0.826   7.412  -8.514  1.00  0.00     0.173 A 
ATOM     73  C   UNL     1      -1.379   5.790 -10.193  1.00  0.00     0.173 A 
ATOM     74  F   UNL     1      -1.072   8.027  -7.347  1.00  0.00    -0.203 F 
ATOM     75  C   UNL     1       0.250   7.841  -9.288  1.00  0.00     0.198 A 
ATOM     76  C   UNL     1      -0.282   6.194 -10.949  1.00  0.00     0.198 A 
ATOM     77  F   UNL     1      -2.153   4.799 -10.661  1.00  0.00    -0.203 F 
ATOM     78  F   UNL     1       1.012   8.860  -8.866  1.00  0.00    -0.200 F 
ATOM     79  C   UNL     1       0.527   7.226 -10.500  1.00  0.00     0.200 A 
ATOM     80  F   UNL     1      -0.008   5.583 -12.109  1.00  0.00    -0.200 F 
ATOM     81  F   UNL     1       1.569   7.631 -11.238  1.00  0.00    -0.200 F 
ENDBRANCH  47  71
BRANCH  59  82
ATOM     82  C   UNL     1      -7.695   9.319  -7.054  1.00  0.00     0.064 A 
ATOM     83  C   UNL     1      -8.136   9.716  -8.325  1.00  0.00     0.173 A 
ATOM     84  C   UNL     1      -7.839  10.228  -5.995  1.00  0.00     0.173 A 
ATOM     85  F   UNL     1      -8.004   8.892  -9.375  1.00  0.00    -0.203 F 
ATOM     86  C   UNL     1      -8.673  10.985  -8.531  1.00  0.00     0.198 A 
ATOM     87  C   UNL     1      -8.408  11.482  -6.198  1.00  0.00     0.198 A 
ATOM     88  F   UNL     1      -7.437   9.896  -4.759  1.00  0.00    -0.203 F 
ATOM     89  F   UNL     1      -9.036  11.364  -9.764  1.00  0.00    -0.200 F 
ATOM     90  C   UNL     1      -8.816  11.862  -7.467  1.00  0.00     0.200 A 
ATOM     91  F   UNL     1      -8.559  12.322  -5.165  1.00  0.00    -0.200 F 
ATOM     92  F   UNL     1      -9.339  13.080  -7.666  1.00  0.00    -0.200 F 
ENDBRANCH  59  82
ENDBRANCH  33  34
ENDBRANCH  26  28
ENDBRANCH  25  26
ENDBRANCH  24  25
ENDBRANCH  23  24
ENDBRANCH   1  23
TORSDOF 17
