REMARK SMILES C[C@@]1(CN2C(=O)c3ccc(C(=O)OCCOC(=O)c4ccc(-c5c6nc(c(-c7c(F)c(F)c(F)c(F)c7F)c7ccc([nH]7)c(-c7c(F)c(F)c(F)c(F)c7F)c7nc(c(-c8c(F)c(F)c(F)c(F)c8F)c8ccc5[nH]8)C=C7)C=C6)cc4)cc3C2=O)CCCO1
REMARK SMILES IDX 14 1 13 2 11 3 12 4 10 5 4 6 5 7 84 8 6 9 7 10 83 11 85 12
REMARK SMILES IDX 8 13 82 14 9 15 3 16 2 17 1 18 86 19 89 20 87 21 88 22 15 23
REMARK SMILES IDX 16 24 17 25 18 26 19 27 20 28 81 29 21 30 80 31 22 32 23 33
REMARK SMILES IDX 24 34 74 35 25 36 79 37 73 38 75 39 26 40 78 41 72 42 71 43
REMARK SMILES IDX 27 45 59 46 39 47 58 48 40 49 43 50 57 51 76 52 41 53 42 54
REMARK SMILES IDX 56 56 77 57 44 58 28 59 29 60 37 61 30 62 31 63 35 64 38 65
REMARK SMILES IDX 32 66 33 67 36 68 34 69 60 70 61 71 69 72 62 73 63 74 67 75
REMARK SMILES IDX 70 76 64 77 65 78 68 79 66 80 45 81 46 82 54 83 47 84 48 85
REMARK SMILES IDX 52 86 55 87 49 88 50 89 53 90 51 91
REMARK H PARENT 75 44 43 55
REMARK Flexibility Score: inf
ROOT
ATOM      1  C   UNL     1      -7.965   0.180  -4.826  1.00  0.00     0.275 C 
ENDROOT
BRANCH   1   2
ATOM      2  O   UNL     1      -6.725  -0.210  -4.195  1.00  0.00    -0.458 OA
BRANCH   2   3
ATOM      3  C   UNL     1      -5.915   0.801  -3.797  1.00  0.00     0.338 C 
ATOM      4  O   UNL     1      -6.135   1.996  -3.912  1.00  0.00    -0.246 OA
BRANCH   3   5
ATOM      5  C   UNL     1      -4.739   0.281  -3.050  1.00  0.00     0.060 A 
ATOM      6  N   UNL     1      -1.590   0.209   0.297  1.00  0.00    -0.271 N 
ATOM      7  C   UNL     1      -1.597  -0.895  -0.515  1.00  0.00     0.261 C 
ATOM      8  C   UNL     1      -2.567   1.099  -0.052  1.00  0.00     0.261 C 
ATOM      9  O   UNL     1      -0.907  -1.893  -0.465  1.00  0.00    -0.269 OA
ATOM     10  C   UNL     1      -2.642  -0.671  -1.516  1.00  0.00     0.053 A 
ATOM     11  C   UNL     1      -3.204   0.558  -1.248  1.00  0.00     0.054 A 
ATOM     12  O   UNL     1      -2.945   2.113   0.507  1.00  0.00    -0.269 OA
ATOM     13  C   UNL     1      -3.081  -1.456  -2.568  1.00  0.00     0.015 A 
ATOM     14  C   UNL     1      -4.217   1.082  -2.022  1.00  0.00     0.030 A 
ATOM     15  C   UNL     1      -4.160  -0.978  -3.331  1.00  0.00     0.016 A 
BRANCH   6  16
ATOM     16  C   UNL     1      -0.679   0.405   1.416  1.00  0.00     0.164 C 
BRANCH  16  17
ATOM     17  C   UNL     1       0.668   1.064   1.010  1.00  0.00     0.084 C 
ATOM     18  C   UNL     1       1.438   0.224  -0.009  1.00  0.00     0.044 C 
ATOM     19  C   UNL     1       1.534   1.347   2.243  1.00  0.00     0.039 C 
ATOM     20  O   UNL     1       0.407   2.355   0.416  1.00  0.00    -0.373 OA
ATOM     21  C   UNL     1       1.101   2.732   2.654  1.00  0.00     0.031 C 
ATOM     22  C   UNL     1       0.809   3.389   1.324  1.00  0.00     0.161 C 
ENDBRANCH  16  17
ENDBRANCH   6  16
ENDBRANCH   3   5
ENDBRANCH   2   3
ENDBRANCH   1   2
BRANCH   1  23
ATOM     23  C   UNL     1      -9.166  -0.044  -3.903  1.00  0.00     0.275 C 
BRANCH  23  24
ATOM     24  O   UNL     1      -9.131   0.868  -2.787  1.00  0.00    -0.458 OA
BRANCH  24  25
ATOM     25  C   UNL     1      -8.778   0.311  -1.608  1.00  0.00     0.338 C 
ATOM     26  O   UNL     1      -8.529  -0.861  -1.382  1.00  0.00    -0.246 OA
BRANCH  25  27
ATOM     27  C   UNL     1      -8.573   1.351  -0.591  1.00  0.00     0.060 A 
ATOM     28  C   UNL     1      -7.313   1.932  -0.543  1.00  0.00     0.016 A 
ATOM     29  C   UNL     1      -9.483   1.577   0.436  1.00  0.00     0.016 A 
ATOM     30  C   UNL     1      -6.895   2.624   0.587  1.00  0.00     0.010 A 
ATOM     31  C   UNL     1      -9.103   2.379   1.524  1.00  0.00     0.010 A 
ATOM     32  C   UNL     1      -7.783   2.862   1.644  1.00  0.00    -0.014 A 
BRANCH  32  33
ATOM     33  C   UNL     1      -7.293   3.545   2.880  1.00  0.00     0.031 A 
ATOM     34  C   UNL     1      -7.408   2.873   4.227  1.00  0.00     0.074 A 
ATOM     35  C   UNL     1      -6.692   4.750   2.805  1.00  0.00     0.049 A 
ATOM     36  N   UNL     1      -7.137   3.344   5.421  1.00  0.00    -0.248 NA
ATOM     37  C   UNL     1      -7.918   1.495   4.235  1.00  0.00     0.031 C 
ATOM     38  C   UNL     1      -6.476   5.511   1.574  1.00  0.00     0.029 A 
ATOM     39  N   UNL     1      -6.140   5.543   3.783  1.00  0.00    -0.354 N 
ATOM     40  C   UNL     1      -7.502   2.347   6.318  1.00  0.00     0.074 A 
ATOM     41  C   UNL     1      -8.034   1.254   5.532  1.00  0.00     0.031 C 
ATOM     42  C   UNL     1      -5.799   6.631   1.860  1.00  0.00     0.029 A 
ATOM     43  C   UNL     1      -5.616   6.719   3.305  1.00  0.00     0.049 A 
ATOM     44  H   UNL     1      -6.123   5.292   4.735  1.00  0.00     0.167 HD
ATOM     45  C   UNL     1      -7.400   2.339   7.671  1.00  0.00     0.037 A 
ATOM     46  C   UNL     1      -5.083   7.774   3.949  1.00  0.00     0.037 A 
ATOM     47  C   UNL     1      -6.816   3.404   8.449  1.00  0.00     0.049 A 
ATOM     48  C   UNL     1      -4.981   7.748   5.447  1.00  0.00     0.074 A 
ATOM     49  C   UNL     1      -6.631   3.472   9.819  1.00  0.00     0.029 A 
ATOM     50  N   UNL     1      -6.315   4.588   7.923  1.00  0.00    -0.354 N 
ATOM     51  N   UNL     1      -5.354   6.814   6.286  1.00  0.00    -0.248 NA
ATOM     52  C   UNL     1      -4.387   8.929   6.088  1.00  0.00     0.031 C 
ATOM     53  C   UNL     1      -6.074   4.719  10.128  1.00  0.00     0.029 A 
ATOM     54  C   UNL     1      -5.844   5.401   8.945  1.00  0.00     0.049 A 
ATOM     55  H   UNL     1      -6.295   4.816   6.966  1.00  0.00     0.167 HD
ATOM     56  C   UNL     1      -5.030   7.284   7.551  1.00  0.00     0.074 A 
ATOM     57  C   UNL     1      -4.406   8.578   7.365  1.00  0.00     0.031 C 
ATOM     58  C   UNL     1      -5.234   6.695   8.756  1.00  0.00     0.037 A 
BRANCH  45  59
ATOM     59  C   UNL     1      -7.984   1.159   8.402  1.00  0.00     0.064 A 
ATOM     60  C   UNL     1      -7.441  -0.131   8.307  1.00  0.00     0.173 A 
ATOM     61  C   UNL     1      -9.121   1.328   9.210  1.00  0.00     0.173 A 
ATOM     62  F   UNL     1      -6.360  -0.355   7.545  1.00  0.00    -0.203 F 
ATOM     63  C   UNL     1      -8.043  -1.214   8.946  1.00  0.00     0.198 A 
ATOM     64  C   UNL     1      -9.697   0.251   9.880  1.00  0.00     0.198 A 
ATOM     65  F   UNL     1      -9.678   2.540   9.350  1.00  0.00    -0.203 F 
ATOM     66  F   UNL     1      -7.550  -2.449   8.777  1.00  0.00    -0.200 F 
ATOM     67  C   UNL     1      -9.167  -1.021   9.735  1.00  0.00     0.200 A 
ATOM     68  F   UNL     1     -10.772   0.444  10.656  1.00  0.00    -0.200 F 
ATOM     69  F   UNL     1      -9.748  -2.064  10.345  1.00  0.00    -0.200 F 
ENDBRANCH  45  59
BRANCH  46  70
ATOM     70  C   UNL     1      -4.643   8.959   3.164  1.00  0.00     0.064 A 
ATOM     71  C   UNL     1      -3.289   9.296   3.048  1.00  0.00     0.173 A 
ATOM     72  C   UNL     1      -5.576   9.758   2.484  1.00  0.00     0.173 A 
ATOM     73  F   UNL     1      -2.361   8.582   3.702  1.00  0.00    -0.203 F 
ATOM     74  C   UNL     1      -2.884  10.389   2.283  1.00  0.00     0.198 A 
ATOM     75  C   UNL     1      -5.168  10.827   1.691  1.00  0.00     0.198 A 
ATOM     76  F   UNL     1      -6.885   9.478   2.563  1.00  0.00    -0.203 F 
ATOM     77  F   UNL     1      -1.586  10.714   2.218  1.00  0.00    -0.200 F 
ATOM     78  C   UNL     1      -3.822  11.145   1.595  1.00  0.00     0.200 A 
ATOM     79  F   UNL     1      -6.077  11.541   1.014  1.00  0.00    -0.200 F 
ATOM     80  F   UNL     1      -3.430  12.183   0.844  1.00  0.00    -0.200 F 
ENDBRANCH  46  70
BRANCH  58  81
ATOM     81  C   UNL     1      -4.742   7.435   9.969  1.00  0.00     0.064 A 
ATOM     82  C   UNL     1      -5.338   8.630  10.402  1.00  0.00     0.173 A 
ATOM     83  C   UNL     1      -3.655   6.942  10.707  1.00  0.00     0.173 A 
ATOM     84  F   UNL     1      -6.371   9.154   9.726  1.00  0.00    -0.203 F 
ATOM     85  C   UNL     1      -4.835   9.324  11.500  1.00  0.00     0.198 A 
ATOM     86  C   UNL     1      -3.179   7.620  11.826  1.00  0.00     0.198 A 
ATOM     87  F   UNL     1      -3.051   5.800  10.343  1.00  0.00    -0.203 F 
ATOM     88  F   UNL     1      -5.376  10.499  11.852  1.00  0.00    -0.200 F 
ATOM     89  C   UNL     1      -3.760   8.817  12.214  1.00  0.00     0.200 A 
ATOM     90  F   UNL     1      -2.149   7.119  12.523  1.00  0.00    -0.200 F 
ATOM     91  F   UNL     1      -3.276   9.488  13.267  1.00  0.00    -0.200 F 
ENDBRANCH  58  81
ENDBRANCH  32  33
ENDBRANCH  25  27
ENDBRANCH  24  25
ENDBRANCH  23  24
ENDBRANCH   1  23
TORSDOF 13
