REMARK SMILES O=C(OCCOC(=O)c1cc(SCc2csc(-c3ccsc3)n2)ccn1)c1ccc(-c2c3nc(c(-c4c(F)c(F)c(F)c(F)c4F)c4ccc([nH]4)c(-c4c(F)c(F)c(F)c(F)c4F)c4nc(c(-c5c(F)c(F)c(F)c(F)c5F)c5ccc2[nH]5)C=C4)C=C3)cc1
REMARK SMILES IDX 5 1 4 2 3 3 2 4 1 5 27 6 28 7 89 8 29 9 88 10 30 11 31 12
REMARK SMILES IDX 32 13 82 14 33 15 87 16 81 17 83 18 34 19 86 20 80 21 79 22
REMARK SMILES IDX 35 24 67 25 47 26 66 27 48 28 51 29 65 30 84 31 49 32 50 33
REMARK SMILES IDX 64 35 85 36 52 37 36 38 37 39 45 40 38 41 39 42 43 43 46 44
REMARK SMILES IDX 40 45 41 46 44 47 42 48 68 49 69 50 77 51 70 52 71 53 75 54
REMARK SMILES IDX 78 55 72 56 73 57 76 58 74 59 53 60 54 61 62 62 55 63 56 64
REMARK SMILES IDX 60 65 63 66 57 67 58 68 61 69 59 70 6 71 7 72 8 73 9 74
REMARK SMILES IDX 10 75 26 76 11 77 25 78 24 79 12 80 13 81 14 82 15 83 23 84
REMARK SMILES IDX 16 85 17 86 18 87 19 88 22 89 20 90 21 91
REMARK H PARENT 83 23 51 34
REMARK Flexibility Score: inf
ROOT
ATOM      1  C   UNL     1       4.157   2.174  -0.047  1.00  0.00     0.275 C 
ENDROOT
BRANCH   1   2
ATOM      2  C   UNL     1       4.302   1.001  -1.016  1.00  0.00     0.275 C 
BRANCH   2   3
ATOM      3  O   UNL     1       3.107   0.198  -1.093  1.00  0.00    -0.458 OA
BRANCH   3   4
ATOM      4  C   UNL     1       2.740  -0.957  -0.491  1.00  0.00     0.338 C 
ATOM      5  O   UNL     1       1.757  -1.546  -0.945  1.00  0.00    -0.246 OA
BRANCH   4   6
ATOM      6  C   UNL     1       3.422  -1.596   0.692  1.00  0.00     0.060 A 
ATOM      7  C   UNL     1       4.638  -1.219   1.259  1.00  0.00     0.016 A 
ATOM      8  C   UNL     1       2.768  -2.707   1.273  1.00  0.00     0.016 A 
ATOM      9  C   UNL     1       5.213  -1.956   2.305  1.00  0.00     0.010 A 
ATOM     10  C   UNL     1       3.328  -3.439   2.335  1.00  0.00     0.010 A 
ATOM     11  C   UNL     1       4.580  -3.086   2.834  1.00  0.00    -0.014 A 
BRANCH  11  12
ATOM     12  C   UNL     1       5.335  -3.914   3.809  1.00  0.00     0.031 A 
ATOM     13  C   UNL     1       6.202  -5.018   3.296  1.00  0.00     0.074 A 
ATOM     14  C   UNL     1       5.345  -3.608   5.119  1.00  0.00     0.049 A 
ATOM     15  N   UNL     1       7.151  -5.673   3.910  1.00  0.00    -0.248 NA
ATOM     16  C   UNL     1       5.945  -5.466   1.919  1.00  0.00     0.031 C 
ATOM     17  C   UNL     1       4.455  -2.640   5.736  1.00  0.00     0.029 A 
ATOM     18  N   UNL     1       6.163  -4.013   6.150  1.00  0.00    -0.354 N 
ATOM     19  C   UNL     1       7.559  -6.656   3.022  1.00  0.00     0.074 A 
ATOM     20  C   UNL     1       6.789  -6.481   1.808  1.00  0.00     0.031 C 
ATOM     21  C   UNL     1       4.859  -2.414   6.997  1.00  0.00     0.029 A 
ATOM     22  C   UNL     1       6.060  -3.195   7.258  1.00  0.00     0.049 A 
ATOM     23  H   UNL     1       6.755  -4.799   6.103  1.00  0.00     0.167 HD
ATOM     24  C   UNL     1       8.457  -7.646   3.234  1.00  0.00     0.037 A 
ATOM     25  C   UNL     1       6.912  -3.020   8.292  1.00  0.00     0.037 A 
ATOM     26  C   UNL     1       9.188  -7.811   4.463  1.00  0.00     0.049 A 
ATOM     27  C   UNL     1       8.093  -3.949   8.384  1.00  0.00     0.074 A 
ATOM     28  C   UNL     1      10.030  -8.838   4.849  1.00  0.00     0.029 A 
ATOM     29  N   UNL     1       9.163  -6.901   5.512  1.00  0.00    -0.354 N 
ATOM     30  N   UNL     1       8.497  -4.858   7.531  1.00  0.00    -0.248 NA
ATOM     31  C   UNL     1       8.920  -3.846   9.595  1.00  0.00     0.031 C 
ATOM     32  C   UNL     1      10.494  -8.563   6.143  1.00  0.00     0.029 A 
ATOM     33  C   UNL     1       9.975  -7.342   6.543  1.00  0.00     0.049 A 
ATOM     34  H   UNL     1       8.644  -6.065   5.520  1.00  0.00     0.167 HD
ATOM     35  C   UNL     1       9.577  -5.482   8.133  1.00  0.00     0.074 A 
ATOM     36  C   UNL     1       9.856  -4.752   9.353  1.00  0.00     0.031 C 
ATOM     37  C   UNL     1      10.220  -6.614   7.760  1.00  0.00     0.037 A 
BRANCH  24  38
ATOM     38  C   UNL     1       8.598  -8.674   2.155  1.00  0.00     0.064 A 
ATOM     39  C   UNL     1       9.246  -8.399   0.942  1.00  0.00     0.173 A 
ATOM     40  C   UNL     1       8.039  -9.950   2.327  1.00  0.00     0.173 A 
ATOM     41  F   UNL     1       9.767  -7.184   0.717  1.00  0.00    -0.203 F 
ATOM     42  C   UNL     1       9.306  -9.356  -0.068  1.00  0.00     0.198 A 
ATOM     43  C   UNL     1       8.124 -10.912   1.326  1.00  0.00     0.198 A 
ATOM     44  F   UNL     1       7.399 -10.259   3.465  1.00  0.00    -0.203 F 
ATOM     45  F   UNL     1       9.880  -9.054  -1.241  1.00  0.00    -0.200 F 
ATOM     46  C   UNL     1       8.750 -10.612   0.126  1.00  0.00     0.200 A 
ATOM     47  F   UNL     1       7.588 -12.125   1.518  1.00  0.00    -0.200 F 
ATOM     48  F   UNL     1       8.803 -11.529  -0.850  1.00  0.00    -0.200 F 
ENDBRANCH  24  38
BRANCH  25  49
ATOM     49  C   UNL     1       6.811  -1.845   9.216  1.00  0.00     0.064 A 
ATOM     50  C   UNL     1       7.867  -0.911   9.265  1.00  0.00     0.173 A 
ATOM     51  C   UNL     1       5.705  -1.590  10.035  1.00  0.00     0.173 A 
ATOM     52  F   UNL     1       8.951  -1.087   8.494  1.00  0.00    -0.203 F 
ATOM     53  C   UNL     1       7.823   0.210  10.090  1.00  0.00     0.198 A 
ATOM     54  C   UNL     1       5.646  -0.447  10.838  1.00  0.00     0.198 A 
ATOM     55  F   UNL     1       4.667  -2.437  10.047  1.00  0.00    -0.203 F 
ATOM     56  F   UNL     1       8.860   1.059  10.119  1.00  0.00    -0.200 F 
ATOM     57  C   UNL     1       6.707   0.448  10.870  1.00  0.00     0.200 A 
ATOM     58  F   UNL     1       4.555  -0.207  11.577  1.00  0.00    -0.200 F 
ATOM     59  F   UNL     1       6.652   1.536  11.650  1.00  0.00    -0.200 F 
ENDBRANCH  25  49
BRANCH  37  60
ATOM     60  C   UNL     1      11.202  -7.176   8.742  1.00  0.00     0.064 A 
ATOM     61  C   UNL     1      10.761  -7.709   9.966  1.00  0.00     0.173 A 
ATOM     62  C   UNL     1      12.575  -7.203   8.469  1.00  0.00     0.173 A 
ATOM     63  F   UNL     1       9.456  -7.696  10.277  1.00  0.00    -0.203 F 
ATOM     64  C   UNL     1      11.664  -8.209  10.897  1.00  0.00     0.198 A 
ATOM     65  C   UNL     1      13.473  -7.733   9.392  1.00  0.00     0.198 A 
ATOM     66  F   UNL     1      13.045  -6.712   7.313  1.00  0.00    -0.203 F 
ATOM     67  F   UNL     1      11.223  -8.654  12.082  1.00  0.00    -0.200 F 
ATOM     68  C   UNL     1      13.019  -8.225  10.607  1.00  0.00     0.200 A 
ATOM     69  F   UNL     1      14.783  -7.758   9.109  1.00  0.00    -0.200 F 
ATOM     70  F   UNL     1      13.889  -8.705  11.506  1.00  0.00    -0.200 F 
ENDBRANCH  37  60
ENDBRANCH  11  12
ENDBRANCH   4   6
ENDBRANCH   3   4
ENDBRANCH   2   3
ENDBRANCH   1   2
BRANCH   1  71
ATOM     71  O   UNL     1       3.711   1.732   1.238  1.00  0.00    -0.457 OA
BRANCH  71  72
ATOM     72  C   UNL     1       2.363   1.764   1.440  1.00  0.00     0.357 C 
ATOM     73  O   UNL     1       1.524   2.235   0.695  1.00  0.00    -0.244 OA
BRANCH  72  74
ATOM     74  C   UNL     1       2.094   1.048   2.712  1.00  0.00     0.149 A 
ATOM     75  C   UNL     1       2.897   1.320   3.809  1.00  0.00     0.051 A 
ATOM     76  N   UNL     1       1.100   0.128   2.707  1.00  0.00    -0.249 NA
ATOM     77  C   UNL     1       2.684   0.609   4.979  1.00  0.00     0.012 A 
ATOM     78  C   UNL     1       0.910  -0.554   3.851  1.00  0.00     0.113 A 
ATOM     79  C   UNL     1       1.658  -0.343   4.999  1.00  0.00     0.035 A 
BRANCH  77  80
ATOM     80  S   UNL     1       3.633   0.871   6.466  1.00  0.00    -0.120 SA
BRANCH  80  81
ATOM     81  C   UNL     1       5.106   1.796   5.912  1.00  0.00     0.132 C 
BRANCH  81  82
ATOM     82  C   UNL     1       6.173   0.975   5.250  1.00  0.00     0.062 A 
ATOM     83  C   UNL     1       6.934   0.017   5.887  1.00  0.00     0.091 A 
ATOM     84  N   UNL     1       6.606   1.265   3.955  1.00  0.00    -0.240 NA
ATOM     85  S   UNL     1       8.296  -0.410   4.964  1.00  0.00    -0.122 S 
ATOM     86  C   UNL     1       7.776   0.687   3.750  1.00  0.00     0.124 A 
BRANCH  86  87
ATOM     87  C   UNL     1       8.672   1.025   2.603  1.00  0.00     0.021 A 
ATOM     88  C   UNL     1      10.011   1.498   2.758  1.00  0.00     0.023 A 
ATOM     89  C   UNL     1       8.310   0.913   1.281  1.00  0.00     0.076 A 
ATOM     90  C   UNL     1      10.617   1.741   1.547  1.00  0.00     0.065 A 
ATOM     91  S   UNL     1       9.596   1.347   0.231  1.00  0.00    -0.152 S 
ENDBRANCH  86  87
ENDBRANCH  81  82
ENDBRANCH  80  81
ENDBRANCH  77  80
ENDBRANCH  72  74
ENDBRANCH  71  72
ENDBRANCH   1  71
TORSDOF 15
