REMARK SMILES C[C@@H](C(=O)OCCOC(=O)c1ccc(-c2c3nc(c(-c4c(F)c(F)c(F)c(F)c4F)c4ccc([nH]4)c(-c4c(F)c(F)c(F)c(F)c4F)c4nc(c(-c5c(F)c(F)c(F)c(F)c5F)c5ccc2[nH]5)C=C4)C=C3)cc1)N(C)C(=O)NC[C@H]1C[N@@H+]2CCC[C@@H]2CO1
REMARK SMILES IDX 6 1 5 2 3 3 4 4 2 5 1 6 74 7 75 8 76 9 77 10 78 11 79 13
REMARK SMILES IDX 80 14 81 15 88 16 82 17 87 18 83 19 86 20 84 22 85 23 7 24
REMARK SMILES IDX 8 25 9 26 10 27 11 28 12 29 73 30 13 31 72 32 14 33 15 34
REMARK SMILES IDX 16 35 66 36 17 37 71 38 65 39 67 40 18 41 70 42 64 43 63 44
REMARK SMILES IDX 19 46 51 47 31 48 50 49 32 50 35 51 49 52 68 53 33 54 34 55
REMARK SMILES IDX 48 57 69 58 36 59 20 60 21 61 29 62 22 63 23 64 27 65 30 66
REMARK SMILES IDX 24 67 25 68 28 69 26 70 52 71 53 72 61 73 54 74 55 75 59 76
REMARK SMILES IDX 62 77 56 78 57 79 60 80 58 81 37 82 38 83 46 84 39 85 40 86
REMARK SMILES IDX 44 87 47 88 41 89 42 90 45 91 43 92
REMARK H PARENT 78 12 82 21 67 45 35 56
REMARK Flexibility Score: inf
ROOT
ATOM      1  C   UNL     1       2.540   3.290   1.749  1.00  0.00     0.274 C 
ENDROOT
BRANCH   1   2
ATOM      2  O   UNL     1       2.100   2.018   1.214  1.00  0.00    -0.461 OA
BRANCH   2   3
ATOM      3  C   UNL     1       1.127   1.338   1.888  1.00  0.00     0.328 C 
ATOM      4  O   UNL     1       0.616   1.729   2.934  1.00  0.00    -0.250 OA
BRANCH   3   5
ATOM      5  C   UNL     1       0.782  -0.032   1.226  1.00  0.00     0.193 C 
ATOM      6  C   UNL     1       1.397  -0.174  -0.170  1.00  0.00     0.044 C 
BRANCH   5   7
ATOM      7  N   UNL     1      -0.680  -0.383   1.372  1.00  0.00    -0.314 N 
ATOM      8  C   UNL     1      -1.070  -0.749   2.719  1.00  0.00     0.149 C 
BRANCH   7   9
ATOM      9  C   UNL     1      -1.573  -0.366   0.325  1.00  0.00     0.317 C 
ATOM     10  O   UNL     1      -1.215  -0.311  -0.853  1.00  0.00    -0.249 OA
ATOM     11  N   UNL     1      -2.925  -0.312   0.520  1.00  0.00    -0.335 N 
ATOM     12  H   UNL     1      -3.416  -0.466  -0.319  1.00  0.00     0.165 HD
BRANCH  11  13
ATOM     13  C   UNL     1      -3.848  -0.086   1.650  1.00  0.00     0.155 C 
BRANCH  13  14
ATOM     14  C   UNL     1      -4.638   1.294   1.927  1.00  0.00     0.192 C 
ATOM     15  C   UNL     1      -4.025   3.178   2.301  1.00  0.00     0.296 C 
ATOM     16  O   UNL     1      -6.218   1.021   1.034  1.00  0.00    -0.364 OA
ATOM     17  N   UNL     1      -5.104   4.611   1.762  1.00  0.00    -0.328 N 
ATOM     18  C   UNL     1      -7.416   2.367   0.631  1.00  0.00     0.225 C 
ATOM     19  C   UNL     1      -5.109   5.917   2.348  1.00  0.00     0.262 C 
ATOM     20  C   UNL     1      -6.782   4.308   0.948  1.00  0.00     0.210 C 
ATOM     21  H   UNL     1      -4.325   4.644   1.103  1.00  0.00     0.348 HD
ATOM     22  C   UNL     1      -6.376   6.563   1.742  1.00  0.00     0.068 C 
ATOM     23  C   UNL     1      -7.505   5.495   1.611  1.00  0.00     0.073 C 
ENDBRANCH  13  14
ENDBRANCH  11  13
ENDBRANCH   7   9
ENDBRANCH   5   7
ENDBRANCH   3   5
ENDBRANCH   2   3
ENDBRANCH   1   2
BRANCH   1  24
ATOM     24  C   UNL     1       2.280   4.418   0.740  1.00  0.00     0.275 C 
BRANCH  24  25
ATOM     25  O   UNL     1       0.856   4.572   0.560  1.00  0.00    -0.458 OA
BRANCH  25  26
ATOM     26  C   UNL     1       0.372   4.558  -0.715  1.00  0.00     0.338 C 
ATOM     27  O   UNL     1       1.008   4.635  -1.750  1.00  0.00    -0.246 OA
BRANCH  26  28
ATOM     28  C   UNL     1      -1.058   4.185  -0.637  1.00  0.00     0.060 A 
ATOM     29  C   UNL     1      -1.292   2.943  -0.105  1.00  0.00     0.016 A 
ATOM     30  C   UNL     1      -2.158   4.958  -1.003  1.00  0.00     0.016 A 
ATOM     31  C   UNL     1      -2.590   2.513   0.147  1.00  0.00     0.010 A 
ATOM     32  C   UNL     1      -3.484   4.503  -0.715  1.00  0.00     0.010 A 
ATOM     33  C   UNL     1      -3.745   3.261  -0.070  1.00  0.00    -0.014 A 
BRANCH  33  34
ATOM     34  C   UNL     1      -5.342   2.860   0.592  1.00  0.00     0.031 A 
ATOM     35  C   UNL     1      -6.037   2.967  -1.104  1.00  0.00     0.074 A 
ATOM     36  C   UNL     1      -6.144   2.798   2.220  1.00  0.00     0.049 A 
ATOM     37  N   UNL     1      -7.221   3.480  -1.424  1.00  0.00    -0.248 NA
ATOM     38  C   UNL     1      -5.313   2.544  -2.317  1.00  0.00     0.031 C 
ATOM     39  C   UNL     1      -5.761   2.806   3.855  1.00  0.00     0.029 A 
ATOM     40  N   UNL     1      -7.612   2.912   2.699  1.00  0.00    -0.354 N 
ATOM     41  C   UNL     1      -7.485   3.213  -2.723  1.00  0.00     0.074 A 
ATOM     42  C   UNL     1      -6.198   2.843  -3.282  1.00  0.00     0.031 C 
ATOM     43  C   UNL     1      -6.785   2.875   4.717  1.00  0.00     0.029 A 
ATOM     44  C   UNL     1      -7.991   2.973   3.998  1.00  0.00     0.049 A 
ATOM     45  H   UNL     1      -8.317   2.941   2.013  1.00  0.00     0.167 HD
ATOM     46  C   UNL     1      -8.728   3.183  -3.268  1.00  0.00     0.037 A 
ATOM     47  C   UNL     1      -9.235   3.207   4.455  1.00  0.00     0.037 A 
ATOM     48  C   UNL     1     -10.006   3.224  -2.527  1.00  0.00     0.049 A 
ATOM     49  C   UNL     1     -10.384   3.272   3.469  1.00  0.00     0.074 A 
ATOM     50  C   UNL     1     -11.274   3.088  -3.074  1.00  0.00     0.029 A 
ATOM     51  N   UNL     1     -10.219   3.323  -1.134  1.00  0.00    -0.354 N 
ATOM     52  N   UNL     1     -10.360   3.300   2.150  1.00  0.00    -0.248 NA
ATOM     53  C   UNL     1     -11.725   3.293   4.051  1.00  0.00     0.031 C 
ATOM     54  C   UNL     1     -12.228   3.148  -2.054  1.00  0.00     0.029 A 
ATOM     55  C   UNL     1     -11.588   3.249  -0.825  1.00  0.00     0.049 A 
ATOM     56  H   UNL     1      -9.502   3.429  -0.467  1.00  0.00     0.167 HD
ATOM     57  C   UNL     1     -11.690   3.286   1.732  1.00  0.00     0.074 A 
ATOM     58  C   UNL     1     -12.479   3.261   2.962  1.00  0.00     0.031 C 
ATOM     59  C   UNL     1     -12.248   3.273   0.484  1.00  0.00     0.037 A 
BRANCH  46  60
ATOM     60  C   UNL     1      -8.783   3.097  -4.764  1.00  0.00     0.064 A 
ATOM     61  C   UNL     1      -8.354   1.978  -5.489  1.00  0.00     0.173 A 
ATOM     62  C   UNL     1      -9.312   4.181  -5.486  1.00  0.00     0.173 A 
ATOM     63  F   UNL     1      -7.862   0.906  -4.851  1.00  0.00    -0.203 F 
ATOM     64  C   UNL     1      -8.400   1.969  -6.881  1.00  0.00     0.198 A 
ATOM     65  C   UNL     1      -9.395   4.152  -6.874  1.00  0.00     0.198 A 
ATOM     66  F   UNL     1      -9.767   5.267  -4.841  1.00  0.00    -0.203 F 
ATOM     67  F   UNL     1      -7.925   0.913  -7.557  1.00  0.00    -0.200 F 
ATOM     68  C   UNL     1      -8.922   3.053  -7.572  1.00  0.00     0.200 A 
ATOM     69  F   UNL     1      -9.931   5.188  -7.534  1.00  0.00    -0.200 F 
ATOM     70  F   UNL     1      -8.969   3.039  -8.911  1.00  0.00    -0.200 F 
ENDBRANCH  46  60
BRANCH  47  71
ATOM     71  C   UNL     1      -9.400   3.396   5.912  1.00  0.00     0.064 A 
ATOM     72  C   UNL     1      -9.884   2.369   6.729  1.00  0.00     0.173 A 
ATOM     73  C   UNL     1      -8.901   4.554   6.529  1.00  0.00     0.173 A 
ATOM     74  F   UNL     1     -10.382   1.254   6.177  1.00  0.00    -0.203 F 
ATOM     75  C   UNL     1      -9.833   2.479   8.116  1.00  0.00     0.198 A 
ATOM     76  C   UNL     1      -8.828   4.652   7.915  1.00  0.00     0.198 A 
ATOM     77  F   UNL     1      -8.417   5.556   5.780  1.00  0.00    -0.203 F 
ATOM     78  F   UNL     1     -10.285   1.476   8.881  1.00  0.00    -0.200 F 
ATOM     79  C   UNL     1      -9.287   3.610   8.707  1.00  0.00     0.200 A 
ATOM     80  F   UNL     1      -8.274   5.733   8.480  1.00  0.00    -0.200 F 
ATOM     81  F   UNL     1      -9.184   3.688  10.041  1.00  0.00    -0.200 F 
ENDBRANCH  47  71
BRANCH  59  82
ATOM     82  C   UNL     1     -13.775   3.223   0.481  1.00  0.00     0.064 A 
ATOM     83  C   UNL     1     -14.553   4.326   0.876  1.00  0.00     0.173 A 
ATOM     84  C   UNL     1     -14.463   2.051   0.117  1.00  0.00     0.173 A 
ATOM     85  F   UNL     1     -13.956   5.461   1.270  1.00  0.00    -0.203 F 
ATOM     86  C   UNL     1     -15.944   4.243   0.952  1.00  0.00     0.198 A 
ATOM     87  C   UNL     1     -15.857   1.986   0.151  1.00  0.00     0.198 A 
ATOM     88  F   UNL     1     -13.783   0.962  -0.272  1.00  0.00    -0.203 F 
ATOM     89  F   UNL     1     -16.652   5.283   1.417  1.00  0.00    -0.200 F 
ATOM     90  C   UNL     1     -16.595   3.077   0.583  1.00  0.00     0.200 A 
ATOM     91  F   UNL     1     -16.486   0.861  -0.218  1.00  0.00    -0.200 F 
ATOM     92  F   UNL     1     -17.931   2.998   0.662  1.00  0.00    -0.200 F 
ENDBRANCH  59  82
ENDBRANCH  33  34
ENDBRANCH  26  28
ENDBRANCH  25  26
ENDBRANCH  24  25
ENDBRANCH   1  24
TORSDOF 15
