REMARK SMILES O=C(OCCOC(=O)[C@H]1Cc2[nH]cnc2CN1C(=O)c1ccncc1Cl)c1ccc(-c2c3nc(c(-c4c(F)c(F)c(F)c(F)c4F)c4ccc([nH]4)c(-c4c(F)c(F)c(F)c(F)c4F)c4nc(c(-c5c(F)c(F)c(F)c(F)c5F)c5ccc2[nH]5)C=C4)C=C3)cc1
REMARK SMILES IDX 4 1 3 2 2 3 1 4 27 5 28 6 89 7 29 8 88 9 30 10 31 11 32 12
REMARK SMILES IDX 82 13 33 14 87 15 81 16 83 17 34 18 86 19 80 20 79 21 35 23
REMARK SMILES IDX 67 24 47 25 66 26 48 27 51 28 65 29 84 30 49 31 50 32 64 34
REMARK SMILES IDX 85 35 52 36 36 37 37 38 45 39 38 40 39 41 43 42 46 43 40 44
REMARK SMILES IDX 41 45 44 46 42 47 68 48 69 49 77 50 70 51 71 52 75 53 78 54
REMARK SMILES IDX 72 55 73 56 76 57 74 58 53 59 54 60 62 61 55 62 56 63 60 64
REMARK SMILES IDX 63 65 57 66 58 67 61 68 59 69 5 70 6 71 7 72 8 73 9 74 10 75
REMARK SMILES IDX 17 76 11 77 16 78 12 79 15 80 13 81 14 83 18 84 19 85 20 86
REMARK SMILES IDX 21 87 25 88 22 89 24 90 26 91 23 92
REMARK H PARENT 83 22 51 33 12 82
REMARK Flexibility Score: inf
ROOT
ATOM      1  C   UNL     1       5.493  -0.213  -1.190  1.00  0.00     0.275 C 
ENDROOT
BRANCH   1   2
ATOM      2  O   UNL     1       5.056  -0.686   0.085  1.00  0.00    -0.458 OA
BRANCH   2   3
ATOM      3  C   UNL     1       3.731  -0.941   0.138  1.00  0.00     0.338 C 
ATOM      4  O   UNL     1       2.943  -0.912  -0.790  1.00  0.00    -0.246 OA
BRANCH   3   5
ATOM      5  C   UNL     1       3.318  -1.075   1.538  1.00  0.00     0.060 A 
ATOM      6  C   UNL     1       4.144  -1.585   2.529  1.00  0.00     0.016 A 
ATOM      7  C   UNL     1       2.014  -0.679   1.831  1.00  0.00     0.016 A 
ATOM      8  C   UNL     1       3.598  -1.802   3.781  1.00  0.00     0.010 A 
ATOM      9  C   UNL     1       1.452  -0.899   3.063  1.00  0.00     0.010 A 
ATOM     10  C   UNL     1       2.243  -1.507   4.016  1.00  0.00    -0.014 A 
BRANCH  10  11
ATOM     11  C   UNL     1       1.710  -1.749   5.333  1.00  0.00     0.031 A 
ATOM     12  C   UNL     1       2.274  -0.865   6.372  1.00  0.00     0.074 A 
ATOM     13  C   UNL     1       0.760  -2.657   5.600  1.00  0.00     0.049 A 
ATOM     14  N   UNL     1       3.193  -1.163   7.227  1.00  0.00    -0.248 NA
ATOM     15  C   UNL     1       1.901   0.554   6.346  1.00  0.00     0.031 C 
ATOM     16  C   UNL     1      -0.133  -3.373   4.691  1.00  0.00     0.029 A 
ATOM     17  N   UNL     1       0.385  -3.098   6.827  1.00  0.00    -0.354 N 
ATOM     18  C   UNL     1       3.397  -0.013   7.979  1.00  0.00     0.074 A 
ATOM     19  C   UNL     1       2.711   1.047   7.285  1.00  0.00     0.031 C 
ATOM     20  C   UNL     1      -1.070  -4.027   5.419  1.00  0.00     0.029 A 
ATOM     21  C   UNL     1      -0.745  -3.892   6.830  1.00  0.00     0.049 A 
ATOM     22  H   UNL     1       0.878  -2.870   7.648  1.00  0.00     0.167 HD
ATOM     23  C   UNL     1       3.923  -0.092   9.231  1.00  0.00     0.037 A 
ATOM     24  C   UNL     1      -1.381  -4.339   7.939  1.00  0.00     0.037 A 
ATOM     25  C   UNL     1       4.581  -1.362   9.437  1.00  0.00     0.049 A 
ATOM     26  C   UNL     1      -0.402  -4.297   9.062  1.00  0.00     0.074 A 
ATOM     27  C   UNL     1       5.639  -2.013   8.828  1.00  0.00     0.029 A 
ATOM     28  N   UNL     1       3.912  -2.335  10.141  1.00  0.00    -0.354 N 
ATOM     29  N   UNL     1       0.649  -5.070   9.137  1.00  0.00    -0.248 NA
ATOM     30  C   UNL     1      -0.334  -3.083   9.865  1.00  0.00     0.031 C 
ATOM     31  C   UNL     1       5.257  -3.389   8.793  1.00  0.00     0.029 A 
ATOM     32  C   UNL     1       4.019  -3.502   9.427  1.00  0.00     0.049 A 
ATOM     33  H   UNL     1       3.443  -2.216  10.999  1.00  0.00     0.167 HD
ATOM     34  C   UNL     1       1.656  -4.260   9.645  1.00  0.00     0.074 A 
ATOM     35  C   UNL     1       0.970  -3.077  10.158  1.00  0.00     0.031 C 
ATOM     36  C   UNL     1       2.970  -4.493   9.350  1.00  0.00     0.037 A 
BRANCH  23  37
ATOM     37  C   UNL     1       3.511   0.799  10.380  1.00  0.00     0.064 A 
ATOM     38  C   UNL     1       4.162   0.645  11.621  1.00  0.00     0.173 A 
ATOM     39  C   UNL     1       2.321   1.559  10.411  1.00  0.00     0.173 A 
ATOM     40  F   UNL     1       5.307  -0.049  11.713  1.00  0.00    -0.203 F 
ATOM     41  C   UNL     1       3.600   1.110  12.812  1.00  0.00     0.198 A 
ATOM     42  C   UNL     1       1.790   2.065  11.596  1.00  0.00     0.198 A 
ATOM     43  F   UNL     1       1.561   1.753   9.330  1.00  0.00    -0.203 F 
ATOM     44  F   UNL     1       4.183   0.812  13.981  1.00  0.00    -0.200 F 
ATOM     45  C   UNL     1       2.406   1.806  12.800  1.00  0.00     0.200 A 
ATOM     46  F   UNL     1       0.628   2.732  11.562  1.00  0.00    -0.200 F 
ATOM     47  F   UNL     1       1.826   2.185  13.945  1.00  0.00    -0.200 F 
ENDBRANCH  23  37
BRANCH  24  48
ATOM     48  C   UNL     1      -2.841  -4.457   8.136  1.00  0.00     0.064 A 
ATOM     49  C   UNL     1      -3.374  -5.208   9.194  1.00  0.00     0.173 A 
ATOM     50  C   UNL     1      -3.739  -3.617   7.446  1.00  0.00     0.173 A 
ATOM     51  F   UNL     1      -2.577  -5.994   9.931  1.00  0.00    -0.203 F 
ATOM     52  C   UNL     1      -4.723  -5.109   9.552  1.00  0.00     0.198 A 
ATOM     53  C   UNL     1      -5.085  -3.526   7.799  1.00  0.00     0.198 A 
ATOM     54  F   UNL     1      -3.309  -2.797   6.477  1.00  0.00    -0.203 F 
ATOM     55  F   UNL     1      -5.186  -5.797  10.605  1.00  0.00    -0.200 F 
ATOM     56  C   UNL     1      -5.574  -4.263   8.860  1.00  0.00     0.200 A 
ATOM     57  F   UNL     1      -5.888  -2.675   7.144  1.00  0.00    -0.200 F 
ATOM     58  F   UNL     1      -6.852  -4.125   9.240  1.00  0.00    -0.200 F 
ENDBRANCH  24  48
BRANCH  36  59
ATOM     59  C   UNL     1       3.308  -5.789   8.666  1.00  0.00     0.064 A 
ATOM     60  C   UNL     1       2.856  -6.131   7.380  1.00  0.00     0.173 A 
ATOM     61  C   UNL     1       4.230  -6.651   9.273  1.00  0.00     0.173 A 
ATOM     62  F   UNL     1       2.062  -5.306   6.687  1.00  0.00    -0.203 F 
ATOM     63  C   UNL     1       3.265  -7.309   6.756  1.00  0.00     0.198 A 
ATOM     64  C   UNL     1       4.667  -7.809   8.633  1.00  0.00     0.198 A 
ATOM     65  F   UNL     1       4.747  -6.345  10.473  1.00  0.00    -0.203 F 
ATOM     66  F   UNL     1       2.808  -7.617   5.533  1.00  0.00    -0.200 F 
ATOM     67  C   UNL     1       4.175  -8.144   7.382  1.00  0.00     0.200 A 
ATOM     68  F   UNL     1       5.588  -8.586   9.219  1.00  0.00    -0.200 F 
ATOM     69  F   UNL     1       4.601  -9.256   6.766  1.00  0.00    -0.200 F 
ENDBRANCH  36  59
ENDBRANCH  10  11
ENDBRANCH   3   5
ENDBRANCH   2   3
ENDBRANCH   1   2
BRANCH   1  70
ATOM     70  C   UNL     1       4.823   1.106  -1.624  1.00  0.00     0.274 C 
BRANCH  70  71
ATOM     71  O   UNL     1       4.115   1.720  -0.527  1.00  0.00    -0.461 OA
BRANCH  71  72
ATOM     72  C   UNL     1       2.898   2.283  -0.820  1.00  0.00     0.329 C 
ATOM     73  O   UNL     1       2.518   2.542  -1.950  1.00  0.00    -0.250 OA
BRANCH  72  74
ATOM     74  C   UNL     1       2.196   2.699   0.489  1.00  0.00     0.201 C 
ATOM     75  C   UNL     1       2.573   4.226   0.554  1.00  0.00     0.093 C 
ATOM     76  N   UNL     1       0.723   2.496   0.862  1.00  0.00    -0.318 N 
ATOM     77  C   UNL     1       2.035   4.817   1.791  1.00  0.00     0.042 A 
ATOM     78  C   UNL     1       0.367   2.975   2.236  1.00  0.00     0.179 C 
ATOM     79  N   UNL     1       2.355   5.998   2.389  1.00  0.00    -0.348 N 
ATOM     80  C   UNL     1       1.041   4.261   2.553  1.00  0.00     0.081 A 
ATOM     81  C   UNL     1       1.577   6.088   3.515  1.00  0.00     0.197 A 
ATOM     82  H   UNL     1       3.015   6.658   2.075  1.00  0.00     0.167 HD
ATOM     83  N   UNL     1       0.785   5.044   3.647  1.00  0.00    -0.240 NA
BRANCH  76  84
ATOM     84  C   UNL     1      -0.199   1.529   0.399  1.00  0.00     0.256 C 
ATOM     85  O   UNL     1      -1.169   1.189   1.079  1.00  0.00    -0.269 OA
BRANCH  84  86
ATOM     86  C   UNL     1      -0.105   0.899  -0.933  1.00  0.00     0.061 A 
ATOM     87  C   UNL     1      -0.095   1.734  -2.047  1.00  0.00     0.035 A 
ATOM     88  C   UNL     1      -0.194  -0.487  -1.131  1.00  0.00     0.072 A 
ATOM     89  C   UNL     1       0.006   1.156  -3.302  1.00  0.00     0.112 A 
ATOM     90  C   UNL     1      -0.032  -0.964  -2.423  1.00  0.00     0.132 A 
ATOM     91  Cl  UNL     1      -0.571  -1.655   0.085  1.00  0.00    -0.082 Cl
ATOM     92  N   UNL     1       0.075  -0.174  -3.515  1.00  0.00    -0.263 NA
ENDBRANCH  84  86
ENDBRANCH  76  84
ENDBRANCH  72  74
ENDBRANCH  71  72
ENDBRANCH  70  71
ENDBRANCH   1  70
TORSDOF 13
