REMARK SMILES Cc1cccc(-n2c(C)cc(/C=N\c3ccc(O)c(C(=O)OCCOC(=O)c4ccc(-c5c6nc(c(-c7c(F)c(F)c(F)c(F)c7F)c7ccc([nH]7)c(-c7c(F)c(F)c(F)c(F)c7F)c7nc(c(-c8c(F)c(F)c(F)c(F)c8F)c8ccc5[nH]8)C=C7)C=C6)cc4)c3)c2C)c1
REMARK SMILES IDX 23 1 22 2 20 3 21 4 19 5 14 6 15 7 91 8 16 9 17 10 13 11
REMARK SMILES IDX 12 12 11 13 7 14 8 15 92 16 9 17 10 18 93 19 6 20 1 21 2 22
REMARK SMILES IDX 3 23 94 24 4 25 5 26 18 27 24 29 25 30 26 31 27 32 28 33
REMARK SMILES IDX 29 34 90 35 30 36 89 37 31 38 32 39 33 40 83 41 34 42 88 43
REMARK SMILES IDX 82 44 84 45 35 46 87 47 81 48 80 49 36 51 68 52 48 53 67 54
REMARK SMILES IDX 49 55 52 56 66 57 85 58 50 59 51 60 65 62 86 63 53 64 37 65
REMARK SMILES IDX 38 66 46 67 39 68 40 69 44 70 47 71 41 72 42 73 45 74 43 75
REMARK SMILES IDX 69 76 70 77 78 78 71 79 72 80 76 81 79 82 73 83 74 84 77 85
REMARK SMILES IDX 75 86 54 87 55 88 63 89 56 90 57 91 61 92 64 93 58 94 59 95
REMARK SMILES IDX 62 96 60 97
REMARK H PARENT 18 28 84 50 52 61
REMARK Flexibility Score: inf
ROOT
ATOM      1  C   UNL     1      -7.582  -2.015   6.725  1.00  0.00     0.275 C 
ENDROOT
BRANCH   1   2
ATOM      2  O   UNL     1      -6.441  -1.713   5.897  1.00  0.00    -0.458 OA
BRANCH   2   3
ATOM      3  C   UNL     1      -6.440  -0.399   5.167  1.00  0.00     0.342 C 
ATOM      4  O   UNL     1      -7.694  -0.265   5.016  1.00  0.00    -0.246 OA
BRANCH   3   5
ATOM      5  C   UNL     1      -4.743   0.821   4.638  1.00  0.00     0.103 A 
ATOM      6  C   UNL     1      -3.709   3.152   3.581  1.00  0.00     0.064 A 
ATOM      7  C   UNL     1      -2.464   2.960   4.107  1.00  0.00     0.032 A 
ATOM      8  C   UNL     1      -4.734   2.206   3.897  1.00  0.00     0.048 A 
ATOM      9  C   UNL     1      -2.208   1.737   4.694  1.00  0.00     0.049 A 
ATOM     10  C   UNL     1      -3.219   0.719   4.853  1.00  0.00     0.130 A 
BRANCH   6  11
ATOM     11  N   UNL     1      -4.046   4.280   2.830  1.00  0.00    -0.256 NA
ATOM     12  C   UNL     1      -3.711   4.511   1.592  1.00  0.00     0.121 C 
BRANCH  12  13
ATOM     13  C   UNL     1      -2.915   3.772   0.608  1.00  0.00     0.014 A 
ATOM     14  N   UNL     1      -1.679   2.282  -0.566  1.00  0.00    -0.318 N 
ATOM     15  C   UNL     1      -1.559   3.489  -1.224  1.00  0.00     0.021 A 
ATOM     16  C   UNL     1      -2.594   2.423   0.477  1.00  0.00     0.029 A 
ATOM     17  C   UNL     1      -0.764   3.664  -2.472  1.00  0.00     0.065 C 
ATOM     18  C   UNL     1      -2.327   4.407  -0.536  1.00  0.00     0.033 A 
ATOM     19  C   UNL     1      -2.994   1.256   1.303  1.00  0.00     0.065 C 
BRANCH  14  20
ATOM     20  C   UNL     1      -0.885   1.125  -0.779  1.00  0.00     0.046 A 
ATOM     21  C   UNL     1       2.673   0.034  -0.003  1.00  0.00     0.044 C 
ATOM     22  C   UNL     1       1.218   0.006  -0.363  1.00  0.00    -0.049 A 
ATOM     23  C   UNL     1       0.569  -1.228  -0.527  1.00  0.00     0.003 A 
ATOM     24  C   UNL     1       0.483   1.192  -0.493  1.00  0.00     0.030 A 
ATOM     25  C   UNL     1      -0.780  -1.282  -0.875  1.00  0.00     0.002 A 
ATOM     26  C   UNL     1      -1.504  -0.104  -1.025  1.00  0.00     0.026 A 
ENDBRANCH  14  20
ENDBRANCH  12  13
ENDBRANCH   6  11
BRANCH  10  27
ATOM     27  O   UNL     1      -2.509  -0.469   5.106  1.00  0.00    -0.507 OA
ATOM     28  H   UNL     1      -1.580  -0.444   5.226  1.00  0.00     0.293 HD
ENDBRANCH  10  27
ENDBRANCH   3   5
ENDBRANCH   2   3
ENDBRANCH   1   2
BRANCH   1  29
ATOM     29  C   UNL     1      -7.508  -1.160   7.998  1.00  0.00     0.275 C 
BRANCH  29  30
ATOM     30  O   UNL     1      -7.668   0.267   7.770  1.00  0.00    -0.458 OA
BRANCH  30  31
ATOM     31  C   UNL     1      -6.563   1.064   7.818  1.00  0.00     0.338 C 
ATOM     32  O   UNL     1      -6.258   1.810   8.728  1.00  0.00    -0.246 OA
BRANCH  31  33
ATOM     33  C   UNL     1      -5.830   1.011   6.534  1.00  0.00     0.060 A 
ATOM     34  C   UNL     1      -6.714   1.633   5.082  1.00  0.00     0.016 A 
ATOM     35  C   UNL     1      -4.763  -0.432   6.396  1.00  0.00     0.016 A 
ATOM     36  C   UNL     1      -6.565   0.737   3.464  1.00  0.00     0.010 A 
ATOM     37  C   UNL     1      -4.646  -1.331   4.793  1.00  0.00     0.010 A 
ATOM     38  C   UNL     1      -5.552  -0.750   3.347  1.00  0.00    -0.014 A 
BRANCH  38  39
ATOM     39  C   UNL     1      -5.937  -1.857   2.468  1.00  0.00     0.031 A 
ATOM     40  C   UNL     1      -4.907  -2.648   1.780  1.00  0.00     0.074 A 
ATOM     41  C   UNL     1      -7.229  -2.265   2.486  1.00  0.00     0.049 A 
ATOM     42  N   UNL     1      -5.172  -3.409   0.779  1.00  0.00    -0.248 NA
ATOM     43  C   UNL     1      -3.489  -2.631   2.114  1.00  0.00     0.031 C 
ATOM     44  C   UNL     1      -7.818  -3.519   2.026  1.00  0.00     0.029 A 
ATOM     45  N   UNL     1      -8.339  -1.523   2.862  1.00  0.00    -0.354 N 
ATOM     46  C   UNL     1      -4.058  -4.161   0.499  1.00  0.00     0.074 A 
ATOM     47  C   UNL     1      -3.017  -3.605   1.327  1.00  0.00     0.031 C 
ATOM     48  C   UNL     1      -9.153  -3.371   1.931  1.00  0.00     0.029 A 
ATOM     49  C   UNL     1      -9.482  -1.984   2.218  1.00  0.00     0.049 A 
ATOM     50  H   UNL     1      -8.320  -0.772   3.499  1.00  0.00     0.167 HD
ATOM     51  C   UNL     1      -4.202  -5.228  -0.338  1.00  0.00     0.037 A 
ATOM     52  C   UNL     1     -10.119  -1.116   1.375  1.00  0.00     0.037 A 
ATOM     53  C   UNL     1      -5.584  -5.312  -0.819  1.00  0.00     0.049 A 
ATOM     54  C   UNL     1      -9.783  -1.405  -0.084  1.00  0.00     0.074 A 
ATOM     55  C   UNL     1      -6.707  -6.020  -0.421  1.00  0.00     0.029 A 
ATOM     56  N   UNL     1      -6.057  -4.282  -1.609  1.00  0.00    -0.354 N 
ATOM     57  N   UNL     1      -9.051  -2.411  -0.487  1.00  0.00    -0.248 NA
ATOM     58  C   UNL     1     -10.190  -0.553  -1.200  1.00  0.00     0.031 C 
ATOM     59  C   UNL     1      -7.857  -5.373  -0.973  1.00  0.00     0.029 A 
ATOM     60  C   UNL     1      -7.431  -4.298  -1.735  1.00  0.00     0.049 A 
ATOM     61  H   UNL     1      -5.478  -3.610  -2.034  1.00  0.00     0.167 HD
ATOM     62  C   UNL     1      -8.837  -2.335  -1.834  1.00  0.00     0.074 A 
ATOM     63  C   UNL     1      -9.559  -1.138  -2.234  1.00  0.00     0.031 C 
ATOM     64  C   UNL     1      -8.068  -3.243  -2.514  1.00  0.00     0.037 A 
BRANCH  51  65
ATOM     65  C   UNL     1      -3.167  -6.301  -0.572  1.00  0.00     0.064 A 
ATOM     66  C   UNL     1      -3.564  -7.591  -0.984  1.00  0.00     0.173 A 
ATOM     67  C   UNL     1      -1.779  -6.141  -0.393  1.00  0.00     0.173 A 
ATOM     68  F   UNL     1      -4.841  -7.867  -1.281  1.00  0.00    -0.203 F 
ATOM     69  C   UNL     1      -2.664  -8.653  -1.105  1.00  0.00     0.198 A 
ATOM     70  C   UNL     1      -0.883  -7.215  -0.467  1.00  0.00     0.198 A 
ATOM     71  F   UNL     1      -1.230  -4.936  -0.202  1.00  0.00    -0.203 F 
ATOM     72  F   UNL     1      -3.106  -9.857  -1.497  1.00  0.00    -0.200 F 
ATOM     73  C   UNL     1      -1.328  -8.474  -0.815  1.00  0.00     0.200 A 
ATOM     74  F   UNL     1       0.417  -7.016  -0.205  1.00  0.00    -0.200 F 
ATOM     75  F   UNL     1      -0.470  -9.500  -0.895  1.00  0.00    -0.200 F 
ENDBRANCH  51  65
BRANCH  52  76
ATOM     76  C   UNL     1     -10.318   0.229   2.016  1.00  0.00     0.064 A 
ATOM     77  C   UNL     1     -11.004   0.265   3.254  1.00  0.00     0.173 A 
ATOM     78  C   UNL     1      -9.583   1.371   1.677  1.00  0.00     0.173 A 
ATOM     79  F   UNL     1     -11.761  -0.780   3.628  1.00  0.00    -0.203 F 
ATOM     80  C   UNL     1     -10.834   1.307   4.166  1.00  0.00     0.198 A 
ATOM     81  C   UNL     1      -9.438   2.432   2.584  1.00  0.00     0.198 A 
ATOM     82  F   UNL     1      -8.877   1.416   0.539  1.00  0.00    -0.203 F 
ATOM     83  F   UNL     1     -11.389   1.232   5.385  1.00  0.00    -0.200 F 
ATOM     84  C   UNL     1     -10.029   2.380   3.839  1.00  0.00     0.200 A 
ATOM     85  F   UNL     1      -8.608   3.445   2.293  1.00  0.00    -0.200 F 
ATOM     86  F   UNL     1      -9.769   3.332   4.748  1.00  0.00    -0.200 F 
ENDBRANCH  52  76
BRANCH  64  87
ATOM     87  C   UNL     1      -7.842  -3.192  -4.007  1.00  0.00     0.064 A 
ATOM     88  C   UNL     1      -8.867  -2.860  -4.906  1.00  0.00     0.173 A 
ATOM     89  C   UNL     1      -6.616  -3.574  -4.603  1.00  0.00     0.173 A 
ATOM     90  F   UNL     1     -10.112  -2.615  -4.471  1.00  0.00    -0.203 F 
ATOM     91  C   UNL     1      -8.648  -2.799  -6.284  1.00  0.00     0.198 A 
ATOM     92  C   UNL     1      -6.422  -3.585  -5.981  1.00  0.00     0.198 A 
ATOM     93  F   UNL     1      -5.544  -3.923  -3.880  1.00  0.00    -0.203 F 
ATOM     94  F   UNL     1      -9.633  -2.384  -7.093  1.00  0.00    -0.200 F 
ATOM     95  C   UNL     1      -7.427  -3.163  -6.821  1.00  0.00     0.200 A 
ATOM     96  F   UNL     1      -5.246  -3.991  -6.481  1.00  0.00    -0.200 F 
ATOM     97  F   UNL     1      -7.221  -3.111  -8.143  1.00  0.00    -0.200 F 
ENDBRANCH  64  87
ENDBRANCH  38  39
ENDBRANCH  31  33
ENDBRANCH  30  31
ENDBRANCH  29  30
ENDBRANCH   1  29
TORSDOF 15
