REMARK SMILES NC(=O)[C@@H]1CCC[N@@H+]1[C@@H](C(=O)OCCOC(=O)c1ccc(-c2c3nc(c(-c4c(F)c(F)c(F)c(F)c4F)c4ccc([nH]4)c(-c4c(F)c(F)c(F)c(F)c4F)c4nc(c(-c5c(F)c(F)c(F)c(F)c5F)c5ccc2[nH]5)C=C4)C=C3)cc1)c1c[nH]c2cc(OCc3ccccc3)ccc12
REMARK SMILES IDX 13 1 12 2 10 3 11 4 9 5 8 6 4 7 5 8 6 9 7 10 2 12 1 13 3 16
REMARK SMILES IDX 81 17 82 18 97 19 83 20 84 21 96 22 85 24 95 25 86 26 87 27
REMARK SMILES IDX 88 28 89 29 90 30 94 31 91 32 93 33 92 34 14 35 15 36 16 37
REMARK SMILES IDX 17 38 18 39 19 40 80 41 20 42 79 43 21 44 22 45 23 46 73 47
REMARK SMILES IDX 24 48 78 49 72 50 74 51 25 52 77 53 71 54 70 55 26 57 58 58
REMARK SMILES IDX 38 59 57 60 39 61 42 62 56 63 75 64 40 65 41 66 55 68 76 69
REMARK SMILES IDX 43 70 27 71 28 72 36 73 29 74 30 75 34 76 37 77 31 78 32 79
REMARK SMILES IDX 35 80 33 81 59 82 60 83 68 84 61 85 62 86 66 87 69 88 63 89
REMARK SMILES IDX 64 90 67 91 65 92 44 93 45 94 53 95 46 96 47 97 51 98 54 99
REMARK SMILES IDX 48 100 49 101 52 102 50 103
REMARK H PARENT 8 11 1 14 1 15 83 23 74 56 42 67
REMARK Flexibility Score: inf
ROOT
ATOM      1  C   UNL     1      -2.553  -3.304   1.780  1.00  0.00     0.274 C 
ENDROOT
BRANCH   1   2
ATOM      2  O   UNL     1      -1.449  -3.095   2.703  1.00  0.00    -0.457 OA
BRANCH   2   3
ATOM      3  C   UNL     1      -1.440  -1.884   3.322  1.00  0.00     0.370 C 
ATOM      4  O   UNL     1      -2.402  -1.113   3.301  1.00  0.00    -0.245 OA
BRANCH   3   5
ATOM      5  C   UNL     1      -0.127  -1.480   3.985  1.00  0.00     0.329 C 
BRANCH   5   6
ATOM      6  N   UNL     1       1.132  -1.349   3.127  1.00  0.00    -0.309 N 
ATOM      7  C   UNL     1       1.093  -1.482   1.643  1.00  0.00     0.275 C 
ATOM      8  C   UNL     1       1.219  -2.973   1.331  1.00  0.00     0.081 C 
ATOM      9  C   UNL     1       1.768  -3.571   2.622  1.00  0.00     0.068 C 
ATOM     10  C   UNL     1       2.180  -2.351   3.416  1.00  0.00     0.264 C 
ATOM     11  H   UNL     1       1.291  -0.379   3.399  1.00  0.00     0.349 HD
BRANCH   7  12
ATOM     12  C   UNL     1       0.098  -0.693   0.802  1.00  0.00     0.275 C 
ATOM     13  N   UNL     1       0.660   0.168  -0.104  1.00  0.00    -0.365 N 
ATOM     14  H   UNL     1       0.085   0.715  -0.686  1.00  0.00     0.159 HD
ATOM     15  H   UNL     1       1.640   0.239  -0.172  1.00  0.00     0.159 HD
ATOM     16  O   UNL     1      -1.121  -0.831   0.804  1.00  0.00    -0.268 OA
ENDBRANCH   7  12
ENDBRANCH   5   6
BRANCH   5  17
ATOM     17  C   UNL     1       0.228  -1.966   5.419  1.00  0.00     0.046 A 
ATOM     18  C   UNL     1       1.024  -1.185   6.259  1.00  0.00     0.094 A 
ATOM     19  C   UNL     1       0.194  -3.238   6.107  1.00  0.00     0.009 A 
ATOM     20  N   UNL     1       1.876  -2.048   6.902  1.00  0.00    -0.361 N 
ATOM     21  C   UNL     1       1.435  -3.335   6.738  1.00  0.00     0.050 A 
ATOM     22  C   UNL     1      -0.624  -4.371   6.245  1.00  0.00     0.015 A 
ATOM     23  H   UNL     1       2.681  -1.783   7.403  1.00  0.00     0.166 HD
ATOM     24  C   UNL     1       2.014  -4.563   7.085  1.00  0.00     0.073 A 
ATOM     25  C   UNL     1      -0.161  -5.554   6.850  1.00  0.00     0.047 A 
ATOM     26  C   UNL     1       1.184  -5.686   7.146  1.00  0.00     0.121 A 
BRANCH  26  27
ATOM     27  O   UNL     1       1.816  -6.846   7.503  1.00  0.00    -0.489 OA
BRANCH  27  28
ATOM     28  C   UNL     1       1.100  -7.803   8.290  1.00  0.00     0.265 C 
BRANCH  28  29
ATOM     29  C   UNL     1       1.134  -7.497   9.773  1.00  0.00    -0.011 A 
ATOM     30  C   UNL     1       0.486  -8.359  10.671  1.00  0.00     0.007 A 
ATOM     31  C   UNL     1       1.840  -6.402  10.290  1.00  0.00     0.007 A 
ATOM     32  C   UNL     1       0.540  -8.121  12.044  1.00  0.00     0.000 A 
ATOM     33  C   UNL     1       1.895  -6.166  11.659  1.00  0.00     0.000 A 
ATOM     34  C   UNL     1       1.246  -7.028  12.535  1.00  0.00     0.000 A 
ENDBRANCH  28  29
ENDBRANCH  27  28
ENDBRANCH  26  27
ENDBRANCH   5  17
ENDBRANCH   3   5
ENDBRANCH   2   3
ENDBRANCH   1   2
BRANCH   1  35
ATOM     35  C   UNL     1      -3.561  -4.288   2.351  1.00  0.00     0.275 C 
BRANCH  35  36
ATOM     36  O   UNL     1      -4.122  -3.717   3.549  1.00  0.00    -0.458 OA
BRANCH  36  37
ATOM     37  C   UNL     1      -3.830  -4.396   4.676  1.00  0.00     0.338 C 
ATOM     38  O   UNL     1      -3.346  -5.519   4.737  1.00  0.00    -0.246 OA
BRANCH  37  39
ATOM     39  C   UNL     1      -4.021  -3.588   5.907  1.00  0.00     0.060 A 
ATOM     40  C   UNL     1      -3.575  -2.268   5.984  1.00  0.00     0.016 A 
ATOM     41  C   UNL     1      -4.316  -4.277   7.085  1.00  0.00     0.016 A 
ATOM     42  C   UNL     1      -3.289  -1.689   7.221  1.00  0.00     0.010 A 
ATOM     43  C   UNL     1      -4.128  -3.662   8.328  1.00  0.00     0.010 A 
ATOM     44  C   UNL     1      -3.581  -2.374   8.409  1.00  0.00    -0.014 A 
BRANCH  44  45
ATOM     45  C   UNL     1      -3.460  -1.689   9.720  1.00  0.00     0.031 A 
ATOM     46  C   UNL     1      -2.477  -2.122  10.770  1.00  0.00     0.074 A 
ATOM     47  C   UNL     1      -4.289  -0.657   9.965  1.00  0.00     0.049 A 
ATOM     48  N   UNL     1      -2.434  -1.795  12.039  1.00  0.00    -0.248 NA
ATOM     49  C   UNL     1      -1.393  -3.016  10.343  1.00  0.00     0.031 C 
ATOM     50  C   UNL     1      -5.223  -0.080   8.997  1.00  0.00     0.029 A 
ATOM     51  N   UNL     1      -4.487   0.081  11.103  1.00  0.00    -0.354 N 
ATOM     52  C   UNL     1      -1.340  -2.466  12.574  1.00  0.00     0.074 A 
ATOM     53  C   UNL     1      -0.737  -3.207  11.484  1.00  0.00     0.031 C 
ATOM     54  C   UNL     1      -5.889   0.925   9.576  1.00  0.00     0.029 A 
ATOM     55  C   UNL     1      -5.511   0.986  10.982  1.00  0.00     0.049 A 
ATOM     56  H   UNL     1      -3.951  -0.026  11.922  1.00  0.00     0.167 HD
ATOM     57  C   UNL     1      -0.899  -2.457  13.858  1.00  0.00     0.037 A 
ATOM     58  C   UNL     1      -6.137   1.733  11.907  1.00  0.00     0.037 A 
ATOM     59  C   UNL     1      -1.494  -1.673  14.919  1.00  0.00     0.049 A 
ATOM     60  C   UNL     1      -5.694   1.652  13.333  1.00  0.00     0.074 A 
ATOM     61  C   UNL     1      -1.119  -1.597  16.252  1.00  0.00     0.029 A 
ATOM     62  N   UNL     1      -2.578  -0.820  14.768  1.00  0.00    -0.354 N 
ATOM     63  N   UNL     1      -4.737   0.929  13.859  1.00  0.00    -0.248 NA
ATOM     64  C   UNL     1      -6.422   2.486  14.296  1.00  0.00     0.031 C 
ATOM     65  C   UNL     1      -2.002  -0.741  16.915  1.00  0.00     0.029 A 
ATOM     66  C   UNL     1      -2.886  -0.225  15.983  1.00  0.00     0.049 A 
ATOM     67  H   UNL     1      -3.058  -0.661  13.923  1.00  0.00     0.167 HD
ATOM     68  C   UNL     1      -4.731   1.236  15.211  1.00  0.00     0.074 A 
ATOM     69  C   UNL     1      -5.772   2.221  15.420  1.00  0.00     0.031 C 
ATOM     70  C   UNL     1      -3.930   0.746  16.187  1.00  0.00     0.037 A 
BRANCH  57  71
ATOM     71  C   UNL     1       0.270  -3.322  14.244  1.00  0.00     0.064 A 
ATOM     72  C   UNL     1       1.585  -3.006  13.878  1.00  0.00     0.173 A 
ATOM     73  C   UNL     1       0.082  -4.389  15.142  1.00  0.00     0.173 A 
ATOM     74  F   UNL     1       1.827  -2.007  13.017  1.00  0.00    -0.203 F 
ATOM     75  C   UNL     1       2.665  -3.723  14.395  1.00  0.00     0.198 A 
ATOM     76  C   UNL     1       1.164  -5.078  15.683  1.00  0.00     0.198 A 
ATOM     77  F   UNL     1      -1.155  -4.734  15.533  1.00  0.00    -0.203 F 
ATOM     78  F   UNL     1       3.911  -3.433  13.995  1.00  0.00    -0.200 F 
ATOM     79  C   UNL     1       2.455  -4.748  15.306  1.00  0.00     0.200 A 
ATOM     80  F   UNL     1       0.956  -6.070  16.560  1.00  0.00    -0.200 F 
ATOM     81  F   UNL     1       3.495  -5.435  15.798  1.00  0.00    -0.200 F 
ENDBRANCH  57  71
BRANCH  58  82
ATOM     82  C   UNL     1      -7.285   2.573  11.490  1.00  0.00     0.064 A 
ATOM     83  C   UNL     1      -7.183   3.968  11.459  1.00  0.00     0.173 A 
ATOM     84  C   UNL     1      -8.481   1.990  11.042  1.00  0.00     0.173 A 
ATOM     85  F   UNL     1      -6.067   4.568  11.899  1.00  0.00    -0.203 F 
ATOM     86  C   UNL     1      -8.233   4.751  10.989  1.00  0.00     0.198 A 
ATOM     87  C   UNL     1      -9.516   2.772  10.539  1.00  0.00     0.198 A 
ATOM     88  F   UNL     1      -8.623   0.656  11.048  1.00  0.00    -0.203 F 
ATOM     89  F   UNL     1      -8.123   6.086  10.991  1.00  0.00    -0.200 F 
ATOM     90  C   UNL     1      -9.393   4.152  10.516  1.00  0.00     0.200 A 
ATOM     91  F   UNL     1     -10.623   2.187  10.061  1.00  0.00    -0.200 F 
ATOM     92  F   UNL     1     -10.390   4.906  10.036  1.00  0.00    -0.200 F 
ENDBRANCH  58  82
BRANCH  70  93
ATOM     93  C   UNL     1      -4.120   1.310  17.564  1.00  0.00     0.064 A 
ATOM     94  C   UNL     1      -5.258   1.018  18.331  1.00  0.00     0.173 A 
ATOM     95  C   UNL     1      -3.155   2.165  18.118  1.00  0.00     0.173 A 
ATOM     96  F   UNL     1      -6.216   0.218  17.839  1.00  0.00    -0.203 F 
ATOM     97  C   UNL     1      -5.444   1.599  19.582  1.00  0.00     0.198 A 
ATOM     98  C   UNL     1      -3.329   2.717  19.383  1.00  0.00     0.198 A 
ATOM     99  F   UNL     1      -2.044   2.468  17.430  1.00  0.00    -0.203 F 
ATOM    100  F   UNL     1      -6.572   1.362  20.267  1.00  0.00    -0.200 F 
ATOM    101  C   UNL     1      -4.480   2.446  20.108  1.00  0.00     0.200 A 
ATOM    102  F   UNL     1      -2.390   3.524  19.896  1.00  0.00    -0.200 F 
ATOM    103  F   UNL     1      -4.665   3.011  21.309  1.00  0.00    -0.200 F 
ENDBRANCH  70  93
ENDBRANCH  44  45
ENDBRANCH  37  39
ENDBRANCH  36  37
ENDBRANCH  35  36
ENDBRANCH   1  35
TORSDOF 17
