REMARK SMILES CC(C)C[C@H](CNC(=O)Nc1ccccc1Br)C(=O)OCCOC(=O)c1ccc(-c2c3nc(c(-c4c(F)c(F)c(F)c(F)c4F)c4ccc([nH]4)c(-c4c(F)c(F)c(F)c(F)c4F)c4nc(c(-c5c(F)c(F)c(F)c(F)c5F)c5ccc2[nH]5)C=C4)C=C3)cc1
REMARK SMILES IDX 21 1 20 2 18 3 19 4 5 5 4 6 2 7 1 8 3 9 6 10 7 11 8 12 9 14
REMARK SMILES IDX 10 15 11 17 12 18 16 19 13 20 15 21 17 22 14 23 22 24 23 25
REMARK SMILES IDX 24 26 25 27 26 28 27 29 88 30 28 31 87 32 29 33 30 34 31 35
REMARK SMILES IDX 81 36 32 37 86 38 80 39 82 40 33 41 85 42 79 43 78 44 34 46
REMARK SMILES IDX 66 47 46 48 65 49 47 50 50 51 64 52 83 53 48 54 49 55 63 57
REMARK SMILES IDX 84 58 51 59 35 60 36 61 44 62 37 63 38 64 42 65 45 66 39 67
REMARK SMILES IDX 40 68 43 69 41 70 67 71 68 72 76 73 69 74 70 75 74 76 77 77
REMARK SMILES IDX 71 78 72 79 75 80 73 81 52 82 53 83 61 84 54 85 55 86 59 87
REMARK SMILES IDX 62 88 56 89 57 90 60 91 58 92
REMARK H PARENT 7 13 10 16 82 45 50 56
REMARK Flexibility Score: inf
ROOT
ATOM      1  C   UNL     1      -5.263  -1.696   1.239  1.00  0.00     0.274 C 
ENDROOT
BRANCH   1   2
ATOM      2  O   UNL     1      -3.829  -1.796   1.352  1.00  0.00    -0.462 OA
BRANCH   2   3
ATOM      3  C   UNL     1      -3.164  -2.070   0.201  1.00  0.00     0.310 C 
ATOM      4  O   UNL     1      -3.698  -2.271  -0.885  1.00  0.00    -0.252 OA
BRANCH   3   5
ATOM      5  C   UNL     1      -1.661  -2.070   0.364  1.00  0.00     0.119 C 
BRANCH   5   6
ATOM      6  C   UNL     1      -0.928  -3.407   0.557  1.00  0.00     0.020 C 
BRANCH   6   7
ATOM      7  C   UNL     1      -1.704  -4.647   1.026  1.00  0.00    -0.017 C 
ATOM      8  C   UNL     1      -2.646  -5.205  -0.043  1.00  0.00     0.007 C 
ATOM      9  C   UNL     1      -0.686  -5.739   1.391  1.00  0.00     0.007 C 
ENDBRANCH   6   7
ENDBRANCH   5   6
BRANCH   5  10
ATOM     10  C   UNL     1      -1.154  -0.957   1.290  1.00  0.00     0.133 C 
BRANCH  10  11
ATOM     11  N   UNL     1      -1.284  -1.212   2.714  1.00  0.00    -0.337 N 
ATOM     12  C   UNL     1      -0.386  -1.244   3.722  1.00  0.00     0.319 C 
ATOM     13  H   UNL     1      -2.207  -1.398   3.000  1.00  0.00     0.165 HD
ATOM     14  O   UNL     1      -0.750  -1.689   4.812  1.00  0.00    -0.249 OA
ATOM     15  N   UNL     1       0.919  -0.934   3.542  1.00  0.00    -0.307 N 
ATOM     16  H   UNL     1       1.527  -1.339   4.202  1.00  0.00     0.171 HD
BRANCH  15  17
ATOM     17  C   UNL     1       1.559  -0.137   2.579  1.00  0.00     0.057 A 
ATOM     18  C   UNL     1       2.694  -0.699   1.979  1.00  0.00     0.027 A 
ATOM     19  C   UNL     1       1.117   1.130   2.159  1.00  0.00     0.041 A 
ATOM     20  C   UNL     1       3.298  -0.073   0.888  1.00  0.00     0.002 A 
ATOM     21  C   UNL     1       1.734   1.757   1.070  1.00  0.00     0.018 A 
ATOM     22  Br  UNL     1      -0.233   2.109   3.070  1.00  0.00    -0.049 Br
ATOM     23  C   UNL     1       2.806   1.143   0.420  1.00  0.00     0.001 A 
ENDBRANCH  15  17
ENDBRANCH  10  11
ENDBRANCH   5  10
ENDBRANCH   3   5
ENDBRANCH   2   3
ENDBRANCH   1   2
BRANCH   1  24
ATOM     24  C   UNL     1      -5.725  -0.251   1.026  1.00  0.00     0.275 C 
BRANCH  24  25
ATOM     25  O   UNL     1      -5.329   0.249  -0.266  1.00  0.00    -0.458 OA
BRANCH  25  26
ATOM     26  C   UNL     1      -4.247   1.060  -0.269  1.00  0.00     0.338 C 
ATOM     27  O   UNL     1      -3.603   1.446   0.691  1.00  0.00    -0.246 OA
BRANCH  26  28
ATOM     28  C   UNL     1      -3.843   1.340  -1.654  1.00  0.00     0.060 A 
ATOM     29  C   UNL     1      -2.643   0.791  -2.118  1.00  0.00     0.016 A 
ATOM     30  C   UNL     1      -4.586   2.203  -2.458  1.00  0.00     0.016 A 
ATOM     31  C   UNL     1      -2.183   1.088  -3.397  1.00  0.00     0.010 A 
ATOM     32  C   UNL     1      -4.121   2.508  -3.739  1.00  0.00     0.010 A 
ATOM     33  C   UNL     1      -2.916   1.956  -4.213  1.00  0.00    -0.014 A 
BRANCH  33  34
ATOM     34  C   UNL     1      -2.401   2.338  -5.546  1.00  0.00     0.031 A 
ATOM     35  C   UNL     1      -1.795   3.693  -5.744  1.00  0.00     0.074 A 
ATOM     36  C   UNL     1      -2.502   1.480  -6.576  1.00  0.00     0.049 A 
ATOM     37  N   UNL     1      -1.447   4.293  -6.853  1.00  0.00    -0.248 NA
ATOM     38  C   UNL     1      -1.553   4.482  -4.527  1.00  0.00     0.031 C 
ATOM     39  C   UNL     1      -3.024   0.117  -6.489  1.00  0.00     0.029 A 
ATOM     40  N   UNL     1      -2.195   1.641  -7.904  1.00  0.00    -0.354 N 
ATOM     41  C   UNL     1      -0.978   5.542  -6.472  1.00  0.00     0.074 A 
ATOM     42  C   UNL     1      -1.082   5.614  -5.030  1.00  0.00     0.031 C 
ATOM     43  C   UNL     1      -3.031  -0.425  -7.717  1.00  0.00     0.029 A 
ATOM     44  C   UNL     1      -2.563   0.570  -8.679  1.00  0.00     0.049 A 
ATOM     45  H   UNL     1      -1.755   2.444  -8.264  1.00  0.00     0.167 HD
ATOM     46  C   UNL     1      -0.511   6.538  -7.262  1.00  0.00     0.037 A 
ATOM     47  C   UNL     1      -2.572   0.430 -10.018  1.00  0.00     0.037 A 
ATOM     48  C   UNL     1      -0.397   6.448  -8.694  1.00  0.00     0.049 A 
ATOM     49  C   UNL     1      -2.099   1.567 -10.880  1.00  0.00     0.074 A 
ATOM     50  C   UNL     1       0.093   7.388  -9.583  1.00  0.00     0.029 A 
ATOM     51  N   UNL     1      -0.785   5.348  -9.446  1.00  0.00    -0.354 N 
ATOM     52  N   UNL     1      -1.659   2.749 -10.520  1.00  0.00    -0.248 NA
ATOM     53  C   UNL     1      -2.131   1.358 -12.335  1.00  0.00     0.031 C 
ATOM     54  C   UNL     1      -0.037   6.873 -10.877  1.00  0.00     0.029 A 
ATOM     55  C   UNL     1      -0.569   5.596 -10.792  1.00  0.00     0.049 A 
ATOM     56  H   UNL     1      -1.159   4.515  -9.078  1.00  0.00     0.167 HD
ATOM     57  C   UNL     1      -1.350   3.418 -11.695  1.00  0.00     0.074 A 
ATOM     58  C   UNL     1      -1.643   2.507 -12.783  1.00  0.00     0.031 C 
ATOM     59  C   UNL     1      -0.866   4.674 -11.858  1.00  0.00     0.037 A 
BRANCH  46  60
ATOM     60  C   UNL     1      -0.135   7.826  -6.595  1.00  0.00     0.064 A 
ATOM     61  C   UNL     1       1.028   7.948  -5.821  1.00  0.00     0.173 A 
ATOM     62  C   UNL     1      -0.947   8.960  -6.745  1.00  0.00     0.173 A 
ATOM     63  F   UNL     1       1.829   6.888  -5.634  1.00  0.00    -0.203 F 
ATOM     64  C   UNL     1       1.350   9.153  -5.200  1.00  0.00     0.198 A 
ATOM     65  C   UNL     1      -0.610  10.168  -6.143  1.00  0.00     0.198 A 
ATOM     66  F   UNL     1      -2.070   8.895  -7.477  1.00  0.00    -0.203 F 
ATOM     67  F   UNL     1       2.441   9.235  -4.427  1.00  0.00    -0.200 F 
ATOM     68  C   UNL     1       0.533  10.262  -5.365  1.00  0.00     0.200 A 
ATOM     69  F   UNL     1      -1.396  11.241  -6.309  1.00  0.00    -0.200 F 
ATOM     70  F   UNL     1       0.844  11.420  -4.765  1.00  0.00    -0.200 F 
ENDBRANCH  46  60
BRANCH  47  71
ATOM     71  C   UNL     1      -3.092  -0.825 -10.616  1.00  0.00     0.064 A 
ATOM     72  C   UNL     1      -2.233  -1.749 -11.224  1.00  0.00     0.173 A 
ATOM     73  C   UNL     1      -4.460  -1.137 -10.565  1.00  0.00     0.173 A 
ATOM     74  F   UNL     1      -0.923  -1.483 -11.318  1.00  0.00    -0.203 F 
ATOM     75  C   UNL     1      -2.723  -2.939 -11.760  1.00  0.00     0.198 A 
ATOM     76  C   UNL     1      -4.944  -2.337 -11.079  1.00  0.00     0.198 A 
ATOM     77  F   UNL     1      -5.322  -0.283  -9.994  1.00  0.00    -0.203 F 
ATOM     78  F   UNL     1      -1.885  -3.795 -12.360  1.00  0.00    -0.200 F 
ATOM     79  C   UNL     1      -4.076  -3.236 -11.679  1.00  0.00     0.200 A 
ATOM     80  F   UNL     1      -6.250  -2.624 -10.988  1.00  0.00    -0.200 F 
ATOM     81  F   UNL     1      -4.543  -4.386 -12.183  1.00  0.00    -0.200 F 
ENDBRANCH  47  71
BRANCH  59  82
ATOM     82  C   UNL     1      -0.599   5.131 -13.261  1.00  0.00     0.064 A 
ATOM     83  C   UNL     1      -1.642   5.515 -14.116  1.00  0.00     0.173 A 
ATOM     84  C   UNL     1       0.717   5.248 -13.730  1.00  0.00     0.173 A 
ATOM     85  F   UNL     1      -2.918   5.405 -13.716  1.00  0.00    -0.203 F 
ATOM     86  C   UNL     1      -1.375   5.991 -15.397  1.00  0.00     0.198 A 
ATOM     87  C   UNL     1       0.981   5.745 -15.002  1.00  0.00     0.198 A 
ATOM     88  F   UNL     1       1.748   4.898 -12.945  1.00  0.00    -0.203 F 
ATOM     89  F   UNL     1      -2.387   6.326 -16.209  1.00  0.00    -0.200 F 
ATOM     90  C   UNL     1      -0.065   6.113 -15.835  1.00  0.00     0.200 A 
ATOM     91  F   UNL     1       2.248   5.873 -15.421  1.00  0.00    -0.200 F 
ATOM     92  F   UNL     1       0.191   6.583 -17.064  1.00  0.00    -0.200 F 
ENDBRANCH  59  82
ENDBRANCH  33  34
ENDBRANCH  26  28
ENDBRANCH  25  26
ENDBRANCH  24  25
ENDBRANCH   1  24
TORSDOF 16
