REMARK SMILES COc1ccc([C@@H]2Nc3c(C(=O)OCCOC(=O)c4ccc(-c5c6nc(c(-c7c(F)c(F)c(F)c(F)c7F)c7ccc([nH]7)c(-c7c(F)c(F)c(F)c(F)c7F)c7nc(c(-c8c(F)c(F)c(F)c(F)c8F)c8ccc5[nH]8)C=C7)C=C6)cc4)cccc3[C@@H]3[C@H]4CC[C@H](C4)[C@H]32)cc1[N+](=O)[O-]
REMARK SMILES IDX 14 1 13 2 11 3 12 4 10 5 7 6 8 7 92 8 9 9 86 11 90 12 85 13
REMARK SMILES IDX 87 14 89 15 91 16 82 17 84 18 88 19 83 20 6 21 3 22 4 23
REMARK SMILES IDX 94 24 5 25 93 26 2 27 1 28 95 29 96 30 97 31 15 32 16 33
REMARK SMILES IDX 17 34 18 35 19 36 20 37 81 38 21 39 80 40 22 41 23 42 24 43
REMARK SMILES IDX 74 44 25 45 79 46 73 47 75 48 26 49 78 50 72 51 71 52 27 54
REMARK SMILES IDX 59 55 39 56 58 57 40 58 43 59 57 60 76 61 41 62 42 63 56 65
REMARK SMILES IDX 77 66 44 67 28 68 29 69 37 70 30 71 31 72 35 73 38 74 32 75
REMARK SMILES IDX 33 76 36 77 34 78 60 79 61 80 69 81 62 82 63 83 67 84 70 85
REMARK SMILES IDX 64 86 65 87 68 88 66 89 45 90 46 91 54 92 47 93 48 94 52 95
REMARK SMILES IDX 55 96 49 97 50 98 53 99 51 100
REMARK H PARENT 8 10 75 53 43 64
REMARK Flexibility Score: inf
ROOT
ATOM      1  C   UNL     1       0.236   9.621  -8.012  1.00  0.00     0.275 C 
ENDROOT
BRANCH   1   2
ATOM      2  O   UNL     1       0.182   9.026  -6.697  1.00  0.00    -0.458 OA
BRANCH   2   3
ATOM      3  C   UNL     1       0.561   9.812  -5.656  1.00  0.00     0.340 C 
ATOM      4  O   UNL     1       1.058  10.925  -5.718  1.00  0.00    -0.246 OA
BRANCH   3   5
ATOM      5  C   UNL     1       0.031   9.219  -4.411  1.00  0.00     0.083 A 
ATOM      6  C   UNL     1       2.010   6.092  -3.639  1.00  0.00     0.114 C 
ATOM      7  N   UNL     1       1.432   7.196  -4.435  1.00  0.00    -0.377 N 
ATOM      8  C   UNL     1       1.456   6.215  -2.223  1.00  0.00     0.027 C 
ATOM      9  C   UNL     1       0.308   7.916  -3.982  1.00  0.00     0.053 A 
ATOM     10  H   UNL     1       1.840   7.432  -5.299  1.00  0.00     0.161 HD
ATOM     11  C   UNL     1      -0.068   6.066  -2.360  1.00  0.00     0.030 C 
ATOM     12  C   UNL     1       1.794   5.358  -1.003  1.00  0.00    -0.005 C 
ATOM     13  C   UNL     1      -0.452   7.425  -2.869  1.00  0.00    -0.020 A 
ATOM     14  C   UNL     1      -0.448   5.455  -0.991  1.00  0.00    -0.003 C 
ATOM     15  C   UNL     1       1.392   3.894  -1.183  1.00  0.00     0.004 C 
ATOM     16  C   UNL     1       0.689   5.883  -0.060  1.00  0.00     0.008 C 
ATOM     17  C   UNL     1      -0.815  10.045  -3.652  1.00  0.00     0.018 A 
ATOM     18  C   UNL     1      -1.416   8.206  -2.227  1.00  0.00     0.006 A 
ATOM     19  C   UNL     1      -0.144   3.939  -1.083  1.00  0.00     0.004 C 
ATOM     20  C   UNL     1      -1.562   9.535  -2.592  1.00  0.00     0.001 A 
BRANCH   6  21
ATOM     21  C   UNL     1       3.526   6.144  -3.603  1.00  0.00    -0.018 A 
ATOM     22  C   UNL     1       6.308   6.043  -3.105  1.00  0.00     0.196 A 
ATOM     23  C   UNL     1       5.585   7.208  -2.839  1.00  0.00     0.054 A 
ATOM     24  C   UNL     1       5.640   4.942  -3.643  1.00  0.00     0.311 A 
ATOM     25  C   UNL     1       4.211   7.264  -3.101  1.00  0.00     0.010 A 
ATOM     26  C   UNL     1       4.262   4.989  -3.908  1.00  0.00     0.095 A 
BRANCH  22  27
ATOM     27  O   UNL     1       7.613   6.020  -2.703  1.00  0.00    -0.490 OA
ATOM     28  C   UNL     1       8.503   6.286  -3.785  1.00  0.00     0.278 C 
ENDBRANCH  22  27
BRANCH  24  29
ATOM     29  N   UNL     1       6.334   3.692  -3.903  1.00  0.00     0.066 N 
ATOM     30  O   UNL     1       6.106   3.146  -4.993  1.00  0.00    -0.258 OA
ATOM     31  O   UNL     1       7.074   3.237  -3.022  1.00  0.00    -0.258 OA
ENDBRANCH  24  29
ENDBRANCH   6  21
ENDBRANCH   3   5
ENDBRANCH   2   3
ENDBRANCH   1   2
BRANCH   1  32
ATOM     32  C   UNL     1      -1.168   9.640  -8.622  1.00  0.00     0.275 C 
BRANCH  32  33
ATOM     33  O   UNL     1      -2.006  10.520  -7.847  1.00  0.00    -0.458 OA
BRANCH  33  34
ATOM     34  C   UNL     1      -3.298  10.137  -7.706  1.00  0.00     0.338 C 
ATOM     35  O   UNL     1      -3.850   9.173  -8.204  1.00  0.00    -0.246 OA
BRANCH  34  36
ATOM     36  C   UNL     1      -3.980  11.087  -6.804  1.00  0.00     0.060 A 
ATOM     37  C   UNL     1      -3.478  11.269  -5.520  1.00  0.00     0.016 A 
ATOM     38  C   UNL     1      -5.159  11.725  -7.181  1.00  0.00     0.016 A 
ATOM     39  C   UNL     1      -4.155  12.058  -4.591  1.00  0.00     0.010 A 
ATOM     40  C   UNL     1      -5.813  12.568  -6.269  1.00  0.00     0.010 A 
ATOM     41  C   UNL     1      -5.334  12.724  -4.953  1.00  0.00    -0.014 A 
BRANCH  41  42
ATOM     42  C   UNL     1      -6.084  13.520  -3.937  1.00  0.00     0.031 A 
ATOM     43  C   UNL     1      -7.475  13.112  -3.523  1.00  0.00     0.074 A 
ATOM     44  C   UNL     1      -5.513  14.589  -3.344  1.00  0.00     0.049 A 
ATOM     45  N   UNL     1      -8.314  13.715  -2.716  1.00  0.00    -0.248 NA
ATOM     46  C   UNL     1      -7.994  11.862  -4.097  1.00  0.00     0.031 C 
ATOM     47  C   UNL     1      -4.165  15.088  -3.615  1.00  0.00     0.029 A 
ATOM     48  N   UNL     1      -5.994  15.443  -2.379  1.00  0.00    -0.354 N 
ATOM     49  C   UNL     1      -9.470  12.944  -2.720  1.00  0.00     0.074 A 
ATOM     50  C   UNL     1      -9.230  11.835  -3.619  1.00  0.00     0.031 C 
ATOM     51  C   UNL     1      -3.914  16.134  -2.812  1.00  0.00     0.029 A 
ATOM     52  C   UNL     1      -5.103  16.423  -2.015  1.00  0.00     0.049 A 
ATOM     53  H   UNL     1      -6.893  15.360  -1.985  1.00  0.00     0.167 HD
ATOM     54  C   UNL     1     -10.623  13.135  -2.034  1.00  0.00     0.037 A 
ATOM     55  C   UNL     1      -5.231  17.454  -1.157  1.00  0.00     0.037 A 
ATOM     56  C   UNL     1     -10.856  14.208  -1.101  1.00  0.00     0.049 A 
ATOM     57  C   UNL     1      -6.529  17.656  -0.422  1.00  0.00     0.074 A 
ATOM     58  C   UNL     1     -11.988  14.464  -0.344  1.00  0.00     0.029 A 
ATOM     59  N   UNL     1      -9.937  15.197  -0.786  1.00  0.00    -0.354 N 
ATOM     60  N   UNL     1      -7.621  16.933  -0.456  1.00  0.00    -0.248 NA
ATOM     61  C   UNL     1      -6.613  18.827   0.463  1.00  0.00     0.031 C 
ATOM     62  C   UNL     1     -11.767  15.629   0.400  1.00  0.00     0.029 A 
ATOM     63  C   UNL     1     -10.482  16.073   0.141  1.00  0.00     0.049 A 
ATOM     64  H   UNL     1      -9.031  15.267  -1.165  1.00  0.00     0.167 HD
ATOM     65  C   UNL     1      -8.515  17.553   0.406  1.00  0.00     0.074 A 
ATOM     66  C   UNL     1      -7.829  18.695   0.972  1.00  0.00     0.031 C 
ATOM     67  C   UNL     1      -9.795  17.211   0.695  1.00  0.00     0.037 A 
BRANCH  54  68
ATOM     68  C   UNL     1     -11.747  12.171  -2.285  1.00  0.00     0.064 A 
ATOM     69  C   UNL     1     -11.719  10.856  -1.799  1.00  0.00     0.173 A 
ATOM     70  C   UNL     1     -12.889  12.587  -2.989  1.00  0.00     0.173 A 
ATOM     71  F   UNL     1     -10.646  10.407  -1.132  1.00  0.00    -0.203 F 
ATOM     72  C   UNL     1     -12.781   9.985  -2.029  1.00  0.00     0.198 A 
ATOM     73  C   UNL     1     -13.961  11.723  -3.192  1.00  0.00     0.198 A 
ATOM     74  F   UNL     1     -12.970  13.837  -3.468  1.00  0.00    -0.203 F 
ATOM     75  F   UNL     1     -12.714   8.720  -1.593  1.00  0.00    -0.200 F 
ATOM     76  C   UNL     1     -13.903  10.421  -2.719  1.00  0.00     0.200 A 
ATOM     77  F   UNL     1     -15.049  12.149  -3.847  1.00  0.00    -0.200 F 
ATOM     78  F   UNL     1     -14.928   9.583  -2.932  1.00  0.00    -0.200 F 
ENDBRANCH  54  68
BRANCH  55  79
ATOM     79  C   UNL     1      -4.099  18.398  -0.957  1.00  0.00     0.064 A 
ATOM     80  C   UNL     1      -3.410  18.452   0.263  1.00  0.00     0.173 A 
ATOM     81  C   UNL     1      -3.694  19.274  -1.975  1.00  0.00     0.173 A 
ATOM     82  F   UNL     1      -3.780  17.656   1.277  1.00  0.00    -0.203 F 
ATOM     83  C   UNL     1      -2.367  19.355   0.460  1.00  0.00     0.198 A 
ATOM     84  C   UNL     1      -2.631  20.154  -1.787  1.00  0.00     0.198 A 
ATOM     85  F   UNL     1      -4.325  19.266  -3.158  1.00  0.00    -0.203 F 
ATOM     86  F   UNL     1      -1.755  19.418   1.650  1.00  0.00    -0.200 F 
ATOM     87  C   UNL     1      -1.973  20.199  -0.567  1.00  0.00     0.200 A 
ATOM     88  F   UNL     1      -2.248  20.960  -2.786  1.00  0.00    -0.200 F 
ATOM     89  F   UNL     1      -0.966  21.063  -0.379  1.00  0.00    -0.200 F 
ENDBRANCH  55  79
BRANCH  67  90
ATOM     90  C   UNL     1     -10.527  18.074   1.681  1.00  0.00     0.064 A 
ATOM     91  C   UNL     1     -10.951  19.370   1.350  1.00  0.00     0.173 A 
ATOM     92  C   UNL     1     -10.813  17.600   2.970  1.00  0.00     0.173 A 
ATOM     93  F   UNL     1     -10.687  19.876   0.136  1.00  0.00    -0.203 F 
ATOM     94  C   UNL     1     -11.604  20.171   2.283  1.00  0.00     0.198 A 
ATOM     95  C   UNL     1     -11.492  18.393   3.892  1.00  0.00     0.198 A 
ATOM     96  F   UNL     1     -10.435  16.366   3.337  1.00  0.00    -0.203 F 
ATOM     97  F   UNL     1     -11.949  21.426   1.962  1.00  0.00    -0.200 F 
ATOM     98  C   UNL     1     -11.877  19.681   3.552  1.00  0.00     0.200 A 
ATOM     99  F   UNL     1     -11.764  17.915   5.114  1.00  0.00    -0.200 F 
ATOM    100  F   UNL     1     -12.502  20.454   4.450  1.00  0.00    -0.200 F 
ENDBRANCH  67  90
ENDBRANCH  41  42
ENDBRANCH  34  36
ENDBRANCH  33  34
ENDBRANCH  32  33
ENDBRANCH   1  32
TORSDOF 14
