REMARK SMILES CC(C)(C)C(=O)C[N@H+]1CCCC[C@H]1C(=O)OCCOC(=O)c1ccc(-c2c3nc(c(-c4c(F)c(F)c(F)c(F)c4F)c4ccc([nH]4)c(-c4c(F)c(F)c(F)c(F)c4F)c4nc(c(-c5c(F)c(F)c(F)c(F)c5F)c5ccc2[nH]5)C=C4)C=C3)cc1
REMARK SMILES IDX 17 1 16 2 14 3 15 4 13 5 8 6 9 7 10 9 12 10 11 11 7 12 5 13
REMARK SMILES IDX 6 14 2 15 1 16 3 17 4 18 18 19 19 20 20 21 21 22 22 23 23 24
REMARK SMILES IDX 84 25 24 26 83 27 25 28 26 29 27 30 77 31 28 32 82 33 76 34
REMARK SMILES IDX 78 35 29 36 81 37 75 38 74 39 30 41 62 42 42 43 61 44 43 45
REMARK SMILES IDX 46 46 60 47 79 48 44 49 45 50 59 52 80 53 47 54 31 55 32 56
REMARK SMILES IDX 40 57 33 58 34 59 38 60 41 61 35 62 36 63 39 64 37 65 63 66
REMARK SMILES IDX 64 67 72 68 65 69 66 70 70 71 73 72 67 73 68 74 71 75 69 76
REMARK SMILES IDX 48 77 49 78 57 79 50 80 51 81 55 82 58 83 52 84 53 85 56 86
REMARK SMILES IDX 54 87
REMARK H PARENT 8 8 78 40 46 51
REMARK Flexibility Score: inf
ROOT
ATOM      1  C   UNL     1       5.295  -4.840  -3.231  1.00  0.00     0.274 C 
ENDROOT
BRANCH   1   2
ATOM      2  O   UNL     1       4.722  -4.646  -1.920  1.00  0.00    -0.458 OA
BRANCH   2   3
ATOM      3  C   UNL     1       3.378  -4.394  -1.886  1.00  0.00     0.365 C 
ATOM      4  O   UNL     1       2.673  -4.381  -2.887  1.00  0.00    -0.245 OA
BRANCH   3   5
ATOM      5  C   UNL     1       2.909  -4.031  -0.454  1.00  0.00     0.295 C 
ATOM      6  N   UNL     1       1.424  -3.996  -0.257  1.00  0.00    -0.317 N 
ATOM      7  C   UNL     1       0.805  -5.318  -0.235  1.00  0.00     0.263 C 
ATOM      8  H   UNL     1       1.337  -3.593   0.676  1.00  0.00     0.349 HD
ATOM      9  C   UNL     1       1.402  -6.212   0.843  1.00  0.00     0.062 C 
ATOM     10  C   UNL     1       3.540  -4.930   0.629  1.00  0.00     0.078 C 
ATOM     11  C   UNL     1       2.911  -6.319   0.692  1.00  0.00     0.013 C 
BRANCH   6  12
ATOM     12  C   UNL     1       0.690  -3.093  -1.159  1.00  0.00     0.340 C 
BRANCH  12  13
ATOM     13  C   UNL     1       1.078  -1.641  -0.909  1.00  0.00     0.192 C 
ATOM     14  O   UNL     1       1.929  -1.102  -1.625  1.00  0.00    -0.293 OA
BRANCH  13  15
ATOM     15  C   UNL     1       0.431  -0.901   0.282  1.00  0.00     0.026 C 
ATOM     16  C   UNL     1       0.929   0.554   0.291  1.00  0.00     0.019 C 
ATOM     17  C   UNL     1       0.836  -1.567   1.603  1.00  0.00     0.019 C 
ATOM     18  C   UNL     1      -1.098  -0.892   0.142  1.00  0.00     0.019 C 
ENDBRANCH  13  15
ENDBRANCH  12  13
ENDBRANCH   6  12
ENDBRANCH   3   5
ENDBRANCH   2   3
ENDBRANCH   1   2
BRANCH   1  19
ATOM     19  C   UNL     1       5.371  -6.324  -3.594  1.00  0.00     0.275 C 
BRANCH  19  20
ATOM     20  O   UNL     1       4.044  -6.871  -3.672  1.00  0.00    -0.458 OA
BRANCH  20  21
ATOM     21  C   UNL     1       3.865  -8.109  -3.154  1.00  0.00     0.338 C 
ATOM     22  O   UNL     1       4.733  -8.849  -2.725  1.00  0.00    -0.246 OA
BRANCH  21  23
ATOM     23  C   UNL     1       2.417  -8.449  -3.116  1.00  0.00     0.060 A 
ATOM     24  C   UNL     1       1.442  -7.457  -3.116  1.00  0.00     0.016 A 
ATOM     25  C   UNL     1       2.019  -9.778  -2.968  1.00  0.00     0.016 A 
ATOM     26  C   UNL     1       0.108  -7.769  -2.840  1.00  0.00     0.010 A 
ATOM     27  C   UNL     1       0.659 -10.098  -2.818  1.00  0.00     0.010 A 
ATOM     28  C   UNL     1      -0.321  -9.095  -2.709  1.00  0.00    -0.014 A 
BRANCH  28  29
ATOM     29  C   UNL     1      -1.754  -9.428  -2.416  1.00  0.00     0.031 A 
ATOM     30  C   UNL     1      -2.098 -10.408  -1.319  1.00  0.00     0.074 A 
ATOM     31  C   UNL     1      -2.778  -8.859  -3.089  1.00  0.00     0.049 A 
ATOM     32  N   UNL     1      -3.206 -11.080  -1.121  1.00  0.00    -0.248 NA
ATOM     33  C   UNL     1      -1.051 -10.680  -0.322  1.00  0.00     0.031 C 
ATOM     34  C   UNL     1      -2.662  -7.827  -4.119  1.00  0.00     0.029 A 
ATOM     35  N   UNL     1      -4.137  -9.063  -2.990  1.00  0.00    -0.354 N 
ATOM     36  C   UNL     1      -2.951 -11.928  -0.050  1.00  0.00     0.074 A 
ATOM     37  C   UNL     1      -1.597 -11.661   0.385  1.00  0.00     0.031 C 
ATOM     38  C   UNL     1      -3.886  -7.430  -4.492  1.00  0.00     0.029 A 
ATOM     39  C   UNL     1      -4.876  -8.283  -3.846  1.00  0.00     0.049 A 
ATOM     40  H   UNL     1      -4.540  -9.707  -2.364  1.00  0.00     0.167 HD
ATOM     41  C   UNL     1      -3.769 -12.856   0.504  1.00  0.00     0.037 A 
ATOM     42  C   UNL     1      -6.189  -8.291  -4.147  1.00  0.00     0.037 A 
ATOM     43  C   UNL     1      -5.151 -13.047   0.141  1.00  0.00     0.049 A 
ATOM     44  C   UNL     1      -7.078  -9.343  -3.548  1.00  0.00     0.074 A 
ATOM     45  C   UNL     1      -6.060 -13.965   0.642  1.00  0.00     0.029 A 
ATOM     46  N   UNL     1      -5.836 -12.277  -0.786  1.00  0.00    -0.354 N 
ATOM     47  N   UNL     1      -6.787 -10.266  -2.666  1.00  0.00    -0.248 NA
ATOM     48  C   UNL     1      -8.465  -9.388  -4.032  1.00  0.00     0.031 C 
ATOM     49  C   UNL     1      -7.290 -13.761   0.005  1.00  0.00     0.029 A 
ATOM     50  C   UNL     1      -7.155 -12.696  -0.868  1.00  0.00     0.049 A 
ATOM     51  H   UNL     1      -5.443 -11.541  -1.308  1.00  0.00     0.167 HD
ATOM     52  C   UNL     1      -7.947 -11.008  -2.497  1.00  0.00     0.074 A 
ATOM     53  C   UNL     1      -8.957 -10.410  -3.345  1.00  0.00     0.031 C 
ATOM     54  C   UNL     1      -8.149 -12.099  -1.720  1.00  0.00     0.037 A 
BRANCH  41  55
ATOM     55  C   UNL     1      -3.183 -13.782   1.530  1.00  0.00     0.064 A 
ATOM     56  C   UNL     1      -2.899 -13.369   2.838  1.00  0.00     0.173 A 
ATOM     57  C   UNL     1      -2.950 -15.127   1.200  1.00  0.00     0.173 A 
ATOM     58  F   UNL     1      -3.091 -12.092   3.199  1.00  0.00    -0.203 F 
ATOM     59  C   UNL     1      -2.384 -14.264   3.773  1.00  0.00     0.198 A 
ATOM     60  C   UNL     1      -2.461 -16.025   2.144  1.00  0.00     0.198 A 
ATOM     61  F   UNL     1      -3.212 -15.575  -0.037  1.00  0.00    -0.203 F 
ATOM     62  F   UNL     1      -2.082 -13.840   5.008  1.00  0.00    -0.200 F 
ATOM     63  C   UNL     1      -2.173 -15.592   3.429  1.00  0.00     0.200 A 
ATOM     64  F   UNL     1      -2.271 -17.310   1.812  1.00  0.00    -0.200 F 
ATOM     65  F   UNL     1      -1.687 -16.453   4.334  1.00  0.00    -0.200 F 
ENDBRANCH  41  55
BRANCH  42  66
ATOM     66  C   UNL     1      -6.726  -7.317  -5.133  1.00  0.00     0.064 A 
ATOM     67  C   UNL     1      -7.589  -6.290  -4.729  1.00  0.00     0.173 A 
ATOM     68  C   UNL     1      -6.371  -7.378  -6.489  1.00  0.00     0.173 A 
ATOM     69  F   UNL     1      -7.986  -6.213  -3.451  1.00  0.00    -0.203 F 
ATOM     70  C   UNL     1      -8.066  -5.353  -5.644  1.00  0.00     0.198 A 
ATOM     71  C   UNL     1      -6.822  -6.421  -7.395  1.00  0.00     0.198 A 
ATOM     72  F   UNL     1      -5.556  -8.348  -6.927  1.00  0.00    -0.203 F 
ATOM     73  F   UNL     1      -8.912  -4.395  -5.239  1.00  0.00    -0.200 F 
ATOM     74  C   UNL     1      -7.672  -5.411  -6.972  1.00  0.00     0.200 A 
ATOM     75  F   UNL     1      -6.425  -6.473  -8.674  1.00  0.00    -0.200 F 
ATOM     76  F   UNL     1      -8.113  -4.496  -7.846  1.00  0.00    -0.200 F 
ENDBRANCH  42  66
BRANCH  54  77
ATOM     77  C   UNL     1      -9.519 -12.705  -1.741  1.00  0.00     0.064 A 
ATOM     78  C   UNL     1      -9.955 -13.484  -2.822  1.00  0.00     0.173 A 
ATOM     79  C   UNL     1     -10.398 -12.518  -0.664  1.00  0.00     0.173 A 
ATOM     80  F   UNL     1      -9.156 -13.675  -3.882  1.00  0.00    -0.203 F 
ATOM     81  C   UNL     1     -11.232 -14.039  -2.833  1.00  0.00     0.198 A 
ATOM     82  C   UNL     1     -11.667 -13.091  -0.670  1.00  0.00     0.198 A 
ATOM     83  F   UNL     1     -10.025 -11.781   0.393  1.00  0.00    -0.203 F 
ATOM     84  F   UNL     1     -11.645 -14.746  -3.894  1.00  0.00    -0.200 F 
ATOM     85  C   UNL     1     -12.085 -13.845  -1.756  1.00  0.00     0.200 A 
ATOM     86  F   UNL     1     -12.488 -12.907   0.373  1.00  0.00    -0.200 F 
ATOM     87  F   UNL     1     -13.315 -14.377  -1.770  1.00  0.00    -0.200 F 
ENDBRANCH  54  77
ENDBRANCH  28  29
ENDBRANCH  21  23
ENDBRANCH  20  21
ENDBRANCH  19  20
ENDBRANCH   1  19
TORSDOF 14
