REMARK SMILES COC(=O)[C@@H]([NH2+]CC(C)(C)C(=O)OCCOC(=O)c1ccc(-c2c3nc(c(-c4c(F)c(F)c(F)c(F)c4F)c4ccc([nH]4)c(-c4c(F)c(F)c(F)c(F)c4F)c4nc(c(-c5c(F)c(F)c(F)c(F)c5F)c5ccc2[nH]5)C=C4)C=C3)cc1)c1ccccc1
REMARK SMILES IDX 13 1 11 2 12 3 8 4 9 5 10 6 7 7 6 8 5 11 3 12 4 13 2 14 1 15
REMARK SMILES IDX 82 16 83 17 87 18 84 19 86 20 85 21 14 22 15 23 16 24 17 25
REMARK SMILES IDX 18 26 19 27 20 28 81 29 21 30 80 31 22 32 23 33 24 34 74 35
REMARK SMILES IDX 25 36 79 37 73 38 75 39 26 40 78 41 72 42 71 43 27 45 59 46
REMARK SMILES IDX 39 47 58 48 40 49 43 50 57 51 76 52 41 53 42 54 56 56 77 57
REMARK SMILES IDX 44 58 28 59 29 60 37 61 30 62 31 63 35 64 38 65 32 66 33 67
REMARK SMILES IDX 36 68 34 69 60 70 61 71 69 72 62 73 63 74 67 75 70 76 64 77
REMARK SMILES IDX 65 78 68 79 66 80 45 81 46 82 54 83 47 84 48 85 52 86 55 87
REMARK SMILES IDX 49 88 50 89 53 90 51 91
REMARK H PARENT 6 9 6 10 75 44 43 55
REMARK Flexibility Score: inf
ROOT
ATOM      1  O   UNL     1       0.629  -6.407   4.402  1.00  0.00    -0.461 OA
ENDROOT
BRANCH   1   2
ATOM      2  C   UNL     1       0.584  -5.068   4.221  1.00  0.00     0.317 C 
ATOM      3  O   UNL     1      -0.238  -4.564   3.497  1.00  0.00    -0.251 OA
BRANCH   2   4
ATOM      4  C   UNL     1       1.548  -4.213   4.992  1.00  0.00     0.111 C 
ATOM      5  C   UNL     1       3.002  -4.661   4.827  1.00  0.00     0.029 C 
ATOM      6  C   UNL     1       1.158  -4.398   6.481  1.00  0.00     0.029 C 
BRANCH   4   7
ATOM      7  C   UNL     1       1.399  -2.686   4.556  1.00  0.00     0.279 C 
BRANCH   7   8
ATOM      8  N   UNL     1       1.139  -2.029   3.245  1.00  0.00    -0.330 N 
ATOM      9  H   UNL     1       0.325  -1.436   3.405  1.00  0.00     0.347 HD
ATOM     10  H   UNL     1       2.072  -1.666   3.054  1.00  0.00     0.347 HD
BRANCH   8  11
ATOM     11  C   UNL     1       0.871  -2.710   1.932  1.00  0.00     0.324 C 
BRANCH  11  12
ATOM     12  C   UNL     1       1.620  -1.938   0.802  1.00  0.00     0.369 C 
ATOM     13  O   UNL     1       2.228  -2.469  -0.119  1.00  0.00    -0.245 OA
BRANCH  12  14
ATOM     14  O   UNL     1       1.411  -0.585   0.910  1.00  0.00    -0.464 OA
ATOM     15  C   UNL     1       1.558   0.118  -0.323  1.00  0.00     0.282 C 
ENDBRANCH  12  14
ENDBRANCH  11  12
BRANCH  11  16
ATOM     16  C   UNL     1      -0.608  -2.798   1.450  1.00  0.00     0.021 A 
ATOM     17  C   UNL     1      -1.405  -1.668   1.235  1.00  0.00     0.010 A 
ATOM     18  C   UNL     1      -1.198  -4.024   1.094  1.00  0.00     0.010 A 
ATOM     19  C   UNL     1      -2.745  -1.749   0.825  1.00  0.00     0.001 A 
ATOM     20  C   UNL     1      -2.548  -4.127   0.723  1.00  0.00     0.001 A 
ATOM     21  C   UNL     1      -3.330  -2.987   0.604  1.00  0.00     0.000 A 
ENDBRANCH  11  16
ENDBRANCH   8  11
ENDBRANCH   7   8
ENDBRANCH   4   7
ENDBRANCH   2   4
ENDBRANCH   1   2
BRANCH   1  22
ATOM     22  C   UNL     1      -0.251  -7.102   3.483  1.00  0.00     0.274 C 
BRANCH  22  23
ATOM     23  C   UNL     1      -1.774  -7.051   3.800  1.00  0.00     0.275 C 
BRANCH  23  24
ATOM     24  O   UNL     1      -2.430  -5.760   3.642  1.00  0.00    -0.458 OA
BRANCH  24  25
ATOM     25  C   UNL     1      -2.674  -5.042   4.776  1.00  0.00     0.338 C 
ATOM     26  O   UNL     1      -2.509  -5.449   5.917  1.00  0.00    -0.246 OA
BRANCH  25  27
ATOM     27  C   UNL     1      -2.982  -3.603   4.500  1.00  0.00     0.060 A 
ATOM     28  C   UNL     1      -2.055  -2.651   4.937  1.00  0.00     0.016 A 
ATOM     29  C   UNL     1      -4.156  -3.137   3.925  1.00  0.00     0.016 A 
ATOM     30  C   UNL     1      -2.208  -1.269   4.725  1.00  0.00     0.010 A 
ATOM     31  C   UNL     1      -4.333  -1.742   3.732  1.00  0.00     0.010 A 
ATOM     32  C   UNL     1      -3.354  -0.780   4.109  1.00  0.00    -0.014 A 
BRANCH  32  33
ATOM     33  C   UNL     1      -3.635   0.700   3.989  1.00  0.00     0.031 A 
ATOM     34  C   UNL     1      -4.832   1.243   4.720  1.00  0.00     0.074 A 
ATOM     35  C   UNL     1      -2.903   1.593   3.282  1.00  0.00     0.049 A 
ATOM     36  N   UNL     1      -5.425   2.406   4.620  1.00  0.00    -0.248 NA
ATOM     37  C   UNL     1      -5.431   0.341   5.713  1.00  0.00     0.031 C 
ATOM     38  C   UNL     1      -1.598   1.360   2.685  1.00  0.00     0.029 A 
ATOM     39  N   UNL     1      -3.188   2.894   2.902  1.00  0.00    -0.354 N 
ATOM     40  C   UNL     1      -6.472   2.366   5.528  1.00  0.00     0.074 A 
ATOM     41  C   UNL     1      -6.491   1.033   6.092  1.00  0.00     0.031 C 
ATOM     42  C   UNL     1      -1.271   2.387   1.880  1.00  0.00     0.029 A 
ATOM     43  C   UNL     1      -2.312   3.405   1.965  1.00  0.00     0.049 A 
ATOM     44  H   UNL     1      -3.946   3.406   3.266  1.00  0.00     0.167 HD
ATOM     45  C   UNL     1      -7.309   3.359   5.911  1.00  0.00     0.037 A 
ATOM     46  C   UNL     1      -2.325   4.561   1.265  1.00  0.00     0.037 A 
ATOM     47  C   UNL     1      -7.271   4.706   5.412  1.00  0.00     0.049 A 
ATOM     48  C   UNL     1      -3.357   5.613   1.588  1.00  0.00     0.074 A 
ATOM     49  C   UNL     1      -8.064   5.780   5.777  1.00  0.00     0.029 A 
ATOM     50  N   UNL     1      -6.392   5.169   4.446  1.00  0.00    -0.354 N 
ATOM     51  N   UNL     1      -4.328   5.572   2.465  1.00  0.00    -0.248 NA
ATOM     52  C   UNL     1      -3.252   6.898   0.876  1.00  0.00     0.031 C 
ATOM     53  C   UNL     1      -7.698   6.881   4.997  1.00  0.00     0.029 A 
ATOM     54  C   UNL     1      -6.640   6.508   4.185  1.00  0.00     0.049 A 
ATOM     55  H   UNL     1      -5.694   4.628   4.010  1.00  0.00     0.167 HD
ATOM     56  C   UNL     1      -4.895   6.841   2.468  1.00  0.00     0.074 A 
ATOM     57  C   UNL     1      -4.173   7.627   1.492  1.00  0.00     0.031 C 
ATOM     58  C   UNL     1      -5.908   7.309   3.236  1.00  0.00     0.037 A 
BRANCH  45  59
ATOM     59  C   UNL     1      -8.343   2.998   6.935  1.00  0.00     0.064 A 
ATOM     60  C   UNL     1      -7.991   2.675   8.256  1.00  0.00     0.173 A 
ATOM     61  C   UNL     1      -9.696   2.924   6.577  1.00  0.00     0.173 A 
ATOM     62  F   UNL     1      -6.706   2.714   8.641  1.00  0.00    -0.203 F 
ATOM     63  C   UNL     1      -8.948   2.227   9.160  1.00  0.00     0.198 A 
ATOM     64  C   UNL     1     -10.656   2.516   7.497  1.00  0.00     0.198 A 
ATOM     65  F   UNL     1     -10.085   3.231   5.330  1.00  0.00    -0.203 F 
ATOM     66  F   UNL     1      -8.575   1.832  10.385  1.00  0.00    -0.200 F 
ATOM     67  C   UNL     1     -10.279   2.150   8.781  1.00  0.00     0.200 A 
ATOM     68  F   UNL     1     -11.945   2.456   7.135  1.00  0.00    -0.200 F 
ATOM     69  F   UNL     1     -11.198   1.705   9.648  1.00  0.00    -0.200 F 
ENDBRANCH  45  59
BRANCH  46  70
ATOM     70  C   UNL     1      -1.297   4.838   0.220  1.00  0.00     0.064 A 
ATOM     71  C   UNL     1      -0.293   5.797   0.424  1.00  0.00     0.173 A 
ATOM     72  C   UNL     1      -1.346   4.211  -1.035  1.00  0.00     0.173 A 
ATOM     73  F   UNL     1      -0.224   6.452   1.592  1.00  0.00    -0.203 F 
ATOM     74  C   UNL     1       0.599   6.140  -0.592  1.00  0.00     0.198 A 
ATOM     75  C   UNL     1      -0.438   4.539  -2.044  1.00  0.00     0.198 A 
ATOM     76  F   UNL     1      -2.292   3.296  -1.293  1.00  0.00    -0.203 F 
ATOM     77  F   UNL     1       1.507   7.104  -0.386  1.00  0.00    -0.200 F 
ATOM     78  C   UNL     1       0.527   5.510  -1.825  1.00  0.00     0.200 A 
ATOM     79  F   UNL     1      -0.510   3.929  -3.235  1.00  0.00    -0.200 F 
ATOM     80  F   UNL     1       1.377   5.849  -2.804  1.00  0.00    -0.200 F 
ENDBRANCH  46  70
BRANCH  58  81
ATOM     81  C   UNL     1      -6.271   8.762   3.119  1.00  0.00     0.064 A 
ATOM     82  C   UNL     1      -6.904   9.283   1.982  1.00  0.00     0.173 A 
ATOM     83  C   UNL     1      -6.040   9.634   4.197  1.00  0.00     0.173 A 
ATOM     84  F   UNL     1      -7.133   8.499   0.918  1.00  0.00    -0.203 F 
ATOM     85  C   UNL     1      -7.278  10.624   1.921  1.00  0.00     0.198 A 
ATOM     86  C   UNL     1      -6.447  10.965   4.145  1.00  0.00     0.198 A 
ATOM     87  F   UNL     1      -5.441   9.189   5.311  1.00  0.00    -0.203 F 
ATOM     88  F   UNL     1      -7.846  11.108   0.807  1.00  0.00    -0.200 F 
ATOM     89  C   UNL     1      -7.061  11.460   3.006  1.00  0.00     0.200 A 
ATOM     90  F   UNL     1      -6.250  11.766   5.202  1.00  0.00    -0.200 F 
ATOM     91  F   UNL     1      -7.440  12.744   2.951  1.00  0.00    -0.200 F 
ENDBRANCH  58  81
ENDBRANCH  32  33
ENDBRANCH  25  27
ENDBRANCH  24  25
ENDBRANCH  23  24
ENDBRANCH  22  23
ENDBRANCH   1  22
TORSDOF 17
