REMARK SMILES COc1ccc(/C=C2/SC(=S)N(NC(=O)c3ccc(C(C)(C)C)cc3)C2=O)c(C(=O)OCCOC(=O)c2ccc(-c3c4nc(c(-c5c(F)c(F)c(F)c(F)c5F)c5ccc([nH]5)c(-c5c(F)c(F)c(F)c(F)c5F)c5nc(c(-c6c(F)c(F)c(F)c(F)c6F)c6ccc3[nH]6)C=C5)C=C4)cc2)c1OC
REMARK SMILES IDX 32 1 31 2 29 3 30 4 28 5 3 6 4 7 100 8 5 9 6 10 2 11 1 12
REMARK SMILES IDX 101 13 102 14 7 15 8 16 9 17 26 18 10 19 12 20 27 21 11 22
REMARK SMILES IDX 13 23 14 24 15 26 16 27 17 28 25 29 18 30 24 31 19 32 20 33
REMARK SMILES IDX 21 34 22 35 23 36 33 37 34 38 35 39 36 40 37 41 38 42 99 43
REMARK SMILES IDX 39 44 98 45 40 46 41 47 42 48 92 49 43 50 97 51 91 52 93 53
REMARK SMILES IDX 44 54 96 55 90 56 89 57 45 59 77 60 57 61 76 62 58 63 61 64
REMARK SMILES IDX 75 65 94 66 59 67 60 68 74 70 95 71 62 72 46 73 47 74 55 75
REMARK SMILES IDX 48 76 49 77 53 78 56 79 50 80 51 81 54 82 52 83 78 84 79 85
REMARK SMILES IDX 87 86 80 87 81 88 85 89 88 90 82 91 83 92 86 93 84 94 63 95
REMARK SMILES IDX 64 96 72 97 65 98 66 99 70 100 73 101 67 102 68 103 71 104
REMARK SMILES IDX 69 105
REMARK H PARENT 13 25 93 58 61 69
REMARK Flexibility Score: inf
ROOT
ATOM      1  C   UNL     1       6.368   1.341   3.314  1.00  0.00     0.275 C 
ENDROOT
BRANCH   1   2
ATOM      2  O   UNL     1       4.941   1.161   3.292  1.00  0.00    -0.458 OA
BRANCH   2   3
ATOM      3  C   UNL     1       4.244   1.563   4.380  1.00  0.00     0.342 C 
ATOM      4  O   UNL     1       4.735   1.860   5.458  1.00  0.00    -0.246 OA
BRANCH   3   5
ATOM      5  C   UNL     1       2.806   1.792   4.046  1.00  0.00     0.113 A 
ATOM      6  C   UNL     1       0.718   1.137   2.948  1.00  0.00     0.161 A 
ATOM      7  C   UNL     1       0.090   2.193   3.627  1.00  0.00     0.051 A 
ATOM      8  C   UNL     1       2.081   0.894   3.193  1.00  0.00     0.175 A 
ATOM      9  C   UNL     1       0.782   3.047   4.491  1.00  0.00     0.013 A 
ATOM     10  C   UNL     1       2.169   2.940   4.635  1.00  0.00    -0.006 A 
BRANCH   6  11
ATOM     11  O   UNL     1      -0.189   0.463   2.177  1.00  0.00    -0.493 OA
ATOM     12  C   UNL     1       0.212  -0.483   1.205  1.00  0.00     0.278 C 
ENDBRANCH   6  11
BRANCH   8  13
ATOM     13  O   UNL     1       2.637  -0.310   2.820  1.00  0.00    -0.492 OA
ATOM     14  C   UNL     1       3.282  -0.312   1.541  1.00  0.00     0.278 C 
ENDBRANCH   8  13
BRANCH  10  15
ATOM     15  C   UNL     1       2.919   4.112   5.259  1.00  0.00     0.030 C 
ATOM     16  C   UNL     1       3.318   5.364   4.752  1.00  0.00     0.082 C 
ATOM     17  S   UNL     1       5.180   5.896   5.995  1.00  0.00    -0.052 SA
ATOM     18  C   UNL     1       3.345   6.777   3.087  1.00  0.00     0.285 C 
ATOM     19  C   UNL     1       5.904   7.518   4.549  1.00  0.00     0.168 C 
ATOM     20  N   UNL     1       4.859   7.726   3.191  1.00  0.00    -0.198 N 
ATOM     21  O   UNL     1       2.532   7.278   2.295  1.00  0.00    -0.266 OA
ATOM     22  S   UNL     1       7.372   8.267   4.841  1.00  0.00    -0.050 S 
BRANCH  20  23
ATOM     23  N   UNL     1       5.340   8.328   1.965  1.00  0.00    -0.255 N 
ATOM     24  C   UNL     1       5.453   7.659   0.727  1.00  0.00     0.270 C 
ATOM     25  H   UNL     1       5.608   9.275   1.998  1.00  0.00     0.192 HD
ATOM     26  O   UNL     1       6.519   7.776   0.117  1.00  0.00    -0.267 OA
BRANCH  24  27
ATOM     27  C   UNL     1       4.384   6.830   0.059  1.00  0.00     0.041 A 
ATOM     28  C   UNL     1       4.716   5.593  -0.500  1.00  0.00     0.014 A 
ATOM     29  C   UNL     1       3.070   7.253  -0.137  1.00  0.00     0.014 A 
ATOM     30  C   UNL     1       3.715   4.710  -0.978  1.00  0.00     0.005 A 
ATOM     31  C   UNL     1       2.056   6.344  -0.547  1.00  0.00     0.005 A 
ATOM     32  C   UNL     1       2.345   5.014  -0.886  1.00  0.00    -0.043 A 
BRANCH  32  33
ATOM     33  C   UNL     1       1.243   3.943  -1.108  1.00  0.00    -0.013 C 
ATOM     34  C   UNL     1       0.809   3.904  -2.582  1.00  0.00     0.016 C 
ATOM     35  C   UNL     1       1.725   2.522  -0.729  1.00  0.00     0.016 C 
ATOM     36  C   UNL     1      -0.042   4.178  -0.265  1.00  0.00     0.016 C 
ENDBRANCH  32  33
ENDBRANCH  24  27
ENDBRANCH  20  23
ENDBRANCH  10  15
ENDBRANCH   3   5
ENDBRANCH   2   3
ENDBRANCH   1   2
BRANCH   1  37
ATOM     37  C   UNL     1       6.765   2.498   2.389  1.00  0.00     0.275 C 
BRANCH  37  38
ATOM     38  O   UNL     1       5.960   3.662   2.632  1.00  0.00    -0.458 OA
BRANCH  38  39
ATOM     39  C   UNL     1       4.732   3.683   2.051  1.00  0.00     0.338 C 
ATOM     40  O   UNL     1       4.288   2.888   1.249  1.00  0.00    -0.246 OA
BRANCH  39  41
ATOM     41  C   UNL     1       3.963   4.758   2.704  1.00  0.00     0.060 A 
ATOM     42  C   UNL     1       2.263   4.890   2.708  1.00  0.00     0.016 A 
ATOM     43  C   UNL     1       4.797   5.842   3.737  1.00  0.00     0.016 A 
ATOM     44  C   UNL     1       1.323   5.995   3.721  1.00  0.00     0.010 A 
ATOM     45  C   UNL     1       3.742   7.198   4.820  1.00  0.00     0.010 A 
ATOM     46  C   UNL     1       2.006   7.178   4.753  1.00  0.00    -0.014 A 
BRANCH  46  47
ATOM     47  C   UNL     1       1.233   8.198   5.520  1.00  0.00     0.031 A 
ATOM     48  C   UNL     1       1.030   9.617   5.026  1.00  0.00     0.074 A 
ATOM     49  C   UNL     1       0.843   7.912   6.776  1.00  0.00     0.049 A 
ATOM     50  N   UNL     1       0.298  10.580   5.543  1.00  0.00    -0.248 NA
ATOM     51  C   UNL     1       1.770  10.025   3.827  1.00  0.00     0.031 C 
ATOM     52  C   UNL     1       1.099   6.656   7.471  1.00  0.00     0.029 A 
ATOM     53  N   UNL     1       0.182   8.680   7.709  1.00  0.00    -0.354 N 
ATOM     54  C   UNL     1       0.451  11.683   4.705  1.00  0.00     0.074 A 
ATOM     55  C   UNL     1       1.403  11.293   3.687  1.00  0.00     0.031 C 
ATOM     56  C   UNL     1       0.618   6.738   8.722  1.00  0.00     0.029 A 
ATOM     57  C   UNL     1      -0.004   8.045   8.913  1.00  0.00     0.049 A 
ATOM     58  H   UNL     1      -0.128   9.597   7.530  1.00  0.00     0.167 HD
ATOM     59  C   UNL     1      -0.154  12.898   4.762  1.00  0.00     0.037 A 
ATOM     60  C   UNL     1      -0.625   8.451  10.038  1.00  0.00     0.037 A 
ATOM     61  C   UNL     1      -1.055  13.318   5.810  1.00  0.00     0.049 A 
ATOM     62  C   UNL     1      -1.311   9.791  10.079  1.00  0.00     0.074 A 
ATOM     63  C   UNL     1      -1.815  14.475   5.892  1.00  0.00     0.029 A 
ATOM     64  N   UNL     1      -1.275  12.619   6.986  1.00  0.00    -0.354 N 
ATOM     65  N   UNL     1      -1.367  10.724   9.162  1.00  0.00    -0.248 NA
ATOM     66  C   UNL     1      -2.058  10.112  11.305  1.00  0.00     0.031 C 
ATOM     67  C   UNL     1      -2.439  14.507   7.145  1.00  0.00     0.029 A 
ATOM     68  C   UNL     1      -2.122  13.339   7.817  1.00  0.00     0.049 A 
ATOM     69  H   UNL     1      -0.888  11.740   7.200  1.00  0.00     0.167 HD
ATOM     70  C   UNL     1      -2.186  11.720   9.681  1.00  0.00     0.074 A 
ATOM     71  C   UNL     1      -2.618  11.269  10.986  1.00  0.00     0.031 C 
ATOM     72  C   UNL     1      -2.551  12.900   9.120  1.00  0.00     0.037 A 
BRANCH  59  73
ATOM     73  C   UNL     1       0.100  13.876   3.642  1.00  0.00     0.064 A 
ATOM     74  C   UNL     1      -0.394  13.642   2.348  1.00  0.00     0.173 A 
ATOM     75  C   UNL     1       0.739  15.104   3.880  1.00  0.00     0.173 A 
ATOM     76  F   UNL     1      -1.024  12.492   2.065  1.00  0.00    -0.203 F 
ATOM     77  C   UNL     1      -0.238  14.585   1.334  1.00  0.00     0.198 A 
ATOM     78  C   UNL     1       0.868  16.057   2.869  1.00  0.00     0.198 A 
ATOM     79  F   UNL     1       1.214  15.396   5.100  1.00  0.00    -0.203 F 
ATOM     80  F   UNL     1      -0.696  14.323   0.102  1.00  0.00    -0.200 F 
ATOM     81  C   UNL     1       0.384  15.795   1.597  1.00  0.00     0.200 A 
ATOM     82  F   UNL     1       1.449  17.236   3.131  1.00  0.00    -0.200 F 
ATOM     83  F   UNL     1       0.514  16.709   0.625  1.00  0.00    -0.200 F 
ENDBRANCH  59  73
BRANCH  60  84
ATOM     84  C   UNL     1      -0.715   7.529  11.201  1.00  0.00     0.064 A 
ATOM     85  C   UNL     1      -1.935   6.925  11.537  1.00  0.00     0.173 A 
ATOM     86  C   UNL     1       0.401   7.240  11.998  1.00  0.00     0.173 A 
ATOM     87  F   UNL     1      -3.033   7.188  10.812  1.00  0.00    -0.203 F 
ATOM     88  C   UNL     1      -2.043   6.089  12.645  1.00  0.00     0.198 A 
ATOM     89  C   UNL     1       0.297   6.380  13.090  1.00  0.00     0.198 A 
ATOM     90  F   UNL     1       1.591   7.787  11.712  1.00  0.00    -0.203 F 
ATOM     91  F   UNL     1      -3.233   5.568  12.973  1.00  0.00    -0.200 F 
ATOM     92  C   UNL     1      -0.926   5.813  13.418  1.00  0.00     0.200 A 
ATOM     93  F   UNL     1       1.381   6.103  13.828  1.00  0.00    -0.200 F 
ATOM     94  F   UNL     1      -1.031   5.008  14.483  1.00  0.00    -0.200 F 
ENDBRANCH  60  84
BRANCH  72  95
ATOM     95  C   UNL     1      -3.492  13.775   9.901  1.00  0.00     0.064 A 
ATOM     96  C   UNL     1      -3.101  14.405  11.094  1.00  0.00     0.173 A 
ATOM     97  C   UNL     1      -4.806  13.986   9.453  1.00  0.00     0.173 A 
ATOM     98  F   UNL     1      -1.862  14.227  11.576  1.00  0.00    -0.203 F 
ATOM     99  C   UNL     1      -4.001  15.173  11.829  1.00  0.00     0.198 A 
ATOM    100  C   UNL     1      -5.692  14.784  10.172  1.00  0.00     0.198 A 
ATOM    101  F   UNL     1      -5.233  13.416   8.317  1.00  0.00    -0.203 F 
ATOM    102  F   UNL     1      -3.624  15.705  13.000  1.00  0.00    -0.200 F 
ATOM    103  C   UNL     1      -5.294  15.366  11.366  1.00  0.00     0.200 A 
ATOM    104  F   UNL     1      -6.936  14.981   9.716  1.00  0.00    -0.200 F 
ATOM    105  F   UNL     1      -6.160  16.101  12.077  1.00  0.00    -0.200 F 
ENDBRANCH  72  95
ENDBRANCH  46  47
ENDBRANCH  39  41
ENDBRANCH  38  39
ENDBRANCH  37  38
ENDBRANCH   1  37
TORSDOF 17
