REMARK SMILES CCC[N@@H+](C)CC[C@@H]1CCC[C@]1([NH2+]C)C(=O)OCCOC(=O)c1ccc(-c2c3nc(c(-c4c(F)c(F)c(F)c(F)c4F)c4ccc([nH]4)c(-c4c(F)c(F)c(F)c(F)c4F)c4nc(c(-c5c(F)c(F)c(F)c(F)c5F)c5ccc2[nH]5)C=C4)C=C3)cc1
REMARK SMILES IDX 17 1 15 2 16 3 12 4 8 5 9 6 10 7 11 8 7 9 6 10 4 11 5 12
REMARK SMILES IDX 3 14 2 15 1 16 13 17 14 18 18 21 19 22 20 23 21 24 22 25
REMARK SMILES IDX 23 26 24 27 85 28 25 29 84 30 26 31 27 32 28 33 78 34 29 35
REMARK SMILES IDX 83 36 77 37 79 38 30 39 82 40 76 41 75 42 31 44 63 45 43 46
REMARK SMILES IDX 62 47 44 48 47 49 61 50 80 51 45 52 46 53 60 55 81 56 48 57
REMARK SMILES IDX 32 58 33 59 41 60 34 61 35 62 39 63 42 64 36 65 37 66 40 67
REMARK SMILES IDX 38 68 64 69 65 70 73 71 66 72 67 73 71 74 74 75 68 76 69 77
REMARK SMILES IDX 72 78 70 79 49 80 50 81 58 82 51 83 52 84 56 85 59 86 53 87
REMARK SMILES IDX 54 88 57 89 55 90
REMARK H PARENT 4 13 13 19 13 20 79 43 47 54
REMARK Flexibility Score: inf
ROOT
ATOM      1  O   UNL     1       4.197  -1.224  -4.368  1.00  0.00    -0.457 OA
ENDROOT
BRANCH   1   2
ATOM      2  C   UNL     1       4.980  -0.282  -3.784  1.00  0.00     0.368 C 
ATOM      3  O   UNL     1       5.750   0.437  -4.416  1.00  0.00    -0.245 OA
BRANCH   2   4
ATOM      4  C   UNL     1       4.903  -0.292  -2.211  1.00  0.00     0.197 C 
ATOM      5  C   UNL     1       3.475  -0.458  -1.575  1.00  0.00     0.068 C 
ATOM      6  C   UNL     1       2.895   0.937  -1.728  1.00  0.00     0.011 C 
ATOM      7  C   UNL     1       4.027   1.851  -1.303  1.00  0.00     0.008 C 
ATOM      8  C   UNL     1       5.312   1.123  -1.684  1.00  0.00     0.081 C 
BRANCH   5   9
ATOM      9  C   UNL     1       2.603  -1.645  -2.024  1.00  0.00     0.072 C 
BRANCH   9  10
ATOM     10  C   UNL     1       1.167  -1.767  -1.456  1.00  0.00     0.262 C 
BRANCH  10  11
ATOM     11  N   UNL     1      -0.002  -1.226  -2.176  1.00  0.00    -0.337 N 
ATOM     12  C   UNL     1       0.015  -1.590  -3.598  1.00  0.00     0.332 C 
ATOM     13  H   UNL     1      -0.763  -1.689  -1.680  1.00  0.00     0.347 HD
BRANCH  11  14
ATOM     14  C   UNL     1      -0.323   0.194  -2.030  1.00  0.00     0.261 C 
BRANCH  14  15
ATOM     15  C   UNL     1      -0.910   0.699  -0.699  1.00  0.00     0.058 C 
ATOM     16  C   UNL     1      -0.262   0.270   0.605  1.00  0.00     0.010 C 
ENDBRANCH  14  15
ENDBRANCH  11  14
ENDBRANCH  10  11
ENDBRANCH   9  10
ENDBRANCH   5   9
BRANCH   4  17
ATOM     17  N   UNL     1       5.820  -1.343  -1.690  1.00  0.00    -0.334 N 
ATOM     18  C   UNL     1       7.199  -1.196  -2.156  1.00  0.00     0.331 C 
ATOM     19  H   UNL     1       5.473  -2.254  -1.991  1.00  0.00     0.347 HD
ATOM     20  H   UNL     1       5.835  -1.252  -0.674  1.00  0.00     0.347 HD
ENDBRANCH   4  17
ENDBRANCH   2   4
ENDBRANCH   1   2
BRANCH   1  21
ATOM     21  C   UNL     1       4.283  -1.376  -5.799  1.00  0.00     0.274 C 
BRANCH  21  22
ATOM     22  C   UNL     1       3.143  -0.638  -6.498  1.00  0.00     0.275 C 
BRANCH  22  23
ATOM     23  O   UNL     1       3.272   0.767  -6.236  1.00  0.00    -0.458 OA
BRANCH  23  24
ATOM     24  C   UNL     1       2.135   1.437  -5.958  1.00  0.00     0.338 C 
ATOM     25  O   UNL     1       0.988   1.011  -6.003  1.00  0.00    -0.246 OA
BRANCH  24  26
ATOM     26  C   UNL     1       2.476   2.817  -5.568  1.00  0.00     0.060 A 
ATOM     27  C   UNL     1       3.539   3.057  -4.696  1.00  0.00     0.016 A 
ATOM     28  C   UNL     1       1.690   3.879  -6.014  1.00  0.00     0.016 A 
ATOM     29  C   UNL     1       3.785   4.341  -4.222  1.00  0.00     0.010 A 
ATOM     30  C   UNL     1       1.994   5.181  -5.605  1.00  0.00     0.010 A 
ATOM     31  C   UNL     1       3.032   5.423  -4.688  1.00  0.00    -0.014 A 
BRANCH  31  32
ATOM     32  C   UNL     1       3.313   6.800  -4.203  1.00  0.00     0.031 A 
ATOM     33  C   UNL     1       2.239   7.582  -3.502  1.00  0.00     0.074 A 
ATOM     34  C   UNL     1       4.530   7.350  -4.388  1.00  0.00     0.049 A 
ATOM     35  N   UNL     1       2.199   8.857  -3.210  1.00  0.00    -0.248 NA
ATOM     36  C   UNL     1       1.044   6.833  -3.086  1.00  0.00     0.031 C 
ATOM     37  C   UNL     1       5.679   6.681  -5.000  1.00  0.00     0.029 A 
ATOM     38  N   UNL     1       5.002   8.601  -4.077  1.00  0.00    -0.354 N 
ATOM     39  C   UNL     1       0.951   9.076  -2.642  1.00  0.00     0.074 A 
ATOM     40  C   UNL     1       0.268   7.800  -2.615  1.00  0.00     0.031 C 
ATOM     41  C   UNL     1       6.731   7.514  -4.988  1.00  0.00     0.029 A 
ATOM     42  C   UNL     1       6.306   8.804  -4.459  1.00  0.00     0.049 A 
ATOM     43  H   UNL     1       4.459   9.286  -3.624  1.00  0.00     0.167 HD
ATOM     44  C   UNL     1       0.424  10.242  -2.198  1.00  0.00     0.037 A 
ATOM     45  C   UNL     1       7.061   9.918  -4.436  1.00  0.00     0.037 A 
ATOM     46  C   UNL     1       1.135  11.494  -2.177  1.00  0.00     0.049 A 
ATOM     47  C   UNL     1       6.451  11.201  -3.948  1.00  0.00     0.074 A 
ATOM     48  C   UNL     1       0.694  12.733  -1.745  1.00  0.00     0.029 A 
ATOM     49  N   UNL     1       2.449  11.659  -2.590  1.00  0.00    -0.354 N 
ATOM     50  N   UNL     1       5.241  11.420  -3.495  1.00  0.00    -0.248 NA
ATOM     51  C   UNL     1       7.303  12.396  -3.994  1.00  0.00     0.031 C 
ATOM     52  C   UNL     1       1.734  13.653  -1.920  1.00  0.00     0.029 A 
ATOM     53  C   UNL     1       2.834  12.980  -2.426  1.00  0.00     0.049 A 
ATOM     54  H   UNL     1       3.024  10.944  -2.946  1.00  0.00     0.167 HD
ATOM     55  C   UNL     1       5.184  12.774  -3.202  1.00  0.00     0.074 A 
ATOM     56  C   UNL     1       6.491  13.322  -3.502  1.00  0.00     0.031 C 
ATOM     57  C   UNL     1       4.140  13.502  -2.736  1.00  0.00     0.037 A 
BRANCH  44  58
ATOM     58  C   UNL     1      -1.004  10.230  -1.739  1.00  0.00     0.064 A 
ATOM     59  C   UNL     1      -1.390   9.658  -0.518  1.00  0.00     0.173 A 
ATOM     60  C   UNL     1      -1.999  10.836  -2.523  1.00  0.00     0.173 A 
ATOM     61  F   UNL     1      -0.481   9.051   0.260  1.00  0.00    -0.203 F 
ATOM     62  C   UNL     1      -2.721   9.676  -0.109  1.00  0.00     0.198 A 
ATOM     63  C   UNL     1      -3.324  10.874  -2.099  1.00  0.00     0.198 A 
ATOM     64  F   UNL     1      -1.682  11.399  -3.699  1.00  0.00    -0.203 F 
ATOM     65  F   UNL     1      -3.075   9.088   1.043  1.00  0.00    -0.200 F 
ATOM     66  C   UNL     1      -3.686  10.289  -0.896  1.00  0.00     0.200 A 
ATOM     67  F   UNL     1      -4.252  11.476  -2.857  1.00  0.00    -0.200 F 
ATOM     68  F   UNL     1      -4.965  10.312  -0.496  1.00  0.00    -0.200 F 
ENDBRANCH  44  58
BRANCH  45  69
ATOM     69  C   UNL     1       8.459   9.871  -4.936  1.00  0.00     0.064 A 
ATOM     70  C   UNL     1       9.542  10.000  -4.057  1.00  0.00     0.173 A 
ATOM     71  C   UNL     1       8.741   9.670  -6.295  1.00  0.00     0.173 A 
ATOM     72  F   UNL     1       9.323  10.220  -2.752  1.00  0.00    -0.203 F 
ATOM     73  C   UNL     1      10.855   9.931  -4.519  1.00  0.00     0.198 A 
ATOM     74  C   UNL     1      10.053   9.571  -6.752  1.00  0.00     0.198 A 
ATOM     75  F   UNL     1       7.739   9.542  -7.178  1.00  0.00    -0.203 F 
ATOM     76  F   UNL     1      11.873  10.090  -3.663  1.00  0.00    -0.200 F 
ATOM     77  C   UNL     1      11.109   9.707  -5.864  1.00  0.00     0.200 A 
ATOM     78  F   UNL     1      10.293   9.339  -8.050  1.00  0.00    -0.200 F 
ATOM     79  F   UNL     1      12.371   9.625  -6.305  1.00  0.00    -0.200 F 
ENDBRANCH  45  69
BRANCH  57  80
ATOM     80  C   UNL     1       4.383  14.963  -2.509  1.00  0.00     0.064 A 
ATOM     81  C   UNL     1       4.465  15.864  -3.580  1.00  0.00     0.173 A 
ATOM     82  C   UNL     1       4.515  15.467  -1.207  1.00  0.00     0.173 A 
ATOM     83  F   UNL     1       4.363  15.423  -4.843  1.00  0.00    -0.203 F 
ATOM     84  C   UNL     1       4.697  17.218  -3.356  1.00  0.00     0.198 A 
ATOM     85  C   UNL     1       4.723  16.825  -0.986  1.00  0.00     0.198 A 
ATOM     86  F   UNL     1       4.439  14.643  -0.152  1.00  0.00    -0.203 F 
ATOM     87  F   UNL     1       4.818  18.056  -4.394  1.00  0.00    -0.200 F 
ATOM     88  C   UNL     1       4.821  17.698  -2.060  1.00  0.00     0.200 A 
ATOM     89  F   UNL     1       4.836  17.289   0.266  1.00  0.00    -0.200 F 
ATOM     90  F   UNL     1       5.045  19.002  -1.846  1.00  0.00    -0.200 F 
ENDBRANCH  57  80
ENDBRANCH  31  32
ENDBRANCH  24  26
ENDBRANCH  23  24
ENDBRANCH  22  23
ENDBRANCH  21  22
ENDBRANCH   1  21
TORSDOF 17
