REMARK SMILES CC(=O)N[C@@H](Cc1c(C)[nH]c2ccccc2c1=O)C(=O)OCCOC(=O)c1ccc(-c2c3nc(c(-c4c(F)c(F)c(F)c(F)c4F)c4ccc([nH]4)c(-c4c(F)c(F)c(F)c(F)c4F)c4nc(c(-c5c(F)c(F)c(F)c(F)c5F)c5ccc2[nH]5)C=C4)C=C3)cc1
REMARK SMILES IDX 22 1 21 2 19 3 20 4 5 5 4 6 1 7 2 8 3 9 6 11 7 12 8 13 17 14
REMARK SMILES IDX 9 15 10 16 16 17 18 18 11 19 15 21 12 22 14 23 13 24 23 25
REMARK SMILES IDX 24 26 25 27 26 28 27 29 28 30 89 31 29 32 88 33 30 34 31 35
REMARK SMILES IDX 32 36 82 37 33 38 87 39 81 40 83 41 34 42 86 43 80 44 79 45
REMARK SMILES IDX 35 47 67 48 47 49 66 50 48 51 51 52 65 53 84 54 49 55 50 56
REMARK SMILES IDX 64 58 85 59 52 60 36 61 37 62 45 63 38 64 39 65 43 66 46 67
REMARK SMILES IDX 40 68 41 69 44 70 42 71 68 72 69 73 77 74 70 75 71 76 75 77
REMARK SMILES IDX 78 78 72 79 73 80 76 81 74 82 53 83 54 84 62 85 55 86 56 87
REMARK SMILES IDX 60 88 63 89 57 90 58 91 61 92 59 93
REMARK H PARENT 4 10 10 20 83 46 51 57
REMARK Flexibility Score: inf
ROOT
ATOM      1  C   UNL     1      -0.563   2.305  -5.128  1.00  0.00     0.274 C 
ENDROOT
BRANCH   1   2
ATOM      2  O   UNL     1       0.103   1.301  -4.336  1.00  0.00    -0.461 OA
BRANCH   2   3
ATOM      3  C   UNL     1       1.149   1.720  -3.571  1.00  0.00     0.329 C 
ATOM      4  O   UNL     1       1.570   2.873  -3.538  1.00  0.00    -0.250 OA
BRANCH   3   5
ATOM      5  C   UNL     1       1.858   0.565  -2.848  1.00  0.00     0.196 C 
BRANCH   5   6
ATOM      6  N   UNL     1       1.008  -0.610  -2.645  1.00  0.00    -0.343 N 
ATOM      7  C   UNL     1       0.938  -0.587  -0.166  1.00  0.00     0.114 C 
ATOM      8  C   UNL     1       0.509  -1.145  -1.496  1.00  0.00     0.217 C 
ATOM      9  O   UNL     1      -0.293  -2.076  -1.560  1.00  0.00    -0.275 OA
ATOM     10  H   UNL     1       0.756  -1.088  -3.468  1.00  0.00     0.164 HD
ENDBRANCH   5   6
BRANCH   5  11
ATOM     11  C   UNL     1       3.168   0.240  -3.597  1.00  0.00     0.078 C 
BRANCH  11  12
ATOM     12  C   UNL     1       2.966  -0.256  -5.013  1.00  0.00     0.022 A 
ATOM     13  C   UNL     1       2.933   0.487  -6.146  1.00  0.00     0.019 A 
ATOM     14  C   UNL     1       2.802  -1.745  -5.145  1.00  0.00     0.192 A 
ATOM     15  C   UNL     1       3.167   1.979  -6.185  1.00  0.00     0.064 C 
ATOM     16  N   UNL     1       2.669  -0.069  -7.382  1.00  0.00    -0.358 N 
ATOM     17  C   UNL     1       2.581  -2.316  -6.489  1.00  0.00     0.046 A 
ATOM     18  O   UNL     1       2.852  -2.478  -4.162  1.00  0.00    -0.289 OA
ATOM     19  C   UNL     1       2.500  -1.442  -7.576  1.00  0.00     0.049 A 
ATOM     20  H   UNL     1       2.597   0.529  -8.161  1.00  0.00     0.166 HD
ATOM     21  C   UNL     1       2.465  -3.699  -6.662  1.00  0.00     0.014 A 
ATOM     22  C   UNL     1       2.277  -1.970  -8.850  1.00  0.00     0.027 A 
ATOM     23  C   UNL     1       2.262  -4.215  -7.940  1.00  0.00     0.001 A 
ATOM     24  C   UNL     1       2.162  -3.352  -9.031  1.00  0.00     0.002 A 
ENDBRANCH  11  12
ENDBRANCH   5  11
ENDBRANCH   3   5
ENDBRANCH   2   3
ENDBRANCH   1   2
BRANCH   1  25
ATOM     25  C   UNL     1      -1.873   2.763  -4.482  1.00  0.00     0.275 C 
BRANCH  25  26
ATOM     26  O   UNL     1      -1.628   3.510  -3.278  1.00  0.00    -0.458 OA
BRANCH  26  27
ATOM     27  C   UNL     1      -1.522   2.752  -2.162  1.00  0.00     0.338 C 
ATOM     28  O   UNL     1      -1.682   1.549  -2.064  1.00  0.00    -0.246 OA
BRANCH  27  29
ATOM     29  C   UNL     1      -0.980   3.563  -1.065  1.00  0.00     0.060 A 
ATOM     30  C   UNL     1      -1.618   4.713  -0.613  1.00  0.00     0.016 A 
ATOM     31  C   UNL     1       0.171   3.090  -0.430  1.00  0.00     0.016 A 
ATOM     32  C   UNL     1      -1.091   5.382   0.493  1.00  0.00     0.010 A 
ATOM     33  C   UNL     1       0.679   3.733   0.689  1.00  0.00     0.010 A 
ATOM     34  C   UNL     1       0.050   4.887   1.156  1.00  0.00    -0.014 A 
BRANCH  34  35
ATOM     35  C   UNL     1       0.533   5.537   2.390  1.00  0.00     0.031 A 
ATOM     36  C   UNL     1       1.812   6.314   2.400  1.00  0.00     0.074 A 
ATOM     37  C   UNL     1      -0.203   5.403   3.508  1.00  0.00     0.049 A 
ATOM     38  N   UNL     1       2.281   7.106   3.329  1.00  0.00    -0.248 NA
ATOM     39  C   UNL     1       2.692   6.173   1.229  1.00  0.00     0.031 C 
ATOM     40  C   UNL     1      -1.400   4.569   3.626  1.00  0.00     0.029 A 
ATOM     41  N   UNL     1      -0.072   5.981   4.743  1.00  0.00    -0.354 N 
ATOM     42  C   UNL     1       3.489   7.582   2.842  1.00  0.00     0.074 A 
ATOM     43  C   UNL     1       3.725   6.930   1.574  1.00  0.00     0.031 C 
ATOM     44  C   UNL     1      -1.937   4.747   4.842  1.00  0.00     0.029 A 
ATOM     45  C   UNL     1      -1.118   5.698   5.586  1.00  0.00     0.049 A 
ATOM     46  H   UNL     1       0.694   6.543   5.000  1.00  0.00     0.167 HD
ATOM     47  C   UNL     1       4.299   8.516   3.393  1.00  0.00     0.037 A 
ATOM     48  C   UNL     1      -1.403   6.190   6.806  1.00  0.00     0.037 A 
ATOM     49  C   UNL     1       4.040   9.150   4.658  1.00  0.00     0.049 A 
ATOM     50  C   UNL     1      -0.492   7.230   7.395  1.00  0.00     0.074 A 
ATOM     51  C   UNL     1       4.750  10.160   5.279  1.00  0.00     0.029 A 
ATOM     52  N   UNL     1       2.987   8.821   5.500  1.00  0.00    -0.354 N 
ATOM     53  N   UNL     1       0.573   7.785   6.870  1.00  0.00    -0.248 NA
ATOM     54  C   UNL     1      -0.825   7.719   8.739  1.00  0.00     0.031 C 
ATOM     55  C   UNL     1       4.154  10.411   6.518  1.00  0.00     0.029 A 
ATOM     56  C   UNL     1       3.047   9.585   6.652  1.00  0.00     0.049 A 
ATOM     57  H   UNL     1       2.299   8.143   5.307  1.00  0.00     0.167 HD
ATOM     58  C   UNL     1       1.035   8.693   7.811  1.00  0.00     0.074 A 
ATOM     59  C   UNL     1       0.119   8.632   8.933  1.00  0.00     0.031 C 
ATOM     60  C   UNL     1       2.124   9.498   7.756  1.00  0.00     0.037 A 
BRANCH  47  61
ATOM     61  C   UNL     1       5.511   8.937   2.617  1.00  0.00     0.064 A 
ATOM     62  C   UNL     1       5.392   9.692   1.439  1.00  0.00     0.173 A 
ATOM     63  C   UNL     1       6.803   8.646   3.080  1.00  0.00     0.173 A 
ATOM     64  F   UNL     1       4.179   9.992   0.950  1.00  0.00    -0.203 F 
ATOM     65  C   UNL     1       6.519  10.121   0.744  1.00  0.00     0.198 A 
ATOM     66  C   UNL     1       7.928   9.100   2.395  1.00  0.00     0.198 A 
ATOM     67  F   UNL     1       6.974   7.934   4.204  1.00  0.00    -0.203 F 
ATOM     68  F   UNL     1       6.377  10.810  -0.397  1.00  0.00    -0.200 F 
ATOM     69  C   UNL     1       7.785   9.832   1.226  1.00  0.00     0.200 A 
ATOM     70  F   UNL     1       9.153   8.831   2.870  1.00  0.00    -0.200 F 
ATOM     71  F   UNL     1       8.869  10.258   0.563  1.00  0.00    -0.200 F 
ENDBRANCH  47  61
BRANCH  48  72
ATOM     72  C   UNL     1      -2.649   5.764   7.491  1.00  0.00     0.064 A 
ATOM     73  C   UNL     1      -3.734   6.644   7.612  1.00  0.00     0.173 A 
ATOM     74  C   UNL     1      -2.806   4.461   7.984  1.00  0.00     0.173 A 
ATOM     75  F   UNL     1      -3.627   7.903   7.164  1.00  0.00    -0.203 F 
ATOM     76  C   UNL     1      -4.927   6.237   8.206  1.00  0.00     0.198 A 
ATOM     77  C   UNL     1      -4.008   4.049   8.556  1.00  0.00     0.198 A 
ATOM     78  F   UNL     1      -1.801   3.579   7.881  1.00  0.00    -0.203 F 
ATOM     79  F   UNL     1      -5.941   7.105   8.328  1.00  0.00    -0.200 F 
ATOM     80  C   UNL     1      -5.066   4.938   8.669  1.00  0.00     0.200 A 
ATOM     81  F   UNL     1      -4.145   2.787   8.987  1.00  0.00    -0.200 F 
ATOM     82  F   UNL     1      -6.220   4.543   9.225  1.00  0.00    -0.200 F 
ENDBRANCH  48  72
BRANCH  60  83
ATOM     83  C   UNL     1       2.405  10.365   8.945  1.00  0.00     0.064 A 
ATOM     84  C   UNL     1       2.943   9.824  10.121  1.00  0.00     0.173 A 
ATOM     85  C   UNL     1       2.244  11.757   8.869  1.00  0.00     0.173 A 
ATOM     86  F   UNL     1       3.103   8.498  10.242  1.00  0.00    -0.203 F 
ATOM     87  C   UNL     1       3.312  10.647  11.180  1.00  0.00     0.198 A 
ATOM     88  C   UNL     1       2.638  12.578   9.921  1.00  0.00     0.198 A 
ATOM     89  F   UNL     1       1.741  12.320   7.761  1.00  0.00    -0.203 F 
ATOM     90  F   UNL     1       3.810  10.108  12.302  1.00  0.00    -0.200 F 
ATOM     91  C   UNL     1       3.172  12.023  11.075  1.00  0.00     0.200 A 
ATOM     92  F   UNL     1       2.518  13.908   9.811  1.00  0.00    -0.200 F 
ATOM     93  F   UNL     1       3.555  12.815  12.085  1.00  0.00    -0.200 F 
ENDBRANCH  60  83
ENDBRANCH  34  35
ENDBRANCH  27  29
ENDBRANCH  26  27
ENDBRANCH  25  26
ENDBRANCH   1  25
TORSDOF 14
