REMARK SMILES Nc1ncc(C(=O)OCCOC(=O)c2ccc(-c3c4nc(c(-c5c(F)c(F)c(F)c(F)c5F)c5ccc([nH]5)c(-c5c(F)c(F)c(F)c(F)c5F)c5nc(c(-c6c(F)c(F)c(F)c(F)c6F)c6ccc3[nH]6)C=C5)C=C4)cc2)c(-c2ccccc2)n1
REMARK SMILES IDX 10 1 9 2 8 3 6 4 7 5 5 6 2 7 3 8 84 9 4 10 77 11 1 12 78 15
REMARK SMILES IDX 79 16 83 17 80 18 82 19 81 20 11 21 12 22 13 23 14 24 15 25
REMARK SMILES IDX 76 26 16 27 75 28 17 29 18 30 19 31 69 32 20 33 74 34 68 35
REMARK SMILES IDX 70 36 21 37 73 38 67 39 66 40 22 42 54 43 34 44 53 45 35 46
REMARK SMILES IDX 38 47 52 48 71 49 36 50 37 51 51 53 72 54 39 55 23 56 24 57
REMARK SMILES IDX 32 58 25 59 26 60 30 61 33 62 27 63 28 64 31 65 29 66 55 67
REMARK SMILES IDX 56 68 64 69 57 70 58 71 62 72 65 73 59 74 60 75 63 76 61 77
REMARK SMILES IDX 40 78 41 79 49 80 42 81 43 82 47 83 50 84 44 85 45 86 48 87
REMARK SMILES IDX 46 88
REMARK H PARENT 1 13 1 14 70 41 38 52
REMARK Flexibility Score: inf
ROOT
ATOM      1  C   UNL     1       5.895  -0.364  -1.139  1.00  0.00     0.275 C 
ENDROOT
BRANCH   1   2
ATOM      2  C   UNL     1       5.187  -0.992   0.060  1.00  0.00     0.275 C 
BRANCH   2   3
ATOM      3  O   UNL     1       3.756  -0.987  -0.123  1.00  0.00    -0.458 OA
BRANCH   3   4
ATOM      4  C   UNL     1       3.020  -0.257   0.748  1.00  0.00     0.342 C 
ATOM      5  O   UNL     1       3.443   0.503   1.597  1.00  0.00    -0.246 OA
BRANCH   4   6
ATOM      6  C   UNL     1       1.578  -0.423   0.496  1.00  0.00     0.104 A 
ATOM      7  C   UNL     1      -1.097  -0.542   0.063  1.00  0.00     0.220 A 
ATOM      8  N   UNL     1      -0.572   0.648   0.353  1.00  0.00    -0.221 NA
ATOM      9  N   UNL     1      -0.401  -1.682  -0.004  1.00  0.00    -0.212 NA
ATOM     10  C   UNL     1       0.755   0.677   0.581  1.00  0.00     0.133 A 
ATOM     11  C   UNL     1       0.940  -1.619   0.223  1.00  0.00     0.090 A 
BRANCH   7  12
ATOM     12  N   UNL     1      -2.442  -0.588  -0.141  1.00  0.00    -0.368 N 
ATOM     13  H   UNL     1      -2.976   0.238  -0.097  1.00  0.00     0.159 HD
ATOM     14  H   UNL     1      -2.882  -1.448  -0.334  1.00  0.00     0.159 HD
ENDBRANCH   7  12
BRANCH  11  15
ATOM     15  C   UNL     1       1.637  -2.913   0.181  1.00  0.00     0.001 A 
ATOM     16  C   UNL     1       2.435  -3.352   1.255  1.00  0.00     0.010 A 
ATOM     17  C   UNL     1       1.590  -3.705  -0.977  1.00  0.00     0.010 A 
ATOM     18  C   UNL     1       3.225  -4.497   1.141  1.00  0.00     0.001 A 
ATOM     19  C   UNL     1       2.370  -4.857  -1.086  1.00  0.00     0.001 A 
ATOM     20  C   UNL     1       3.201  -5.241  -0.035  1.00  0.00     0.000 A 
ENDBRANCH  11  15
ENDBRANCH   4   6
ENDBRANCH   3   4
ENDBRANCH   2   3
ENDBRANCH   1   2
BRANCH   1  21
ATOM     21  O   UNL     1       5.615   1.046  -1.199  1.00  0.00    -0.458 OA
BRANCH  21  22
ATOM     22  C   UNL     1       4.582   1.377  -2.004  1.00  0.00     0.338 C 
ATOM     23  O   UNL     1       3.929   0.645  -2.729  1.00  0.00    -0.246 OA
BRANCH  22  24
ATOM     24  C   UNL     1       4.215   2.776  -1.778  1.00  0.00     0.060 A 
ATOM     25  C   UNL     1       3.232   3.030  -0.827  1.00  0.00     0.016 A 
ATOM     26  C   UNL     1       4.687   3.797  -2.596  1.00  0.00     0.016 A 
ATOM     27  C   UNL     1       2.634   4.278  -0.750  1.00  0.00     0.010 A 
ATOM     28  C   UNL     1       4.152   5.082  -2.451  1.00  0.00     0.010 A 
ATOM     29  C   UNL     1       3.093   5.327  -1.553  1.00  0.00    -0.014 A 
BRANCH  29  30
ATOM     30  C   UNL     1       2.438   6.662  -1.480  1.00  0.00     0.031 A 
ATOM     31  C   UNL     1       1.812   7.260  -2.712  1.00  0.00     0.074 A 
ATOM     32  C   UNL     1       2.388   7.331  -0.311  1.00  0.00     0.049 A 
ATOM     33  N   UNL     1       1.367   8.475  -2.910  1.00  0.00    -0.248 NA
ATOM     34  C   UNL     1       1.686   6.377  -3.882  1.00  0.00     0.031 C 
ATOM     35  C   UNL     1       2.901   6.840   0.970  1.00  0.00     0.029 A 
ATOM     36  N   UNL     1       1.880   8.570  -0.009  1.00  0.00    -0.354 N 
ATOM     37  C   UNL     1       0.964   8.518  -4.239  1.00  0.00     0.074 A 
ATOM     38  C   UNL     1       1.224   7.211  -4.803  1.00  0.00     0.031 C 
ATOM     39  C   UNL     1       2.656   7.751   1.922  1.00  0.00     0.029 A 
ATOM     40  C   UNL     1       2.063   8.931   1.305  1.00  0.00     0.049 A 
ATOM     41  H   UNL     1       1.429   9.145  -0.669  1.00  0.00     0.167 HD
ATOM     42  C   UNL     1       0.426   9.558  -4.922  1.00  0.00     0.037 A 
ATOM     43  C   UNL     1       1.830  10.098   1.933  1.00  0.00     0.037 A 
ATOM     44  C   UNL     1       0.124  10.838  -4.334  1.00  0.00     0.049 A 
ATOM     45  C   UNL     1       1.279  11.251   1.142  1.00  0.00     0.074 A 
ATOM     46  C   UNL     1      -0.438  11.953  -4.931  1.00  0.00     0.029 A 
ATOM     47  N   UNL     1       0.349  11.169  -3.005  1.00  0.00    -0.354 N 
ATOM     48  N   UNL     1       0.945  11.301  -0.124  1.00  0.00    -0.248 NA
ATOM     49  C   UNL     1       1.088  12.516   1.864  1.00  0.00     0.031 C 
ATOM     50  C   UNL     1      -0.506  12.973  -3.978  1.00  0.00     0.029 A 
ATOM     51  C   UNL     1      -0.044  12.477  -2.769  1.00  0.00     0.049 A 
ATOM     52  H   UNL     1       0.732  10.564  -2.329  1.00  0.00     0.167 HD
ATOM     53  C   UNL     1       0.482  12.590  -0.346  1.00  0.00     0.074 A 
ATOM     54  C   UNL     1       0.563  13.286   0.922  1.00  0.00     0.031 C 
ATOM     55  C   UNL     1       0.032  13.148  -1.496  1.00  0.00     0.037 A 
BRANCH  42  56
ATOM     56  C   UNL     1       0.164   9.373  -6.390  1.00  0.00     0.064 A 
ATOM     57  C   UNL     1      -0.854   8.536  -6.869  1.00  0.00     0.173 A 
ATOM     58  C   UNL     1       0.927  10.079  -7.335  1.00  0.00     0.173 A 
ATOM     59  F   UNL     1      -1.605   7.828  -6.012  1.00  0.00    -0.203 F 
ATOM     60  C   UNL     1      -1.081   8.391  -8.237  1.00  0.00     0.198 A 
ATOM     61  C   UNL     1       0.676   9.958  -8.699  1.00  0.00     0.198 A 
ATOM     62  F   UNL     1       1.910  10.900  -6.934  1.00  0.00    -0.203 F 
ATOM     63  F   UNL     1      -2.027   7.548  -8.672  1.00  0.00    -0.200 F 
ATOM     64  C   UNL     1      -0.321   9.108  -9.150  1.00  0.00     0.200 A 
ATOM     65  F   UNL     1       1.401  10.665  -9.578  1.00  0.00    -0.200 F 
ATOM     66  F   UNL     1      -0.547   8.975 -10.464  1.00  0.00    -0.200 F 
ENDBRANCH  42  56
BRANCH  43  67
ATOM     67  C   UNL     1       2.163  10.244   3.376  1.00  0.00     0.064 A 
ATOM     68  C   UNL     1       1.158  10.434   4.333  1.00  0.00     0.173 A 
ATOM     69  C   UNL     1       3.491  10.195   3.827  1.00  0.00     0.173 A 
ATOM     70  F   UNL     1      -0.126  10.513   3.951  1.00  0.00    -0.203 F 
ATOM     71  C   UNL     1       1.469  10.584   5.684  1.00  0.00     0.198 A 
ATOM     72  C   UNL     1       3.798  10.309   5.181  1.00  0.00     0.198 A 
ATOM     73  F   UNL     1       4.492  10.015   2.953  1.00  0.00    -0.203 F 
ATOM     74  F   UNL     1       0.492  10.812   6.572  1.00  0.00    -0.200 F 
ATOM     75  C   UNL     1       2.788  10.512   6.107  1.00  0.00     0.200 A 
ATOM     76  F   UNL     1       5.072  10.220   5.586  1.00  0.00    -0.200 F 
ATOM     77  F   UNL     1       3.085  10.647   7.407  1.00  0.00    -0.200 F 
ENDBRANCH  43  67
BRANCH  55  78
ATOM     78  C   UNL     1      -0.456  14.565  -1.424  1.00  0.00     0.064 A 
ATOM     79  C   UNL     1       0.425  15.643  -1.254  1.00  0.00     0.173 A 
ATOM     80  C   UNL     1      -1.824  14.848  -1.560  1.00  0.00     0.173 A 
ATOM     81  F   UNL     1       1.740  15.424  -1.102  1.00  0.00    -0.203 F 
ATOM     82  C   UNL     1      -0.049  16.951  -1.195  1.00  0.00     0.198 A 
ATOM     83  C   UNL     1      -2.291  16.159  -1.533  1.00  0.00     0.198 A 
ATOM     84  F   UNL     1      -2.707  13.853  -1.730  1.00  0.00    -0.203 F 
ATOM     85  F   UNL     1       0.804  17.962  -0.979  1.00  0.00    -0.200 F 
ATOM     86  C   UNL     1      -1.405  17.208  -1.343  1.00  0.00     0.200 A 
ATOM     87  F   UNL     1      -3.598  16.406  -1.690  1.00  0.00    -0.200 F 
ATOM     88  F   UNL     1      -1.858  18.468  -1.293  1.00  0.00    -0.200 F 
ENDBRANCH  55  78
ENDBRANCH  29  30
ENDBRANCH  22  24
ENDBRANCH  21  22
ENDBRANCH   1  21
TORSDOF 13
