REMARK SMILES O=C(OCCOC(=O)c1ccc(-c2c3nc(c(-c4c(F)c(F)c(F)c(F)c4F)c4ccc([nH]4)c(-c4c(F)c(F)c(F)c(F)c4F)c4nc(c(-c5c(F)c(F)c(F)c(F)c5F)c5ccc2[nH]5)C=C4)C=C3)cc1)c1ccc(N/C=C\C(=O)c2ccco2)cc1
REMARK SMILES IDX 4 1 3 2 2 3 1 4 72 5 73 6 87 7 74 8 86 9 75 10 76 11 77 13
REMARK SMILES IDX 78 14 79 15 80 16 81 17 82 18 85 19 83 20 84 21 5 22 6 23
REMARK SMILES IDX 7 24 8 25 9 26 10 27 71 28 11 29 70 30 12 31 13 32 14 33
REMARK SMILES IDX 64 34 15 35 69 36 63 37 65 38 16 39 68 40 62 41 61 42 17 44
REMARK SMILES IDX 49 45 29 46 48 47 30 48 33 49 47 50 66 51 31 52 32 53 46 55
REMARK SMILES IDX 67 56 34 57 18 58 19 59 27 60 20 61 21 62 25 63 28 64 22 65
REMARK SMILES IDX 23 66 26 67 24 68 50 69 51 70 59 71 52 72 53 73 57 74 60 75
REMARK SMILES IDX 54 76 55 77 58 78 56 79 35 80 36 81 44 82 37 83 38 84 42 85
REMARK SMILES IDX 45 86 39 87 40 88 43 89 41 90
REMARK H PARENT 76 12 65 43 33 54
REMARK Flexibility Score: inf
ROOT
ATOM      1  C   UNL     1       3.916   0.850   1.252  1.00  0.00     0.275 C 
ENDROOT
BRANCH   1   2
ATOM      2  O   UNL     1       2.931   0.975   0.210  1.00  0.00    -0.458 OA
BRANCH   2   3
ATOM      3  C   UNL     1       3.001   0.561  -1.080  1.00  0.00     0.338 C 
ATOM      4  O   UNL     1       2.245   1.057  -1.913  1.00  0.00    -0.246 OA
BRANCH   3   5
ATOM      5  C   UNL     1       3.804  -0.629  -1.492  1.00  0.00     0.060 A 
ATOM      6  C   UNL     1       5.049  -0.999  -0.983  1.00  0.00     0.018 A 
ATOM      7  C   UNL     1       3.222  -1.461  -2.458  1.00  0.00     0.018 A 
ATOM      8  C   UNL     1       5.598  -2.256  -1.267  1.00  0.00     0.027 A 
ATOM      9  C   UNL     1       3.803  -2.689  -2.780  1.00  0.00     0.027 A 
ATOM     10  C   UNL     1       4.956  -3.138  -2.129  1.00  0.00     0.038 A 
BRANCH  10  11
ATOM     11  N   UNL     1       5.384  -4.452  -2.350  1.00  0.00    -0.362 N 
ATOM     12  H   UNL     1       4.853  -4.967  -3.000  1.00  0.00     0.166 HD
BRANCH  11  13
ATOM     13  C   UNL     1       6.439  -5.123  -1.790  1.00  0.00     0.087 C 
ATOM     14  C   UNL     1       7.187  -6.098  -2.327  1.00  0.00     0.074 C 
BRANCH  14  15
ATOM     15  C   UNL     1       7.104  -6.587  -3.739  1.00  0.00     0.222 C 
ATOM     16  O   UNL     1       7.542  -7.710  -3.981  1.00  0.00    -0.286 OA
BRANCH  15  17
ATOM     17  C   UNL     1       6.524  -5.710  -4.735  1.00  0.00     0.173 A 
ATOM     18  C   UNL     1       6.758  -4.381  -5.052  1.00  0.00     0.054 A 
ATOM     19  O   UNL     1       5.434  -6.153  -5.430  1.00  0.00    -0.461 OA
ATOM     20  C   UNL     1       5.733  -3.985  -5.941  1.00  0.00     0.043 A 
ATOM     21  C   UNL     1       4.966  -5.102  -6.145  1.00  0.00     0.196 A 
ENDBRANCH  15  17
ENDBRANCH  14  15
ENDBRANCH  11  13
ENDBRANCH  10  11
ENDBRANCH   3   5
ENDBRANCH   2   3
ENDBRANCH   1   2
BRANCH   1  22
ATOM     22  C   UNL     1       3.732  -0.367   2.165  1.00  0.00     0.275 C 
BRANCH  22  23
ATOM     23  O   UNL     1       3.458  -1.585   1.452  1.00  0.00    -0.458 OA
BRANCH  23  24
ATOM     24  C   UNL     1       2.137  -1.897   1.330  1.00  0.00     0.338 C 
ATOM     25  O   UNL     1       1.206  -1.289   1.816  1.00  0.00    -0.246 OA
BRANCH  24  26
ATOM     26  C   UNL     1       1.957  -3.052   0.411  1.00  0.00     0.060 A 
ATOM     27  C   UNL     1       0.838  -3.057  -0.435  1.00  0.00     0.016 A 
ATOM     28  C   UNL     1       2.854  -4.120   0.366  1.00  0.00     0.016 A 
ATOM     29  C   UNL     1       0.614  -4.120  -1.323  1.00  0.00     0.010 A 
ATOM     30  C   UNL     1       2.634  -5.176  -0.532  1.00  0.00     0.010 A 
ATOM     31  C   UNL     1       1.506  -5.198  -1.379  1.00  0.00    -0.014 A 
BRANCH  31  32
ATOM     32  C   UNL     1       1.217  -6.426  -2.181  1.00  0.00     0.031 A 
ATOM     33  C   UNL     1       0.882  -7.697  -1.444  1.00  0.00     0.074 A 
ATOM     34  C   UNL     1       1.256  -6.463  -3.529  1.00  0.00     0.049 A 
ATOM     35  N   UNL     1       0.718  -8.912  -1.905  1.00  0.00    -0.248 NA
ATOM     36  C   UNL     1       0.688  -7.573   0.009  1.00  0.00     0.031 C 
ATOM     37  C   UNL     1       1.439  -5.322  -4.419  1.00  0.00     0.029 A 
ATOM     38  N   UNL     1       1.171  -7.538  -4.391  1.00  0.00    -0.354 N 
ATOM     39  C   UNL     1       0.378  -9.687  -0.806  1.00  0.00     0.074 A 
ATOM     40  C   UNL     1       0.442  -8.826   0.356  1.00  0.00     0.031 C 
ATOM     41  C   UNL     1       1.540  -5.762  -5.687  1.00  0.00     0.029 A 
ATOM     42  C   UNL     1       1.450  -7.220  -5.700  1.00  0.00     0.049 A 
ATOM     43  H   UNL     1       0.934  -8.447  -4.096  1.00  0.00     0.167 HD
ATOM     44  C   UNL     1      -0.004 -10.986  -0.765  1.00  0.00     0.037 A 
ATOM     45  C   UNL     1       1.646  -8.013  -6.774  1.00  0.00     0.037 A 
ATOM     46  C   UNL     1      -0.079 -11.858  -1.906  1.00  0.00     0.049 A 
ATOM     47  C   UNL     1       1.444  -9.497  -6.671  1.00  0.00     0.074 A 
ATOM     48  C   UNL     1      -0.522 -13.168  -1.961  1.00  0.00     0.029 A 
ATOM     49  N   UNL     1       0.320 -11.517  -3.188  1.00  0.00    -0.354 N 
ATOM     50  N   UNL     1       1.089 -10.213  -5.636  1.00  0.00    -0.248 NA
ATOM     51  C   UNL     1       1.625 -10.275  -7.908  1.00  0.00     0.031 C 
ATOM     52  C   UNL     1      -0.333 -13.641  -3.264  1.00  0.00     0.029 A 
ATOM     53  C   UNL     1       0.171 -12.605  -4.033  1.00  0.00     0.049 A 
ATOM     54  H   UNL     1       0.659 -10.633  -3.458  1.00  0.00     0.167 HD
ATOM     55  C   UNL     1       0.940 -11.511  -6.108  1.00  0.00     0.074 A 
ATOM     56  C   UNL     1       1.286 -11.494  -7.512  1.00  0.00     0.031 C 
ATOM     57  C   UNL     1       0.507 -12.602  -5.434  1.00  0.00     0.037 A 
BRANCH  44  58
ATOM     58  C   UNL     1      -0.376 -11.541   0.577  1.00  0.00     0.064 A 
ATOM     59  C   UNL     1      -1.545 -11.135   1.239  1.00  0.00     0.173 A 
ATOM     60  C   UNL     1       0.442 -12.491   1.204  1.00  0.00     0.173 A 
ATOM     61  F   UNL     1      -2.353 -10.219   0.684  1.00  0.00    -0.203 F 
ATOM     62  C   UNL     1      -1.859 -11.630   2.501  1.00  0.00     0.198 A 
ATOM     63  C   UNL     1       0.107 -13.008   2.452  1.00  0.00     0.198 A 
ATOM     64  F   UNL     1       1.566 -12.916   0.609  1.00  0.00    -0.203 F 
ATOM     65  F   UNL     1      -2.946 -11.181   3.143  1.00  0.00    -0.200 F 
ATOM     66  C   UNL     1      -1.036 -12.568   3.104  1.00  0.00     0.200 A 
ATOM     67  F   UNL     1       0.897 -13.924   3.029  1.00  0.00    -0.200 F 
ATOM     68  F   UNL     1      -1.337 -13.041   4.321  1.00  0.00    -0.200 F 
ENDBRANCH  44  58
BRANCH  45  69
ATOM     69  C   UNL     1       2.116  -7.442  -8.062  1.00  0.00     0.064 A 
ATOM     70  C   UNL     1       1.228  -7.001  -9.048  1.00  0.00     0.173 A 
ATOM     71  C   UNL     1       3.488  -7.393  -8.346  1.00  0.00     0.173 A 
ATOM     72  F   UNL     1      -0.093  -7.096  -8.849  1.00  0.00    -0.203 F 
ATOM     73  C   UNL     1       1.701  -6.494 -10.259  1.00  0.00     0.198 A 
ATOM     74  C   UNL     1       3.961  -6.859  -9.541  1.00  0.00     0.198 A 
ATOM     75  F   UNL     1       4.368  -7.877  -7.459  1.00  0.00    -0.203 F 
ATOM     76  F   UNL     1       0.834  -6.099 -11.201  1.00  0.00    -0.200 F 
ATOM     77  C   UNL     1       3.066  -6.407 -10.497  1.00  0.00     0.200 A 
ATOM     78  F   UNL     1       5.279  -6.783  -9.767  1.00  0.00    -0.200 F 
ATOM     79  F   UNL     1       3.517  -5.901 -11.653  1.00  0.00    -0.200 F 
ENDBRANCH  45  69
BRANCH  57  80
ATOM     80  C   UNL     1       0.286 -13.864  -6.214  1.00  0.00     0.064 A 
ATOM     81  C   UNL     1       1.347 -14.654  -6.678  1.00  0.00     0.173 A 
ATOM     82  C   UNL     1      -1.022 -14.312  -6.458  1.00  0.00     0.173 A 
ATOM     83  F   UNL     1       2.615 -14.258  -6.492  1.00  0.00    -0.203 F 
ATOM     84  C   UNL     1       1.105 -15.841  -7.365  1.00  0.00     0.198 A 
ATOM     85  C   UNL     1      -1.260 -15.513  -7.120  1.00  0.00     0.198 A 
ATOM     86  F   UNL     1      -2.073 -13.591  -6.039  1.00  0.00    -0.203 F 
ATOM     87  F   UNL     1       2.133 -16.564  -7.832  1.00  0.00    -0.200 F 
ATOM     88  C   UNL     1      -0.196 -16.275  -7.576  1.00  0.00     0.200 A 
ATOM     89  F   UNL     1      -2.518 -15.933  -7.313  1.00  0.00    -0.200 F 
ATOM     90  F   UNL     1      -0.425 -17.425  -8.225  1.00  0.00    -0.200 F 
ENDBRANCH  57  80
ENDBRANCH  31  32
ENDBRANCH  24  26
ENDBRANCH  23  24
ENDBRANCH  22  23
ENDBRANCH   1  22
TORSDOF 15
