REMARK SMILES CCCC1(CCC)CN(c2cncc(C(=O)OCCOC(=O)c3ccc(-c4c5nc(c(-c6c(F)c(F)c(F)c(F)c6F)c6ccc([nH]6)c(-c6c(F)c(F)c(F)c(F)c6F)c6nc(c(-c7c(F)c(F)c(F)c(F)c7F)c7ccc4[nH]7)C=C6)C=C5)cc3)c2)C1
REMARK SMILES IDX 18 1 17 2 15 3 16 4 14 5 10 6 11 7 86 8 12 9 13 10 9 11 4 12
REMARK SMILES IDX 8 13 87 14 3 15 2 16 1 17 5 18 6 19 7 20 19 21 20 22 21 23
REMARK SMILES IDX 22 24 23 25 24 26 85 27 25 28 84 29 26 30 27 31 28 32 78 33
REMARK SMILES IDX 29 34 83 35 77 36 79 37 30 38 82 39 76 40 75 41 31 43 63 44
REMARK SMILES IDX 43 45 62 46 44 47 47 48 61 49 80 50 45 51 46 52 60 54 81 55
REMARK SMILES IDX 48 56 32 57 33 58 41 59 34 60 35 61 39 62 42 63 36 64 37 65
REMARK SMILES IDX 40 66 38 67 64 68 65 69 73 70 66 71 67 72 71 73 74 74 68 75
REMARK SMILES IDX 69 76 72 77 70 78 49 79 50 80 58 81 51 82 52 83 56 84 59 85
REMARK SMILES IDX 53 86 54 87 57 88 55 89
REMARK H PARENT 79 42 47 53
REMARK Flexibility Score: inf
ROOT
ATOM      1  C   UNL     1      -4.163   6.059   4.295  1.00  0.00     0.275 C 
ENDROOT
BRANCH   1   2
ATOM      2  O   UNL     1      -2.922   5.330   4.210  1.00  0.00    -0.458 OA
BRANCH   2   3
ATOM      3  C   UNL     1      -1.812   6.036   3.885  1.00  0.00     0.339 C 
ATOM      4  O   UNL     1      -1.748   7.232   3.648  1.00  0.00    -0.246 OA
BRANCH   3   5
ATOM      5  C   UNL     1      -0.623   5.167   3.967  1.00  0.00     0.080 A 
ATOM      6  C   UNL     1       0.455   3.010   3.858  1.00  0.00     0.056 A 
ATOM      7  C   UNL     1       1.617   3.631   4.305  1.00  0.00     0.136 A 
ATOM      8  C   UNL     1      -0.688   3.802   3.724  1.00  0.00     0.044 A 
ATOM      9  N   UNL     1       1.732   4.966   4.505  1.00  0.00    -0.262 NA
ATOM     10  C   UNL     1       0.616   5.704   4.292  1.00  0.00     0.126 A 
BRANCH   6  11
ATOM     11  N   UNL     1       0.381   1.669   3.483  1.00  0.00    -0.369 N 
ATOM     12  C   UNL     1       0.417  -0.202   2.616  1.00  0.00     0.005 C 
ATOM     13  C   UNL     1       1.227   0.548   3.728  1.00  0.00     0.125 C 
ATOM     14  C   UNL     1       0.009   1.221   2.173  1.00  0.00     0.125 C 
BRANCH  12  15
ATOM     15  C   UNL     1       1.347  -1.031   1.716  1.00  0.00     0.010 C 
BRANCH  15  16
ATOM     16  C   UNL     1       0.925  -1.138   0.245  1.00  0.00    -0.003 C 
ATOM     17  C   UNL     1       1.406   0.007  -0.637  1.00  0.00     0.004 C 
ENDBRANCH  15  16
ENDBRANCH  12  15
BRANCH  12  18
ATOM     18  C   UNL     1      -0.755  -0.994   3.257  1.00  0.00     0.010 C 
BRANCH  18  19
ATOM     19  C   UNL     1      -1.863  -1.379   2.274  1.00  0.00    -0.003 C 
ATOM     20  C   UNL     1      -1.770  -2.829   1.827  1.00  0.00     0.004 C 
ENDBRANCH  18  19
ENDBRANCH  12  18
ENDBRANCH   6  11
ENDBRANCH   3   5
ENDBRANCH   2   3
ENDBRANCH   1   2
BRANCH   1  21
ATOM     21  C   UNL     1      -4.570   6.291   5.751  1.00  0.00     0.275 C 
BRANCH  21  22
ATOM     22  O   UNL     1      -3.666   7.217   6.384  1.00  0.00    -0.458 OA
BRANCH  22  23
ATOM     23  C   UNL     1      -2.800   6.666   7.263  1.00  0.00     0.338 C 
ATOM     24  O   UNL     1      -2.733   5.503   7.618  1.00  0.00    -0.246 OA
BRANCH  23  25
ATOM     25  C   UNL     1      -1.814   7.671   7.683  1.00  0.00     0.060 A 
ATOM     26  C   UNL     1      -0.687   7.834   6.885  1.00  0.00     0.016 A 
ATOM     27  C   UNL     1      -1.892   8.301   8.920  1.00  0.00     0.016 A 
ATOM     28  C   UNL     1       0.414   8.540   7.349  1.00  0.00     0.010 A 
ATOM     29  C   UNL     1      -0.816   9.089   9.353  1.00  0.00     0.010 A 
ATOM     30  C   UNL     1       0.367   9.181   8.592  1.00  0.00    -0.014 A 
BRANCH  30  31
ATOM     31  C   UNL     1       1.580   9.867   9.120  1.00  0.00     0.031 A 
ATOM     32  C   UNL     1       2.199   9.407  10.413  1.00  0.00     0.074 A 
ATOM     33  C   UNL     1       2.159  10.870   8.430  1.00  0.00     0.049 A 
ATOM     34  N   UNL     1       3.141   9.966  11.131  1.00  0.00    -0.248 NA
ATOM     35  C   UNL     1       1.677   8.155  10.983  1.00  0.00     0.031 C 
ATOM     36  C   UNL     1       1.710  11.377   7.133  1.00  0.00     0.029 A 
ATOM     37  N   UNL     1       3.259  11.640   8.722  1.00  0.00    -0.354 N 
ATOM     38  C   UNL     1       3.281   9.169  12.261  1.00  0.00     0.074 A 
ATOM     39  C   UNL     1       2.321   8.094  12.140  1.00  0.00     0.031 C 
ATOM     40  C   UNL     1       2.541  12.349   6.728  1.00  0.00     0.029 A 
ATOM     41  C   UNL     1       3.528  12.596   7.773  1.00  0.00     0.049 A 
ATOM     42  H   UNL     1       3.803  11.518   9.534  1.00  0.00     0.167 HD
ATOM     43  C   UNL     1       4.134   9.322  13.303  1.00  0.00     0.037 A 
ATOM     44  C   UNL     1       4.435  13.591   7.763  1.00  0.00     0.037 A 
ATOM     45  C   UNL     1       5.128  10.361  13.389  1.00  0.00     0.049 A 
ATOM     46  C   UNL     1       5.354  13.759   8.941  1.00  0.00     0.074 A 
ATOM     47  C   UNL     1       6.041  10.603  14.402  1.00  0.00     0.029 A 
ATOM     48  N   UNL     1       5.354  11.322  12.413  1.00  0.00    -0.354 N 
ATOM     49  N   UNL     1       5.431  13.044  10.037  1.00  0.00    -0.248 NA
ATOM     50  C   UNL     1       6.303  14.879   8.886  1.00  0.00     0.031 C 
ATOM     51  C   UNL     1       6.793  11.731  14.055  1.00  0.00     0.029 A 
ATOM     52  C   UNL     1       6.386  12.161  12.803  1.00  0.00     0.049 A 
ATOM     53  H   UNL     1       4.854  11.396  11.568  1.00  0.00     0.167 HD
ATOM     54  C   UNL     1       6.446  13.614  10.793  1.00  0.00     0.074 A 
ATOM     55  C   UNL     1       6.968  14.724  10.022  1.00  0.00     0.031 C 
ATOM     56  C   UNL     1       6.901  13.254  12.019  1.00  0.00     0.037 A 
BRANCH  43  57
ATOM     57  C   UNL     1       4.006   8.364  14.452  1.00  0.00     0.064 A 
ATOM     58  C   UNL     1       4.386   7.018  14.348  1.00  0.00     0.173 A 
ATOM     59  C   UNL     1       3.516   8.811  15.690  1.00  0.00     0.173 A 
ATOM     60  F   UNL     1       4.848   6.535  13.185  1.00  0.00    -0.203 F 
ATOM     61  C   UNL     1       4.249   6.148  15.428  1.00  0.00     0.198 A 
ATOM     62  C   UNL     1       3.411   7.947  16.777  1.00  0.00     0.198 A 
ATOM     63  F   UNL     1       3.145  10.090  15.849  1.00  0.00    -0.203 F 
ATOM     64  F   UNL     1       4.568   4.854  15.289  1.00  0.00    -0.200 F 
ATOM     65  C   UNL     1       3.768   6.614  16.642  1.00  0.00     0.200 A 
ATOM     66  F   UNL     1       2.960   8.403  17.953  1.00  0.00    -0.200 F 
ATOM     67  F   UNL     1       3.643   5.777  17.682  1.00  0.00    -0.200 F 
ENDBRANCH  43  57
BRANCH  44  68
ATOM     68  C   UNL     1       4.487  14.531   6.612  1.00  0.00     0.064 A 
ATOM     69  C   UNL     1       5.585  14.554   5.742  1.00  0.00     0.173 A 
ATOM     70  C   UNL     1       3.433  15.422   6.354  1.00  0.00     0.173 A 
ATOM     71  F   UNL     1       6.630  13.742   5.961  1.00  0.00    -0.203 F 
ATOM     72  C   UNL     1       5.631  15.437   4.665  1.00  0.00     0.198 A 
ATOM     73  C   UNL     1       3.465  16.280   5.258  1.00  0.00     0.198 A 
ATOM     74  F   UNL     1       2.359  15.443   7.157  1.00  0.00    -0.203 F 
ATOM     75  F   UNL     1       6.712  15.469   3.873  1.00  0.00    -0.200 F 
ATOM     76  C   UNL     1       4.568  16.293   4.418  1.00  0.00     0.200 A 
ATOM     77  F   UNL     1       2.428  17.093   5.015  1.00  0.00    -0.200 F 
ATOM     78  F   UNL     1       4.609  17.134   3.376  1.00  0.00    -0.200 F 
ENDBRANCH  44  68
BRANCH  56  79
ATOM     79  C   UNL     1       8.050  14.040  12.581  1.00  0.00     0.064 A 
ATOM     80  C   UNL     1       7.889  15.353  13.046  1.00  0.00     0.173 A 
ATOM     81  C   UNL     1       9.323  13.458  12.679  1.00  0.00     0.173 A 
ATOM     82  F   UNL     1       6.695  15.959  12.959  1.00  0.00    -0.203 F 
ATOM     83  C   UNL     1       8.968  16.065  13.563  1.00  0.00     0.198 A 
ATOM     84  C   UNL     1      10.392  14.162  13.223  1.00  0.00     0.198 A 
ATOM     85  F   UNL     1       9.527  12.202  12.254  1.00  0.00    -0.203 F 
ATOM     86  F   UNL     1       8.803  17.336  13.955  1.00  0.00    -0.200 F 
ATOM     87  C   UNL     1      10.216  15.467  13.657  1.00  0.00     0.200 A 
ATOM     88  F   UNL     1      11.595  13.579  13.325  1.00  0.00    -0.200 F 
ATOM     89  F   UNL     1      11.253  16.153  14.158  1.00  0.00    -0.200 F 
ENDBRANCH  56  79
ENDBRANCH  30  31
ENDBRANCH  23  25
ENDBRANCH  22  23
ENDBRANCH  21  22
ENDBRANCH   1  21
TORSDOF 16
