REMARK SMILES O=C(COc1ccc(/C=C2\SC(=O)N(Cc3cc4c(cc3Cl)OCO4)C2=O)cc1)OCCOC(=O)c1ccc(-c2c3nc(c(-c4c(F)c(F)c(F)c(F)c4F)c4ccc([nH]4)c(-c4c(F)c(F)c(F)c(F)c4F)c4nc(c(-c5c(F)c(F)c(F)c(F)c5F)c5ccc2[nH]5)C=C4)C=C3)cc1
REMARK SMILES IDX 30 1 2 2 1 3 3 4 4 5 5 6 6 7 29 8 7 9 28 10 8 11 9 12 10 13
REMARK SMILES IDX 11 14 26 15 12 16 14 17 27 18 13 19 15 20 16 21 17 22 21 23
REMARK SMILES IDX 18 24 20 25 22 26 19 27 25 28 23 29 24 30 31 31 32 32 33 33
REMARK SMILES IDX 34 34 35 35 36 36 37 37 98 38 38 39 97 40 39 41 40 42 41 43
REMARK SMILES IDX 91 44 42 45 96 46 90 47 92 48 43 49 95 50 89 51 88 52 44 54
REMARK SMILES IDX 76 55 56 56 75 57 57 58 60 59 74 60 93 61 58 62 59 63 73 65
REMARK SMILES IDX 94 66 61 67 45 68 46 69 54 70 47 71 48 72 52 73 55 74 49 75
REMARK SMILES IDX 50 76 53 77 51 78 77 79 78 80 86 81 79 82 80 83 84 84 87 85
REMARK SMILES IDX 81 86 82 87 85 88 83 89 62 90 63 91 71 92 64 93 65 94 69 95
REMARK SMILES IDX 72 96 66 97 67 98 70 99 68 100
REMARK H PARENT 92 53 60 64
REMARK Flexibility Score: inf
ROOT
ATOM      1  O   UNL     1       3.307  -0.893   0.521  1.00  0.00    -0.460 OA
ENDROOT
BRANCH   1   2
ATOM      2  C   UNL     1       2.607   0.165   0.051  1.00  0.00     0.344 C 
ATOM      3  O   UNL     1       1.377   0.169   0.108  1.00  0.00    -0.248 OA
BRANCH   2   4
ATOM      4  C   UNL     1       3.378   1.375  -0.481  1.00  0.00     0.351 C 
BRANCH   4   5
ATOM      5  O   UNL     1       4.340   1.976   0.378  1.00  0.00    -0.482 OA
BRANCH   5   6
ATOM      6  C   UNL     1       3.753   2.832   1.267  1.00  0.00     0.120 A 
ATOM      7  C   UNL     1       4.251   4.135   1.348  1.00  0.00     0.047 A 
ATOM      8  C   UNL     1       2.713   2.420   2.093  1.00  0.00     0.047 A 
ATOM      9  C   UNL     1       3.675   5.047   2.237  1.00  0.00     0.012 A 
ATOM     10  C   UNL     1       2.116   3.328   2.938  1.00  0.00     0.012 A 
ATOM     11  C   UNL     1       2.607   4.633   3.029  1.00  0.00    -0.024 A 
BRANCH  11  12
ATOM     12  C   UNL     1       1.919   5.456   4.006  1.00  0.00     0.029 C 
ATOM     13  C   UNL     1       2.044   5.219   5.316  1.00  0.00     0.083 C 
ATOM     14  S   UNL     1       3.247   4.372   6.200  1.00  0.00    -0.022 SA
ATOM     15  C   UNL     1       0.969   5.629   6.230  1.00  0.00     0.268 C 
ATOM     16  C   UNL     1       2.578   4.921   7.739  1.00  0.00     0.293 C 
ATOM     17  N   UNL     1       1.452   5.667   7.505  1.00  0.00    -0.264 N 
ATOM     18  O   UNL     1      -0.193   5.766   5.877  1.00  0.00    -0.268 OA
ATOM     19  O   UNL     1       3.068   4.638   8.812  1.00  0.00    -0.261 OA
BRANCH  17  20
ATOM     20  C   UNL     1       0.741   6.378   8.542  1.00  0.00     0.167 C 
BRANCH  20  21
ATOM     21  C   UNL     1       1.229   7.818   8.606  1.00  0.00    -0.005 A 
ATOM     22  C   UNL     1       2.119   8.174   9.639  1.00  0.00     0.057 A 
ATOM     23  C   UNL     1       0.878   8.805   7.643  1.00  0.00     0.050 A 
ATOM     24  C   UNL     1       2.599   9.467   9.672  1.00  0.00     0.166 A 
ATOM     25  C   UNL     1       1.464  10.073   7.648  1.00  0.00     0.071 A 
ATOM     26  Cl  UNL     1      -0.354   8.588   6.459  1.00  0.00    -0.084 Cl
ATOM     27  C   UNL     1       2.300  10.379   8.689  1.00  0.00     0.167 A 
ATOM     28  O   UNL     1       3.378  10.010  10.646  1.00  0.00    -0.454 OA
ATOM     29  O   UNL     1       2.870  11.592   8.909  1.00  0.00    -0.454 OA
ATOM     30  C   UNL     1       3.360  11.399  10.251  1.00  0.00     0.468 C 
ENDBRANCH  20  21
ENDBRANCH  17  20
ENDBRANCH  11  12
ENDBRANCH   5   6
ENDBRANCH   4   5
ENDBRANCH   2   4
ENDBRANCH   1   2
BRANCH   1  31
ATOM     31  C   UNL     1       4.646  -1.193   0.083  1.00  0.00     0.274 C 
BRANCH  31  32
ATOM     32  C   UNL     1       4.611  -2.009  -1.212  1.00  0.00     0.275 C 
BRANCH  32  33
ATOM     33  O   UNL     1       4.144  -1.182  -2.298  1.00  0.00    -0.458 OA
BRANCH  33  34
ATOM     34  C   UNL     1       2.852  -1.350  -2.686  1.00  0.00     0.338 C 
ATOM     35  O   UNL     1       2.083  -2.217  -2.319  1.00  0.00    -0.246 OA
BRANCH  34  36
ATOM     36  C   UNL     1       2.452  -0.151  -3.464  1.00  0.00     0.060 A 
ATOM     37  C   UNL     1       1.230   0.470  -3.168  1.00  0.00     0.016 A 
ATOM     38  C   UNL     1       3.309   0.412  -4.413  1.00  0.00     0.016 A 
ATOM     39  C   UNL     1       0.872   1.661  -3.809  1.00  0.00     0.010 A 
ATOM     40  C   UNL     1       2.941   1.590  -5.068  1.00  0.00     0.010 A 
ATOM     41  C   UNL     1       1.718   2.220  -4.776  1.00  0.00    -0.014 A 
BRANCH  41  42
ATOM     42  C   UNL     1       1.300   3.394  -5.580  1.00  0.00     0.031 A 
ATOM     43  C   UNL     1       0.650   3.162  -6.914  1.00  0.00     0.074 A 
ATOM     44  C   UNL     1       1.557   4.649  -5.168  1.00  0.00     0.049 A 
ATOM     45  N   UNL     1       0.333   4.025  -7.845  1.00  0.00    -0.248 NA
ATOM     46  C   UNL     1       0.322   1.766  -7.246  1.00  0.00     0.031 C 
ATOM     47  C   UNL     1       2.158   5.015  -3.887  1.00  0.00     0.029 A 
ATOM     48  N   UNL     1       1.370   5.852  -5.808  1.00  0.00    -0.354 N 
ATOM     49  C   UNL     1      -0.223   3.279  -8.874  1.00  0.00     0.074 A 
ATOM     50  C   UNL     1      -0.189   1.892  -8.463  1.00  0.00     0.031 C 
ATOM     51  C   UNL     1       2.325   6.350  -3.850  1.00  0.00     0.029 A 
ATOM     52  C   UNL     1       1.874   6.927  -5.116  1.00  0.00     0.049 A 
ATOM     53  H   UNL     1       0.918   5.935  -6.678  1.00  0.00     0.167 HD
ATOM     54  C   UNL     1      -0.718   3.713 -10.056  1.00  0.00     0.037 A 
ATOM     55  C   UNL     1       1.994   8.220  -5.482  1.00  0.00     0.037 A 
ATOM     56  C   UNL     1      -0.762   5.090 -10.468  1.00  0.00     0.049 A 
ATOM     57  C   UNL     1       1.508   8.661  -6.842  1.00  0.00     0.074 A 
ATOM     58  C   UNL     1      -1.310   5.625 -11.621  1.00  0.00     0.029 A 
ATOM     59  N   UNL     1      -0.224   6.145  -9.751  1.00  0.00    -0.354 N 
ATOM     60  N   UNL     1       0.923   7.961  -7.782  1.00  0.00    -0.248 NA
ATOM     61  C   UNL     1       1.709  10.077  -7.194  1.00  0.00     0.031 C 
ATOM     62  C   UNL     1      -1.050   6.999 -11.630  1.00  0.00     0.029 A 
ATOM     63  C   UNL     1      -0.384   7.324 -10.460  1.00  0.00     0.049 A 
ATOM     64  H   UNL     1       0.208   6.069  -8.869  1.00  0.00     0.167 HD
ATOM     65  C   UNL     1       0.667   8.849  -8.820  1.00  0.00     0.074 A 
ATOM     66  C   UNL     1       1.145  10.145  -8.391  1.00  0.00     0.031 C 
ATOM     67  C   UNL     1       0.090   8.611 -10.023  1.00  0.00     0.037 A 
BRANCH  54  68
ATOM     68  C   UNL     1      -1.238   2.686 -11.014  1.00  0.00     0.064 A 
ATOM     69  C   UNL     1      -2.477   2.061 -10.819  1.00  0.00     0.173 A 
ATOM     70  C   UNL     1      -0.521   2.385 -12.181  1.00  0.00     0.173 A 
ATOM     71  F   UNL     1      -3.192   2.309  -9.711  1.00  0.00    -0.203 F 
ATOM     72  C   UNL     1      -2.978   1.164 -11.758  1.00  0.00     0.198 A 
ATOM     73  C   UNL     1      -1.034   1.505 -13.128  1.00  0.00     0.198 A 
ATOM     74  F   UNL     1       0.669   2.962 -12.411  1.00  0.00    -0.203 F 
ATOM     75  F   UNL     1      -4.154   0.559 -11.544  1.00  0.00    -0.200 F 
ATOM     76  C   UNL     1      -2.261   0.894 -12.915  1.00  0.00     0.200 A 
ATOM     77  F   UNL     1      -0.345   1.254 -14.250  1.00  0.00    -0.200 F 
ATOM     78  F   UNL     1      -2.753   0.044 -13.826  1.00  0.00    -0.200 F 
ENDBRANCH  54  68
BRANCH  55  79
ATOM     79  C   UNL     1       2.651   9.201  -4.576  1.00  0.00     0.064 A 
ATOM     80  C   UNL     1       1.929  10.261  -4.010  1.00  0.00     0.173 A 
ATOM     81  C   UNL     1       4.029   9.140  -4.320  1.00  0.00     0.173 A 
ATOM     82  F   UNL     1       0.616  10.382  -4.255  1.00  0.00    -0.203 F 
ATOM     83  C   UNL     1       2.565  11.238  -3.247  1.00  0.00     0.198 A 
ATOM     84  C   UNL     1       4.658  10.101  -3.532  1.00  0.00     0.198 A 
ATOM     85  F   UNL     1       4.768   8.151  -4.845  1.00  0.00    -0.203 F 
ATOM     86  F   UNL     1       1.864  12.277  -2.773  1.00  0.00    -0.200 F 
ATOM     87  C   UNL     1       3.928  11.156  -3.006  1.00  0.00     0.200 A 
ATOM     88  F   UNL     1       5.974  10.014  -3.297  1.00  0.00    -0.200 F 
ATOM     89  F   UNL     1       4.542  12.102  -2.282  1.00  0.00    -0.200 F 
ENDBRANCH  55  79
BRANCH  67  90
ATOM     90  C   UNL     1      -0.077   9.771 -10.960  1.00  0.00     0.064 A 
ATOM     91  C   UNL     1       1.016  10.326 -11.640  1.00  0.00     0.173 A 
ATOM     92  C   UNL     1      -1.352  10.292 -11.230  1.00  0.00     0.173 A 
ATOM     93  F   UNL     1       2.257   9.874 -11.404  1.00  0.00    -0.203 F 
ATOM     94  C   UNL     1       0.842  11.369 -12.546  1.00  0.00     0.198 A 
ATOM     95  C   UNL     1      -1.526  11.316 -12.158  1.00  0.00     0.198 A 
ATOM     96  F   UNL     1      -2.432   9.791 -10.612  1.00  0.00    -0.203 F 
ATOM     97  F   UNL     1       1.905  11.908 -13.158  1.00  0.00    -0.200 F 
ATOM     98  C   UNL     1      -0.430  11.857 -12.811  1.00  0.00     0.200 A 
ATOM     99  F   UNL     1      -2.757  11.775 -12.423  1.00  0.00    -0.200 F 
ATOM    100  F   UNL     1      -0.597  12.851 -13.694  1.00  0.00    -0.200 F 
ENDBRANCH  67  90
ENDBRANCH  41  42
ENDBRANCH  34  36
ENDBRANCH  33  34
ENDBRANCH  32  33
ENDBRANCH  31  32
ENDBRANCH   1  31
TORSDOF 16
