REMARK SMILES C=CCN(CC(=O)OCCOC(=O)c1ccc(-c2c3nc(c(-c4c(F)c(F)c(F)c(F)c4F)c4ccc([nH]4)c(-c4c(F)c(F)c(F)c(F)c4F)c4nc(c(-c5c(F)c(F)c(F)c(F)c5F)c5ccc2[nH]5)C=C4)C=C3)cc1)C(=O)c1sc(N)nc1C
REMARK SMILES IDX 9 1 8 2 6 3 7 4 5 5 4 6 3 7 2 8 1 9 77 10 78 11 79 12 80 13
REMARK SMILES IDX 84 14 81 15 83 16 85 17 82 18 10 21 11 22 12 23 13 24 14 25
REMARK SMILES IDX 15 26 76 27 16 28 75 29 17 30 18 31 19 32 69 33 20 34 74 35
REMARK SMILES IDX 68 36 70 37 21 38 73 39 67 40 66 41 22 43 54 44 34 45 53 46
REMARK SMILES IDX 35 47 38 48 52 49 71 50 36 51 37 52 51 54 72 55 39 56 23 57
REMARK SMILES IDX 24 58 32 59 25 60 26 61 30 62 33 63 27 64 28 65 31 66 29 67
REMARK SMILES IDX 55 68 56 69 64 70 57 71 58 72 62 73 65 74 59 75 60 76 63 77
REMARK SMILES IDX 61 78 40 79 41 80 49 81 42 82 43 83 47 84 50 85 44 86 45 87
REMARK SMILES IDX 48 88 46 89
REMARK H PARENT 82 19 82 20 70 42 38 53
REMARK Flexibility Score: inf
ROOT
ATOM      1  C   UNL     1      -5.914   2.449   0.394  1.00  0.00     0.274 C 
ENDROOT
BRANCH   1   2
ATOM      2  O   UNL     1      -4.515   2.081   0.491  1.00  0.00    -0.461 OA
BRANCH   2   3
ATOM      3  C   UNL     1      -3.653   2.913  -0.149  1.00  0.00     0.325 C 
ATOM      4  O   UNL     1      -4.009   3.858  -0.850  1.00  0.00    -0.250 OA
BRANCH   3   5
ATOM      5  C   UNL     1      -2.176   2.720   0.218  1.00  0.00     0.242 C 
BRANCH   5   6
ATOM      6  N   UNL     1      -1.652   1.430   0.673  1.00  0.00    -0.323 N 
BRANCH   6   7
ATOM      7  C   UNL     1      -1.388   0.441  -0.363  1.00  0.00     0.147 C 
BRANCH   7   8
ATOM      8  C   UNL     1      -0.012   0.674  -0.922  1.00  0.00    -0.014 C 
ATOM      9  C   UNL     1       1.046  -0.107  -0.663  1.00  0.00     0.006 C 
ENDBRANCH   7   8
ENDBRANCH   6   7
BRANCH   6  10
ATOM     10  C   UNL     1      -1.289   1.092   1.987  1.00  0.00     0.266 C 
ATOM     11  O   UNL     1      -0.748   0.009   2.221  1.00  0.00    -0.268 OA
BRANCH  10  12
ATOM     12  C   UNL     1      -1.625   1.963   3.089  1.00  0.00     0.117 A 
ATOM     13  S   UNL     1      -0.710   3.344   3.518  1.00  0.00    -0.092 S 
ATOM     14  C   UNL     1      -2.586   1.723   4.057  1.00  0.00     0.063 A 
ATOM     15  C   UNL     1      -1.730   3.580   4.886  1.00  0.00     0.180 A 
ATOM     16  N   UNL     1      -2.635   2.656   5.081  1.00  0.00    -0.225 NA
ATOM     17  C   UNL     1      -3.580   0.621   4.040  1.00  0.00     0.068 C 
BRANCH  15  18
ATOM     18  N   UNL     1      -1.598   4.628   5.707  1.00  0.00    -0.375 N 
ATOM     19  H   UNL     1      -0.906   5.306   5.533  1.00  0.00     0.159 HD
ATOM     20  H   UNL     1      -2.193   4.720   6.486  1.00  0.00     0.159 HD
ENDBRANCH  15  18
ENDBRANCH  10  12
ENDBRANCH   6  10
ENDBRANCH   5   6
ENDBRANCH   3   5
ENDBRANCH   2   3
ENDBRANCH   1   2
BRANCH   1  21
ATOM     21  C   UNL     1      -6.415   3.301   1.578  1.00  0.00     0.275 C 
BRANCH  21  22
ATOM     22  O   UNL     1      -5.827   4.621   1.638  1.00  0.00    -0.458 OA
BRANCH  22  23
ATOM     23  C   UNL     1      -4.641   4.618   2.277  1.00  0.00     0.338 C 
ATOM     24  O   UNL     1      -4.074   3.623   2.698  1.00  0.00    -0.246 OA
BRANCH  23  25
ATOM     25  C   UNL     1      -3.968   5.910   2.373  1.00  0.00     0.060 A 
ATOM     26  C   UNL     1      -2.955   6.192   1.452  1.00  0.00     0.016 A 
ATOM     27  C   UNL     1      -4.109   6.671   3.534  1.00  0.00     0.016 A 
ATOM     28  C   UNL     1      -2.059   7.225   1.703  1.00  0.00     0.010 A 
ATOM     29  C   UNL     1      -3.238   7.739   3.762  1.00  0.00     0.010 A 
ATOM     30  C   UNL     1      -2.204   8.014   2.853  1.00  0.00    -0.014 A 
BRANCH  30  31
ATOM     31  C   UNL     1      -1.358   9.214   3.016  1.00  0.00     0.031 A 
ATOM     32  C   UNL     1      -0.208   9.253   3.972  1.00  0.00     0.074 A 
ATOM     33  C   UNL     1      -1.662  10.285   2.263  1.00  0.00     0.049 A 
ATOM     34  N   UNL     1       0.536  10.268   4.330  1.00  0.00    -0.248 NA
ATOM     35  C   UNL     1       0.156   7.984   4.613  1.00  0.00     0.031 C 
ATOM     36  C   UNL     1      -2.737  10.327   1.271  1.00  0.00     0.029 A 
ATOM     37  N   UNL     1      -1.103  11.531   2.212  1.00  0.00    -0.354 N 
ATOM     38  C   UNL     1       1.433   9.771   5.266  1.00  0.00     0.074 A 
ATOM     39  C   UNL     1       1.143   8.360   5.419  1.00  0.00     0.031 C 
ATOM     40  C   UNL     1      -2.756  11.539   0.701  1.00  0.00     0.029 A 
ATOM     41  C   UNL     1      -1.734  12.368   1.328  1.00  0.00     0.049 A 
ATOM     42  H   UNL     1      -0.326  11.800   2.753  1.00  0.00     0.167 HD
ATOM     43  C   UNL     1       2.407  10.444   5.926  1.00  0.00     0.037 A 
ATOM     44  C   UNL     1      -1.531  13.672   1.075  1.00  0.00     0.037 A 
ATOM     45  C   UNL     1       2.709  11.839   5.716  1.00  0.00     0.049 A 
ATOM     46  C   UNL     1      -0.452  14.393   1.819  1.00  0.00     0.074 A 
ATOM     47  C   UNL     1       3.686  12.616   6.315  1.00  0.00     0.029 A 
ATOM     48  N   UNL     1       2.041  12.664   4.820  1.00  0.00    -0.354 N 
ATOM     49  N   UNL     1       0.356  13.933   2.743  1.00  0.00    -0.248 NA
ATOM     50  C   UNL     1      -0.260  15.809   1.493  1.00  0.00     0.031 C 
ATOM     51  C   UNL     1       3.595  13.914   5.797  1.00  0.00     0.029 A 
ATOM     52  C   UNL     1       2.581  13.940   4.853  1.00  0.00     0.049 A 
ATOM     53  H   UNL     1       1.292  12.383   4.245  1.00  0.00     0.167 HD
ATOM     54  C   UNL     1       1.158  15.001   3.110  1.00  0.00     0.074 A 
ATOM     55  C   UNL     1       0.748  16.128   2.295  1.00  0.00     0.031 C 
ATOM     56  C   UNL     1       2.143  15.045   4.040  1.00  0.00     0.037 A 
BRANCH  43  57
ATOM     57  C   UNL     1       3.208   9.697   6.952  1.00  0.00     0.064 A 
ATOM     58  C   UNL     1       4.199   8.774   6.591  1.00  0.00     0.173 A 
ATOM     59  C   UNL     1       3.022   9.957   8.320  1.00  0.00     0.173 A 
ATOM     60  F   UNL     1       4.410   8.483   5.298  1.00  0.00    -0.203 F 
ATOM     61  C   UNL     1       4.965   8.128   7.560  1.00  0.00     0.198 A 
ATOM     62  C   UNL     1       3.803   9.325   9.285  1.00  0.00     0.198 A 
ATOM     63  F   UNL     1       2.091  10.836   8.720  1.00  0.00    -0.203 F 
ATOM     64  F   UNL     1       5.888   7.228   7.192  1.00  0.00    -0.200 F 
ATOM     65  C   UNL     1       4.771   8.408   8.904  1.00  0.00     0.200 A 
ATOM     66  F   UNL     1       3.621   9.605  10.582  1.00  0.00    -0.200 F 
ATOM     67  F   UNL     1       5.515   7.793   9.834  1.00  0.00    -0.200 F 
ENDBRANCH  43  57
BRANCH  44  68
ATOM     68  C   UNL     1      -2.389  14.342   0.071  1.00  0.00     0.064 A 
ATOM     69  C   UNL     1      -1.901  14.632  -1.208  1.00  0.00     0.173 A 
ATOM     70  C   UNL     1      -3.741  14.604   0.338  1.00  0.00     0.173 A 
ATOM     71  F   UNL     1      -0.612  14.404  -1.500  1.00  0.00    -0.203 F 
ATOM     72  C   UNL     1      -2.739  15.152  -2.191  1.00  0.00     0.198 A 
ATOM     73  C   UNL     1      -4.582  15.103  -0.652  1.00  0.00     0.198 A 
ATOM     74  F   UNL     1      -4.253  14.326   1.546  1.00  0.00    -0.203 F 
ATOM     75  F   UNL     1      -2.250  15.425  -3.408  1.00  0.00    -0.200 F 
ATOM     76  C   UNL     1      -4.080  15.376  -1.916  1.00  0.00     0.200 A 
ATOM     77  F   UNL     1      -5.881  15.297  -0.389  1.00  0.00    -0.200 F 
ATOM     78  F   UNL     1      -4.892  15.848  -2.872  1.00  0.00    -0.200 F 
ENDBRANCH  44  68
BRANCH  56  79
ATOM     79  C   UNL     1       2.839  16.359   4.209  1.00  0.00     0.064 A 
ATOM     80  C   UNL     1       2.243  17.410   4.919  1.00  0.00     0.173 A 
ATOM     81  C   UNL     1       4.110  16.567   3.657  1.00  0.00     0.173 A 
ATOM     82  F   UNL     1       1.018  17.259   5.446  1.00  0.00    -0.203 F 
ATOM     83  C   UNL     1       2.888  18.636   5.051  1.00  0.00     0.198 A 
ATOM     84  C   UNL     1       4.760  17.788   3.806  1.00  0.00     0.198 A 
ATOM     85  F   UNL     1       4.717  15.589   2.968  1.00  0.00    -0.203 F 
ATOM     86  F   UNL     1       2.284  19.643   5.697  1.00  0.00    -0.200 F 
ATOM     87  C   UNL     1       4.146  18.823   4.497  1.00  0.00     0.200 A 
ATOM     88  F   UNL     1       5.976  17.969   3.272  1.00  0.00    -0.200 F 
ATOM     89  F   UNL     1       4.763  20.006   4.619  1.00  0.00    -0.200 F 
ENDBRANCH  56  79
ENDBRANCH  30  31
ENDBRANCH  23  25
ENDBRANCH  22  23
ENDBRANCH  21  22
ENDBRANCH   1  21
TORSDOF 17
