REMARK SMILES COc1ncccc1C[N@@H+](CC(=O)OCCOC(=O)c1ccc(-c2c3nc(c(-c4c(F)c(F)c(F)c(F)c4F)c4ccc([nH]4)c(-c4c(F)c(F)c(F)c(F)c4F)c4nc(c(-c5c(F)c(F)c(F)c(F)c5F)c5ccc2[nH]5)C=C4)C=C3)cc1)C1CCCC1
REMARK SMILES IDX 15 1 14 2 12 3 13 4 11 5 10 6 9 8 8 9 3 10 4 11 5 12 7 13
REMARK SMILES IDX 6 14 2 15 1 16 83 17 84 18 87 19 85 20 86 21 16 22 17 23
REMARK SMILES IDX 18 24 19 25 20 26 21 27 82 28 22 29 81 30 23 31 24 32 25 33
REMARK SMILES IDX 75 34 26 35 80 36 74 37 76 38 27 39 79 40 73 41 72 42 28 44
REMARK SMILES IDX 60 45 40 46 59 47 41 48 44 49 58 50 77 51 42 52 43 53 57 55
REMARK SMILES IDX 78 56 45 57 29 58 30 59 38 60 31 61 32 62 36 63 39 64 33 65
REMARK SMILES IDX 34 66 37 67 35 68 61 69 62 70 70 71 63 72 64 73 68 74 71 75
REMARK SMILES IDX 65 76 66 77 69 78 67 79 46 80 47 81 55 82 48 83 49 84 53 85
REMARK SMILES IDX 56 86 50 87 51 88 54 89 52 90
REMARK H PARENT 10 7 76 43 44 54
REMARK Flexibility Score: inf
ROOT
ATOM      1  C   UNL     1       7.176  -0.985   0.202  1.00  0.00     0.274 C 
ENDROOT
BRANCH   1   2
ATOM      2  O   UNL     1       5.740  -0.950   0.311  1.00  0.00    -0.458 OA
BRANCH   2   3
ATOM      3  C   UNL     1       5.138   0.161  -0.187  1.00  0.00     0.361 C 
ATOM      4  O   UNL     1       5.742   1.123  -0.656  1.00  0.00    -0.245 OA
BRANCH   3   5
ATOM      5  C   UNL     1       3.616   0.140  -0.126  1.00  0.00     0.387 C 
BRANCH   5   6
ATOM      6  N   UNL     1       2.966  -1.116   0.278  1.00  0.00    -0.319 N 
ATOM      7  H   UNL     1       1.960  -0.951   0.254  1.00  0.00     0.349 HD
BRANCH   6   8
ATOM      8  C   UNL     1       3.123  -1.432   1.700  1.00  0.00     0.305 C 
BRANCH   8   9
ATOM      9  C   UNL     1       1.917  -2.123   2.281  1.00  0.00     0.068 A 
ATOM     10  C   UNL     1       0.677  -1.488   2.354  1.00  0.00     0.221 A 
ATOM     11  N   UNL     1      -0.468  -2.088   2.748  1.00  0.00    -0.222 NA
ATOM     12  C   UNL     1      -0.372  -3.391   3.093  1.00  0.00     0.115 A 
ATOM     13  C   UNL     1       1.976  -3.454   2.705  1.00  0.00     0.017 A 
ATOM     14  C   UNL     1       0.814  -4.105   3.103  1.00  0.00     0.021 A 
BRANCH  10  15
ATOM     15  O   UNL     1       0.615  -0.140   2.088  1.00  0.00    -0.481 OA
ATOM     16  C   UNL     1      -0.185   0.109   0.938  1.00  0.00     0.280 C 
ENDBRANCH  10  15
ENDBRANCH   8   9
ENDBRANCH   6   8
BRANCH   6  17
ATOM     17  C   UNL     1       2.979  -2.183  -0.721  1.00  0.00     0.184 C 
ATOM     18  C   UNL     1       3.710  -3.497  -0.438  1.00  0.00     0.065 C 
ATOM     19  C   UNL     1       1.556  -2.650  -1.083  1.00  0.00     0.065 C 
ATOM     20  C   UNL     1       3.178  -4.417  -1.530  1.00  0.00     0.006 C 
ATOM     21  C   UNL     1       1.698  -4.070  -1.634  1.00  0.00     0.006 C 
ENDBRANCH   6  17
ENDBRANCH   5   6
ENDBRANCH   3   5
ENDBRANCH   2   3
ENDBRANCH   1   2
BRANCH   1  22
ATOM     22  C   UNL     1       7.601  -1.758  -1.043  1.00  0.00     0.275 C 
BRANCH  22  23
ATOM     23  O   UNL     1       6.989  -1.179  -2.209  1.00  0.00    -0.458 OA
BRANCH  23  24
ATOM     24  C   UNL     1       6.260  -2.032  -2.963  1.00  0.00     0.338 C 
ATOM     25  O   UNL     1       6.122  -3.232  -2.801  1.00  0.00    -0.246 OA
BRANCH  24  26
ATOM     26  C   UNL     1       5.675  -1.323  -4.113  1.00  0.00     0.060 A 
ATOM     27  C   UNL     1       4.928  -0.150  -3.964  1.00  0.00     0.016 A 
ATOM     28  C   UNL     1       5.843  -1.900  -5.372  1.00  0.00     0.016 A 
ATOM     29  C   UNL     1       4.337   0.442  -5.082  1.00  0.00     0.010 A 
ATOM     30  C   UNL     1       5.300  -1.279  -6.493  1.00  0.00     0.010 A 
ATOM     31  C   UNL     1       4.545  -0.104  -6.357  1.00  0.00    -0.014 A 
BRANCH  31  32
ATOM     32  C   UNL     1       4.087   0.582  -7.587  1.00  0.00     0.031 A 
ATOM     33  C   UNL     1       3.039  -0.038  -8.460  1.00  0.00     0.074 A 
ATOM     34  C   UNL     1       4.729   1.700  -7.971  1.00  0.00     0.049 A 
ATOM     35  N   UNL     1       2.700   0.266  -9.687  1.00  0.00    -0.248 NA
ATOM     36  C   UNL     1       2.280  -1.157  -7.883  1.00  0.00     0.031 C 
ATOM     37  C   UNL     1       5.762   2.386  -7.194  1.00  0.00     0.029 A 
ATOM     38  N   UNL     1       4.643   2.429  -9.130  1.00  0.00    -0.354 N 
ATOM     39  C   UNL     1       1.707  -0.636 -10.040  1.00  0.00     0.074 A 
ATOM     40  C   UNL     1       1.498  -1.504  -8.899  1.00  0.00     0.031 C 
ATOM     41  C   UNL     1       6.232   3.421  -7.905  1.00  0.00     0.029 A 
ATOM     42  C   UNL     1       5.579   3.430  -9.209  1.00  0.00     0.049 A 
ATOM     43  H   UNL     1       3.978   2.251  -9.834  1.00  0.00     0.167 HD
ATOM     44  C   UNL     1       1.039  -0.727 -11.215  1.00  0.00     0.037 A 
ATOM     45  C   UNL     1       5.916   4.230 -10.236  1.00  0.00     0.037 A 
ATOM     46  C   UNL     1       1.258   0.149 -12.338  1.00  0.00     0.049 A 
ATOM     47  C   UNL     1       5.200   4.075 -11.545  1.00  0.00     0.074 A 
ATOM     48  C   UNL     1       0.605   0.172 -13.558  1.00  0.00     0.029 A 
ATOM     49  N   UNL     1       2.211   1.157 -12.376  1.00  0.00    -0.354 N 
ATOM     50  N   UNL     1       4.258   3.224 -11.871  1.00  0.00    -0.248 NA
ATOM     51  C   UNL     1       5.601   4.978 -12.630  1.00  0.00     0.031 C 
ATOM     52  C   UNL     1       1.190   1.168 -14.349  1.00  0.00     0.029 A 
ATOM     53  C   UNL     1       2.183   1.790 -13.608  1.00  0.00     0.049 A 
ATOM     54  H   UNL     1       2.819   1.388 -11.637  1.00  0.00     0.167 HD
ATOM     55  C   UNL     1       3.947   3.490 -13.195  1.00  0.00     0.074 A 
ATOM     56  C   UNL     1       4.792   4.594 -13.608  1.00  0.00     0.031 C 
ATOM     57  C   UNL     1       3.045   2.876 -13.998  1.00  0.00     0.037 A 
BRANCH  44  58
ATOM     58  C   UNL     1       0.024  -1.821 -11.361  1.00  0.00     0.064 A 
ATOM     59  C   UNL     1      -1.228  -1.753 -10.733  1.00  0.00     0.173 A 
ATOM     60  C   UNL     1       0.286  -2.925 -12.187  1.00  0.00     0.173 A 
ATOM     61  F   UNL     1      -1.522  -0.723  -9.926  1.00  0.00    -0.203 F 
ATOM     62  C   UNL     1      -2.176  -2.757 -10.916  1.00  0.00     0.198 A 
ATOM     63  C   UNL     1      -0.672  -3.918 -12.383  1.00  0.00     0.198 A 
ATOM     64  F   UNL     1       1.466  -3.036 -12.813  1.00  0.00    -0.203 F 
ATOM     65  F   UNL     1      -3.356  -2.685 -10.284  1.00  0.00    -0.200 F 
ATOM     66  C   UNL     1      -1.900  -3.834 -11.745  1.00  0.00     0.200 A 
ATOM     67  F   UNL     1      -0.407  -4.953 -13.191  1.00  0.00    -0.200 F 
ATOM     68  F   UNL     1      -2.817  -4.795 -11.926  1.00  0.00    -0.200 F 
ENDBRANCH  44  58
BRANCH  45  69
ATOM     69  C   UNL     1       7.008   5.218 -10.059  1.00  0.00     0.064 A 
ATOM     70  C   UNL     1       6.727   6.584  -9.944  1.00  0.00     0.173 A 
ATOM     71  C   UNL     1       8.346   4.809  -9.943  1.00  0.00     0.173 A 
ATOM     72  F   UNL     1       5.465   7.020 -10.068  1.00  0.00    -0.203 F 
ATOM     73  C   UNL     1       7.745   7.508  -9.715  1.00  0.00     0.198 A 
ATOM     74  C   UNL     1       9.358   5.731  -9.691  1.00  0.00     0.198 A 
ATOM     75  F   UNL     1       8.663   3.510 -10.041  1.00  0.00    -0.203 F 
ATOM     76  F   UNL     1       7.453   8.813  -9.627  1.00  0.00    -0.200 F 
ATOM     77  C   UNL     1       9.057   7.080  -9.578  1.00  0.00     0.200 A 
ATOM     78  F   UNL     1      10.623   5.312  -9.543  1.00  0.00    -0.200 F 
ATOM     79  F   UNL     1      10.032   7.968  -9.339  1.00  0.00    -0.200 F 
ENDBRANCH  45  69
BRANCH  57  80
ATOM     80  C   UNL     1       2.928   3.393 -15.398  1.00  0.00     0.064 A 
ATOM     81  C   UNL     1       3.889   3.083 -16.371  1.00  0.00     0.173 A 
ATOM     82  C   UNL     1       1.836   4.188 -15.775  1.00  0.00     0.173 A 
ATOM     83  F   UNL     1       4.960   2.342 -16.049  1.00  0.00    -0.203 F 
ATOM     84  C   UNL     1       3.769   3.567 -17.670  1.00  0.00     0.198 A 
ATOM     85  C   UNL     1       1.709   4.653 -17.080  1.00  0.00     0.198 A 
ATOM     86  F   UNL     1       0.893   4.510 -14.878  1.00  0.00    -0.203 F 
ATOM     87  F   UNL     1       4.718   3.292 -18.576  1.00  0.00    -0.200 F 
ATOM     88  C   UNL     1       2.678   4.346 -18.025  1.00  0.00     0.200 A 
ATOM     89  F   UNL     1       0.652   5.401 -17.424  1.00  0.00    -0.200 F 
ATOM     90  F   UNL     1       2.564   4.811 -19.277  1.00  0.00    -0.200 F 
ENDBRANCH  57  80
ENDBRANCH  31  32
ENDBRANCH  24  26
ENDBRANCH  23  24
ENDBRANCH  22  23
ENDBRANCH   1  22
TORSDOF 16
