REMARK SMILES O=C(OCCOC(=O)[C@]1(NC(=O)C2CCN(C(=O)C3CC3)CC2)CCCc2ccccc21)c1ccc(-c2c3nc(c(-c4c(F)c(F)c(F)c(F)c4F)c4ccc([nH]4)c(-c4c(F)c(F)c(F)c(F)c4F)c4nc(c(-c5c(F)c(F)c(F)c(F)c5F)c5ccc2[nH]5)C=C4)C=C3)cc1
REMARK SMILES IDX 5 1 4 2 3 3 2 4 1 5 33 6 34 7 95 8 35 9 94 10 36 11 37 12
REMARK SMILES IDX 38 13 88 14 39 15 93 16 87 17 89 18 40 19 92 20 86 21 85 22
REMARK SMILES IDX 41 24 73 25 53 26 72 27 54 28 57 29 71 30 90 31 55 32 56 33
REMARK SMILES IDX 70 35 91 36 58 37 42 38 43 39 51 40 44 41 45 42 49 43 52 44
REMARK SMILES IDX 46 45 47 46 50 47 48 48 74 49 75 50 83 51 76 52 77 53 81 54
REMARK SMILES IDX 84 55 78 56 79 57 82 58 80 59 59 60 60 61 68 62 61 63 62 64
REMARK SMILES IDX 66 65 69 66 63 67 64 68 67 69 65 70 6 71 7 72 8 73 9 74
REMARK SMILES IDX 24 75 32 76 25 77 27 78 31 79 26 80 28 81 30 82 29 83 10 84
REMARK SMILES IDX 11 85 12 87 13 88 14 89 23 90 15 91 22 92 16 93 17 94 18 95
REMARK SMILES IDX 19 96 20 97 21 98
REMARK H PARENT 89 23 57 34 10 86
REMARK Flexibility Score: inf
ROOT
ATOM      1  C   UNL     1       4.719   1.535  -1.917  1.00  0.00     0.274 C 
ENDROOT
BRANCH   1   2
ATOM      2  C   UNL     1       5.420   0.169  -1.875  1.00  0.00     0.275 C 
BRANCH   2   3
ATOM      3  O   UNL     1       5.804  -0.186  -0.531  1.00  0.00    -0.458 OA
BRANCH   3   4
ATOM      4  C   UNL     1       4.894  -0.934   0.146  1.00  0.00     0.338 C 
ATOM      5  O   UNL     1       3.918  -1.492  -0.338  1.00  0.00    -0.246 OA
BRANCH   4   6
ATOM      6  C   UNL     1       5.093  -0.752   1.608  1.00  0.00     0.060 A 
ATOM      7  C   UNL     1       6.325  -0.412   2.146  1.00  0.00     0.016 A 
ATOM      8  C   UNL     1       3.954  -0.658   2.420  1.00  0.00     0.016 A 
ATOM      9  C   UNL     1       6.367   0.139   3.428  1.00  0.00     0.010 A 
ATOM     10  C   UNL     1       3.975  -0.087   3.692  1.00  0.00     0.010 A 
ATOM     11  C   UNL     1       5.187   0.371   4.176  1.00  0.00    -0.014 A 
BRANCH  11  12
ATOM     12  C   UNL     1       5.354   0.954   5.520  1.00  0.00     0.031 A 
ATOM     13  C   UNL     1       5.994   0.038   6.480  1.00  0.00     0.074 A 
ATOM     14  C   UNL     1       5.210   2.265   5.781  1.00  0.00     0.049 A 
ATOM     15  N   UNL     1       6.945   0.266   7.330  1.00  0.00    -0.248 NA
ATOM     16  C   UNL     1       5.543  -1.358   6.381  1.00  0.00     0.031 C 
ATOM     17  C   UNL     1       4.431   3.212   5.003  1.00  0.00     0.029 A 
ATOM     18  N   UNL     1       5.836   3.047   6.726  1.00  0.00    -0.354 N 
ATOM     19  C   UNL     1       7.263  -0.982   7.829  1.00  0.00     0.074 A 
ATOM     20  C   UNL     1       6.405  -1.954   7.185  1.00  0.00     0.031 C 
ATOM     21  C   UNL     1       4.759   4.463   5.370  1.00  0.00     0.029 A 
ATOM     22  C   UNL     1       5.777   4.393   6.409  1.00  0.00     0.049 A 
ATOM     23  H   UNL     1       6.273   2.691   7.533  1.00  0.00     0.167 HD
ATOM     24  C   UNL     1       8.178  -1.267   8.778  1.00  0.00     0.037 A 
ATOM     25  C   UNL     1       6.541   5.412   6.856  1.00  0.00     0.037 A 
ATOM     26  C   UNL     1       8.835  -0.242   9.533  1.00  0.00     0.049 A 
ATOM     27  C   UNL     1       7.555   5.081   7.927  1.00  0.00     0.074 A 
ATOM     28  C   UNL     1       9.594  -0.352  10.678  1.00  0.00     0.029 A 
ATOM     29  N   UNL     1       8.730   1.115   9.240  1.00  0.00    -0.354 N 
ATOM     30  N   UNL     1       7.957   3.907   8.357  1.00  0.00    -0.248 NA
ATOM     31  C   UNL     1       8.191   6.219   8.604  1.00  0.00     0.031 C 
ATOM     32  C   UNL     1       9.883   0.946  11.122  1.00  0.00     0.029 A 
ATOM     33  C   UNL     1       9.372   1.860  10.209  1.00  0.00     0.049 A 
ATOM     34  H   UNL     1       8.266   1.489   8.457  1.00  0.00     0.167 HD
ATOM     35  C   UNL     1       8.866   4.162   9.373  1.00  0.00     0.074 A 
ATOM     36  C   UNL     1       9.020   5.604   9.435  1.00  0.00     0.031 C 
ATOM     37  C   UNL     1       9.485   3.298  10.217  1.00  0.00     0.037 A 
BRANCH  24  38
ATOM     38  C   UNL     1       8.303  -2.716   9.111  1.00  0.00     0.064 A 
ATOM     39  C   UNL     1       8.913  -3.616   8.221  1.00  0.00     0.173 A 
ATOM     40  C   UNL     1       7.602  -3.237  10.206  1.00  0.00     0.173 A 
ATOM     41  F   UNL     1       9.538  -3.163   7.124  1.00  0.00    -0.203 F 
ATOM     42  C   UNL     1       8.768  -4.991   8.392  1.00  0.00     0.198 A 
ATOM     43  C   UNL     1       7.476  -4.611  10.382  1.00  0.00     0.198 A 
ATOM     44  F   UNL     1       6.967  -2.415  11.054  1.00  0.00    -0.203 F 
ATOM     45  F   UNL     1       9.267  -5.834   7.477  1.00  0.00    -0.200 F 
ATOM     46  C   UNL     1       8.044  -5.486   9.467  1.00  0.00     0.200 A 
ATOM     47  F   UNL     1       6.752  -5.088  11.404  1.00  0.00    -0.200 F 
ATOM     48  F   UNL     1       7.854  -6.806   9.597  1.00  0.00    -0.200 F 
ENDBRANCH  24  38
BRANCH  25  49
ATOM     49  C   UNL     1       6.458   6.799   6.298  1.00  0.00     0.064 A 
ATOM     50  C   UNL     1       7.595   7.417   5.744  1.00  0.00     0.173 A 
ATOM     51  C   UNL     1       5.292   7.575   6.374  1.00  0.00     0.173 A 
ATOM     52  F   UNL     1       8.747   6.736   5.647  1.00  0.00    -0.203 F 
ATOM     53  C   UNL     1       7.581   8.754   5.341  1.00  0.00     0.198 A 
ATOM     54  C   UNL     1       5.268   8.902   5.936  1.00  0.00     0.198 A 
ATOM     55  F   UNL     1       4.171   7.056   6.895  1.00  0.00    -0.203 F 
ATOM     56  F   UNL     1       8.705   9.329   4.891  1.00  0.00    -0.200 F 
ATOM     57  C   UNL     1       6.417   9.496   5.437  1.00  0.00     0.200 A 
ATOM     58  F   UNL     1       4.135   9.612   6.018  1.00  0.00    -0.200 F 
ATOM     59  F   UNL     1       6.405  10.784   5.066  1.00  0.00    -0.200 F 
ENDBRANCH  25  49
BRANCH  37  60
ATOM     60  C   UNL     1      10.344   3.896  11.289  1.00  0.00     0.064 A 
ATOM     61  C   UNL     1       9.781   4.588  12.371  1.00  0.00     0.173 A 
ATOM     62  C   UNL     1      11.730   3.692  11.279  1.00  0.00     0.173 A 
ATOM     63  F   UNL     1       8.459   4.814  12.417  1.00  0.00    -0.203 F 
ATOM     64  C   UNL     1      10.581   5.071  13.401  1.00  0.00     0.198 A 
ATOM     65  C   UNL     1      12.522   4.147  12.327  1.00  0.00     0.198 A 
ATOM     66  F   UNL     1      12.310   3.029  10.268  1.00  0.00    -0.203 F 
ATOM     67  F   UNL     1      10.029   5.761  14.408  1.00  0.00    -0.200 F 
ATOM     68  C   UNL     1      11.948   4.839  13.384  1.00  0.00     0.200 A 
ATOM     69  F   UNL     1      13.841   3.908  12.320  1.00  0.00    -0.200 F 
ATOM     70  F   UNL     1      12.715   5.285  14.389  1.00  0.00    -0.200 F 
ENDBRANCH  37  60
ENDBRANCH  11  12
ENDBRANCH   4   6
ENDBRANCH   3   4
ENDBRANCH   2   3
ENDBRANCH   1   2
BRANCH   1  71
ATOM     71  O   UNL     1       4.010   1.772  -0.692  1.00  0.00    -0.460 OA
BRANCH  71  72
ATOM     72  C   UNL     1       2.741   2.258  -0.679  1.00  0.00     0.336 C 
ATOM     73  O   UNL     1       2.003   2.285  -1.654  1.00  0.00    -0.249 OA
BRANCH  72  74
ATOM     74  C   UNL     1       2.353   2.729   0.774  1.00  0.00     0.164 C 
ATOM     75  C   UNL     1       1.181   3.749   0.730  1.00  0.00     0.046 C 
ATOM     76  C   UNL     1       3.610   3.471   1.406  1.00  0.00    -0.008 A 
ATOM     77  C   UNL     1       1.591   5.147   0.262  1.00  0.00     0.008 C 
ATOM     78  C   UNL     1       3.728   4.873   1.515  1.00  0.00    -0.042 A 
ATOM     79  C   UNL     1       4.767   2.753   1.729  1.00  0.00     0.007 A 
ATOM     80  C   UNL     1       2.574   5.786   1.230  1.00  0.00     0.036 C 
ATOM     81  C   UNL     1       4.946   5.477   1.925  1.00  0.00     0.004 A 
ATOM     82  C   UNL     1       5.977   3.343   2.119  1.00  0.00     0.000 A 
ATOM     83  C   UNL     1       6.070   4.715   2.218  1.00  0.00     0.000 A 
BRANCH  74  84
ATOM     84  N   UNL     1       1.888   1.548   1.632  1.00  0.00    -0.336 N 
ATOM     85  C   UNL     1       0.807   0.681   1.486  1.00  0.00     0.224 C 
ATOM     86  H   UNL     1       2.449   1.372   2.421  1.00  0.00     0.164 HD
ATOM     87  O   UNL     1      -0.059   0.717   2.365  1.00  0.00    -0.275 OA
BRANCH  85  88
ATOM     88  C   UNL     1       0.818  -0.498   0.461  1.00  0.00     0.082 C 
ATOM     89  C   UNL     1      -0.383  -0.501  -0.506  1.00  0.00     0.035 C 
ATOM     90  C   UNL     1       1.031  -1.884   1.181  1.00  0.00     0.035 C 
ATOM     91  C   UNL     1      -1.373  -1.662  -0.359  1.00  0.00     0.120 C 
ATOM     92  C   UNL     1      -0.014  -2.998   1.077  1.00  0.00     0.120 C 
ATOM     93  N   UNL     1      -0.684  -2.937  -0.194  1.00  0.00    -0.342 N 
ATOM     94  C   UNL     1      -0.632  -3.830  -1.267  1.00  0.00     0.225 C 
ATOM     95  O   UNL     1      -1.058  -3.487  -2.371  1.00  0.00    -0.275 OA
BRANCH  94  96
ATOM     96  C   UNL     1      -0.134  -5.247  -1.204  1.00  0.00     0.079 C 
ATOM     97  C   UNL     1       1.112  -5.751  -0.530  1.00  0.00     0.014 C 
ATOM     98  C   UNL     1      -0.244  -6.173  -0.022  1.00  0.00     0.014 C 
ENDBRANCH  94  96
ENDBRANCH  85  88
ENDBRANCH  74  84
ENDBRANCH  72  74
ENDBRANCH  71  72
ENDBRANCH   1  71
TORSDOF 14
