REMARK SMILES CC(=O)NCCNC(=O)C[N@H+]1CC[C@@H](C(=O)OCCOC(=O)c2ccc(-c3c4nc(c(-c5c(F)c(F)c(F)c(F)c5F)c5ccc([nH]5)c(-c5c(F)c(F)c(F)c(F)c5F)c5nc(c(-c6c(F)c(F)c(F)c(F)c6F)c6ccc3[nH]6)C=C5)C=C4)cc2)[C@H]1C
REMARK SMILES IDX 17 1 15 2 16 3 14 4 11 5 12 6 86 7 13 9 87 10 10 11 8 12
REMARK SMILES IDX 7 13 9 15 6 16 5 17 4 18 1 19 2 20 3 21 18 23 19 24 20 25
REMARK SMILES IDX 21 26 22 27 23 28 24 29 85 30 25 31 84 32 26 33 27 34 28 35
REMARK SMILES IDX 78 36 29 37 83 38 77 39 79 40 30 41 82 42 76 43 75 44 31 46
REMARK SMILES IDX 63 47 43 48 62 49 44 50 47 51 61 52 80 53 45 54 46 55 60 57
REMARK SMILES IDX 81 58 48 59 32 60 33 61 41 62 34 63 35 64 39 65 42 66 36 67
REMARK SMILES IDX 37 68 40 69 38 70 64 71 65 72 73 73 66 74 67 75 71 76 74 77
REMARK SMILES IDX 68 78 69 79 72 80 70 81 49 82 50 83 58 84 51 85 52 86 56 87
REMARK SMILES IDX 59 88 53 89 54 90 57 91 55 92
REMARK H PARENT 11 8 7 14 4 22 79 45 47 56
REMARK Flexibility Score: inf
ROOT
ATOM      1  O   UNL     1       5.031   9.003   2.140  1.00  0.00    -0.462 OA
ENDROOT
BRANCH   1   2
ATOM      2  C   UNL     1       4.340   7.974   2.677  1.00  0.00     0.315 C 
ATOM      3  O   UNL     1       4.049   7.890   3.868  1.00  0.00    -0.252 OA
BRANCH   2   4
ATOM      4  C   UNL     1       3.998   6.864   1.709  1.00  0.00     0.162 C 
ATOM      5  N   UNL     1       3.830   5.707  -0.339  1.00  0.00    -0.324 N 
ATOM      6  C   UNL     1       4.606   4.886   0.595  1.00  0.00     0.264 C 
ATOM      7  C   UNL     1       3.657   7.081   0.223  1.00  0.00     0.195 C 
ATOM      8  H   UNL     1       2.877   5.354  -0.419  1.00  0.00     0.348 HD
ATOM      9  C   UNL     1       5.090   5.817   1.681  1.00  0.00     0.083 C 
ATOM     10  C   UNL     1       4.431   8.192  -0.488  1.00  0.00     0.076 C 
BRANCH   5  11
ATOM     11  C   UNL     1       4.236   5.555  -1.742  1.00  0.00     0.363 C 
BRANCH  11  12
ATOM     12  C   UNL     1       3.030   5.270  -2.641  1.00  0.00     0.275 C 
ATOM     13  N   UNL     1       2.515   4.000  -2.684  1.00  0.00    -0.349 N 
ATOM     14  H   UNL     1       1.863   3.824  -3.401  1.00  0.00     0.163 HD
ATOM     15  O   UNL     1       2.539   6.133  -3.370  1.00  0.00    -0.269 OA
BRANCH  13  16
ATOM     16  C   UNL     1       2.811   2.879  -1.804  1.00  0.00     0.137 C 
BRANCH  16  17
ATOM     17  C   UNL     1       1.673   2.644  -0.803  1.00  0.00     0.137 C 
BRANCH  17  18
ATOM     18  N   UNL     1       0.575   1.917  -1.426  1.00  0.00    -0.355 N 
ATOM     19  C   UNL     1       0.914  -0.171  -0.163  1.00  0.00     0.114 C 
ATOM     20  C   UNL     1       0.214   0.615  -1.238  1.00  0.00     0.216 C 
ATOM     21  O   UNL     1      -0.670   0.121  -1.934  1.00  0.00    -0.275 OA
ATOM     22  H   UNL     1       0.024   2.429  -2.061  1.00  0.00     0.163 HD
ENDBRANCH  17  18
ENDBRANCH  16  17
ENDBRANCH  13  16
ENDBRANCH  11  12
ENDBRANCH   5  11
ENDBRANCH   2   4
ENDBRANCH   1   2
BRANCH   1  23
ATOM     23  C   UNL     1       5.287  10.126   3.008  1.00  0.00     0.274 C 
BRANCH  23  24
ATOM     24  C   UNL     1       4.198  11.200   2.885  1.00  0.00     0.275 C 
BRANCH  24  25
ATOM     25  O   UNL     1       2.958  10.796   3.501  1.00  0.00    -0.458 OA
BRANCH  25  26
ATOM     26  C   UNL     1       2.092  10.153   2.682  1.00  0.00     0.338 C 
ATOM     27  O   UNL     1       2.239   9.916   1.496  1.00  0.00    -0.246 OA
BRANCH  26  28
ATOM     28  C   UNL     1       0.962   9.614   3.456  1.00  0.00     0.060 A 
ATOM     29  C   UNL     1       0.714   8.241   3.367  1.00  0.00     0.016 A 
ATOM     30  C   UNL     1       0.106  10.442   4.182  1.00  0.00     0.016 A 
ATOM     31  C   UNL     1      -0.392   7.685   4.000  1.00  0.00     0.010 A 
ATOM     32  C   UNL     1      -1.011   9.883   4.814  1.00  0.00     0.010 A 
ATOM     33  C   UNL     1      -1.270   8.504   4.717  1.00  0.00    -0.014 A 
BRANCH  33  34
ATOM     34  C   UNL     1      -2.494   7.913   5.307  1.00  0.00     0.031 A 
ATOM     35  C   UNL     1      -3.819   8.124   4.635  1.00  0.00     0.074 A 
ATOM     36  C   UNL     1      -2.404   7.148   6.410  1.00  0.00     0.049 A 
ATOM     37  N   UNL     1      -5.013   7.753   5.022  1.00  0.00    -0.248 NA
ATOM     38  C   UNL     1      -3.797   8.845   3.353  1.00  0.00     0.031 C 
ATOM     39  C   UNL     1      -1.163   6.820   7.110  1.00  0.00     0.029 A 
ATOM     40  N   UNL     1      -3.377   6.505   7.132  1.00  0.00    -0.354 N 
ATOM     41  C   UNL     1      -5.885   8.207   4.042  1.00  0.00     0.074 A 
ATOM     42  C   UNL     1      -5.087   8.894   3.049  1.00  0.00     0.031 C 
ATOM     43  C   UNL     1      -1.449   6.035   8.161  1.00  0.00     0.029 A 
ATOM     44  C   UNL     1      -2.895   5.843   8.233  1.00  0.00     0.049 A 
ATOM     45  H   UNL     1      -4.330   6.517   6.883  1.00  0.00     0.167 HD
ATOM     46  C   UNL     1      -7.229   8.059   3.979  1.00  0.00     0.037 A 
ATOM     47  C   UNL     1      -3.552   5.181   9.205  1.00  0.00     0.037 A 
ATOM     48  C   UNL     1      -8.016   7.365   4.965  1.00  0.00     0.049 A 
ATOM     49  C   UNL     1      -5.053   5.090   9.143  1.00  0.00     0.074 A 
ATOM     50  C   UNL     1      -9.387   7.180   5.003  1.00  0.00     0.029 A 
ATOM     51  N   UNL     1      -7.496   6.734   6.085  1.00  0.00    -0.354 N 
ATOM     52  N   UNL     1      -5.874   5.549   8.230  1.00  0.00    -0.248 NA
ATOM     53  C   UNL     1      -5.720   4.392  10.252  1.00  0.00     0.031 C 
ATOM     54  C   UNL     1      -9.700   6.463   6.163  1.00  0.00     0.029 A 
ATOM     55  C   UNL     1      -8.520   6.167   6.826  1.00  0.00     0.049 A 
ATOM     56  H   UNL     1      -6.541   6.696   6.319  1.00  0.00     0.167 HD
ATOM     57  C   UNL     1      -7.147   5.176   8.639  1.00  0.00     0.074 A 
ATOM     58  C   UNL     1      -6.990   4.441   9.876  1.00  0.00     0.031 C 
ATOM     59  C   UNL     1      -8.340   5.425   8.046  1.00  0.00     0.037 A 
BRANCH  46  60
ATOM     60  C   UNL     1      -7.941   8.682   2.816  1.00  0.00     0.064 A 
ATOM     61  C   UNL     1      -7.879   8.124   1.532  1.00  0.00     0.173 A 
ATOM     62  C   UNL     1      -8.732   9.827   3.000  1.00  0.00     0.173 A 
ATOM     63  F   UNL     1      -7.125   7.039   1.303  1.00  0.00    -0.203 F 
ATOM     64  C   UNL     1      -8.572   8.699   0.468  1.00  0.00     0.198 A 
ATOM     65  C   UNL     1      -9.441  10.385   1.940  1.00  0.00     0.198 A 
ATOM     66  F   UNL     1      -8.826  10.397   4.210  1.00  0.00    -0.203 F 
ATOM     67  F   UNL     1      -8.472   8.169  -0.759  1.00  0.00    -0.200 F 
ATOM     68  C   UNL     1      -9.357   9.823   0.674  1.00  0.00     0.200 A 
ATOM     69  F   UNL     1     -10.207  11.466   2.143  1.00  0.00    -0.200 F 
ATOM     70  F   UNL     1     -10.030  10.369  -0.348  1.00  0.00    -0.200 F 
ENDBRANCH  46  60
BRANCH  47  71
ATOM     71  C   UNL     1      -2.801   4.574  10.333  1.00  0.00     0.064 A 
ATOM     72  C   UNL     1      -2.731   3.183  10.490  1.00  0.00     0.173 A 
ATOM     73  C   UNL     1      -2.159   5.373  11.292  1.00  0.00     0.173 A 
ATOM     74  F   UNL     1      -3.350   2.379   9.614  1.00  0.00    -0.203 F 
ATOM     75  C   UNL     1      -2.064   2.615  11.573  1.00  0.00     0.198 A 
ATOM     76  C   UNL     1      -1.468   4.803  12.358  1.00  0.00     0.198 A 
ATOM     77  F   UNL     1      -2.200   6.709  11.189  1.00  0.00    -0.203 F 
ATOM     78  F   UNL     1      -2.053   1.284  11.727  1.00  0.00    -0.200 F 
ATOM     79  C   UNL     1      -1.429   3.424  12.504  1.00  0.00     0.200 A 
ATOM     80  F   UNL     1      -0.848   5.588  13.249  1.00  0.00    -0.200 F 
ATOM     81  F   UNL     1      -0.788   2.877  13.545  1.00  0.00    -0.200 F 
ENDBRANCH  47  71
BRANCH  59  82
ATOM     82  C   UNL     1      -9.562   4.860   8.706  1.00  0.00     0.064 A 
ATOM     83  C   UNL     1     -10.084   5.415   9.883  1.00  0.00     0.173 A 
ATOM     84  C   UNL     1     -10.237   3.771   8.134  1.00  0.00     0.173 A 
ATOM     85  F   UNL     1      -9.464   6.447  10.475  1.00  0.00    -0.203 F 
ATOM     86  C   UNL     1     -11.225   4.885  10.478  1.00  0.00     0.198 A 
ATOM     87  C   UNL     1     -11.392   3.259   8.718  1.00  0.00     0.198 A 
ATOM     88  F   UNL     1      -9.780   3.209   7.006  1.00  0.00    -0.203 F 
ATOM     89  F   UNL     1     -11.682   5.402  11.626  1.00  0.00    -0.200 F 
ATOM     90  C   UNL     1     -11.882   3.812   9.892  1.00  0.00     0.200 A 
ATOM     91  F   UNL     1     -12.030   2.229   8.146  1.00  0.00    -0.200 F 
ATOM     92  F   UNL     1     -12.982   3.305  10.465  1.00  0.00    -0.200 F 
ENDBRANCH  59  82
ENDBRANCH  33  34
ENDBRANCH  26  28
ENDBRANCH  25  26
ENDBRANCH  24  25
ENDBRANCH  23  24
ENDBRANCH   1  23
TORSDOF 16
