REMARK SMILES C[N@H+](CCS(C)(=O)=O)[C@H](CC(=O)OCCOC(=O)c1ccc(-c2c3nc(c(-c4c(F)c(F)c(F)c(F)c4F)c4ccc([nH]4)c(-c4c(F)c(F)c(F)c(F)c4F)c4nc(c(-c5c(F)c(F)c(F)c(F)c5F)c5ccc2[nH]5)C=C4)C=C3)cc1)c1ccccc1
REMARK SMILES IDX 13 1 11 2 12 3 10 4 9 5 2 6 1 7 3 9 4 10 5 11 6 12 7 13 8 14
REMARK SMILES IDX 82 15 83 16 87 17 84 18 86 19 85 20 14 21 15 22 16 23 17 24
REMARK SMILES IDX 18 25 19 26 20 27 81 28 21 29 80 30 22 31 23 32 24 33 74 34
REMARK SMILES IDX 25 35 79 36 73 37 75 38 26 39 78 40 72 41 71 42 27 44 59 45
REMARK SMILES IDX 39 46 58 47 40 48 43 49 57 50 76 51 41 52 42 53 56 55 77 56
REMARK SMILES IDX 44 57 28 58 29 59 37 60 30 61 31 62 35 63 38 64 32 65 33 66
REMARK SMILES IDX 36 67 34 68 60 69 61 70 69 71 62 72 63 73 67 74 70 75 64 76
REMARK SMILES IDX 65 77 68 78 66 79 45 80 46 81 54 82 47 83 48 84 52 85 55 86
REMARK SMILES IDX 49 87 50 88 53 89 51 90
REMARK H PARENT 2 8 75 43 43 54
REMARK Flexibility Score: inf
ROOT
ATOM      1  O   UNL     1       2.698   0.243  -0.248  1.00  0.00    -0.462 OA
ENDROOT
BRANCH   1   2
ATOM      2  C   UNL     1       1.470   0.788  -0.350  1.00  0.00     0.312 C 
ATOM      3  O   UNL     1       0.853   0.905  -1.407  1.00  0.00    -0.252 OA
BRANCH   2   4
ATOM      4  C   UNL     1       0.897   1.355   0.923  1.00  0.00     0.192 C 
BRANCH   4   5
ATOM      5  C   UNL     1       1.386   0.958   2.339  1.00  0.00     0.226 C 
BRANCH   5   6
ATOM      6  N   UNL     1       0.701  -0.153   3.083  1.00  0.00    -0.330 N 
ATOM      7  C   UNL     1       0.886  -1.492   2.547  1.00  0.00     0.333 C 
ATOM      8  H   UNL     1       1.188  -0.168   3.979  1.00  0.00     0.348 HD
BRANCH   6   9
ATOM      9  C   UNL     1      -0.740   0.134   3.309  1.00  0.00     0.278 C 
BRANCH   9  10
ATOM     10  C   UNL     1      -1.641  -0.922   3.956  1.00  0.00     0.197 C 
BRANCH  10  11
ATOM     11  S   UNL     1      -1.396  -1.220   5.689  1.00  0.00     0.152 S 
ATOM     12  C   UNL     1      -1.697   0.351   6.462  1.00  0.00     0.158 C 
ATOM     13  O   UNL     1      -2.469  -2.108   6.104  1.00  0.00    -0.229 OA
ATOM     14  O   UNL     1      -0.018  -1.594   5.931  1.00  0.00    -0.229 OA
ENDBRANCH  10  11
ENDBRANCH   9  10
ENDBRANCH   6   9
ENDBRANCH   5   6
BRANCH   5  15
ATOM     15  C   UNL     1       2.900   1.144   2.523  1.00  0.00     0.010 A 
ATOM     16  C   UNL     1       3.853   0.118   2.470  1.00  0.00     0.010 A 
ATOM     17  C   UNL     1       3.391   2.462   2.647  1.00  0.00     0.010 A 
ATOM     18  C   UNL     1       5.225   0.387   2.533  1.00  0.00     0.001 A 
ATOM     19  C   UNL     1       4.761   2.734   2.713  1.00  0.00     0.001 A 
ATOM     20  C   UNL     1       5.680   1.694   2.653  1.00  0.00     0.000 A 
ENDBRANCH   5  15
ENDBRANCH   4   5
ENDBRANCH   2   4
ENDBRANCH   1   2
BRANCH   1  21
ATOM     21  C   UNL     1       3.309  -0.173  -1.486  1.00  0.00     0.274 C 
BRANCH  21  22
ATOM     22  C   UNL     1       3.148  -1.676  -1.690  1.00  0.00     0.275 C 
BRANCH  22  23
ATOM     23  O   UNL     1       1.754  -2.027  -1.645  1.00  0.00    -0.458 OA
BRANCH  23  24
ATOM     24  C   UNL     1       1.409  -2.920  -0.695  1.00  0.00     0.338 C 
ATOM     25  O   UNL     1       2.155  -3.520   0.068  1.00  0.00    -0.246 OA
BRANCH  24  26
ATOM     26  C   UNL     1      -0.054  -3.097  -0.658  1.00  0.00     0.060 A 
ATOM     27  C   UNL     1      -0.914  -1.996  -0.603  1.00  0.00     0.016 A 
ATOM     28  C   UNL     1      -0.564  -4.390  -0.536  1.00  0.00     0.016 A 
ATOM     29  C   UNL     1      -2.276  -2.183  -0.374  1.00  0.00     0.010 A 
ATOM     30  C   UNL     1      -1.939  -4.580  -0.396  1.00  0.00     0.010 A 
ATOM     31  C   UNL     1      -2.805  -3.479  -0.303  1.00  0.00    -0.014 A 
BRANCH  31  32
ATOM     32  C   UNL     1      -4.269  -3.701  -0.203  1.00  0.00     0.031 A 
ATOM     33  C   UNL     1      -4.861  -4.403   0.985  1.00  0.00     0.074 A 
ATOM     34  C   UNL     1      -5.058  -3.324  -1.227  1.00  0.00     0.049 A 
ATOM     35  N   UNL     1      -6.074  -4.866   1.147  1.00  0.00    -0.248 NA
ATOM     36  C   UNL     1      -3.974  -4.617   2.138  1.00  0.00     0.031 C 
ATOM     37  C   UNL     1      -4.606  -2.618  -2.427  1.00  0.00     0.029 A 
ATOM     38  N   UNL     1      -6.402  -3.504  -1.433  1.00  0.00    -0.354 N 
ATOM     39  C   UNL     1      -6.088  -5.461   2.401  1.00  0.00     0.074 A 
ATOM     40  C   UNL     1      -4.763  -5.294   2.963  1.00  0.00     0.031 C 
ATOM     41  C   UNL     1      -5.652  -2.422  -3.242  1.00  0.00     0.029 A 
ATOM     42  C   UNL     1      -6.830  -3.051  -2.656  1.00  0.00     0.049 A 
ATOM     43  H   UNL     1      -7.001  -3.917  -0.769  1.00  0.00     0.167 HD
ATOM     44  C   UNL     1      -7.114  -6.095   3.018  1.00  0.00     0.037 A 
ATOM     45  C   UNL     1      -8.023  -3.172  -3.266  1.00  0.00     0.037 A 
ATOM     46  C   UNL     1      -8.437  -6.235   2.467  1.00  0.00     0.049 A 
ATOM     47  C   UNL     1      -9.131  -3.908  -2.574  1.00  0.00     0.074 A 
ATOM     48  C   UNL     1      -9.550  -6.832   3.034  1.00  0.00     0.029 A 
ATOM     49  N   UNL     1      -8.827  -5.767   1.221  1.00  0.00    -0.354 N 
ATOM     50  N   UNL     1      -9.128  -4.487  -1.399  1.00  0.00    -0.248 NA
ATOM     51  C   UNL     1     -10.403  -4.020  -3.299  1.00  0.00     0.031 C 
ATOM     52  C   UNL     1     -10.606  -6.753   2.118  1.00  0.00     0.029 A 
ATOM     53  C   UNL     1     -10.159  -6.076   0.996  1.00  0.00     0.049 A 
ATOM     54  H   UNL     1      -8.244  -5.287   0.590  1.00  0.00     0.167 HD
ATOM     55  C   UNL     1     -10.396  -5.026  -1.238  1.00  0.00     0.074 A 
ATOM     56  C   UNL     1     -11.148  -4.689  -2.430  1.00  0.00     0.031 C 
ATOM     57  C   UNL     1     -10.890  -5.739  -0.198  1.00  0.00     0.037 A 
BRANCH  44  58
ATOM     58  C   UNL     1      -6.845  -6.714   4.356  1.00  0.00     0.064 A 
ATOM     59  C   UNL     1      -6.758  -5.940   5.522  1.00  0.00     0.173 A 
ATOM     60  C   UNL     1      -6.741  -8.108   4.481  1.00  0.00     0.173 A 
ATOM     61  F   UNL     1      -6.849  -4.604   5.451  1.00  0.00    -0.203 F 
ATOM     62  C   UNL     1      -6.565  -6.539   6.764  1.00  0.00     0.198 A 
ATOM     63  C   UNL     1      -6.567  -8.705   5.726  1.00  0.00     0.198 A 
ATOM     64  F   UNL     1      -6.827  -8.891   3.395  1.00  0.00    -0.203 F 
ATOM     65  F   UNL     1      -6.469  -5.782   7.865  1.00  0.00    -0.200 F 
ATOM     66  C   UNL     1      -6.477  -7.920   6.866  1.00  0.00     0.200 A 
ATOM     67  F   UNL     1      -6.497 -10.040   5.824  1.00  0.00    -0.200 F 
ATOM     68  F   UNL     1      -6.308  -8.497   8.064  1.00  0.00    -0.200 F 
ENDBRANCH  44  58
BRANCH  45  69
ATOM     69  C   UNL     1      -8.208  -2.605  -4.624  1.00  0.00     0.064 A 
ATOM     70  C   UNL     1      -8.982  -1.456  -4.821  1.00  0.00     0.173 A 
ATOM     71  C   UNL     1      -7.590  -3.182  -5.743  1.00  0.00     0.173 A 
ATOM     72  F   UNL     1      -9.608  -0.884  -3.782  1.00  0.00    -0.203 F 
ATOM     73  C   UNL     1      -9.136  -0.904  -6.091  1.00  0.00     0.198 A 
ATOM     74  C   UNL     1      -7.724  -2.616  -7.008  1.00  0.00     0.198 A 
ATOM     75  F   UNL     1      -6.835  -4.282  -5.601  1.00  0.00    -0.203 F 
ATOM     76  F   UNL     1      -9.903   0.181  -6.259  1.00  0.00    -0.200 F 
ATOM     77  C   UNL     1      -8.500  -1.480  -7.181  1.00  0.00     0.200 A 
ATOM     78  F   UNL     1      -7.096  -3.167  -8.056  1.00  0.00    -0.200 F 
ATOM     79  F   UNL     1      -8.637  -0.941  -8.400  1.00  0.00    -0.200 F 
ENDBRANCH  45  69
BRANCH  57  80
ATOM     80  C   UNL     1     -12.316  -6.184  -0.299  1.00  0.00     0.064 A 
ATOM     81  C   UNL     1     -12.690  -7.256  -1.123  1.00  0.00     0.173 A 
ATOM     82  C   UNL     1     -13.316  -5.543   0.446  1.00  0.00     0.173 A 
ATOM     83  F   UNL     1     -11.770  -7.885  -1.869  1.00  0.00    -0.203 F 
ATOM     84  C   UNL     1     -14.019  -7.658  -1.211  1.00  0.00     0.198 A 
ATOM     85  C   UNL     1     -14.642  -5.962   0.371  1.00  0.00     0.198 A 
ATOM     86  F   UNL     1     -13.007  -4.513   1.247  1.00  0.00    -0.203 F 
ATOM     87  F   UNL     1     -14.362  -8.657  -2.036  1.00  0.00    -0.200 F 
ATOM     88  C   UNL     1     -14.993  -7.014  -0.461  1.00  0.00     0.200 A 
ATOM     89  F   UNL     1     -15.581  -5.342   1.099  1.00  0.00    -0.200 F 
ATOM     90  F   UNL     1     -16.273  -7.401  -0.549  1.00  0.00    -0.200 F 
ENDBRANCH  57  80
ENDBRANCH  31  32
ENDBRANCH  24  26
ENDBRANCH  23  24
ENDBRANCH  22  23
ENDBRANCH  21  22
ENDBRANCH   1  21
TORSDOF 17
