REMARK SMILES Cc1cc(N2CC[NH+]([C@@H](C(=O)OCCOC(=O)c3ccc(-c4c5nc(c(-c6c(F)c(F)c(F)c(F)c6F)c6ccc([nH]6)c(-c6c(F)c(F)c(F)c(F)c6F)c6nc(c(-c7c(F)c(F)c(F)c(F)c7F)c7ccc4[nH]7)C=C6)C=C5)cc3)c3c[nH]c4ccccc34)CC2)nc2ccccc12
REMARK SMILES IDX 13 1 12 2 10 3 11 4 9 5 8 6 5 7 6 8 91 9 7 10 90 11 4 13
REMARK SMILES IDX 1 14 2 15 3 16 98 17 93 18 97 19 92 20 94 21 96 22 95 23
REMARK SMILES IDX 81 24 82 25 89 26 83 27 84 28 88 29 85 31 87 32 86 33 14 34
REMARK SMILES IDX 15 35 16 36 17 37 18 38 19 39 80 40 20 41 79 42 21 43 22 44
REMARK SMILES IDX 23 45 73 46 24 47 78 48 72 49 74 50 25 51 77 52 71 53 70 54
REMARK SMILES IDX 26 56 58 57 38 58 57 59 39 60 42 61 56 62 75 63 40 64 41 65
REMARK SMILES IDX 55 67 76 68 43 69 27 70 28 71 36 72 29 73 30 74 34 75 37 76
REMARK SMILES IDX 31 77 32 78 35 79 33 80 59 81 60 82 68 83 61 84 62 85 66 86
REMARK SMILES IDX 69 87 63 88 64 89 67 90 65 91 44 92 45 93 53 94 46 95 47 96
REMARK SMILES IDX 51 97 54 98 48 99 49 100 52 101 50 102
REMARK H PARENT 8 12 83 30 74 55 42 66
REMARK Flexibility Score: inf
ROOT
ATOM      1  C   UNL     1      -2.191  -4.824  -1.907  1.00  0.00     0.274 C 
ENDROOT
BRANCH   1   2
ATOM      2  O   UNL     1      -2.868  -4.609  -0.644  1.00  0.00    -0.457 OA
BRANCH   2   3
ATOM      3  C   UNL     1      -4.032  -5.280  -0.454  1.00  0.00     0.370 C 
ATOM      4  O   UNL     1      -4.394  -6.214  -1.172  1.00  0.00    -0.245 OA
BRANCH   3   5
ATOM      5  C   UNL     1      -4.961  -4.687   0.608  1.00  0.00     0.328 C 
BRANCH   5   6
ATOM      6  N   UNL     1      -5.304  -3.227   0.485  1.00  0.00    -0.316 N 
ATOM      7  N   UNL     1      -2.988  -1.659  -0.302  1.00  0.00    -0.345 N 
ATOM      8  C   UNL     1      -3.147  -2.104   1.076  1.00  0.00     0.179 C 
ATOM      9  C   UNL     1      -4.104  -1.684  -1.243  1.00  0.00     0.179 C 
ATOM     10  C   UNL     1      -4.622  -2.309   1.405  1.00  0.00     0.285 C 
ATOM     11  C   UNL     1      -5.249  -2.686  -0.883  1.00  0.00     0.285 C 
ATOM     12  H   UNL     1      -6.280  -3.258   0.781  1.00  0.00     0.349 HD
BRANCH   7  13
ATOM     13  C   UNL     1      -1.937  -0.772  -0.434  1.00  0.00     0.129 A 
ATOM     14  C   UNL     1      -1.427   2.955  -0.156  1.00  0.00     0.045 C 
ATOM     15  C   UNL     1      -1.118   1.489  -0.275  1.00  0.00    -0.038 A 
ATOM     16  C   UNL     1      -2.179   0.594  -0.421  1.00  0.00     0.051 A 
ATOM     17  C   UNL     1       0.194   0.977  -0.191  1.00  0.00     0.003 A 
ATOM     18  C   UNL     1       0.348  -0.427  -0.235  1.00  0.00     0.073 A 
ATOM     19  C   UNL     1       1.343   1.788  -0.050  1.00  0.00     0.010 A 
ATOM     20  N   UNL     1      -0.690  -1.271  -0.340  1.00  0.00    -0.231 NA
ATOM     21  C   UNL     1       1.625  -0.963  -0.138  1.00  0.00     0.029 A 
ATOM     22  C   UNL     1       2.614   1.224   0.043  1.00  0.00     0.001 A 
ATOM     23  C   UNL     1       2.756  -0.156  -0.001  1.00  0.00     0.002 A 
ENDBRANCH   7  13
ENDBRANCH   5   6
BRANCH   5  24
ATOM     24  C   UNL     1      -4.829  -5.081   2.075  1.00  0.00     0.046 A 
ATOM     25  C   UNL     1      -5.950  -5.319   2.863  1.00  0.00     0.094 A 
ATOM     26  C   UNL     1      -3.719  -5.001   2.999  1.00  0.00     0.009 A 
ATOM     27  N   UNL     1      -5.623  -5.064   4.164  1.00  0.00    -0.361 N 
ATOM     28  C   UNL     1      -4.283  -4.786   4.264  1.00  0.00     0.046 A 
ATOM     29  C   UNL     1      -2.313  -4.901   2.902  1.00  0.00     0.011 A 
ATOM     30  H   UNL     1      -6.255  -5.079   4.918  1.00  0.00     0.166 HD
ATOM     31  C   UNL     1      -3.554  -4.315   5.364  1.00  0.00     0.026 A 
ATOM     32  C   UNL     1      -1.555  -4.512   4.018  1.00  0.00     0.001 A 
ATOM     33  C   UNL     1      -2.175  -4.173   5.215  1.00  0.00     0.002 A 
ENDBRANCH   5  24
ENDBRANCH   3   5
ENDBRANCH   2   3
ENDBRANCH   1   2
BRANCH   1  34
ATOM     34  C   UNL     1      -0.850  -5.516  -1.700  1.00  0.00     0.275 C 
BRANCH  34  35
ATOM     35  O   UNL     1      -1.102  -6.758  -1.027  1.00  0.00    -0.458 OA
BRANCH  35  36
ATOM     36  C   UNL     1      -0.431  -6.939   0.129  1.00  0.00     0.338 C 
ATOM     37  O   UNL     1       0.593  -6.365   0.480  1.00  0.00    -0.246 OA
BRANCH  36  38
ATOM     38  C   UNL     1      -1.188  -7.848   1.019  1.00  0.00     0.060 A 
ATOM     39  C   UNL     1      -2.562  -8.044   0.854  1.00  0.00     0.016 A 
ATOM     40  C   UNL     1      -0.546  -8.389   2.134  1.00  0.00     0.016 A 
ATOM     41  C   UNL     1      -3.312  -8.670   1.843  1.00  0.00     0.010 A 
ATOM     42  C   UNL     1      -1.281  -9.111   3.077  1.00  0.00     0.010 A 
ATOM     43  C   UNL     1      -2.674  -9.234   2.953  1.00  0.00    -0.014 A 
BRANCH  43  44
ATOM     44  C   UNL     1      -3.443 -10.012   3.952  1.00  0.00     0.031 A 
ATOM     45  C   UNL     1      -3.493  -9.585   5.387  1.00  0.00     0.074 A 
ATOM     46  C   UNL     1      -4.054 -11.146   3.564  1.00  0.00     0.049 A 
ATOM     47  N   UNL     1      -3.893 -10.259   6.437  1.00  0.00    -0.248 NA
ATOM     48  C   UNL     1      -3.023  -8.226   5.685  1.00  0.00     0.031 C 
ATOM     49  C   UNL     1      -4.111 -11.646   2.191  1.00  0.00     0.029 A 
ATOM     50  N   UNL     1      -4.723 -12.095   4.295  1.00  0.00    -0.354 N 
ATOM     51  C   UNL     1      -3.681  -9.424   7.525  1.00  0.00     0.074 A 
ATOM     52  C   UNL     1      -3.126  -8.190   7.007  1.00  0.00     0.031 C 
ATOM     53  C   UNL     1      -4.774 -12.809   2.174  1.00  0.00     0.029 A 
ATOM     54  C   UNL     1      -5.109 -13.177   3.545  1.00  0.00     0.049 A 
ATOM     55  H   UNL     1      -4.907 -12.009   5.258  1.00  0.00     0.167 HD
ATOM     56  C   UNL     1      -3.921  -9.680   8.835  1.00  0.00     0.037 A 
ATOM     57  C   UNL     1      -5.618 -14.364   3.917  1.00  0.00     0.037 A 
ATOM     58  C   UNL     1      -4.499 -10.907   9.330  1.00  0.00     0.049 A 
ATOM     59  C   UNL     1      -5.863 -14.633   5.368  1.00  0.00     0.074 A 
ATOM     60  C   UNL     1      -4.792 -11.261  10.636  1.00  0.00     0.029 A 
ATOM     61  N   UNL     1      -4.881 -11.980   8.535  1.00  0.00    -0.354 N 
ATOM     62  N   UNL     1      -5.595 -13.874   6.402  1.00  0.00    -0.248 NA
ATOM     63  C   UNL     1      -6.477 -15.921   5.705  1.00  0.00     0.031 C 
ATOM     64  C   UNL     1      -5.320 -12.559  10.635  1.00  0.00     0.029 A 
ATOM     65  C   UNL     1      -5.403 -12.996   9.323  1.00  0.00     0.049 A 
ATOM     66  H   UNL     1      -4.794 -12.015   7.555  1.00  0.00     0.167 HD
ATOM     67  C   UNL     1      -6.007 -14.588   7.515  1.00  0.00     0.074 A 
ATOM     68  C   UNL     1      -6.566 -15.834   7.025  1.00  0.00     0.031 C 
ATOM     69  C   UNL     1      -5.928 -14.242   8.824  1.00  0.00     0.037 A 
BRANCH  56  70
ATOM     70  C   UNL     1      -3.523  -8.633   9.835  1.00  0.00     0.064 A 
ATOM     71  C   UNL     1      -4.227  -7.427   9.970  1.00  0.00     0.173 A 
ATOM     72  C   UNL     1      -2.448  -8.864  10.708  1.00  0.00     0.173 A 
ATOM     73  F   UNL     1      -5.255  -7.148   9.154  1.00  0.00    -0.203 F 
ATOM     74  C   UNL     1      -3.859  -6.487  10.931  1.00  0.00     0.198 A 
ATOM     75  C   UNL     1      -2.100  -7.934  11.684  1.00  0.00     0.198 A 
ATOM     76  F   UNL     1      -1.743 -10.003  10.625  1.00  0.00    -0.203 F 
ATOM     77  F   UNL     1      -4.523  -5.325  11.018  1.00  0.00    -0.200 F 
ATOM     78  C   UNL     1      -2.802  -6.744  11.792  1.00  0.00     0.200 A 
ATOM     79  F   UNL     1      -1.088  -8.192  12.524  1.00  0.00    -0.200 F 
ATOM     80  F   UNL     1      -2.459  -5.843  12.723  1.00  0.00    -0.200 F 
ENDBRANCH  56  70
BRANCH  57  81
ATOM     81  C   UNL     1      -5.881 -15.378   2.868  1.00  0.00     0.064 A 
ATOM     82  C   UNL     1      -7.185 -15.647   2.438  1.00  0.00     0.173 A 
ATOM     83  C   UNL     1      -4.821 -16.004   2.193  1.00  0.00     0.173 A 
ATOM     84  F   UNL     1      -8.227 -15.085   3.067  1.00  0.00    -0.203 F 
ATOM     85  C   UNL     1      -7.420 -16.492   1.356  1.00  0.00     0.198 A 
ATOM     86  C   UNL     1      -5.056 -16.825   1.094  1.00  0.00     0.198 A 
ATOM     87  F   UNL     1      -3.555 -15.767   2.565  1.00  0.00    -0.203 F 
ATOM     88  F   UNL     1      -8.677 -16.738   0.962  1.00  0.00    -0.200 F 
ATOM     89  C   UNL     1      -6.355 -17.066   0.675  1.00  0.00     0.200 A 
ATOM     90  F   UNL     1      -4.024 -17.358   0.425  1.00  0.00    -0.200 F 
ATOM     91  F   UNL     1      -6.582 -17.846  -0.391  1.00  0.00    -0.200 F 
ENDBRANCH  57  81
BRANCH  69  92
ATOM     92  C   UNL     1      -6.477 -15.232   9.809  1.00  0.00     0.064 A 
ATOM     93  C   UNL     1      -5.808 -16.431  10.094  1.00  0.00     0.173 A 
ATOM     94  C   UNL     1      -7.697 -14.988  10.455  1.00  0.00     0.173 A 
ATOM     95  F   UNL     1      -4.646 -16.717   9.487  1.00  0.00    -0.203 F 
ATOM     96  C   UNL     1      -6.362 -17.370  10.960  1.00  0.00     0.198 A 
ATOM     97  C   UNL     1      -8.236 -15.917  11.340  1.00  0.00     0.198 A 
ATOM     98  F   UNL     1      -8.373 -13.854  10.219  1.00  0.00    -0.203 F 
ATOM     99  F   UNL     1      -5.738 -18.537  11.170  1.00  0.00    -0.200 F 
ATOM    100  C   UNL     1      -7.575 -17.112  11.582  1.00  0.00     0.200 A 
ATOM    101  F   UNL     1      -9.405 -15.665  11.945  1.00  0.00    -0.200 F 
ATOM    102  F   UNL     1      -8.114 -18.023  12.404  1.00  0.00    -0.200 F 
ENDBRANCH  69  92
ENDBRANCH  43  44
ENDBRANCH  36  38
ENDBRANCH  35  36
ENDBRANCH  34  35
ENDBRANCH   1  34
TORSDOF 14
