REMARK SMILES Cc1ccccc1C(=O)Nc1cc(NC(=O)c2ccccc2C)cc(C(=O)OCCOC(=O)c2ccc(-c3c4nc(c(-c5c(F)c(F)c(F)c(F)c5F)c5ccc([nH]5)c(-c5c(F)c(F)c(F)c(F)c5F)c5nc(c(-c6c(F)c(F)c(F)c(F)c6F)c6ccc3[nH]6)C=C5)C=C4)cc2)c1
REMARK SMILES IDX 29 1 28 2 26 3 27 4 25 5 11 6 12 7 97 8 13 9 24 10 10 11
REMARK SMILES IDX 8 12 9 13 7 15 1 16 2 17 3 18 4 19 6 20 5 21 14 22 15 23
REMARK SMILES IDX 16 25 17 26 18 27 22 28 19 29 21 30 23 31 20 32 30 33 31 34
REMARK SMILES IDX 32 35 33 36 34 37 35 38 96 39 36 40 95 41 37 42 38 43 39 44
REMARK SMILES IDX 89 45 40 46 94 47 88 48 90 49 41 50 93 51 87 52 86 53 42 55
REMARK SMILES IDX 74 56 54 57 73 58 55 59 58 60 72 61 91 62 56 63 57 64 71 66
REMARK SMILES IDX 92 67 59 68 43 69 44 70 52 71 45 72 46 73 50 74 53 75 47 76
REMARK SMILES IDX 48 77 51 78 49 79 75 80 76 81 84 82 77 83 78 84 82 85 85 86
REMARK SMILES IDX 79 87 80 88 83 89 81 90 60 91 61 92 69 93 62 94 63 95 67 96
REMARK SMILES IDX 70 97 64 98 65 99 68 100 66 101
REMARK H PARENT 10 14 14 24 90 54 58 65
REMARK Flexibility Score: inf
ROOT
ATOM      1  C   UNL     1       8.791  -1.275   0.420  1.00  0.00     0.275 C 
ENDROOT
BRANCH   1   2
ATOM      2  O   UNL     1       7.642  -0.546  -0.060  1.00  0.00    -0.458 OA
BRANCH   2   3
ATOM      3  C   UNL     1       6.505  -1.273   0.095  1.00  0.00     0.338 C 
ATOM      4  O   UNL     1       6.463  -2.398   0.583  1.00  0.00    -0.246 OA
BRANCH   3   5
ATOM      5  C   UNL     1       5.267  -0.717  -0.490  1.00  0.00     0.064 A 
ATOM      6  C   UNL     1       3.364   0.782  -0.606  1.00  0.00     0.044 A 
ATOM      7  C   UNL     1       2.710  -0.131  -1.431  1.00  0.00     0.052 A 
ATOM      8  C   UNL     1       4.708   0.548  -0.255  1.00  0.00     0.042 A 
ATOM      9  C   UNL     1       3.315  -1.341  -1.755  1.00  0.00     0.044 A 
ATOM     10  C   UNL     1       4.537  -1.671  -1.199  1.00  0.00     0.042 A 
BRANCH   6  11
ATOM     11  N   UNL     1       2.689   1.898  -0.066  1.00  0.00    -0.322 N 
ATOM     12  C   UNL     1       1.339   2.100   0.203  1.00  0.00     0.255 C 
ATOM     13  O   UNL     1       0.957   3.242   0.467  1.00  0.00    -0.269 OA
ATOM     14  H   UNL     1       3.271   2.660   0.158  1.00  0.00     0.170 HD
BRANCH  12  15
ATOM     15  C   UNL     1       0.323   0.994   0.231  1.00  0.00     0.043 A 
ATOM     16  C   UNL     1       1.699  -0.653   1.657  1.00  0.00     0.045 C 
ATOM     17  C   UNL     1       0.523  -0.282   0.798  1.00  0.00    -0.038 A 
ATOM     18  C   UNL     1      -0.454  -1.278   0.599  1.00  0.00     0.004 A 
ATOM     19  C   UNL     1      -1.673  -0.981  -0.007  1.00  0.00     0.000 A 
ATOM     20  C   UNL     1      -0.941   1.297  -0.313  1.00  0.00     0.014 A 
ATOM     21  C   UNL     1      -1.937   0.321  -0.416  1.00  0.00     0.001 A 
ENDBRANCH  12  15
ENDBRANCH   6  11
BRANCH   9  22
ATOM     22  N   UNL     1       2.785  -2.258  -2.661  1.00  0.00    -0.322 N 
ATOM     23  C   UNL     1       2.098  -2.024  -3.827  1.00  0.00     0.255 C 
ATOM     24  H   UNL     1       2.922  -3.205  -2.432  1.00  0.00     0.170 HD
ATOM     25  O   UNL     1       1.610  -2.977  -4.434  1.00  0.00    -0.269 OA
BRANCH  23  26
ATOM     26  C   UNL     1       1.961  -0.653  -4.388  1.00  0.00     0.043 A 
ATOM     27  C   UNL     1       0.652  -0.307  -4.760  1.00  0.00     0.014 A 
ATOM     28  C   UNL     1       3.012   0.276  -4.562  1.00  0.00    -0.038 A 
ATOM     29  C   UNL     1       0.365   0.969  -5.236  1.00  0.00     0.001 A 
ATOM     30  C   UNL     1       2.688   1.573  -4.997  1.00  0.00     0.004 A 
ATOM     31  C   UNL     1       4.469   0.001  -4.305  1.00  0.00     0.045 C 
ATOM     32  C   UNL     1       1.379   1.916  -5.331  1.00  0.00     0.000 A 
ENDBRANCH  23  26
ENDBRANCH   9  22
ENDBRANCH   3   5
ENDBRANCH   2   3
ENDBRANCH   1   2
BRANCH   1  33
ATOM     33  C   UNL     1       9.969  -0.417   0.904  1.00  0.00     0.275 C 
BRANCH  33  34
ATOM     34  O   UNL     1       9.740   0.934   1.386  1.00  0.00    -0.458 OA
BRANCH  34  35
ATOM     35  C   UNL     1       8.571   1.446   1.827  1.00  0.00     0.338 C 
ATOM     36  O   UNL     1       8.197   2.579   1.537  1.00  0.00    -0.246 OA
BRANCH  35  37
ATOM     37  C   UNL     1       7.738   0.576   2.670  1.00  0.00     0.060 A 
ATOM     38  C   UNL     1       6.345   0.763   2.668  1.00  0.00     0.016 A 
ATOM     39  C   UNL     1       8.317  -0.495   3.337  1.00  0.00     0.016 A 
ATOM     40  C   UNL     1       5.512  -0.185   3.236  1.00  0.00     0.010 A 
ATOM     41  C   UNL     1       7.506  -1.516   3.750  1.00  0.00     0.010 A 
ATOM     42  C   UNL     1       6.116  -1.320   3.764  1.00  0.00    -0.014 A 
BRANCH  42  43
ATOM     43  C   UNL     1       5.454  -2.173   4.728  1.00  0.00     0.031 A 
ATOM     44  C   UNL     1       4.615  -3.293   4.289  1.00  0.00     0.074 A 
ATOM     45  C   UNL     1       5.891  -1.868   5.972  1.00  0.00     0.049 A 
ATOM     46  N   UNL     1       3.726  -3.858   5.021  1.00  0.00    -0.248 NA
ATOM     47  C   UNL     1       4.648  -3.850   2.939  1.00  0.00     0.031 C 
ATOM     48  C   UNL     1       5.841  -2.565   7.239  1.00  0.00     0.029 A 
ATOM     49  N   UNL     1       6.455  -0.616   6.313  1.00  0.00    -0.354 N 
ATOM     50  C   UNL     1       3.405  -5.060   4.415  1.00  0.00     0.074 A 
ATOM     51  C   UNL     1       3.838  -4.910   3.053  1.00  0.00     0.031 C 
ATOM     52  C   UNL     1       5.991  -1.653   8.225  1.00  0.00     0.029 A 
ATOM     53  C   UNL     1       6.014  -0.331   7.602  1.00  0.00     0.049 A 
ATOM     54  H   UNL     1       7.042  -0.060   5.752  1.00  0.00     0.167 HD
ATOM     55  C   UNL     1       3.024  -6.095   5.222  1.00  0.00     0.037 A 
ATOM     56  C   UNL     1       5.059   0.640   7.722  1.00  0.00     0.037 A 
ATOM     57  C   UNL     1       2.972  -5.604   6.602  1.00  0.00     0.049 A 
ATOM     58  C   UNL     1       3.763   0.005   8.162  1.00  0.00     0.074 A 
ATOM     59  C   UNL     1       3.911  -5.641   7.620  1.00  0.00     0.029 A 
ATOM     60  N   UNL     1       2.064  -4.605   6.931  1.00  0.00    -0.354 N 
ATOM     61  N   UNL     1       3.358  -1.181   7.785  1.00  0.00    -0.248 NA
ATOM     62  C   UNL     1       2.908   0.614   9.169  1.00  0.00     0.031 C 
ATOM     63  C   UNL     1       3.615  -4.575   8.513  1.00  0.00     0.029 A 
ATOM     64  C   UNL     1       2.508  -3.894   8.031  1.00  0.00     0.049 A 
ATOM     65  H   UNL     1       1.224  -4.428   6.450  1.00  0.00     0.167 HD
ATOM     66  C   UNL     1       2.294  -1.548   8.567  1.00  0.00     0.074 A 
ATOM     67  C   UNL     1       2.031  -0.378   9.390  1.00  0.00     0.031 C 
ATOM     68  C   UNL     1       1.722  -2.789   8.551  1.00  0.00     0.037 A 
BRANCH  55  69
ATOM     69  C   UNL     1       3.018  -7.578   4.888  1.00  0.00     0.064 A 
ATOM     70  C   UNL     1       3.000  -8.533   5.935  1.00  0.00     0.173 A 
ATOM     71  C   UNL     1       3.074  -8.141   3.598  1.00  0.00     0.173 A 
ATOM     72  F   UNL     1       2.875  -8.164   7.217  1.00  0.00    -0.203 F 
ATOM     73  C   UNL     1       3.108  -9.910   5.715  1.00  0.00     0.198 A 
ATOM     74  C   UNL     1       3.193  -9.521   3.377  1.00  0.00     0.198 A 
ATOM     75  F   UNL     1       2.981  -7.393   2.496  1.00  0.00    -0.203 F 
ATOM     76  F   UNL     1       3.109 -10.752   6.758  1.00  0.00    -0.200 F 
ATOM     77  C   UNL     1       3.219 -10.405   4.435  1.00  0.00     0.200 A 
ATOM     78  F   UNL     1       3.278  -9.987   2.122  1.00  0.00    -0.200 F 
ATOM     79  F   UNL     1       3.331 -11.723   4.221  1.00  0.00    -0.200 F 
ENDBRANCH  55  69
BRANCH  56  80
ATOM     80  C   UNL     1       5.211   1.783   6.752  1.00  0.00     0.064 A 
ATOM     81  C   UNL     1       6.478   2.410   6.638  1.00  0.00     0.173 A 
ATOM     82  C   UNL     1       4.272   2.103   5.764  1.00  0.00     0.173 A 
ATOM     83  F   UNL     1       7.433   2.161   7.551  1.00  0.00    -0.203 F 
ATOM     84  C   UNL     1       6.821   3.211   5.548  1.00  0.00     0.198 A 
ATOM     85  C   UNL     1       4.609   2.935   4.683  1.00  0.00     0.198 A 
ATOM     86  F   UNL     1       3.051   1.552   5.780  1.00  0.00    -0.203 F 
ATOM     87  F   UNL     1       8.077   3.663   5.417  1.00  0.00    -0.200 F 
ATOM     88  C   UNL     1       5.886   3.467   4.565  1.00  0.00     0.200 A 
ATOM     89  F   UNL     1       3.727   3.136   3.692  1.00  0.00    -0.200 F 
ATOM     90  F   UNL     1       6.229   4.163   3.471  1.00  0.00    -0.200 F 
ENDBRANCH  56  80
BRANCH  68  91
ATOM     91  C   UNL     1       0.364  -3.107   9.117  1.00  0.00     0.064 A 
ATOM     92  C   UNL     1      -0.665  -2.159   9.211  1.00  0.00     0.173 A 
ATOM     93  C   UNL     1      -0.003  -4.445   9.402  1.00  0.00     0.173 A 
ATOM     94  F   UNL     1      -0.483  -0.887   8.832  1.00  0.00    -0.203 F 
ATOM     95  C   UNL     1      -1.944  -2.507   9.640  1.00  0.00     0.198 A 
ATOM     96  C   UNL     1      -1.303  -4.801   9.742  1.00  0.00     0.198 A 
ATOM     97  F   UNL     1       0.876  -5.455   9.321  1.00  0.00    -0.203 F 
ATOM     98  F   UNL     1      -2.874  -1.553   9.777  1.00  0.00    -0.200 F 
ATOM     99  C   UNL     1      -2.268  -3.827   9.886  1.00  0.00     0.200 A 
ATOM    100  F   UNL     1      -1.617  -6.093   9.901  1.00  0.00    -0.200 F 
ATOM    101  F   UNL     1      -3.514  -4.164  10.238  1.00  0.00    -0.200 F 
ENDBRANCH  68  91
ENDBRANCH  42  43
ENDBRANCH  35  37
ENDBRANCH  34  35
ENDBRANCH  33  34
ENDBRANCH   1  33
TORSDOF 15
