REMARK SMILES COc1ccc(C(=O)OCCOC(=O)c2ccc(-c3c4nc(c(-c5c(F)c(F)c(F)c(F)c5F)c5ccc([nH]5)c(-c5c(F)c(F)c(F)c(F)c5F)c5nc(c(-c6c(F)c(F)c(F)c(F)c6F)c6ccc3[nH]6)C=C5)C=C4)cc2)cc1NCc1cc(C#N)cs1
REMARK SMILES IDX 10 1 9 2 7 3 8 4 6 5 3 6 4 7 79 8 5 9 78 10 2 11 1 12 80 13
REMARK SMILES IDX 81 15 82 16 83 17 88 18 84 19 87 20 85 21 86 22 11 23 12 24
REMARK SMILES IDX 13 25 14 26 15 27 16 28 77 29 17 30 76 31 18 32 19 33 20 34
REMARK SMILES IDX 70 35 21 36 75 37 69 38 71 39 22 40 74 41 68 42 67 43 23 45
REMARK SMILES IDX 55 46 35 47 54 48 36 49 39 50 53 51 72 52 37 53 38 54 52 56
REMARK SMILES IDX 73 57 40 58 24 59 25 60 33 61 26 62 27 63 31 64 34 65 28 66
REMARK SMILES IDX 29 67 32 68 30 69 56 70 57 71 65 72 58 73 59 74 63 75 66 76
REMARK SMILES IDX 60 77 61 78 64 79 62 80 41 81 42 82 50 83 43 84 44 85 48 86
REMARK SMILES IDX 51 87 45 88 46 89 49 90 47 91
REMARK H PARENT 80 14 71 44 39 55
REMARK Flexibility Score: inf
ROOT
ATOM      1  C   UNL     1       3.680   7.237  -2.989  1.00  0.00     0.275 C 
ENDROOT
BRANCH   1   2
ATOM      2  O   UNL     1       3.300   5.875  -2.700  1.00  0.00    -0.458 OA
BRANCH   2   3
ATOM      3  C   UNL     1       2.080   5.688  -2.133  1.00  0.00     0.338 C 
ATOM      4  O   UNL     1       1.279   6.558  -1.835  1.00  0.00    -0.246 OA
BRANCH   3   5
ATOM      5  C   UNL     1       1.797   4.238  -1.967  1.00  0.00     0.062 A 
ATOM      6  C   UNL     1       1.246   1.545  -1.570  1.00  0.00     0.142 A 
ATOM      7  C   UNL     1       0.217   2.399  -1.954  1.00  0.00     0.049 A 
ATOM      8  C   UNL     1       2.576   1.993  -1.430  1.00  0.00     0.078 A 
ATOM      9  C   UNL     1       0.491   3.752  -2.115  1.00  0.00     0.019 A 
ATOM     10  C   UNL     1       2.826   3.356  -1.623  1.00  0.00     0.045 A 
BRANCH   6  11
ATOM     11  O   UNL     1       0.914   0.231  -1.333  1.00  0.00    -0.495 OA
ATOM     12  C   UNL     1       0.759   0.019   0.075  1.00  0.00     0.278 C 
ENDBRANCH   6  11
BRANCH   8  13
ATOM     13  N   UNL     1       3.567   1.088  -1.112  1.00  0.00    -0.377 N 
ATOM     14  H   UNL     1       3.338   0.134  -1.195  1.00  0.00     0.161 HD
BRANCH  13  15
ATOM     15  C   UNL     1       4.907   1.397  -0.669  1.00  0.00     0.160 C 
BRANCH  15  16
ATOM     16  C   UNL     1       5.036   1.526   0.822  1.00  0.00     0.025 A 
ATOM     17  C   UNL     1       5.049   2.670   1.599  1.00  0.00     0.036 A 
ATOM     18  S   UNL     1       5.187   0.113   1.784  1.00  0.00    -0.146 S 
ATOM     19  C   UNL     1       5.232   2.381   2.985  1.00  0.00     0.063 A 
ATOM     20  C   UNL     1       5.316   1.027   3.222  1.00  0.00     0.084 A 
BRANCH  19  21
ATOM     21  C   UNL     1       5.333   3.357   4.029  1.00  0.00     0.100 C 
ATOM     22  N   UNL     1       5.427   4.141   4.876  1.00  0.00    -0.192 NA
ENDBRANCH  19  21
ENDBRANCH  15  16
ENDBRANCH  13  15
ENDBRANCH   8  13
ENDBRANCH   3   5
ENDBRANCH   2   3
ENDBRANCH   1   2
BRANCH   1  23
ATOM     23  C   UNL     1       3.541   7.564  -4.478  1.00  0.00     0.275 C 
BRANCH  23  24
ATOM     24  O   UNL     1       2.158   7.611  -4.875  1.00  0.00    -0.458 OA
BRANCH  24  25
ATOM     25  C   UNL     1       1.698   6.464  -5.419  1.00  0.00     0.338 C 
ATOM     26  O   UNL     1       2.324   5.440  -5.638  1.00  0.00    -0.246 OA
BRANCH  25  27
ATOM     27  C   UNL     1       0.247   6.532  -5.615  1.00  0.00     0.060 A 
ATOM     28  C   UNL     1      -0.546   6.069  -4.576  1.00  0.00     0.016 A 
ATOM     29  C   UNL     1      -0.320   6.805  -6.854  1.00  0.00     0.016 A 
ATOM     30  C   UNL     1      -1.867   5.718  -4.795  1.00  0.00     0.010 A 
ATOM     31  C   UNL     1      -1.695   6.599  -7.032  1.00  0.00     0.010 A 
ATOM     32  C   UNL     1      -2.477   6.011  -6.018  1.00  0.00    -0.014 A 
BRANCH  32  33
ATOM     33  C   UNL     1      -3.919   5.689  -6.218  1.00  0.00     0.031 A 
ATOM     34  C   UNL     1      -4.351   4.835  -7.382  1.00  0.00     0.074 A 
ATOM     35  C   UNL     1      -4.840   6.145  -5.343  1.00  0.00     0.049 A 
ATOM     36  N   UNL     1      -5.558   4.603  -7.835  1.00  0.00    -0.248 NA
ATOM     37  C   UNL     1      -3.289   4.163  -8.148  1.00  0.00     0.031 C 
ATOM     38  C   UNL     1      -4.556   6.933  -4.140  1.00  0.00     0.029 A 
ATOM     39  N   UNL     1      -6.208   6.014  -5.326  1.00  0.00    -0.354 N 
ATOM     40  C   UNL     1      -5.396   3.797  -8.955  1.00  0.00     0.074 A 
ATOM     41  C   UNL     1      -3.974   3.601  -9.133  1.00  0.00     0.031 C 
ATOM     42  C   UNL     1      -5.700   7.186  -3.490  1.00  0.00     0.029 A 
ATOM     43  C   UNL     1      -6.809   6.686  -4.287  1.00  0.00     0.049 A 
ATOM     44  H   UNL     1      -6.709   5.491  -5.993  1.00  0.00     0.167 HD
ATOM     45  C   UNL     1      -6.352   3.264  -9.754  1.00  0.00     0.037 A 
ATOM     46  C   UNL     1      -8.108   6.936  -4.036  1.00  0.00     0.037 A 
ATOM     47  C   UNL     1      -7.767   3.442  -9.548  1.00  0.00     0.049 A 
ATOM     48  C   UNL     1      -9.140   6.413  -4.997  1.00  0.00     0.074 A 
ATOM     49  C   UNL     1      -8.817   2.952 -10.305  1.00  0.00     0.029 A 
ATOM     50  N   UNL     1      -8.329   4.160  -8.502  1.00  0.00    -0.354 N 
ATOM     51  N   UNL     1      -8.976   5.684  -6.073  1.00  0.00    -0.248 NA
ATOM     52  C   UNL     1     -10.539   6.755  -4.712  1.00  0.00     0.031 C 
ATOM     53  C   UNL     1     -10.012   3.421  -9.751  1.00  0.00     0.029 A 
ATOM     54  C   UNL     1      -9.711   4.141  -8.606  1.00  0.00     0.049 A 
ATOM     55  H   UNL     1      -7.822   4.615  -7.792  1.00  0.00     0.167 HD
ATOM     56  C   UNL     1     -10.249   5.449  -6.570  1.00  0.00     0.074 A 
ATOM     57  C   UNL     1     -11.176   6.093  -5.665  1.00  0.00     0.031 C 
ATOM     58  C   UNL     1     -10.620   4.765  -7.680  1.00  0.00     0.037 A 
BRANCH  45  59
ATOM     59  C   UNL     1      -5.912   2.449 -10.937  1.00  0.00     0.064 A 
ATOM     60  C   UNL     1      -5.331   1.181 -10.789  1.00  0.00     0.173 A 
ATOM     61  C   UNL     1      -6.144   2.913 -12.243  1.00  0.00     0.173 A 
ATOM     62  F   UNL     1      -5.078   0.693  -9.565  1.00  0.00    -0.203 F 
ATOM     63  C   UNL     1      -4.984   0.416 -11.900  1.00  0.00     0.198 A 
ATOM     64  C   UNL     1      -5.827   2.131 -13.351  1.00  0.00     0.198 A 
ATOM     65  F   UNL     1      -6.703   4.116 -12.444  1.00  0.00    -0.203 F 
ATOM     66  F   UNL     1      -4.396  -0.777 -11.733  1.00  0.00    -0.200 F 
ATOM     67  C   UNL     1      -5.243   0.886 -13.179  1.00  0.00     0.200 A 
ATOM     68  F   UNL     1      -6.096   2.580 -14.585  1.00  0.00    -0.200 F 
ATOM     69  F   UNL     1      -4.928   0.139 -14.246  1.00  0.00    -0.200 F 
ENDBRANCH  45  59
BRANCH  46  70
ATOM     70  C   UNL     1      -8.508   7.776  -2.872  1.00  0.00     0.064 A 
ATOM     71  C   UNL     1      -9.318   7.261  -1.851  1.00  0.00     0.173 A 
ATOM     72  C   UNL     1      -8.139   9.129  -2.786  1.00  0.00     0.173 A 
ATOM     73  F   UNL     1      -9.714   5.980  -1.892  1.00  0.00    -0.203 F 
ATOM     74  C   UNL     1      -9.784   8.075  -0.820  1.00  0.00     0.198 A 
ATOM     75  C   UNL     1      -8.566   9.929  -1.729  1.00  0.00     0.198 A 
ATOM     76  F   UNL     1      -7.361   9.678  -3.730  1.00  0.00    -0.203 F 
ATOM     77  F   UNL     1     -10.628   7.576   0.093  1.00  0.00    -0.200 F 
ATOM     78  C   UNL     1      -9.405   9.407  -0.758  1.00  0.00     0.200 A 
ATOM     79  F   UNL     1      -8.177  11.210  -1.662  1.00  0.00    -0.200 F 
ATOM     80  F   UNL     1      -9.862  10.191   0.228  1.00  0.00    -0.200 F 
ENDBRANCH  46  70
BRANCH  58  81
ATOM     81  C   UNL     1     -12.092   4.618  -7.935  1.00  0.00     0.064 A 
ATOM     82  C   UNL     1     -12.898   5.707  -8.296  1.00  0.00     0.173 A 
ATOM     83  C   UNL     1     -12.700   3.356  -7.840  1.00  0.00     0.173 A 
ATOM     84  F   UNL     1     -12.370   6.938  -8.385  1.00  0.00    -0.203 F 
ATOM     85  C   UNL     1     -14.263   5.546  -8.516  1.00  0.00     0.198 A 
ATOM     86  C   UNL     1     -14.056   3.190  -8.103  1.00  0.00     0.198 A 
ATOM     87  F   UNL     1     -11.974   2.278  -7.506  1.00  0.00    -0.203 F 
ATOM     88  F   UNL     1     -15.025   6.612  -8.795  1.00  0.00    -0.200 F 
ATOM     89  C   UNL     1     -14.839   4.287  -8.429  1.00  0.00     0.200 A 
ATOM     90  F   UNL     1     -14.605   1.970  -8.037  1.00  0.00    -0.200 F 
ATOM     91  F   UNL     1     -16.151   4.132  -8.650  1.00  0.00    -0.200 F 
ENDBRANCH  58  81
ENDBRANCH  32  33
ENDBRANCH  25  27
ENDBRANCH  24  25
ENDBRANCH  23  24
ENDBRANCH   1  23
TORSDOF 16
