REMARK SMILES COc1ccc([C@H]2C[NH2+]C[C@@H]2C(=O)OCCOC(=O)c2ccc(-c3c4nc(c(-c5c(F)c(F)c(F)c(F)c5F)c5ccc([nH]5)c(-c5c(F)c(F)c(F)c(F)c5F)c5nc(c(-c6c(F)c(F)c(F)c(F)c6F)c6ccc3[nH]6)C=C5)C=C4)cc2)cc1
REMARK SMILES IDX 15 1 14 2 12 3 13 4 11 5 7 6 8 7 9 8 10 9 6 12 3 13 4 14
REMARK SMILES IDX 84 15 5 16 83 17 2 18 1 19 16 20 17 21 18 22 19 23 20 24
REMARK SMILES IDX 21 25 82 26 22 27 81 28 23 29 24 30 25 31 75 32 26 33 80 34
REMARK SMILES IDX 74 35 76 36 27 37 79 38 73 39 72 40 28 42 60 43 40 44 59 45
REMARK SMILES IDX 41 46 44 47 58 48 77 49 42 50 43 51 57 53 78 54 45 55 29 56
REMARK SMILES IDX 30 57 38 58 31 59 32 60 36 61 39 62 33 63 34 64 37 65 35 66
REMARK SMILES IDX 61 67 62 68 70 69 63 70 64 71 68 72 71 73 65 74 66 75 69 76
REMARK SMILES IDX 67 77 46 78 47 79 55 80 48 81 49 82 53 83 56 84 50 85 51 86
REMARK SMILES IDX 54 87 52 88
REMARK H PARENT 9 10 9 11 76 41 44 52
REMARK Flexibility Score: inf
ROOT
ATOM      1  C   UNL     1       5.411   2.986  -1.954  1.00  0.00     0.274 C 
ENDROOT
BRANCH   1   2
ATOM      2  O   UNL     1       5.038   3.485  -3.253  1.00  0.00    -0.462 OA
BRANCH   2   3
ATOM      3  C   UNL     1       3.737   3.348  -3.609  1.00  0.00     0.315 C 
ATOM      4  O   UNL     1       2.889   2.803  -2.910  1.00  0.00    -0.252 OA
BRANCH   3   5
ATOM      5  C   UNL     1       3.387   4.052  -4.912  1.00  0.00     0.167 C 
ATOM      6  C   UNL     1       2.444   3.166  -5.752  1.00  0.00     0.094 C 
ATOM      7  C   UNL     1       3.418   2.604  -6.796  1.00  0.00     0.269 C 
ATOM      8  N   UNL     1       4.297   3.734  -7.124  1.00  0.00    -0.345 N 
ATOM      9  C   UNL     1       4.564   4.380  -5.830  1.00  0.00     0.276 C 
ATOM     10  H   UNL     1       3.831   4.380  -7.761  1.00  0.00     0.346 HD
ATOM     11  H   UNL     1       5.153   3.436  -7.593  1.00  0.00     0.346 HD
BRANCH   6  12
ATOM     12  C   UNL     1       1.229   3.823  -6.412  1.00  0.00    -0.038 A 
ATOM     13  C   UNL     1      -1.033   4.881  -7.741  1.00  0.00     0.118 A 
ATOM     14  C   UNL     1      -0.769   3.518  -7.791  1.00  0.00     0.047 A 
ATOM     15  C   UNL     1      -0.209   5.711  -6.986  1.00  0.00     0.047 A 
ATOM     16  C   UNL     1       0.348   2.995  -7.135  1.00  0.00     0.008 A 
ATOM     17  C   UNL     1       0.918   5.188  -6.335  1.00  0.00     0.008 A 
BRANCH  13  18
ATOM     18  O   UNL     1      -2.139   5.306  -8.423  1.00  0.00    -0.497 OA
ATOM     19  C   UNL     1      -1.956   6.544  -9.106  1.00  0.00     0.278 C 
ENDBRANCH  13  18
ENDBRANCH   6  12
ENDBRANCH   3   5
ENDBRANCH   2   3
ENDBRANCH   1   2
BRANCH   1  20
ATOM     20  C   UNL     1       5.540   4.122  -0.934  1.00  0.00     0.275 C 
BRANCH  20  21
ATOM     21  O   UNL     1       4.264   4.704  -0.596  1.00  0.00    -0.458 OA
BRANCH  21  22
ATOM     22  C   UNL     1       3.866   5.711  -1.407  1.00  0.00     0.338 C 
ATOM     23  O   UNL     1       4.470   6.174  -2.361  1.00  0.00    -0.246 OA
BRANCH  22  24
ATOM     24  C   UNL     1       2.494   6.131  -1.078  1.00  0.00     0.060 A 
ATOM     25  C   UNL     1       1.556   6.104  -2.110  1.00  0.00     0.016 A 
ATOM     26  C   UNL     1       2.152   6.652   0.171  1.00  0.00     0.016 A 
ATOM     27  C   UNL     1       0.288   6.634  -1.923  1.00  0.00     0.010 A 
ATOM     28  C   UNL     1       0.863   7.166   0.369  1.00  0.00     0.010 A 
ATOM     29  C   UNL     1      -0.069   7.180  -0.684  1.00  0.00    -0.014 A 
BRANCH  29  30
ATOM     30  C   UNL     1      -1.414   7.789  -0.548  1.00  0.00     0.031 A 
ATOM     31  C   UNL     1      -1.566   9.281  -0.483  1.00  0.00     0.074 A 
ATOM     32  C   UNL     1      -2.502   6.998  -0.590  1.00  0.00     0.049 A 
ATOM     33  N   UNL     1      -2.659   9.999  -0.407  1.00  0.00    -0.248 NA
ATOM     34  C   UNL     1      -0.328  10.074  -0.513  1.00  0.00     0.031 C 
ATOM     35  C   UNL     1      -2.476   5.539  -0.701  1.00  0.00     0.029 A 
ATOM     36  N   UNL     1      -3.837   7.310  -0.578  1.00  0.00    -0.354 N 
ATOM     37  C   UNL     1      -2.241  11.321  -0.358  1.00  0.00     0.074 A 
ATOM     38  C   UNL     1      -0.794  11.310  -0.398  1.00  0.00     0.031 C 
ATOM     39  C   UNL     1      -3.736   5.085  -0.782  1.00  0.00     0.029 A 
ATOM     40  C   UNL     1      -4.656   6.214  -0.685  1.00  0.00     0.049 A 
ATOM     41  H   UNL     1      -4.176   8.231  -0.500  1.00  0.00     0.167 HD
ATOM     42  C   UNL     1      -2.999  12.442  -0.291  1.00  0.00     0.037 A 
ATOM     43  C   UNL     1      -6.000   6.129  -0.695  1.00  0.00     0.037 A 
ATOM     44  C   UNL     1      -4.439  12.452  -0.276  1.00  0.00     0.049 A 
ATOM     45  C   UNL     1      -6.814   7.388  -0.592  1.00  0.00     0.074 A 
ATOM     46  C   UNL     1      -5.296  13.538  -0.212  1.00  0.00     0.029 A 
ATOM     47  N   UNL     1      -5.236  11.318  -0.333  1.00  0.00    -0.354 N 
ATOM     48  N   UNL     1      -6.408   8.633  -0.527  1.00  0.00    -0.248 NA
ATOM     49  C   UNL     1      -8.274   7.228  -0.558  1.00  0.00     0.031 C 
ATOM     50  C   UNL     1      -6.611  13.058  -0.197  1.00  0.00     0.029 A 
ATOM     51  C   UNL     1      -6.574  11.676  -0.290  1.00  0.00     0.049 A 
ATOM     52  H   UNL     1      -4.900  10.395  -0.394  1.00  0.00     0.167 HD
ATOM     53  C   UNL     1      -7.558   9.404  -0.451  1.00  0.00     0.074 A 
ATOM     54  C   UNL     1      -8.680   8.489  -0.506  1.00  0.00     0.031 C 
ATOM     55  C   UNL     1      -7.676  10.750  -0.337  1.00  0.00     0.037 A 
BRANCH  42  56
ATOM     56  C   UNL     1      -2.281  13.756  -0.201  1.00  0.00     0.064 A 
ATOM     57  C   UNL     1      -1.639  14.324  -1.310  1.00  0.00     0.173 A 
ATOM     58  C   UNL     1      -2.263  14.469   1.007  1.00  0.00     0.173 A 
ATOM     59  F   UNL     1      -1.615  13.673  -2.483  1.00  0.00    -0.203 F 
ATOM     60  C   UNL     1      -0.986  15.550  -1.208  1.00  0.00     0.198 A 
ATOM     61  C   UNL     1      -1.629  15.705   1.100  1.00  0.00     0.198 A 
ATOM     62  F   UNL     1      -2.865  13.970   2.097  1.00  0.00    -0.203 F 
ATOM     63  F   UNL     1      -0.344  16.056  -2.270  1.00  0.00    -0.200 F 
ATOM     64  C   UNL     1      -0.987  16.242  -0.006  1.00  0.00     0.200 A 
ATOM     65  F   UNL     1      -1.638  16.376   2.260  1.00  0.00    -0.200 F 
ATOM     66  F   UNL     1      -0.361  17.424   0.090  1.00  0.00    -0.200 F 
ENDBRANCH  42  56
BRANCH  43  67
ATOM     67  C   UNL     1      -6.654   4.801  -0.797  1.00  0.00     0.064 A 
ATOM     68  C   UNL     1      -7.356   4.426  -1.951  1.00  0.00     0.173 A 
ATOM     69  C   UNL     1      -6.589   3.878   0.257  1.00  0.00     0.173 A 
ATOM     70  F   UNL     1      -7.469   5.286  -2.974  1.00  0.00    -0.203 F 
ATOM     71  C   UNL     1      -7.977   3.183  -2.042  1.00  0.00     0.198 A 
ATOM     72  C   UNL     1      -7.187   2.625   0.155  1.00  0.00     0.198 A 
ATOM     73  F   UNL     1      -5.932   4.191   1.384  1.00  0.00    -0.203 F 
ATOM     74  F   UNL     1      -8.677   2.864  -3.139  1.00  0.00    -0.200 F 
ATOM     75  C   UNL     1      -7.886   2.280  -0.992  1.00  0.00     0.200 A 
ATOM     76  F   UNL     1      -7.089   1.754   1.168  1.00  0.00    -0.200 F 
ATOM     77  F   UNL     1      -8.480   1.083  -1.081  1.00  0.00    -0.200 F 
ENDBRANCH  43  67
BRANCH  55  78
ATOM     78  C   UNL     1      -9.067  11.305  -0.272  1.00  0.00     0.064 A 
ATOM     79  C   UNL     1      -9.854  11.166   0.881  1.00  0.00     0.173 A 
ATOM     80  C   UNL     1      -9.613  11.992  -1.365  1.00  0.00     0.173 A 
ATOM     81  F   UNL     1      -9.380  10.502   1.946  1.00  0.00    -0.203 F 
ATOM     82  C   UNL     1     -11.151  11.671   0.925  1.00  0.00     0.198 A 
ATOM     83  C   UNL     1     -10.901  12.517  -1.308  1.00  0.00     0.198 A 
ATOM     84  F   UNL     1      -8.898  12.155  -2.488  1.00  0.00    -0.203 F 
ATOM     85  F   UNL     1     -11.903  11.484   2.018  1.00  0.00    -0.200 F 
ATOM     86  C   UNL     1     -11.671  12.349  -0.167  1.00  0.00     0.200 A 
ATOM     87  F   UNL     1     -11.400  13.179  -2.361  1.00  0.00    -0.200 F 
ATOM     88  F   UNL     1     -12.920  12.832  -0.123  1.00  0.00    -0.200 F 
ENDBRANCH  55  78
ENDBRANCH  29  30
ENDBRANCH  22  24
ENDBRANCH  21  22
ENDBRANCH  20  21
ENDBRANCH   1  20
TORSDOF 13
