REMARK SMILES CCOc1cc(CO)cc(Br)c1OCC(C)(C)C(=O)OCCOC(=O)c1ccc(-c2c3nc(c(-c4c(F)c(F)c(F)c(F)c4F)c4ccc([nH]4)c(-c4c(F)c(F)c(F)c(F)c4F)c4nc(c(-c5c(F)c(F)c(F)c(F)c5F)c5ccc2[nH]5)C=C4)C=C3)cc1
REMARK SMILES IDX 20 1 18 2 19 3 15 4 16 5 17 6 14 7 13 8 12 9 4 10 5 11 6 12
REMARK SMILES IDX 10 13 9 14 11 15 3 16 2 17 1 18 7 19 8 20 21 22 22 23 23 24
REMARK SMILES IDX 24 25 25 26 26 27 27 28 88 29 28 30 87 31 29 32 30 33 31 34
REMARK SMILES IDX 81 35 32 36 86 37 80 38 82 39 33 40 85 41 79 42 78 43 34 45
REMARK SMILES IDX 66 46 46 47 65 48 47 49 50 50 64 51 83 52 48 53 49 54 63 56
REMARK SMILES IDX 84 57 51 58 35 59 36 60 44 61 37 62 38 63 42 64 45 65 39 66
REMARK SMILES IDX 40 67 43 68 41 69 67 70 68 71 76 72 69 73 70 74 74 75 77 76
REMARK SMILES IDX 71 77 72 78 75 79 73 80 52 81 53 82 61 83 54 84 55 85 59 86
REMARK SMILES IDX 62 87 56 88 57 89 60 90 58 91
REMARK H PARENT 8 21 82 44 50 55
REMARK Flexibility Score: inf
ROOT
ATOM      1  O   UNL     1       3.553   4.582   5.488  1.00  0.00    -0.462 OA
ENDROOT
BRANCH   1   2
ATOM      2  C   UNL     1       3.418   4.330   4.154  1.00  0.00     0.315 C 
ATOM      3  O   UNL     1       2.735   3.421   3.702  1.00  0.00    -0.251 OA
BRANCH   2   4
ATOM      4  C   UNL     1       4.320   5.240   3.312  1.00  0.00     0.096 C 
ATOM      5  C   UNL     1       5.591   4.432   3.029  1.00  0.00     0.027 C 
ATOM      6  C   UNL     1       4.731   6.506   4.106  1.00  0.00     0.027 C 
BRANCH   4   7
ATOM      7  C   UNL     1       3.601   5.767   2.035  1.00  0.00     0.248 C 
BRANCH   7   8
ATOM      8  O   UNL     1       2.969   4.877   1.111  1.00  0.00    -0.487 OA
BRANCH   8   9
ATOM      9  C   UNL     1       3.688   3.914   0.459  1.00  0.00     0.175 A 
ATOM     10  C   UNL     1       3.073   2.643   0.412  1.00  0.00     0.162 A 
ATOM     11  C   UNL     1       3.781   1.540  -0.072  1.00  0.00     0.056 A 
ATOM     12  C   UNL     1       5.089   1.680  -0.550  1.00  0.00    -0.018 A 
ATOM     13  C   UNL     1       4.923   4.081  -0.179  1.00  0.00     0.064 A 
ATOM     14  C   UNL     1       5.630   2.964  -0.648  1.00  0.00     0.026 A 
ATOM     15  Br  UNL     1       5.690   5.767  -0.612  1.00  0.00    -0.047 Br
BRANCH  10  16
ATOM     16  O   UNL     1       1.743   2.585   0.752  1.00  0.00    -0.490 OA
BRANCH  16  17
ATOM     17  C   UNL     1       1.248   1.395   1.365  1.00  0.00     0.226 C 
ATOM     18  C   UNL     1       0.667   0.417   0.352  1.00  0.00     0.049 C 
ENDBRANCH  16  17
ENDBRANCH  10  16
BRANCH  12  19
ATOM     19  C   UNL     1       5.856   0.483  -1.047  1.00  0.00     0.191 C 
BRANCH  19  20
ATOM     20  O   UNL     1       5.729  -0.612  -0.148  1.00  0.00    -0.392 OA
ATOM     21  H   UNL     1       6.085  -0.362   0.719  1.00  0.00     0.211 HD
ENDBRANCH  19  20
ENDBRANCH  12  19
ENDBRANCH   8   9
ENDBRANCH   7   8
ENDBRANCH   4   7
ENDBRANCH   2   4
ENDBRANCH   1   2
BRANCH   1  22
ATOM     22  C   UNL     1       2.847   3.716   6.400  1.00  0.00     0.274 C 
BRANCH  22  23
ATOM     23  C   UNL     1       1.640   4.439   6.988  1.00  0.00     0.275 C 
BRANCH  23  24
ATOM     24  O   UNL     1       0.691   4.700   5.941  1.00  0.00    -0.458 OA
BRANCH  24  25
ATOM     25  C   UNL     1       0.465   6.003   5.664  1.00  0.00     0.338 C 
ATOM     26  O   UNL     1       0.896   6.982   6.247  1.00  0.00    -0.246 OA
BRANCH  25  27
ATOM     27  C   UNL     1      -0.394   6.093   4.477  1.00  0.00     0.060 A 
ATOM     28  C   UNL     1       0.114   5.704   3.239  1.00  0.00     0.016 A 
ATOM     29  C   UNL     1      -1.656   6.673   4.571  1.00  0.00     0.016 A 
ATOM     30  C   UNL     1      -0.598   5.973   2.075  1.00  0.00     0.010 A 
ATOM     31  C   UNL     1      -2.413   6.853   3.409  1.00  0.00     0.010 A 
ATOM     32  C   UNL     1      -1.879   6.536   2.145  1.00  0.00    -0.014 A 
BRANCH  32  33
ATOM     33  C   UNL     1      -2.648   6.832   0.906  1.00  0.00     0.031 A 
ATOM     34  C   UNL     1      -3.088   8.240   0.613  1.00  0.00     0.074 A 
ATOM     35  C   UNL     1      -2.958   5.847   0.040  1.00  0.00     0.049 A 
ATOM     36  N   UNL     1      -3.945   8.676  -0.276  1.00  0.00    -0.248 NA
ATOM     37  C   UNL     1      -2.493   9.302   1.441  1.00  0.00     0.031 C 
ATOM     38  C   UNL     1      -2.544   4.449   0.157  1.00  0.00     0.029 A 
ATOM     39  N   UNL     1      -3.694   5.878  -1.119  1.00  0.00    -0.354 N 
ATOM     40  C   UNL     1      -4.042  10.046  -0.069  1.00  0.00     0.074 A 
ATOM     41  C   UNL     1      -3.149  10.374   1.021  1.00  0.00     0.031 C 
ATOM     42  C   UNL     1      -2.999   3.764  -0.903  1.00  0.00     0.029 A 
ATOM     43  C   UNL     1      -3.811   4.653  -1.727  1.00  0.00     0.049 A 
ATOM     44  H   UNL     1      -4.099   6.700  -1.479  1.00  0.00     0.167 HD
ATOM     45  C   UNL     1      -4.813  10.944  -0.728  1.00  0.00     0.037 A 
ATOM     46  C   UNL     1      -4.527   4.275  -2.803  1.00  0.00     0.037 A 
ATOM     47  C   UNL     1      -5.643  10.627  -1.860  1.00  0.00     0.049 A 
ATOM     48  C   UNL     1      -5.391   5.284  -3.504  1.00  0.00     0.074 A 
ATOM     49  C   UNL     1      -6.444  11.472  -2.609  1.00  0.00     0.029 A 
ATOM     50  N   UNL     1      -5.759   9.364  -2.421  1.00  0.00    -0.354 N 
ATOM     51  N   UNL     1      -5.542   6.561  -3.252  1.00  0.00    -0.248 NA
ATOM     52  C   UNL     1      -6.209   4.790  -4.621  1.00  0.00     0.031 C 
ATOM     53  C   UNL     1      -7.064  10.715  -3.610  1.00  0.00     0.029 A 
ATOM     54  C   UNL     1      -6.626   9.406  -3.502  1.00  0.00     0.049 A 
ATOM     55  H   UNL     1      -5.295   8.558  -2.100  1.00  0.00     0.167 HD
ATOM     56  C   UNL     1      -6.464   7.025  -4.178  1.00  0.00     0.074 A 
ATOM     57  C   UNL     1      -6.825   5.897  -5.012  1.00  0.00     0.031 C 
ATOM     58  C   UNL     1      -6.972   8.273  -4.319  1.00  0.00     0.037 A 
BRANCH  45  59
ATOM     59  C   UNL     1      -4.827  12.353  -0.217  1.00  0.00     0.064 A 
ATOM     60  C   UNL     1      -3.761  13.235  -0.436  1.00  0.00     0.173 A 
ATOM     61  C   UNL     1      -5.951  12.836   0.473  1.00  0.00     0.173 A 
ATOM     62  F   UNL     1      -2.660  12.816  -1.077  1.00  0.00    -0.203 F 
ATOM     63  C   UNL     1      -3.810  14.546   0.033  1.00  0.00     0.198 A 
ATOM     64  C   UNL     1      -6.006  14.152   0.920  1.00  0.00     0.198 A 
ATOM     65  F   UNL     1      -6.999  12.031   0.705  1.00  0.00    -0.203 F 
ATOM     66  F   UNL     1      -2.765  15.363  -0.155  1.00  0.00    -0.200 F 
ATOM     67  C   UNL     1      -4.934  15.005   0.705  1.00  0.00     0.200 A 
ATOM     68  F   UNL     1      -7.097  14.596   1.561  1.00  0.00    -0.200 F 
ATOM     69  F   UNL     1      -4.982  16.268   1.150  1.00  0.00    -0.200 F 
ENDBRANCH  45  59
BRANCH  46  70
ATOM     70  C   UNL     1      -4.485   2.861  -3.255  1.00  0.00     0.064 A 
ATOM     71  C   UNL     1      -3.848   2.509  -4.452  1.00  0.00     0.173 A 
ATOM     72  C   UNL     1      -5.067   1.836  -2.495  1.00  0.00     0.173 A 
ATOM     73  F   UNL     1      -3.303   3.460  -5.225  1.00  0.00    -0.203 F 
ATOM     74  C   UNL     1      -3.796   1.183  -4.874  1.00  0.00     0.198 A 
ATOM     75  C   UNL     1      -4.992   0.507  -2.905  1.00  0.00     0.198 A 
ATOM     76  F   UNL     1      -5.693   2.123  -1.345  1.00  0.00    -0.203 F 
ATOM     77  F   UNL     1      -3.211   0.875  -6.039  1.00  0.00    -0.200 F 
ATOM     78  C   UNL     1      -4.361   0.182  -4.096  1.00  0.00     0.200 A 
ATOM     79  F   UNL     1      -5.529  -0.458  -2.146  1.00  0.00    -0.200 F 
ATOM     80  F   UNL     1      -4.303  -1.095  -4.498  1.00  0.00    -0.200 F 
ENDBRANCH  46  70
BRANCH  58  81
ATOM     81  C   UNL     1      -7.958   8.485  -5.427  1.00  0.00     0.064 A 
ATOM     82  C   UNL     1      -9.285   8.047  -5.314  1.00  0.00     0.173 A 
ATOM     83  C   UNL     1      -7.580   9.159  -6.597  1.00  0.00     0.173 A 
ATOM     84  F   UNL     1      -9.686   7.382  -4.220  1.00  0.00    -0.203 F 
ATOM     85  C   UNL     1     -10.196   8.261  -6.344  1.00  0.00     0.198 A 
ATOM     86  C   UNL     1      -8.499   9.389  -7.616  1.00  0.00     0.198 A 
ATOM     87  F   UNL     1      -6.322   9.598  -6.747  1.00  0.00    -0.203 F 
ATOM     88  F   UNL     1     -11.450   7.803  -6.233  1.00  0.00    -0.200 F 
ATOM     89  C   UNL     1      -9.804   8.937  -7.491  1.00  0.00     0.200 A 
ATOM     90  F   UNL     1      -8.121  10.047  -8.721  1.00  0.00    -0.200 F 
ATOM     91  F   UNL     1     -10.683   9.144  -8.481  1.00  0.00    -0.200 F 
ENDBRANCH  58  81
ENDBRANCH  32  33
ENDBRANCH  25  27
ENDBRANCH  24  25
ENDBRANCH  23  24
ENDBRANCH  22  23
ENDBRANCH   1  22
TORSDOF 18
