REMARK SMILES Cc1nc(NC(=O)[C@@H]2CCC[C@@H](C(=O)OCCOC(=O)c3ccc(-c4c5nc(c(-c6c(F)c(F)c(F)c(F)c6F)c6ccc([nH]6)c(-c6c(F)c(F)c(F)c(F)c6F)c6nc(c(-c7c(F)c(F)c(F)c(F)c7F)c7ccc4[nH]7)C=C6)C=C5)cc3)C2)ccc1Br
REMARK SMILES IDX 16 1 15 2 13 3 14 4 12 5 8 6 9 7 84 8 10 9 11 10 6 11 5 12
REMARK SMILES IDX 7 14 4 15 1 16 2 17 3 18 87 19 86 20 88 21 85 22 17 23 18 24
REMARK SMILES IDX 19 25 20 26 21 27 22 28 83 29 23 30 82 31 24 32 25 33 26 34
REMARK SMILES IDX 76 35 27 36 81 37 75 38 77 39 28 40 80 41 74 42 73 43 29 45
REMARK SMILES IDX 61 46 41 47 60 48 42 49 45 50 59 51 78 52 43 53 44 54 58 56
REMARK SMILES IDX 79 57 46 58 30 59 31 60 39 61 32 62 33 63 37 64 40 65 34 66
REMARK SMILES IDX 35 67 38 68 36 69 62 70 63 71 71 72 64 73 65 74 69 75 72 76
REMARK SMILES IDX 66 77 67 78 70 79 68 80 47 81 48 82 56 83 49 84 50 85 54 86
REMARK SMILES IDX 57 87 51 88 52 89 55 90 53 91
REMARK H PARENT 5 13 77 44 45 55
REMARK Flexibility Score: inf
ROOT
ATOM      1  C   UNL     1      -0.686   1.946 -10.445  1.00  0.00     0.274 C 
ENDROOT
BRANCH   1   2
ATOM      2  O   UNL     1      -0.489   1.668  -9.047  1.00  0.00    -0.462 OA
BRANCH   2   3
ATOM      3  C   UNL     1      -0.440   2.748  -8.232  1.00  0.00     0.309 C 
ATOM      4  O   UNL     1      -0.397   3.912  -8.617  1.00  0.00    -0.252 OA
BRANCH   3   5
ATOM      5  C   UNL     1      -0.453   2.389  -6.752  1.00  0.00     0.100 C 
ATOM      6  C   UNL     1       0.265  -0.050  -6.182  1.00  0.00     0.080 C 
ATOM      7  C   UNL     1       1.652   0.487  -5.809  1.00  0.00     0.013 C 
ATOM      8  C   UNL     1      -0.872   0.950  -6.418  1.00  0.00     0.028 C 
ATOM      9  C   UNL     1       1.976   1.844  -6.408  1.00  0.00     0.002 C 
ATOM     10  C   UNL     1       0.867   2.841  -6.130  1.00  0.00     0.015 C 
BRANCH   6  11
ATOM     11  C   UNL     1      -0.182  -1.200  -5.273  1.00  0.00     0.228 C 
ATOM     12  N   UNL     1      -0.171  -1.169  -3.915  1.00  0.00    -0.310 N 
ATOM     13  H   UNL     1      -0.339  -2.060  -3.531  1.00  0.00     0.171 HD
ATOM     14  O   UNL     1      -0.537  -2.263  -5.802  1.00  0.00    -0.274 OA
BRANCH  12  15
ATOM     15  C   UNL     1       0.014  -0.211  -2.920  1.00  0.00     0.132 A 
ATOM     16  C   UNL     1       1.167  -0.548   0.555  1.00  0.00     0.068 C 
ATOM     17  C   UNL     1       0.676   0.109  -0.700  1.00  0.00     0.054 A 
ATOM     18  N   UNL     1       0.392  -0.733  -1.736  1.00  0.00    -0.235 NA
ATOM     19  C   UNL     1       0.558   1.492  -0.813  1.00  0.00     0.039 A 
ATOM     20  C   UNL     1       0.098   2.011  -2.014  1.00  0.00     0.021 A 
ATOM     21  Br  UNL     1       0.992   2.696   0.580  1.00  0.00    -0.049 Br
ATOM     22  C   UNL     1      -0.184   1.147  -3.071  1.00  0.00     0.048 A 
ENDBRANCH  12  15
ENDBRANCH   6  11
ENDBRANCH   3   5
ENDBRANCH   2   3
ENDBRANCH   1   2
BRANCH   1  23
ATOM     23  C   UNL     1      -2.174   1.904 -10.809  1.00  0.00     0.275 C 
BRANCH  23  24
ATOM     24  O   UNL     1      -2.893   3.041 -10.289  1.00  0.00    -0.458 OA
BRANCH  24  25
ATOM     25  C   UNL     1      -3.479   2.856  -9.084  1.00  0.00     0.338 C 
ATOM     26  O   UNL     1      -3.476   1.847  -8.400  1.00  0.00    -0.246 OA
BRANCH  25  27
ATOM     27  C   UNL     1      -4.074   4.114  -8.615  1.00  0.00     0.060 A 
ATOM     28  C   UNL     1      -3.460   4.788  -7.557  1.00  0.00     0.016 A 
ATOM     29  C   UNL     1      -5.296   4.553  -9.123  1.00  0.00     0.016 A 
ATOM     30  C   UNL     1      -4.078   5.887  -6.974  1.00  0.00     0.010 A 
ATOM     31  C   UNL     1      -5.908   5.673  -8.552  1.00  0.00     0.010 A 
ATOM     32  C   UNL     1      -5.311   6.331  -7.462  1.00  0.00    -0.014 A 
BRANCH  32  33
ATOM     33  C   UNL     1      -5.996   7.459  -6.794  1.00  0.00     0.031 A 
ATOM     34  C   UNL     1      -7.178   7.194  -5.910  1.00  0.00     0.074 A 
ATOM     35  C   UNL     1      -5.529   8.710  -6.955  1.00  0.00     0.049 A 
ATOM     36  N   UNL     1      -7.968   8.044  -5.308  1.00  0.00    -0.248 NA
ATOM     37  C   UNL     1      -7.513   5.782  -5.667  1.00  0.00     0.031 C 
ATOM     38  C   UNL     1      -4.344   9.072  -7.732  1.00  0.00     0.029 A 
ATOM     39  N   UNL     1      -5.996   9.906  -6.474  1.00  0.00    -0.354 N 
ATOM     40  C   UNL     1      -8.898   7.275  -4.624  1.00  0.00     0.074 A 
ATOM     41  C   UNL     1      -8.589   5.888  -4.899  1.00  0.00     0.031 C 
ATOM     42  C   UNL     1      -4.173  10.402  -7.672  1.00  0.00     0.029 A 
ATOM     43  C   UNL     1      -5.265  10.987  -6.899  1.00  0.00     0.049 A 
ATOM     44  H   UNL     1      -6.779   9.982  -5.882  1.00  0.00     0.167 HD
ATOM     45  C   UNL     1      -9.914   7.695  -3.834  1.00  0.00     0.037 A 
ATOM     46  C   UNL     1      -5.474  12.303  -6.709  1.00  0.00     0.037 A 
ATOM     47  C   UNL     1     -10.210   9.077  -3.565  1.00  0.00     0.049 A 
ATOM     48  C   UNL     1      -6.668  12.746  -5.909  1.00  0.00     0.074 A 
ATOM     49  C   UNL     1     -11.225   9.607  -2.788  1.00  0.00     0.029 A 
ATOM     50  N   UNL     1      -9.487  10.150  -4.066  1.00  0.00    -0.354 N 
ATOM     51  N   UNL     1      -7.566  12.016  -5.293  1.00  0.00    -0.248 NA
ATOM     52  C   UNL     1      -6.888  14.194  -5.791  1.00  0.00     0.031 C 
ATOM     53  C   UNL     1     -11.139  11.002  -2.851  1.00  0.00     0.029 A 
ATOM     54  C   UNL     1     -10.045  11.340  -3.631  1.00  0.00     0.049 A 
ATOM     55  H   UNL     1      -8.694  10.075  -4.644  1.00  0.00     0.167 HD
ATOM     56  C   UNL     1      -8.446  12.910  -4.702  1.00  0.00     0.074 A 
ATOM     57  C   UNL     1      -7.967  14.240  -5.022  1.00  0.00     0.031 C 
ATOM     58  C   UNL     1      -9.552  12.653  -3.962  1.00  0.00     0.037 A 
BRANCH  45  59
ATOM     59  C   UNL     1     -10.796   6.649  -3.221  1.00  0.00     0.064 A 
ATOM     60  C   UNL     1     -10.361   5.862  -2.145  1.00  0.00     0.173 A 
ATOM     61  C   UNL     1     -12.108   6.468  -3.682  1.00  0.00     0.173 A 
ATOM     62  F   UNL     1      -9.110   5.989  -1.678  1.00  0.00    -0.203 F 
ATOM     63  C   UNL     1     -11.205   4.921  -1.560  1.00  0.00     0.198 A 
ATOM     64  C   UNL     1     -12.957   5.542  -3.080  1.00  0.00     0.198 A 
ATOM     65  F   UNL     1     -12.572   7.198  -4.707  1.00  0.00    -0.203 F 
ATOM     66  F   UNL     1     -10.760   4.158  -0.553  1.00  0.00    -0.200 F 
ATOM     67  C   UNL     1     -12.504   4.768  -2.023  1.00  0.00     0.200 A 
ATOM     68  F   UNL     1     -14.214   5.401  -3.523  1.00  0.00    -0.200 F 
ATOM     69  F   UNL     1     -13.318   3.869  -1.452  1.00  0.00    -0.200 F 
ENDBRANCH  45  59
BRANCH  46  70
ATOM     70  C   UNL     1      -4.537  13.290  -7.303  1.00  0.00     0.064 A 
ATOM     71  C   UNL     1      -3.675  14.039  -6.493  1.00  0.00     0.173 A 
ATOM     72  C   UNL     1      -4.470  13.487  -8.690  1.00  0.00     0.173 A 
ATOM     73  F   UNL     1      -3.720  13.902  -5.160  1.00  0.00    -0.203 F 
ATOM     74  C   UNL     1      -2.780  14.951  -7.048  1.00  0.00     0.198 A 
ATOM     75  C   UNL     1      -3.558  14.381  -9.246  1.00  0.00     0.198 A 
ATOM     76  F   UNL     1      -5.277  12.795  -9.507  1.00  0.00    -0.203 F 
ATOM     77  F   UNL     1      -1.985  15.677  -6.250  1.00  0.00    -0.200 F 
ATOM     78  C   UNL     1      -2.716  15.116  -8.424  1.00  0.00     0.200 A 
ATOM     79  F   UNL     1      -3.492  14.528 -10.576  1.00  0.00    -0.200 F 
ATOM     80  F   UNL     1      -1.847  15.985  -8.958  1.00  0.00    -0.200 F 
ENDBRANCH  46  70
BRANCH  58  81
ATOM     81  C   UNL     1     -10.316  13.830  -3.434  1.00  0.00     0.064 A 
ATOM     82  C   UNL     1     -11.135  14.602  -4.270  1.00  0.00     0.173 A 
ATOM     83  C   UNL     1     -10.283  14.144  -2.067  1.00  0.00     0.173 A 
ATOM     84  F   UNL     1     -11.187  14.348  -5.586  1.00  0.00    -0.203 F 
ATOM     85  C   UNL     1     -11.885  15.656  -3.756  1.00  0.00     0.198 A 
ATOM     86  C   UNL     1     -11.053  15.182  -1.554  1.00  0.00     0.198 A 
ATOM     87  F   UNL     1      -9.519  13.428  -1.228  1.00  0.00    -0.203 F 
ATOM     88  F   UNL     1     -12.639  16.402  -4.577  1.00  0.00    -0.200 F 
ATOM     89  C   UNL     1     -11.851  15.939  -2.399  1.00  0.00     0.200 A 
ATOM     90  F   UNL     1     -11.029  15.447  -0.240  1.00  0.00    -0.200 F 
ATOM     91  F   UNL     1     -12.586  16.945  -1.904  1.00  0.00    -0.200 F 
ENDBRANCH  58  81
ENDBRANCH  32  33
ENDBRANCH  25  27
ENDBRANCH  24  25
ENDBRANCH  23  24
ENDBRANCH   1  23
TORSDOF 13
