REMARK SMILES Nc1cc(Br)ccc1C(=O)NC1(C(=O)OCCOC(=O)c2ccc(-c3c4nc(c(-c5c(F)c(F)c(F)c(F)c5F)c5ccc([nH]5)c(-c5c(F)c(F)c(F)c(F)c5F)c5nc(c(-c6c(F)c(F)c(F)c(F)c6F)c6ccc3[nH]6)C=C5)C=C4)cc2)CC1
REMARK SMILES IDX 16 1 15 2 13 3 14 4 12 5 84 6 85 7 11 8 9 9 10 10 8 12 2 13
REMARK SMILES IDX 3 14 4 15 7 16 5 17 6 18 1 19 17 22 18 23 19 24 20 25 21 26
REMARK SMILES IDX 22 27 83 28 23 29 82 30 24 31 25 32 26 33 76 34 27 35 81 36
REMARK SMILES IDX 75 37 77 38 28 39 80 40 74 41 73 42 29 44 61 45 41 46 60 47
REMARK SMILES IDX 42 48 45 49 59 50 78 51 43 52 44 53 58 55 79 56 46 57 30 58
REMARK SMILES IDX 31 59 39 60 32 61 33 62 37 63 40 64 34 65 35 66 38 67 36 68
REMARK SMILES IDX 62 69 63 70 71 71 64 72 65 73 69 74 72 75 66 76 67 77 70 78
REMARK SMILES IDX 68 79 47 80 48 81 56 82 49 83 50 84 54 85 57 86 51 87 52 88
REMARK SMILES IDX 55 89 53 90
REMARK H PARENT 11 11 1 20 1 21 77 43 45 54
REMARK Flexibility Score: inf
ROOT
ATOM      1  C   UNL     1       3.170  -2.602   0.869  1.00  0.00     0.274 C 
ENDROOT
BRANCH   1   2
ATOM      2  O   UNL     1       2.428  -1.507   0.295  1.00  0.00    -0.460 OA
BRANCH   2   3
ATOM      3  C   UNL     1       1.545  -1.885  -0.675  1.00  0.00     0.331 C 
ATOM      4  O   UNL     1       1.315  -3.030  -1.024  1.00  0.00    -0.249 OA
BRANCH   3   5
ATOM      5  C   UNL     1       0.917  -0.715  -1.416  1.00  0.00     0.138 C 
ATOM      6  C   UNL     1       1.190  -0.846  -2.942  1.00  0.00     0.043 C 
ATOM      7  C   UNL     1       1.805   0.264  -2.175  1.00  0.00     0.043 C 
BRANCH   5   8
ATOM      8  N   UNL     1      -0.465  -0.384  -1.132  1.00  0.00    -0.336 N 
ATOM      9  C   UNL     1      -1.180   0.131  -0.075  1.00  0.00     0.254 C 
ATOM     10  O   UNL     1      -2.405   0.178  -0.243  1.00  0.00    -0.269 OA
ATOM     11  H   UNL     1      -1.048  -0.579  -1.901  1.00  0.00     0.165 HD
BRANCH   9  12
ATOM     12  C   UNL     1      -0.653   0.570   1.245  1.00  0.00     0.062 A 
ATOM     13  C   UNL     1       0.560   1.233   1.480  1.00  0.00     0.045 A 
ATOM     14  C   UNL     1       0.895   1.598   2.798  1.00  0.00     0.042 A 
ATOM     15  C   UNL     1       0.018   1.371   3.858  1.00  0.00     0.020 A 
ATOM     16  C   UNL     1      -1.534   0.362   2.333  1.00  0.00     0.017 A 
ATOM     17  Br  UNL     1       0.481   1.934   5.602  1.00  0.00    -0.051 Br
ATOM     18  C   UNL     1      -1.206   0.763   3.630  1.00  0.00     0.016 A 
BRANCH  13  19
ATOM     19  N   UNL     1       1.428   1.626   0.479  1.00  0.00    -0.398 N 
ATOM     20  H   UNL     1       2.266   2.089   0.708  1.00  0.00     0.156 HD
ATOM     21  H   UNL     1       1.208   1.443  -0.463  1.00  0.00     0.156 HD
ENDBRANCH  13  19
ENDBRANCH   9  12
ENDBRANCH   5   8
ENDBRANCH   3   5
ENDBRANCH   2   3
ENDBRANCH   1   2
BRANCH   1  22
ATOM     22  C   UNL     1       2.490  -3.168   2.114  1.00  0.00     0.275 C 
BRANCH  22  23
ATOM     23  O   UNL     1       1.143  -3.565   1.805  1.00  0.00    -0.458 OA
BRANCH  23  24
ATOM     24  C   UNL     1       0.180  -2.922   2.499  1.00  0.00     0.338 C 
ATOM     25  O   UNL     1       0.337  -2.130   3.414  1.00  0.00    -0.246 OA
BRANCH  24  26
ATOM     26  C   UNL     1      -1.154  -3.341   2.037  1.00  0.00     0.060 A 
ATOM     27  C   UNL     1      -2.074  -3.784   2.985  1.00  0.00     0.016 A 
ATOM     28  C   UNL     1      -1.541  -3.194   0.704  1.00  0.00     0.016 A 
ATOM     29  C   UNL     1      -3.367  -4.124   2.584  1.00  0.00     0.010 A 
ATOM     30  C   UNL     1      -2.857  -3.445   0.322  1.00  0.00     0.010 A 
ATOM     31  C   UNL     1      -3.773  -3.953   1.249  1.00  0.00    -0.014 A 
BRANCH  31  32
ATOM     32  C   UNL     1      -5.142  -4.340   0.825  1.00  0.00     0.031 A 
ATOM     33  C   UNL     1      -5.347  -5.474  -0.141  1.00  0.00     0.074 A 
ATOM     34  C   UNL     1      -6.207  -3.670   1.304  1.00  0.00     0.049 A 
ATOM     35  N   UNL     1      -6.465  -6.027  -0.542  1.00  0.00    -0.248 NA
ATOM     36  C   UNL     1      -4.143  -6.043  -0.766  1.00  0.00     0.031 C 
ATOM     37  C   UNL     1      -6.141  -2.489   2.164  1.00  0.00     0.029 A 
ATOM     38  N   UNL     1      -7.551  -3.895   1.144  1.00  0.00    -0.354 N 
ATOM     39  C   UNL     1      -6.097  -6.995  -1.466  1.00  0.00     0.074 A 
ATOM     40  C   UNL     1      -4.662  -6.910  -1.621  1.00  0.00     0.031 C 
ATOM     41  C   UNL     1      -7.389  -2.121   2.497  1.00  0.00     0.029 A 
ATOM     42  C   UNL     1      -8.340  -3.035   1.867  1.00  0.00     0.049 A 
ATOM     43  H   UNL     1      -7.915  -4.604   0.567  1.00  0.00     0.167 HD
ATOM     44  C   UNL     1      -6.878  -7.901  -2.100  1.00  0.00     0.037 A 
ATOM     45  C   UNL     1      -9.677  -3.005   2.026  1.00  0.00     0.037 A 
ATOM     46  C   UNL     1      -8.299  -8.013  -1.912  1.00  0.00     0.049 A 
ATOM     47  C   UNL     1     -10.524  -4.058   1.366  1.00  0.00     0.074 A 
ATOM     48  C   UNL     1      -9.165  -8.962  -2.424  1.00  0.00     0.029 A 
ATOM     49  N   UNL     1      -9.061  -7.140  -1.151  1.00  0.00    -0.354 N 
ATOM     50  N   UNL     1     -10.154  -5.050   0.593  1.00  0.00    -0.248 NA
ATOM     51  C   UNL     1     -11.972  -3.997   1.612  1.00  0.00     0.031 C 
ATOM     52  C   UNL     1     -10.460  -8.642  -2.001  1.00  0.00     0.029 A 
ATOM     53  C   UNL     1     -10.393  -7.515  -1.196  1.00  0.00     0.049 A 
ATOM     54  H   UNL     1      -8.708  -6.368  -0.653  1.00  0.00     0.167 HD
ATOM     55  C   UNL     1     -11.316  -5.737   0.269  1.00  0.00     0.074 A 
ATOM     56  C   UNL     1     -12.403  -5.060   0.946  1.00  0.00     0.031 C 
ATOM     57  C   UNL     1     -11.465  -6.829  -0.520  1.00  0.00     0.037 A 
BRANCH  44  58
ATOM     58  C   UNL     1      -6.202  -8.858  -3.038  1.00  0.00     0.064 A 
ATOM     59  C   UNL     1      -5.351  -9.869  -2.564  1.00  0.00     0.173 A 
ATOM     60  C   UNL     1      -6.414  -8.774  -4.422  1.00  0.00     0.173 A 
ATOM     61  F   UNL     1      -5.109  -9.986  -1.249  1.00  0.00    -0.203 F 
ATOM     62  C   UNL     1      -4.707 -10.734  -3.443  1.00  0.00     0.198 A 
ATOM     63  C   UNL     1      -5.790  -9.661  -5.296  1.00  0.00     0.198 A 
ATOM     64  F   UNL     1      -7.224  -7.832  -4.927  1.00  0.00    -0.203 F 
ATOM     65  F   UNL     1      -3.854 -11.653  -2.970  1.00  0.00    -0.200 F 
ATOM     66  C   UNL     1      -4.930 -10.632  -4.807  1.00  0.00     0.200 A 
ATOM     67  F   UNL     1      -6.015  -9.570  -6.614  1.00  0.00    -0.200 F 
ATOM     68  F   UNL     1      -4.308 -11.466  -5.653  1.00  0.00    -0.200 F 
ENDBRANCH  44  58
BRANCH  45  69
ATOM     69  C   UNL     1     -10.277  -1.981   2.916  1.00  0.00     0.064 A 
ATOM     70  C   UNL     1     -10.736  -2.326   4.195  1.00  0.00     0.173 A 
ATOM     71  C   UNL     1     -10.358  -0.636   2.532  1.00  0.00     0.173 A 
ATOM     72  F   UNL     1     -10.693  -3.604   4.599  1.00  0.00    -0.203 F 
ATOM     73  C   UNL     1     -11.255  -1.362   5.056  1.00  0.00     0.198 A 
ATOM     74  C   UNL     1     -10.860   0.331   3.401  1.00  0.00     0.198 A 
ATOM     75  F   UNL     1      -9.928  -0.257   1.319  1.00  0.00    -0.203 F 
ATOM     76  F   UNL     1     -11.705  -1.721   6.266  1.00  0.00    -0.200 F 
ATOM     77  C   UNL     1     -11.310  -0.034   4.662  1.00  0.00     0.200 A 
ATOM     78  F   UNL     1     -10.902   1.615   3.022  1.00  0.00    -0.200 F 
ATOM     79  F   UNL     1     -11.796   0.895   5.496  1.00  0.00    -0.200 F 
ENDBRANCH  45  69
BRANCH  57  80
ATOM     80  C   UNL     1     -12.851  -7.368  -0.708  1.00  0.00     0.064 A 
ATOM     81  C   UNL     1     -13.777  -6.721  -1.538  1.00  0.00     0.173 A 
ATOM     82  C   UNL     1     -13.225  -8.591  -0.129  1.00  0.00     0.173 A 
ATOM     83  F   UNL     1     -13.468  -5.545  -2.104  1.00  0.00    -0.203 F 
ATOM     84  C   UNL     1     -15.030  -7.277  -1.780  1.00  0.00     0.198 A 
ATOM     85  C   UNL     1     -14.470  -9.155  -0.392  1.00  0.00     0.198 A 
ATOM     86  F   UNL     1     -12.371  -9.252   0.667  1.00  0.00    -0.203 F 
ATOM     87  F   UNL     1     -15.908  -6.631  -2.560  1.00  0.00    -0.200 F 
ATOM     88  C   UNL     1     -15.372  -8.497  -1.216  1.00  0.00     0.200 A 
ATOM     89  F   UNL     1     -14.794 -10.341   0.142  1.00  0.00    -0.200 F 
ATOM     90  F   UNL     1     -16.571  -9.040  -1.467  1.00  0.00    -0.200 F 
ENDBRANCH  57  80
ENDBRANCH  31  32
ENDBRANCH  24  26
ENDBRANCH  23  24
ENDBRANCH  22  23
ENDBRANCH   1  22
TORSDOF 14
