REMARK SMILES COCc1cccc(O[C@@H](F)C(=O)OCCOC(=O)c2ccc(-c3c4nc(c(-c5c(F)c(F)c(F)c(F)c5F)c5ccc([nH]5)c(-c5c(F)c(F)c(F)c(F)c5F)c5nc(c(-c6c(F)c(F)c(F)c(F)c6F)c6ccc3[nH]6)C=C5)C=C4)cc2)c1
REMARK SMILES IDX 15 1 14 2 12 3 13 4 10 5 11 6 9 7 8 8 4 9 5 10 83 11 6 12
REMARK SMILES IDX 7 13 3 14 2 15 1 16 16 17 17 18 18 19 19 20 20 21 21 22
REMARK SMILES IDX 82 23 22 24 81 25 23 26 24 27 25 28 75 29 26 30 80 31 74 32
REMARK SMILES IDX 76 33 27 34 79 35 73 36 72 37 28 39 60 40 40 41 59 42 41 43
REMARK SMILES IDX 44 44 58 45 77 46 42 47 43 48 57 50 78 51 45 52 29 53 30 54
REMARK SMILES IDX 38 55 31 56 32 57 36 58 39 59 33 60 34 61 37 62 35 63 61 64
REMARK SMILES IDX 62 65 70 66 63 67 64 68 68 69 71 70 65 71 66 72 69 73 67 74
REMARK SMILES IDX 46 75 47 76 55 77 48 78 49 79 53 80 56 81 50 82 51 83 54 84
REMARK SMILES IDX 52 85
REMARK H PARENT 76 38 44 49
REMARK Flexibility Score: inf
ROOT
ATOM      1  C   UNL     1       2.803  -0.168   1.717  1.00  0.00     0.274 C 
ENDROOT
BRANCH   1   2
ATOM      2  O   UNL     1       1.614   0.528   2.143  1.00  0.00    -0.457 OA
BRANCH   2   3
ATOM      3  C   UNL     1       0.580  -0.206   2.638  1.00  0.00     0.381 C 
ATOM      4  O   UNL     1       0.623  -1.424   2.796  1.00  0.00    -0.244 OA
BRANCH   3   5
ATOM      5  C   UNL     1      -0.680   0.647   2.968  1.00  0.00     0.461 C 
ATOM      6  F   UNL     1      -1.767   0.228   2.246  1.00  0.00    -0.189 F 
BRANCH   5   7
ATOM      7  O   UNL     1      -0.693   2.065   2.977  1.00  0.00    -0.451 OA
BRANCH   7   8
ATOM      8  C   UNL     1      -0.307   2.702   1.833  1.00  0.00     0.124 A 
ATOM      9  C   UNL     1       0.329   2.764  -0.511  1.00  0.00    -0.019 A 
ATOM     10  C   UNL     1       0.813   4.068  -0.322  1.00  0.00     0.006 A 
ATOM     11  C   UNL     1      -0.296   2.123   0.565  1.00  0.00     0.052 A 
ATOM     12  C   UNL     1       0.699   4.698   0.918  1.00  0.00     0.004 A 
ATOM     13  C   UNL     1       0.154   4.007   1.998  1.00  0.00     0.046 A 
BRANCH   9  14
ATOM     14  C   UNL     1       0.569   2.066  -1.831  1.00  0.00     0.195 C 
BRANCH  14  15
ATOM     15  O   UNL     1      -0.119   0.821  -1.975  1.00  0.00    -0.380 OA
ATOM     16  C   UNL     1       0.644  -0.306  -1.564  1.00  0.00     0.195 C 
ENDBRANCH  14  15
ENDBRANCH   9  14
ENDBRANCH   7   8
ENDBRANCH   5   7
ENDBRANCH   3   5
ENDBRANCH   2   3
ENDBRANCH   1   2
BRANCH   1  17
ATOM     17  C   UNL     1       4.016   0.283   2.530  1.00  0.00     0.275 C 
BRANCH  17  18
ATOM     18  O   UNL     1       3.882  -0.136   3.899  1.00  0.00    -0.458 OA
BRANCH  18  19
ATOM     19  C   UNL     1       3.205   0.736   4.681  1.00  0.00     0.338 C 
ATOM     20  O   UNL     1       2.812   1.852   4.389  1.00  0.00    -0.246 OA
BRANCH  19  21
ATOM     21  C   UNL     1       2.822   0.069   5.930  1.00  0.00     0.060 A 
ATOM     22  C   UNL     1       1.469   0.100   6.280  1.00  0.00     0.016 A 
ATOM     23  C   UNL     1       3.771  -0.507   6.777  1.00  0.00     0.016 A 
ATOM     24  C   UNL     1       1.056  -0.422   7.497  1.00  0.00     0.010 A 
ATOM     25  C   UNL     1       3.358  -1.020   8.007  1.00  0.00     0.010 A 
ATOM     26  C   UNL     1       2.004  -0.954   8.380  1.00  0.00    -0.014 A 
BRANCH  26  27
ATOM     27  C   UNL     1       1.576  -1.311   9.748  1.00  0.00     0.031 A 
ATOM     28  C   UNL     1       1.833  -0.343  10.866  1.00  0.00     0.074 A 
ATOM     29  C   UNL     1       0.918  -2.460   9.968  1.00  0.00     0.049 A 
ATOM     30  N   UNL     1       1.562  -0.456  12.140  1.00  0.00    -0.248 NA
ATOM     31  C   UNL     1       2.485   0.923  10.497  1.00  0.00     0.031 C 
ATOM     32  C   UNL     1       0.584  -3.447   8.943  1.00  0.00     0.029 A 
ATOM     33  N   UNL     1       0.410  -2.987  11.126  1.00  0.00    -0.354 N 
ATOM     34  C   UNL     1       2.029   0.711  12.727  1.00  0.00     0.074 A 
ATOM     35  C   UNL     1       2.613   1.515  11.675  1.00  0.00     0.031 C 
ATOM     36  C   UNL     1      -0.072  -4.467   9.521  1.00  0.00     0.029 A 
ATOM     37  C   UNL     1      -0.175  -4.216  10.956  1.00  0.00     0.049 A 
ATOM     38  H   UNL     1       0.460  -2.528  11.996  1.00  0.00     0.167 HD
ATOM     39  C   UNL     1       1.972   1.076  14.030  1.00  0.00     0.037 A 
ATOM     40  C   UNL     1      -0.715  -5.048  11.865  1.00  0.00     0.037 A 
ATOM     41  C   UNL     1       1.370   0.277  15.063  1.00  0.00     0.049 A 
ATOM     42  C   UNL     1      -0.756  -4.625  13.308  1.00  0.00     0.074 A 
ATOM     43  C   UNL     1       1.241   0.560  16.411  1.00  0.00     0.029 A 
ATOM     44  N   UNL     1       0.793  -0.968  14.857  1.00  0.00    -0.354 N 
ATOM     45  N   UNL     1      -0.316  -3.519  13.858  1.00  0.00    -0.248 NA
ATOM     46  C   UNL     1      -1.373  -5.563  14.256  1.00  0.00     0.031 C 
ATOM     47  C   UNL     1       0.618  -0.532  17.028  1.00  0.00     0.029 A 
ATOM     48  C   UNL     1       0.322  -1.476  16.057  1.00  0.00     0.049 A 
ATOM     49  H   UNL     1       0.729  -1.424  13.987  1.00  0.00     0.167 HD
ATOM     50  C   UNL     1      -0.610  -3.620  15.210  1.00  0.00     0.074 A 
ATOM     51  C   UNL     1      -1.286  -4.888  15.394  1.00  0.00     0.031 C 
ATOM     52  C   UNL     1      -0.343  -2.745  16.211  1.00  0.00     0.037 A 
BRANCH  39  53
ATOM     53  C   UNL     1       2.611   2.379  14.407  1.00  0.00     0.064 A 
ATOM     54  C   UNL     1       2.038   3.613  14.065  1.00  0.00     0.173 A 
ATOM     55  C   UNL     1       3.817   2.391  15.124  1.00  0.00     0.173 A 
ATOM     56  F   UNL     1       0.896   3.655  13.361  1.00  0.00    -0.203 F 
ATOM     57  C   UNL     1       2.663   4.811  14.404  1.00  0.00     0.198 A 
ATOM     58  C   UNL     1       4.426   3.590  15.483  1.00  0.00     0.198 A 
ATOM     59  F   UNL     1       4.407   1.238  15.474  1.00  0.00    -0.203 F 
ATOM     60  F   UNL     1       2.123   5.977  14.024  1.00  0.00    -0.200 F 
ATOM     61  C   UNL     1       3.853   4.798  15.117  1.00  0.00     0.200 A 
ATOM     62  F   UNL     1       5.572   3.576  16.177  1.00  0.00    -0.200 F 
ATOM     63  F   UNL     1       4.454   5.952  15.441  1.00  0.00    -0.200 F 
ENDBRANCH  39  53
BRANCH  40  64
ATOM     64  C   UNL     1      -1.245  -6.364  11.430  1.00  0.00     0.064 A 
ATOM     65  C   UNL     1      -2.621  -6.626  11.418  1.00  0.00     0.173 A 
ATOM     66  C   UNL     1      -0.382  -7.381  10.995  1.00  0.00     0.173 A 
ATOM     67  F   UNL     1      -3.484  -5.692  11.846  1.00  0.00    -0.203 F 
ATOM     68  C   UNL     1      -3.114  -7.859  10.995  1.00  0.00     0.198 A 
ATOM     69  C   UNL     1      -0.877  -8.604  10.549  1.00  0.00     0.198 A 
ATOM     70  F   UNL     1       0.944  -7.178  10.987  1.00  0.00    -0.203 F 
ATOM     71  F   UNL     1      -4.433  -8.097  11.025  1.00  0.00    -0.200 F 
ATOM     72  C   UNL     1      -2.243  -8.844  10.554  1.00  0.00     0.200 A 
ATOM     73  F   UNL     1      -0.032  -9.548  10.112  1.00  0.00    -0.200 F 
ATOM     74  F   UNL     1      -2.718 -10.025  10.138  1.00  0.00    -0.200 F 
ENDBRANCH  40  64
BRANCH  52  75
ATOM     75  C   UNL     1      -0.796  -3.128  17.588  1.00  0.00     0.064 A 
ATOM     76  C   UNL     1      -0.130  -4.116  18.328  1.00  0.00     0.173 A 
ATOM     77  C   UNL     1      -1.887  -2.479  18.184  1.00  0.00     0.173 A 
ATOM     78  F   UNL     1       0.909  -4.774  17.793  1.00  0.00    -0.203 F 
ATOM     79  C   UNL     1      -0.555  -4.456  19.609  1.00  0.00     0.198 A 
ATOM     80  C   UNL     1      -2.294  -2.804  19.474  1.00  0.00     0.198 A 
ATOM     81  F   UNL     1      -2.552  -1.523  17.518  1.00  0.00    -0.203 F 
ATOM     82  F   UNL     1       0.068  -5.432  20.282  1.00  0.00    -0.200 F 
ATOM     83  C   UNL     1      -1.633  -3.797  20.183  1.00  0.00     0.200 A 
ATOM     84  F   UNL     1      -3.329  -2.160  20.032  1.00  0.00    -0.200 F 
ATOM     85  F   UNL     1      -2.039  -4.124  21.417  1.00  0.00    -0.200 F 
ENDBRANCH  52  75
ENDBRANCH  26  27
ENDBRANCH  19  21
ENDBRANCH  18  19
ENDBRANCH  17  18
ENDBRANCH   1  17
TORSDOF 15
