REMARK SMILES CC[N@H+](CC(C)(C)C(=O)OCCOC(=O)c1ccc(-c2c3nc(c(-c4c(F)c(F)c(F)c(F)c4F)c4ccc([nH]4)c(-c4c(F)c(F)c(F)c(F)c4F)c4nc(c(-c5c(F)c(F)c(F)c(F)c5F)c5ccc2[nH]5)C=C4)C=C3)cc1)[C@H]1CC[NH2+]C1
REMARK SMILES IDX 11 1 10 2 8 3 9 4 5 5 6 6 7 7 4 8 3 9 2 11 1 12 79 13 80 14
REMARK SMILES IDX 83 15 81 16 82 17 12 20 13 21 14 22 15 23 16 24 17 25 78 26
REMARK SMILES IDX 18 27 77 28 19 29 20 30 21 31 71 32 22 33 76 34 70 35 72 36
REMARK SMILES IDX 23 37 75 38 69 39 68 40 24 42 56 43 36 44 55 45 37 46 40 47
REMARK SMILES IDX 54 48 73 49 38 50 39 51 53 53 74 54 41 55 25 56 26 57 34 58
REMARK SMILES IDX 27 59 28 60 32 61 35 62 29 63 30 64 33 65 31 66 57 67 58 68
REMARK SMILES IDX 66 69 59 70 60 71 64 72 67 73 61 74 62 75 65 76 63 77 42 78
REMARK SMILES IDX 43 79 51 80 44 81 45 82 49 83 52 84 46 85 47 86 50 87 48 88
REMARK H PARENT 3 10 82 18 82 19 72 41 40 52
REMARK Flexibility Score: inf
ROOT
ATOM      1  C   UNL     1       2.470   1.753   6.399  1.00  0.00     0.274 C 
ENDROOT
BRANCH   1   2
ATOM      2  O   UNL     1       3.569   1.754   5.461  1.00  0.00    -0.461 OA
BRANCH   2   3
ATOM      3  C   UNL     1       3.228   1.498   4.164  1.00  0.00     0.317 C 
ATOM      4  O   UNL     1       2.069   1.303   3.831  1.00  0.00    -0.251 OA
BRANCH   3   5
ATOM      5  C   UNL     1       4.450   1.419   3.222  1.00  0.00     0.111 C 
ATOM      6  C   UNL     1       4.983  -0.016   3.226  1.00  0.00     0.029 C 
ATOM      7  C   UNL     1       5.556   2.355   3.786  1.00  0.00     0.029 C 
BRANCH   5   8
ATOM      8  C   UNL     1       4.175   1.926   1.756  1.00  0.00     0.280 C 
BRANCH   8   9
ATOM      9  N   UNL     1       3.385   1.213   0.715  1.00  0.00    -0.327 N 
ATOM     10  H   UNL     1       3.952   0.398   0.477  1.00  0.00     0.348 HD
BRANCH   9  11
ATOM     11  C   UNL     1       2.088   0.703   1.201  1.00  0.00     0.259 C 
ATOM     12  C   UNL     1       1.181  -0.020   0.206  1.00  0.00     0.071 C 
ENDBRANCH   9  11
BRANCH   9  13
ATOM     13  C   UNL     1       3.203   2.022  -0.520  1.00  0.00     0.245 C 
ATOM     14  C   UNL     1       4.066   3.262  -0.776  1.00  0.00     0.132 C 
ATOM     15  C   UNL     1       3.460   1.233  -1.819  1.00  0.00     0.326 C 
ATOM     16  C   UNL     1       3.756   3.543  -2.234  1.00  0.00     0.267 C 
ATOM     17  N   UNL     1       3.766   2.223  -2.875  1.00  0.00    -0.341 N 
ATOM     18  H   UNL     1       4.684   2.035  -3.277  1.00  0.00     0.346 HD
ATOM     19  H   UNL     1       3.081   2.177  -3.629  1.00  0.00     0.346 HD
ENDBRANCH   9  13
ENDBRANCH   8   9
ENDBRANCH   5   8
ENDBRANCH   3   5
ENDBRANCH   2   3
ENDBRANCH   1   2
BRANCH   1  20
ATOM     20  C   UNL     1       1.873   3.151   6.577  1.00  0.00     0.275 C 
BRANCH  20  21
ATOM     21  O   UNL     1       1.254   3.599   5.354  1.00  0.00    -0.458 OA
BRANCH  21  22
ATOM     22  C   UNL     1       1.533   4.859   4.962  1.00  0.00     0.338 C 
ATOM     23  O   UNL     1       2.215   5.692   5.557  1.00  0.00    -0.246 OA
BRANCH  22  24
ATOM     24  C   UNL     1       0.957   5.116   3.632  1.00  0.00     0.060 A 
ATOM     25  C   UNL     1       1.446   4.389   2.554  1.00  0.00     0.016 A 
ATOM     26  C   UNL     1       0.061   6.160   3.404  1.00  0.00     0.016 A 
ATOM     27  C   UNL     1       1.101   4.733   1.250  1.00  0.00     0.010 A 
ATOM     28  C   UNL     1      -0.335   6.468   2.090  1.00  0.00     0.010 A 
ATOM     29  C   UNL     1       0.210   5.777   0.991  1.00  0.00    -0.014 A 
BRANCH  29  30
ATOM     30  C   UNL     1      -0.021   6.202  -0.421  1.00  0.00     0.031 A 
ATOM     31  C   UNL     1       0.469   7.551  -0.878  1.00  0.00     0.074 A 
ATOM     32  C   UNL     1      -0.533   5.363  -1.345  1.00  0.00     0.049 A 
ATOM     33  N   UNL     1       0.256   8.179  -2.007  1.00  0.00    -0.248 NA
ATOM     34  C   UNL     1       1.339   8.280   0.058  1.00  0.00     0.031 C 
ATOM     35  C   UNL     1      -0.901   3.967  -1.114  1.00  0.00     0.029 A 
ATOM     36  N   UNL     1      -0.805   5.559  -2.680  1.00  0.00    -0.354 N 
ATOM     37  C   UNL     1       0.916   9.395  -1.897  1.00  0.00     0.074 A 
ATOM     38  C   UNL     1       1.558   9.410  -0.599  1.00  0.00     0.031 C 
ATOM     39  C   UNL     1      -1.310   3.423  -2.272  1.00  0.00     0.029 A 
ATOM     40  C   UNL     1      -1.331   4.455  -3.307  1.00  0.00     0.049 A 
ATOM     41  H   UNL     1      -0.637   6.412  -3.143  1.00  0.00     0.167 HD
ATOM     42  C   UNL     1       0.973  10.412  -2.790  1.00  0.00     0.037 A 
ATOM     43  C   UNL     1      -1.823   4.302  -4.553  1.00  0.00     0.037 A 
ATOM     44  C   UNL     1       0.376  10.388  -4.099  1.00  0.00     0.049 A 
ATOM     45  C   UNL     1      -1.862   5.486  -5.487  1.00  0.00     0.074 A 
ATOM     46  C   UNL     1       0.326  11.397  -5.045  1.00  0.00     0.029 A 
ATOM     47  N   UNL     1      -0.258   9.288  -4.655  1.00  0.00    -0.354 N 
ATOM     48  N   UNL     1      -1.366   6.688  -5.325  1.00  0.00    -0.248 NA
ATOM     49  C   UNL     1      -2.564   5.298  -6.767  1.00  0.00     0.031 C 
ATOM     50  C   UNL     1      -0.372  10.920  -6.160  1.00  0.00     0.029 A 
ATOM     51  C   UNL     1      -0.717   9.600  -5.926  1.00  0.00     0.049 A 
ATOM     52  H   UNL     1      -0.366   8.415  -4.214  1.00  0.00     0.167 HD
ATOM     53  C   UNL     1      -1.684   7.392  -6.481  1.00  0.00     0.074 A 
ATOM     54  C   UNL     1      -2.396   6.478  -7.348  1.00  0.00     0.031 C 
ATOM     55  C   UNL     1      -1.418   8.685  -6.788  1.00  0.00     0.037 A 
BRANCH  42  56
ATOM     56  C   UNL     1       1.645  11.676  -2.346  1.00  0.00     0.064 A 
ATOM     57  C   UNL     1       3.039  11.790  -2.257  1.00  0.00     0.173 A 
ATOM     58  C   UNL     1       0.868  12.799  -2.021  1.00  0.00     0.173 A 
ATOM     59  F   UNL     1       3.822  10.738  -2.537  1.00  0.00    -0.203 F 
ATOM     60  C   UNL     1       3.630  12.980  -1.837  1.00  0.00     0.198 A 
ATOM     61  C   UNL     1       1.464  13.993  -1.627  1.00  0.00     0.198 A 
ATOM     62  F   UNL     1      -0.470  12.738  -2.093  1.00  0.00    -0.203 F 
ATOM     63  F   UNL     1       4.963  13.057  -1.715  1.00  0.00    -0.200 F 
ATOM     64  C   UNL     1       2.843  14.080  -1.528  1.00  0.00     0.200 A 
ATOM     65  F   UNL     1       0.701  15.056  -1.338  1.00  0.00    -0.200 F 
ATOM     66  F   UNL     1       3.415  15.224  -1.126  1.00  0.00    -0.200 F 
ENDBRANCH  42  56
BRANCH  43  67
ATOM     67  C   UNL     1      -2.403   2.998  -4.980  1.00  0.00     0.064 A 
ATOM     68  C   UNL     1      -1.837   2.259  -6.028  1.00  0.00     0.173 A 
ATOM     69  C   UNL     1      -3.568   2.492  -4.383  1.00  0.00     0.173 A 
ATOM     70  F   UNL     1      -0.750   2.721  -6.663  1.00  0.00    -0.203 F 
ATOM     71  C   UNL     1      -2.421   1.072  -6.470  1.00  0.00     0.198 A 
ATOM     72  C   UNL     1      -4.131   1.289  -4.803  1.00  0.00     0.198 A 
ATOM     73  F   UNL     1      -4.165   3.169  -3.391  1.00  0.00    -0.203 F 
ATOM     74  F   UNL     1      -1.895   0.416  -7.513  1.00  0.00    -0.200 F 
ATOM     75  C   UNL     1      -3.563   0.585  -5.852  1.00  0.00     0.200 A 
ATOM     76  F   UNL     1      -5.232   0.821  -4.199  1.00  0.00    -0.200 F 
ATOM     77  F   UNL     1      -4.126  -0.554  -6.279  1.00  0.00    -0.200 F 
ENDBRANCH  43  67
BRANCH  55  78
ATOM     78  C   UNL     1      -1.875   9.190  -8.126  1.00  0.00     0.064 A 
ATOM     79  C   UNL     1      -3.229   9.444  -8.390  1.00  0.00     0.173 A 
ATOM     80  C   UNL     1      -0.944   9.468  -9.138  1.00  0.00     0.173 A 
ATOM     81  F   UNL     1      -4.159   9.181  -7.460  1.00  0.00    -0.203 F 
ATOM     82  C   UNL     1      -3.636   9.942  -9.626  1.00  0.00     0.198 A 
ATOM     83  C   UNL     1      -1.352   9.990 -10.363  1.00  0.00     0.198 A 
ATOM     84  F   UNL     1       0.363   9.249  -8.934  1.00  0.00    -0.203 F 
ATOM     85  F   UNL     1      -4.939  10.142  -9.869  1.00  0.00    -0.200 F 
ATOM     86  C   UNL     1      -2.697  10.221 -10.608  1.00  0.00     0.200 A 
ATOM     87  F   UNL     1      -0.443  10.270 -11.307  1.00  0.00    -0.200 F 
ATOM     88  F   UNL     1      -3.090  10.708 -11.793  1.00  0.00    -0.200 F 
ENDBRANCH  55  78
ENDBRANCH  29  30
ENDBRANCH  22  24
ENDBRANCH  21  22
ENDBRANCH  20  21
ENDBRANCH   1  20
TORSDOF 15
