REMARK SMILES Cc1cc(S(F)(F)(F)(F)F)cc2c1O[C@H](C(F)(F)F)C(C(=O)OCCOC(=O)c1ccc(-c3c4nc(c(-c5c(F)c(F)c(F)c(F)c5F)c5ccc([nH]5)c(-c5c(F)c(F)c(F)c(F)c5F)c5nc(c(-c6c(F)c(F)c(F)c(F)c6F)c6ccc3[nH]6)C=C5)C=C4)cc1)=C2
REMARK SMILES IDX 25 1 24 2 23 3 21 4 22 5 20 6 1 7 2 8 3 9 13 10 4 11 12 12
REMARK SMILES IDX 14 13 11 14 92 15 15 16 5 17 6 18 7 19 8 20 9 21 10 22 16 23
REMARK SMILES IDX 17 24 18 25 19 26 26 27 27 28 28 29 29 30 30 31 91 32 31 33
REMARK SMILES IDX 90 34 32 35 33 36 34 37 84 38 35 39 89 40 83 41 85 42 36 43
REMARK SMILES IDX 88 44 82 45 81 46 37 48 69 49 49 50 68 51 50 52 53 53 67 54
REMARK SMILES IDX 86 55 51 56 52 57 66 59 87 60 54 61 38 62 39 63 47 64 40 65
REMARK SMILES IDX 41 66 45 67 48 68 42 69 43 70 46 71 44 72 70 73 71 74 79 75
REMARK SMILES IDX 72 76 73 77 77 78 80 79 74 80 75 81 78 82 76 83 55 84 56 85
REMARK SMILES IDX 64 86 57 87 58 88 62 89 65 90 59 91 60 92 63 93 61 94
REMARK H PARENT 85 47 53 58
REMARK Flexibility Score: inf
ROOT
ATOM      1  C   UNL     1      -7.709   2.498  -1.617  1.00  0.00     0.275 C 
ENDROOT
BRANCH   1   2
ATOM      2  C   UNL     1      -6.963   1.692  -2.667  1.00  0.00     0.275 C 
BRANCH   2   3
ATOM      3  O   UNL     1      -5.644   1.426  -2.211  1.00  0.00    -0.459 OA
BRANCH   3   4
ATOM      4  C   UNL     1      -4.765   2.501  -1.915  1.00  0.00     0.338 C 
ATOM      5  O   UNL     1      -5.158   3.701  -2.059  1.00  0.00    -0.246 OA
BRANCH   4   6
ATOM      6  C   UNL     1      -3.354   2.217  -1.427  1.00  0.00     0.087 C 
ATOM      7  C   UNL     1       1.029  -0.032   0.090  1.00  0.00     0.048 C 
ATOM      8  C   UNL     1       0.523   1.390  -0.085  1.00  0.00    -0.007 A 
ATOM      9  C   UNL     1       1.361   2.446   0.198  1.00  0.00     0.031 A 
ATOM     10  C   UNL     1      -0.772   1.646  -0.534  1.00  0.00     0.130 A 
ATOM     11  C   UNL     1       0.928   3.757   0.045  1.00  0.00     0.108 A 
ATOM     12  C   UNL     1      -1.207   2.981  -0.693  1.00  0.00     0.019 A 
ATOM     13  O   UNL     1      -1.714   0.565  -0.851  1.00  0.00    -0.475 OA
ATOM     14  C   UNL     1      -0.335   4.031  -0.400  1.00  0.00     0.036 A 
ATOM     15  C   UNL     1      -2.571   3.220  -1.165  1.00  0.00     0.027 C 
ATOM     16  C   UNL     1      -2.952   0.889  -1.280  1.00  0.00     0.316 C 
BRANCH  11  17
ATOM     17  S   UNL     1       2.051   5.120   0.439  1.00  0.00     0.310 S 
ATOM     18  F   UNL     1       1.607   5.109   1.962  1.00  0.00    -0.094 F 
ATOM     19  F   UNL     1       0.850   6.102   0.167  1.00  0.00    -0.094 F 
ATOM     20  F   UNL     1       2.985   6.315   0.785  1.00  0.00    -0.094 F 
ATOM     21  F   UNL     1       3.201   4.115   0.843  1.00  0.00    -0.094 F 
ATOM     22  F   UNL     1       1.083   3.894   0.201  1.00  0.00    -0.094 F 
ENDBRANCH  11  17
BRANCH  16  23
ATOM     23  C   UNL     1      -2.936   0.395  -2.717  1.00  0.00     0.430 C 
ATOM     24  F   UNL     1      -2.635  -0.901  -2.737  1.00  0.00    -0.167 F 
ATOM     25  F   UNL     1      -4.134   0.580  -3.264  1.00  0.00    -0.167 F 
ATOM     26  F   UNL     1      -2.023   1.072  -3.408  1.00  0.00    -0.167 F 
ENDBRANCH  16  23
ENDBRANCH   4   6
ENDBRANCH   3   4
ENDBRANCH   2   3
ENDBRANCH   1   2
BRANCH   1  27
ATOM     27  O   UNL     1      -7.030   3.725  -1.391  1.00  0.00    -0.458 OA
BRANCH  27  28
ATOM     28  C   UNL     1      -5.687   3.719  -0.929  1.00  0.00     0.338 C 
ATOM     29  O   UNL     1      -5.094   2.615  -0.717  1.00  0.00    -0.246 OA
BRANCH  28  30
ATOM     30  C   UNL     1      -4.960   5.032  -0.688  1.00  0.00     0.060 A 
ATOM     31  C   UNL     1      -3.659   5.210  -1.143  1.00  0.00     0.016 A 
ATOM     32  C   UNL     1      -5.543   6.027  -0.053  1.00  0.00     0.016 A 
ATOM     33  C   UNL     1      -3.241   6.543  -1.354  1.00  0.00     0.010 A 
ATOM     34  C   UNL     1      -4.864   7.231   0.165  1.00  0.00     0.010 A 
ATOM     35  C   UNL     1      -3.740   7.494  -0.467  1.00  0.00    -0.014 A 
BRANCH  35  36
ATOM     36  C   UNL     1      -3.004   8.804  -0.233  1.00  0.00     0.031 A 
ATOM     37  C   UNL     1      -2.579   9.068   1.070  1.00  0.00     0.074 A 
ATOM     38  C   UNL     1      -2.785   9.652  -1.306  1.00  0.00     0.049 A 
ATOM     39  N   UNL     1      -1.885  10.122   1.501  1.00  0.00    -0.248 NA
ATOM     40  C   UNL     1      -2.840   8.185   2.217  1.00  0.00     0.031 C 
ATOM     41  C   UNL     1      -3.203   9.388  -2.625  1.00  0.00     0.029 A 
ATOM     42  N   UNL     1      -2.145  10.871  -1.302  1.00  0.00    -0.354 N 
ATOM     43  C   UNL     1      -1.649  10.014   2.810  1.00  0.00     0.074 A 
ATOM     44  C   UNL     1      -2.265   8.770   3.290  1.00  0.00     0.031 C 
ATOM     45  C   UNL     1      -2.831  10.438  -3.403  1.00  0.00     0.029 A 
ATOM     46  C   UNL     1      -2.173  11.375  -2.584  1.00  0.00     0.049 A 
ATOM     47  H   UNL     1      -1.738  11.307  -0.519  1.00  0.00     0.167 HD
ATOM     48  C   UNL     1      -0.943  10.903   3.622  1.00  0.00     0.037 A 
ATOM     49  C   UNL     1      -1.662  12.583  -3.032  1.00  0.00     0.037 A 
ATOM     50  C   UNL     1      -0.393  12.091   3.165  1.00  0.00     0.049 A 
ATOM     51  C   UNL     1      -1.005  13.501  -2.208  1.00  0.00     0.074 A 
ATOM     52  C   UNL     1       0.329  12.995   3.968  1.00  0.00     0.029 A 
ATOM     53  N   UNL     1      -0.442  12.607   1.888  1.00  0.00    -0.354 N 
ATOM     54  N   UNL     1      -0.735  13.374  -0.907  1.00  0.00    -0.248 NA
ATOM     55  C   UNL     1      -0.488  14.797  -2.664  1.00  0.00     0.031 C 
ATOM     56  C   UNL     1       0.701  14.045   3.189  1.00  0.00     0.029 A 
ATOM     57  C   UNL     1       0.218  13.815   1.887  1.00  0.00     0.049 A 
ATOM     58  H   UNL     1      -0.875  12.184   1.111  1.00  0.00     0.167 HD
ATOM     59  C   UNL     1      -0.077  14.448  -0.468  1.00  0.00     0.074 A 
ATOM     60  C   UNL     1       0.085  15.383  -1.590  1.00  0.00     0.031 C 
ATOM     61  C   UNL     1       0.399  14.685   0.823  1.00  0.00     0.037 A 
BRANCH  48  62
ATOM     62  C   UNL     1      -0.766  10.550   5.090  1.00  0.00     0.064 A 
ATOM     63  C   UNL     1      -0.038   9.438   5.464  1.00  0.00     0.173 A 
ATOM     64  C   UNL     1      -1.264  11.395   6.071  1.00  0.00     0.173 A 
ATOM     65  F   UNL     1       0.443   8.622   4.530  1.00  0.00    -0.203 F 
ATOM     66  C   UNL     1       0.185   9.174   6.742  1.00  0.00     0.198 A 
ATOM     67  C   UNL     1      -1.005  11.092   7.400  1.00  0.00     0.198 A 
ATOM     68  F   UNL     1      -1.973  12.471   5.745  1.00  0.00    -0.203 F 
ATOM     69  F   UNL     1       0.885   8.091   7.068  1.00  0.00    -0.200 F 
ATOM     70  C   UNL     1      -0.270   9.962   7.702  1.00  0.00     0.200 A 
ATOM     71  F   UNL     1      -1.460  11.879   8.371  1.00  0.00    -0.200 F 
ATOM     72  F   UNL     1      -0.016   9.663   8.973  1.00  0.00    -0.200 F 
ENDBRANCH  48  62
BRANCH  49  73
ATOM     73  C   UNL     1      -1.824  12.929  -4.503  1.00  0.00     0.064 A 
ATOM     74  C   UNL     1      -0.724  13.228  -5.282  1.00  0.00     0.173 A 
ATOM     75  C   UNL     1      -3.092  13.028  -5.056  1.00  0.00     0.173 A 
ATOM     76  F   UNL     1       0.496  13.135  -4.761  1.00  0.00    -0.203 F 
ATOM     77  C   UNL     1      -0.871  13.605  -6.542  1.00  0.00     0.198 A 
ATOM     78  C   UNL     1      -3.209  13.421  -6.381  1.00  0.00     0.198 A 
ATOM     79  F   UNL     1      -4.173  12.753  -4.331  1.00  0.00    -0.203 F 
ATOM     80  F   UNL     1       0.210  13.892  -7.263  1.00  0.00    -0.200 F 
ATOM     81  C   UNL     1      -2.065  13.704  -7.102  1.00  0.00     0.200 A 
ATOM     82  F   UNL     1      -4.406  13.523  -6.951  1.00  0.00    -0.200 F 
ATOM     83  F   UNL     1      -2.166  14.082  -8.373  1.00  0.00    -0.200 F 
ENDBRANCH  49  73
BRANCH  61  84
ATOM     84  C   UNL     1       1.161  15.975   1.077  1.00  0.00     0.064 A 
ATOM     85  C   UNL     1       0.530  17.184   0.864  1.00  0.00     0.173 A 
ATOM     86  C   UNL     1       2.473  15.966   1.529  1.00  0.00     0.173 A 
ATOM     87  F   UNL     1      -0.727  17.203   0.431  1.00  0.00    -0.203 F 
ATOM     88  C   UNL     1       1.163  18.326   1.085  1.00  0.00     0.198 A 
ATOM     89  C   UNL     1       3.103  17.181   1.756  1.00  0.00     0.198 A 
ATOM     90  F   UNL     1       3.112  14.819   1.739  1.00  0.00    -0.203 F 
ATOM     91  F   UNL     1       0.528  19.473   0.864  1.00  0.00    -0.200 F 
ATOM     92  C   UNL     1       2.411  18.353   1.522  1.00  0.00     0.200 A 
ATOM     93  F   UNL     1       4.359  17.217   2.194  1.00  0.00    -0.200 F 
ATOM     94  F   UNL     1       3.007  19.523   1.737  1.00  0.00    -0.200 F 
ENDBRANCH  61  84
ENDBRANCH  35  36
ENDBRANCH  28  30
ENDBRANCH  27  28
ENDBRANCH   1  27
TORSDOF 13
