REMARK SMILES C[C@]1(C(=O)OCCOC(=O)c2ccc(-c3c4nc(c(-c5c(F)c(F)c(F)c(F)c5F)c5ccc([nH]5)c(-c5c(F)c(F)c(F)c(F)c5F)c5nc(c(-c6c(F)c(F)c(F)c(F)c6F)c6ccc3[nH]6)C=C5)C=C4)cc2)COC[C@H]1Nc1ccc2nnnn2n1
REMARK SMILES IDX 6 1 5 2 3 3 4 4 2 5 1 6 74 7 77 8 75 9 76 10 78 11 79 13
REMARK SMILES IDX 80 14 87 15 81 16 86 17 82 18 85 19 83 20 84 21 7 22 8 23
REMARK SMILES IDX 9 24 10 25 11 26 12 27 73 28 13 29 72 30 14 31 15 32 16 33
REMARK SMILES IDX 66 34 17 35 71 36 65 37 67 38 18 39 70 40 64 41 63 42 19 44
REMARK SMILES IDX 51 45 31 46 50 47 32 48 35 49 49 50 68 51 33 52 34 53 48 55
REMARK SMILES IDX 69 56 36 57 20 58 21 59 29 60 22 61 23 62 27 63 30 64 24 65
REMARK SMILES IDX 25 66 28 67 26 68 52 69 53 70 61 71 54 72 55 73 59 74 62 75
REMARK SMILES IDX 56 76 57 77 60 78 58 79 37 80 38 81 46 82 39 83 40 84 44 85
REMARK SMILES IDX 47 86 41 87 42 88 45 89 43 90
REMARK H PARENT 78 12 67 43 35 54
REMARK Flexibility Score: inf
ROOT
ATOM      1  C   UNL     1       0.981  -2.008  -0.849  1.00  0.00     0.274 C 
ENDROOT
BRANCH   1   2
ATOM      2  O   UNL     1       0.354  -0.711  -0.896  1.00  0.00    -0.462 OA
BRANCH   2   3
ATOM      3  C   UNL     1       0.328  -0.020   0.274  1.00  0.00     0.316 C 
ATOM      4  O   UNL     1       0.822  -0.427   1.321  1.00  0.00    -0.251 OA
BRANCH   3   5
ATOM      5  C   UNL     1      -0.460   1.275   0.170  1.00  0.00     0.111 C 
ATOM      6  C   UNL     1      -1.875   0.929  -0.330  1.00  0.00     0.028 C 
ATOM      7  C   UNL     1      -0.559   1.908   1.572  1.00  0.00     0.181 C 
ATOM      8  C   UNL     1       0.130   2.410  -0.675  1.00  0.00     0.126 C 
ATOM      9  O   UNL     1      -0.456   3.329   1.411  1.00  0.00    -0.378 OA
ATOM     10  C   UNL     1       0.432   3.532   0.317  1.00  0.00     0.186 C 
BRANCH   8  11
ATOM     11  N   UNL     1       1.284   2.120  -1.542  1.00  0.00    -0.362 N 
ATOM     12  H   UNL     1       2.161   1.866  -1.174  1.00  0.00     0.162 HD
BRANCH  11  13
ATOM     13  C   UNL     1       1.065   2.225  -2.901  1.00  0.00     0.149 A 
ATOM     14  C   UNL     1       1.581   3.462  -3.582  1.00  0.00     0.053 A 
ATOM     15  N   UNL     1       0.294   1.353  -3.488  1.00  0.00    -0.129 NA
ATOM     16  C   UNL     1       0.805   3.961  -4.555  1.00  0.00     0.057 A 
ATOM     17  N   UNL     1      -0.133   1.780  -4.699  1.00  0.00    -0.108 N 
ATOM     18  C   UNL     1      -0.059   3.062  -5.207  1.00  0.00     0.200 A 
ATOM     19  N   UNL     1      -0.817   1.011  -5.556  1.00  0.00    -0.022 NA
ATOM     20  N   UNL     1      -0.724   3.105  -6.338  1.00  0.00    -0.107 NA
ATOM     21  N   UNL     1      -1.165   1.818  -6.553  1.00  0.00    -0.022 NA
ENDBRANCH  11  13
ENDBRANCH   8  11
ENDBRANCH   3   5
ENDBRANCH   2   3
ENDBRANCH   1   2
BRANCH   1  22
ATOM     22  C   UNL     1       2.446  -1.925  -1.267  1.00  0.00     0.275 C 
BRANCH  22  23
ATOM     23  O   UNL     1       3.140  -1.024  -0.389  1.00  0.00    -0.458 OA
BRANCH  23  24
ATOM     24  C   UNL     1       4.092  -0.263  -0.957  1.00  0.00     0.338 C 
ATOM     25  O   UNL     1       4.519  -0.333  -2.108  1.00  0.00    -0.246 OA
BRANCH  24  26
ATOM     26  C   UNL     1       4.583   0.732   0.013  1.00  0.00     0.060 A 
ATOM     27  C   UNL     1       3.697   1.418   0.850  1.00  0.00     0.016 A 
ATOM     28  C   UNL     1       5.940   1.052   0.030  1.00  0.00     0.016 A 
ATOM     29  C   UNL     1       4.150   2.457   1.659  1.00  0.00     0.010 A 
ATOM     30  C   UNL     1       6.407   2.042   0.897  1.00  0.00     0.010 A 
ATOM     31  C   UNL     1       5.513   2.772   1.701  1.00  0.00    -0.014 A 
BRANCH  31  32
ATOM     32  C   UNL     1       6.019   3.874   2.559  1.00  0.00     0.031 A 
ATOM     33  C   UNL     1       6.708   5.052   1.929  1.00  0.00     0.074 A 
ATOM     34  C   UNL     1       5.893   3.807   3.898  1.00  0.00     0.049 A 
ATOM     35  N   UNL     1       7.422   5.994   2.488  1.00  0.00    -0.248 NA
ATOM     36  C   UNL     1       6.585   5.179   0.467  1.00  0.00     0.031 C 
ATOM     37  C   UNL     1       5.203   2.748   4.635  1.00  0.00     0.029 A 
ATOM     38  N   UNL     1       6.360   4.645   4.880  1.00  0.00    -0.354 N 
ATOM     39  C   UNL     1       7.878   6.792   1.448  1.00  0.00     0.074 A 
ATOM     40  C   UNL     1       7.355   6.229   0.221  1.00  0.00     0.031 C 
ATOM     41  C   UNL     1       5.288   3.000   5.950  1.00  0.00     0.029 A 
ATOM     42  C   UNL     1       6.105   4.192   6.152  1.00  0.00     0.049 A 
ATOM     43  H   UNL     1       6.832   5.489   4.692  1.00  0.00     0.167 HD
ATOM     44  C   UNL     1       8.668   7.889   1.514  1.00  0.00     0.037 A 
ATOM     45  C   UNL     1       6.528   4.651   7.344  1.00  0.00     0.037 A 
ATOM     46  C   UNL     1       9.150   8.467   2.741  1.00  0.00     0.049 A 
ATOM     47  C   UNL     1       7.435   5.849   7.389  1.00  0.00     0.074 A 
ATOM     48  C   UNL     1       9.943   9.588   2.916  1.00  0.00     0.029 A 
ATOM     49  N   UNL     1       8.873   7.972   4.007  1.00  0.00    -0.354 N 
ATOM     50  N   UNL     1       7.900   6.572   6.400  1.00  0.00    -0.248 NA
ATOM     51  C   UNL     1       7.891   6.284   8.717  1.00  0.00     0.031 C 
ATOM     52  C   UNL     1      10.172   9.752   4.287  1.00  0.00     0.029 A 
ATOM     53  C   UNL     1       9.488   8.758   4.967  1.00  0.00     0.049 A 
ATOM     54  H   UNL     1       8.320   7.179   4.195  1.00  0.00     0.167 HD
ATOM     55  C   UNL     1       8.689   7.553   6.983  1.00  0.00     0.074 A 
ATOM     56  C   UNL     1       8.627   7.345   8.415  1.00  0.00     0.031 C 
ATOM     57  C   UNL     1       9.405   8.537   6.387  1.00  0.00     0.037 A 
BRANCH  44  58
ATOM     58  C   UNL     1       9.092   8.524   0.223  1.00  0.00     0.064 A 
ATOM     59  C   UNL     1       8.207   9.285  -0.553  1.00  0.00     0.173 A 
ATOM     60  C   UNL     1      10.419   8.405  -0.217  1.00  0.00     0.173 A 
ATOM     61  F   UNL     1       6.924   9.412  -0.185  1.00  0.00    -0.203 F 
ATOM     62  C   UNL     1       8.633   9.893  -1.732  1.00  0.00     0.198 A 
ATOM     63  C   UNL     1      10.847   9.033  -1.383  1.00  0.00     0.198 A 
ATOM     64  F   UNL     1      11.304   7.686   0.490  1.00  0.00    -0.203 F 
ATOM     65  F   UNL     1       7.762  10.586  -2.478  1.00  0.00    -0.200 F 
ATOM     66  C   UNL     1       9.953   9.773  -2.142  1.00  0.00     0.200 A 
ATOM     67  F   UNL     1      12.124   8.922  -1.773  1.00  0.00    -0.200 F 
ATOM     68  F   UNL     1      10.362  10.365  -3.272  1.00  0.00    -0.200 F 
ENDBRANCH  44  58
BRANCH  45  69
ATOM     69  C   UNL     1       6.138   3.944   8.591  1.00  0.00     0.064 A 
ATOM     70  C   UNL     1       5.262   4.534   9.511  1.00  0.00     0.173 A 
ATOM     71  C   UNL     1       6.635   2.666   8.888  1.00  0.00     0.173 A 
ATOM     72  F   UNL     1       4.783   5.766   9.282  1.00  0.00    -0.203 F 
ATOM     73  C   UNL     1       4.907   3.879  10.688  1.00  0.00     0.198 A 
ATOM     74  C   UNL     1       6.256   1.999  10.051  1.00  0.00     0.198 A 
ATOM     75  F   UNL     1       7.478   2.058   8.040  1.00  0.00    -0.203 F 
ATOM     76  F   UNL     1       4.101   4.483  11.571  1.00  0.00    -0.200 F 
ATOM     77  C   UNL     1       5.398   2.609  10.953  1.00  0.00     0.200 A 
ATOM     78  F   UNL     1       6.723   0.767  10.297  1.00  0.00    -0.200 F 
ATOM     79  F   UNL     1       5.051   1.977  12.083  1.00  0.00    -0.200 F 
ENDBRANCH  45  69
BRANCH  57  80
ATOM     80  C   UNL     1      10.148   9.481   7.284  1.00  0.00     0.064 A 
ATOM     81  C   UNL     1      11.327   9.096   7.937  1.00  0.00     0.173 A 
ATOM     82  C   UNL     1       9.690  10.794   7.464  1.00  0.00     0.173 A 
ATOM     83  F   UNL     1      11.793   7.845   7.807  1.00  0.00    -0.203 F 
ATOM     84  C   UNL     1      12.012   9.989   8.756  1.00  0.00     0.198 A 
ATOM     85  C   UNL     1      10.391  11.691   8.264  1.00  0.00     0.198 A 
ATOM     86  F   UNL     1       8.569  11.209   6.856  1.00  0.00    -0.203 F 
ATOM     87  F   UNL     1      13.115   9.590   9.404  1.00  0.00    -0.200 F 
ATOM     88  C   UNL     1      11.547  11.287   8.914  1.00  0.00     0.200 A 
ATOM     89  F   UNL     1       9.946  12.947   8.409  1.00  0.00    -0.200 F 
ATOM     90  F   UNL     1      12.210  12.146   9.700  1.00  0.00    -0.200 F 
ENDBRANCH  57  80
ENDBRANCH  31  32
ENDBRANCH  24  26
ENDBRANCH  23  24
ENDBRANCH  22  23
ENDBRANCH   1  22
TORSDOF 13
