REMARK SMILES CCc1cccc(C)c1Nc1ccccc1CC(=O)OCCOC(=O)c1ccc(-c2c3nc(c(-c4c(F)c(F)c(F)c(F)c4F)c4ccc([nH]4)c(-c4c(F)c(F)c(F)c(F)c4F)c4nc(c(-c5c(F)c(F)c(F)c(F)c5F)c5ccc2[nH]5)C=C4)C=C3)cc1
REMARK SMILES IDX 21 1 20 2 18 3 19 4 17 5 16 6 11 7 12 8 13 9 15 10 14 11
REMARK SMILES IDX 10 12 9 14 3 15 4 16 5 17 7 18 6 19 8 20 2 21 1 22 22 23
REMARK SMILES IDX 23 24 24 25 25 26 26 27 27 28 88 29 28 30 87 31 29 32 30 33
REMARK SMILES IDX 31 34 81 35 32 36 86 37 80 38 82 39 33 40 85 41 79 42 78 43
REMARK SMILES IDX 34 45 66 46 46 47 65 48 47 49 50 50 64 51 83 52 48 53 49 54
REMARK SMILES IDX 63 56 84 57 51 58 35 59 36 60 44 61 37 62 38 63 42 64 45 65
REMARK SMILES IDX 39 66 40 67 43 68 41 69 67 70 68 71 76 72 69 73 70 74 74 75
REMARK SMILES IDX 77 76 71 77 72 78 75 79 73 80 52 81 53 82 61 83 54 84 55 85
REMARK SMILES IDX 59 86 62 87 56 88 57 89 60 90 58 91
REMARK H PARENT 10 13 82 44 50 55
REMARK Flexibility Score: inf
ROOT
ATOM      1  C   UNL     1      -5.691  -0.182   0.799  1.00  0.00     0.274 C 
ENDROOT
BRANCH   1   2
ATOM      2  O   UNL     1      -5.314   1.179   1.465  1.00  0.00    -0.462 OA
BRANCH   2   3
ATOM      3  C   UNL     1      -4.732   1.361   2.700  1.00  0.00     0.310 C 
ATOM      4  O   UNL     1      -5.168   0.752   3.681  1.00  0.00    -0.252 OA
BRANCH   3   5
ATOM      5  C   UNL     1      -3.390   2.244   2.847  1.00  0.00     0.160 C 
BRANCH   5   6
ATOM      6  C   UNL     1      -2.704   3.201   1.805  1.00  0.00    -0.013 A 
ATOM      7  C   UNL     1      -1.622   2.995   0.820  1.00  0.00     0.042 A 
ATOM      8  C   UNL     1      -1.304   4.098  -0.021  1.00  0.00     0.026 A 
ATOM      9  C   UNL     1      -1.940   5.336   0.075  1.00  0.00     0.002 A 
ATOM     10  C   UNL     1      -3.268   4.506   1.897  1.00  0.00     0.006 A 
ATOM     11  C   UNL     1      -2.900   5.547   1.047  1.00  0.00     0.000 A 
BRANCH   7  12
ATOM     12  N   UNL     1      -0.951   1.781   0.331  1.00  0.00    -0.355 N 
ATOM     13  H   UNL     1       0.024   1.841   0.211  1.00  0.00     0.167 HD
BRANCH  12  14
ATOM     14  C   UNL     1      -1.552   0.522   0.010  1.00  0.00     0.045 A 
ATOM     15  C   UNL     1      -0.909  -0.950  -0.785  1.00  0.00    -0.024 A 
ATOM     16  C   UNL     1      -1.617  -2.590  -0.400  1.00  0.00     0.006 A 
ATOM     17  C   UNL     1      -2.932  -2.752   0.817  1.00  0.00     0.001 A 
ATOM     18  C   UNL     1      -2.988   0.431   1.008  1.00  0.00    -0.027 A 
ATOM     19  C   UNL     1      -3.616  -1.229   1.564  1.00  0.00     0.005 A 
ATOM     20  C   UNL     1      -3.782   1.447  -0.258  1.00  0.00     0.046 C 
BRANCH  15  21
ATOM     21  C   UNL     1       0.460  -1.030  -1.425  1.00  0.00     0.034 C 
ATOM     22  C   UNL     1       1.449   0.040  -1.005  1.00  0.00     0.009 C 
ENDBRANCH  15  21
ENDBRANCH  12  14
ENDBRANCH   7  12
ENDBRANCH   5   6
ENDBRANCH   3   5
ENDBRANCH   2   3
ENDBRANCH   1   2
BRANCH   1  23
ATOM     23  C   UNL     1      -4.544  -1.001  -0.378  1.00  0.00     0.275 C 
BRANCH  23  24
ATOM     24  O   UNL     1      -2.738  -1.075  -0.067  1.00  0.00    -0.458 OA
BRANCH  24  25
ATOM     25  C   UNL     1      -1.483  -1.206   1.360  1.00  0.00     0.338 C 
ATOM     26  O   UNL     1      -0.262  -1.555   1.264  1.00  0.00    -0.246 OA
BRANCH  25  27
ATOM     27  C   UNL     1      -1.571  -1.052   2.882  1.00  0.00     0.060 A 
ATOM     28  C   UNL     1      -0.925  -0.069   3.650  1.00  0.00     0.016 A 
ATOM     29  C   UNL     1      -2.251  -2.038   3.545  1.00  0.00     0.016 A 
ATOM     30  C   UNL     1      -1.274   0.053   5.002  1.00  0.00     0.010 A 
ATOM     31  C   UNL     1      -3.003  -1.565   4.556  1.00  0.00     0.010 A 
ATOM     32  C   UNL     1      -2.372  -0.689   5.427  1.00  0.00    -0.014 A 
BRANCH  32  33
ATOM     33  C   UNL     1      -2.880  -0.932   6.766  1.00  0.00     0.031 A 
ATOM     34  C   UNL     1      -3.701   0.038   7.484  1.00  0.00     0.074 A 
ATOM     35  C   UNL     1      -2.850  -2.256   7.075  1.00  0.00     0.049 A 
ATOM     36  N   UNL     1      -4.041  -0.111   8.713  1.00  0.00    -0.248 NA
ATOM     37  C   UNL     1      -4.218   1.265   6.895  1.00  0.00     0.031 C 
ATOM     38  C   UNL     1      -3.612  -3.059   8.014  1.00  0.00     0.029 A 
ATOM     39  N   UNL     1      -2.007  -3.211   6.461  1.00  0.00    -0.354 N 
ATOM     40  C   UNL     1      -5.053   0.782   8.985  1.00  0.00     0.074 A 
ATOM     41  C   UNL     1      -5.020   1.704   7.875  1.00  0.00     0.031 C 
ATOM     42  C   UNL     1      -2.969  -4.238   8.174  1.00  0.00     0.029 A 
ATOM     43  C   UNL     1      -1.709  -4.155   7.432  1.00  0.00     0.049 A 
ATOM     44  H   UNL     1      -1.694  -3.206   5.528  1.00  0.00     0.167 HD
ATOM     45  C   UNL     1      -5.864   0.504  10.050  1.00  0.00     0.037 A 
ATOM     46  C   UNL     1      -0.444  -4.084   7.939  1.00  0.00     0.037 A 
ATOM     47  C   UNL     1      -5.345  -0.677  10.765  1.00  0.00     0.049 A 
ATOM     48  C   UNL     1      -0.515  -3.642   9.373  1.00  0.00     0.074 A 
ATOM     49  C   UNL     1      -5.738  -2.005  10.791  1.00  0.00     0.029 A 
ATOM     50  N   UNL     1      -4.055  -0.642  11.299  1.00  0.00    -0.354 N 
ATOM     51  N   UNL     1      -1.460  -2.880   9.854  1.00  0.00    -0.248 NA
ATOM     52  C   UNL     1       0.427  -4.093  10.385  1.00  0.00     0.031 C 
ATOM     53  C   UNL     1      -4.620  -2.779  11.220  1.00  0.00     0.029 A 
ATOM     54  C   UNL     1      -3.563  -1.922  11.486  1.00  0.00     0.049 A 
ATOM     55  H   UNL     1      -3.562   0.183  11.513  1.00  0.00     0.167 HD
ATOM     56  C   UNL     1      -1.325  -2.799  11.204  1.00  0.00     0.074 A 
ATOM     57  C   UNL     1      -0.111  -3.549  11.489  1.00  0.00     0.031 C 
ATOM     58  C   UNL     1      -2.214  -2.136  11.997  1.00  0.00     0.037 A 
BRANCH  45  59
ATOM     59  C   UNL     1      -7.238   1.095  10.344  1.00  0.00     0.064 A 
ATOM     60  C   UNL     1      -8.046   0.532  11.364  1.00  0.00     0.173 A 
ATOM     61  C   UNL     1      -7.860   2.150   9.645  1.00  0.00     0.173 A 
ATOM     62  F   UNL     1      -7.587  -0.444  12.159  1.00  0.00    -0.203 F 
ATOM     63  C   UNL     1      -9.361   0.946  11.613  1.00  0.00     0.198 A 
ATOM     64  C   UNL     1      -9.173   2.569   9.900  1.00  0.00     0.198 A 
ATOM     65  F   UNL     1      -7.238   2.840   8.690  1.00  0.00    -0.203 F 
ATOM     66  F   UNL     1     -10.077   0.344  12.574  1.00  0.00    -0.200 F 
ATOM     67  C   UNL     1      -9.929   1.960  10.875  1.00  0.00     0.200 A 
ATOM     68  F   UNL     1      -9.698   3.573   9.180  1.00  0.00    -0.200 F 
ATOM     69  F   UNL     1     -11.188   2.356  11.107  1.00  0.00    -0.200 F 
ENDBRANCH  45  59
BRANCH  46  70
ATOM     70  C   UNL     1       0.580  -3.628   6.926  1.00  0.00     0.064 A 
ATOM     71  C   UNL     1       0.737  -4.370   5.730  1.00  0.00     0.173 A 
ATOM     72  C   UNL     1       1.160  -2.350   6.941  1.00  0.00     0.173 A 
ATOM     73  F   UNL     1       0.181  -5.589   5.624  1.00  0.00    -0.203 F 
ATOM     74  C   UNL     1       1.378  -3.845   4.604  1.00  0.00     0.198 A 
ATOM     75  C   UNL     1       1.815  -1.830   5.812  1.00  0.00     0.198 A 
ATOM     76  F   UNL     1       1.044  -1.565   8.021  1.00  0.00    -0.203 F 
ATOM     77  F   UNL     1       1.443  -4.566   3.474  1.00  0.00    -0.200 F 
ATOM     78  C   UNL     1       1.909  -2.570   4.642  1.00  0.00     0.200 A 
ATOM     79  F   UNL     1       2.321  -0.588   5.846  1.00  0.00    -0.200 F 
ATOM     80  F   UNL     1       2.507  -2.052   3.559  1.00  0.00    -0.200 F 
ENDBRANCH  46  70
BRANCH  58  81
ATOM     81  C   UNL     1      -1.877  -1.683  13.383  1.00  0.00     0.064 A 
ATOM     82  C   UNL     1      -0.576  -1.309  13.760  1.00  0.00     0.173 A 
ATOM     83  C   UNL     1      -2.897  -1.429  14.323  1.00  0.00     0.173 A 
ATOM     84  F   UNL     1       0.452  -1.389  12.902  1.00  0.00    -0.203 F 
ATOM     85  C   UNL     1      -0.302  -0.780  15.018  1.00  0.00     0.198 A 
ATOM     86  C   UNL     1      -2.629  -0.836  15.553  1.00  0.00     0.198 A 
ATOM     87  F   UNL     1      -4.181  -1.713  14.059  1.00  0.00    -0.203 F 
ATOM     88  F   UNL     1       0.962  -0.484  15.349  1.00  0.00    -0.200 F 
ATOM     89  C   UNL     1      -1.330  -0.530  15.907  1.00  0.00     0.200 A 
ATOM     90  F   UNL     1      -3.639  -0.540  16.381  1.00  0.00    -0.200 F 
ATOM     91  F   UNL     1      -1.070   0.030  17.095  1.00  0.00    -0.200 F 
ENDBRANCH  58  81
ENDBRANCH  32  33
ENDBRANCH  25  27
ENDBRANCH  24  25
ENDBRANCH  23  24
ENDBRANCH   1  23
TORSDOF 15
