REMARK SMILES C[C@@H](NC(=O)[C@H]1CC=CC[C@@H]1C(=O)OCCOC(=O)c1ccc(-c2c3nc(c(-c4c(F)c(F)c(F)c(F)c4F)c4ccc([nH]4)c(-c4c(F)c(F)c(F)c(F)c4F)c4nc(c(-c5c(F)c(F)c(F)c(F)c5F)c5ccc2[nH]5)C=C4)C=C3)cc1)c1ccc(-n2ccnc2)cc1
REMARK SMILES IDX 15 1 14 2 12 3 13 4 11 5 6 6 7 7 8 8 10 9 9 10 4 11 3 12
REMARK SMILES IDX 5 14 2 15 1 16 83 17 84 18 93 19 85 20 92 21 86 22 87 23
REMARK SMILES IDX 88 24 91 25 89 26 90 27 16 28 17 29 18 30 19 31 20 32 21 33
REMARK SMILES IDX 82 34 22 35 81 36 23 37 24 38 25 39 75 40 26 41 80 42 74 43
REMARK SMILES IDX 76 44 27 45 79 46 73 47 72 48 28 50 60 51 40 52 59 53 41 54
REMARK SMILES IDX 44 55 58 56 77 57 42 58 43 59 57 61 78 62 45 63 29 64 30 65
REMARK SMILES IDX 38 66 31 67 32 68 36 69 39 70 33 71 34 72 37 73 35 74 61 75
REMARK SMILES IDX 62 76 70 77 63 78 64 79 68 80 71 81 65 82 66 83 69 84 67 85
REMARK SMILES IDX 46 86 47 87 55 88 48 89 49 90 53 91 56 92 50 93 51 94 54 95
REMARK SMILES IDX 52 96
REMARK H PARENT 3 13 76 49 44 60
REMARK Flexibility Score: inf
ROOT
ATOM      1  C   UNL     1      -5.589  -3.500  -2.702  1.00  0.00     0.274 C 
ENDROOT
BRANCH   1   2
ATOM      2  O   UNL     1      -4.361  -3.319  -1.976  1.00  0.00    -0.462 OA
BRANCH   2   3
ATOM      3  C   UNL     1      -3.202  -3.529  -2.632  1.00  0.00     0.310 C 
ATOM      4  O   UNL     1      -3.094  -4.121  -3.698  1.00  0.00    -0.252 OA
BRANCH   3   5
ATOM      5  C   UNL     1      -2.020  -2.901  -1.911  1.00  0.00     0.115 C 
ATOM      6  C   UNL     1      -1.129  -3.977  -0.552  1.00  0.00     0.097 C 
ATOM      7  C   UNL     1      -1.280  -3.441   1.244  1.00  0.00     0.041 C 
ATOM      8  C   UNL     1      -1.472  -1.707   1.740  1.00  0.00    -0.030 C 
ATOM      9  C   UNL     1      -2.216  -0.977  -1.365  1.00  0.00     0.043 C 
ATOM     10  C   UNL     1      -1.827  -0.631   0.749  1.00  0.00    -0.030 C 
BRANCH   6  11
ATOM     11  C   UNL     1       0.626  -3.894  -0.690  1.00  0.00     0.224 C 
ATOM     12  N   UNL     1       1.423  -2.678  -0.660  1.00  0.00    -0.349 N 
ATOM     13  H   UNL     1       2.364  -2.903  -0.475  1.00  0.00     0.164 HD
ATOM     14  O   UNL     1       1.250  -4.962  -0.720  1.00  0.00    -0.275 OA
BRANCH  12  15
ATOM     15  C   UNL     1       1.262  -1.002  -0.839  1.00  0.00     0.109 C 
ATOM     16  C   UNL     1       2.143  -0.323   0.197  1.00  0.00     0.036 C 
BRANCH  15  17
ATOM     17  C   UNL     1      -0.161  -0.491  -0.649  1.00  0.00    -0.026 A 
ATOM     18  C   UNL     1      -1.142   0.919  -0.711  1.00  0.00     0.008 A 
ATOM     19  C   UNL     1      -0.969  -1.903  -0.377  1.00  0.00     0.008 A 
ATOM     20  C   UNL     1      -2.911   0.889  -0.408  1.00  0.00     0.027 A 
ATOM     21  C   UNL     1      -2.872  -2.108   0.000  1.00  0.00     0.027 A 
ATOM     22  C   UNL     1      -3.797  -0.585   0.022  1.00  0.00     0.046 A 
BRANCH  22  23
ATOM     23  N   UNL     1      -5.138  -0.572   0.420  1.00  0.00    -0.306 N 
ATOM     24  C   UNL     1      -5.751  -1.528   1.189  1.00  0.00     0.113 A 
ATOM     25  C   UNL     1      -6.096   0.365   0.138  1.00  0.00     0.204 A 
ATOM     26  C   UNL     1      -7.079  -1.175   1.230  1.00  0.00     0.131 A 
ATOM     27  N   UNL     1      -7.289  -0.003   0.556  1.00  0.00    -0.245 NA
ENDBRANCH  22  23
ENDBRANCH  15  17
ENDBRANCH  12  15
ENDBRANCH   6  11
ENDBRANCH   3   5
ENDBRANCH   2   3
ENDBRANCH   1   2
BRANCH   1  28
ATOM     28  C   UNL     1      -6.499  -2.324  -2.320  1.00  0.00     0.275 C 
BRANCH  28  29
ATOM     29  O   UNL     1      -6.063  -0.957  -2.610  1.00  0.00    -0.458 OA
BRANCH  29  30
ATOM     30  C   UNL     1      -5.237  -0.678  -3.640  1.00  0.00     0.338 C 
ATOM     31  O   UNL     1      -4.868  -1.467  -4.494  1.00  0.00    -0.246 OA
BRANCH  30  32
ATOM     32  C   UNL     1      -4.587   0.666  -3.492  1.00  0.00     0.060 A 
ATOM     33  C   UNL     1      -3.245   0.719  -3.882  1.00  0.00     0.016 A 
ATOM     34  C   UNL     1      -5.159   1.815  -2.927  1.00  0.00     0.016 A 
ATOM     35  C   UNL     1      -2.453   1.837  -3.604  1.00  0.00     0.010 A 
ATOM     36  C   UNL     1      -4.383   2.989  -2.737  1.00  0.00     0.010 A 
ATOM     37  C   UNL     1      -3.018   3.015  -3.076  1.00  0.00    -0.014 A 
BRANCH  37  38
ATOM     38  C   UNL     1      -2.270   4.293  -3.293  1.00  0.00     0.031 A 
ATOM     39  C   UNL     1      -1.690   5.186  -2.225  1.00  0.00     0.074 A 
ATOM     40  C   UNL     1      -2.116   4.621  -4.593  1.00  0.00     0.049 A 
ATOM     41  N   UNL     1      -1.098   6.352  -2.367  1.00  0.00    -0.248 NA
ATOM     42  C   UNL     1      -1.770   4.740  -0.830  1.00  0.00     0.031 C 
ATOM     43  C   UNL     1      -2.632   3.820  -5.710  1.00  0.00     0.029 A 
ATOM     44  N   UNL     1      -1.497   5.675  -5.208  1.00  0.00    -0.354 N 
ATOM     45  C   UNL     1      -0.754   6.787  -1.089  1.00  0.00     0.074 A 
ATOM     46  C   UNL     1      -1.196   5.750  -0.178  1.00  0.00     0.031 C 
ATOM     47  C   UNL     1      -2.270   4.375  -6.864  1.00  0.00     0.029 A 
ATOM     48  C   UNL     1      -1.648   5.651  -6.572  1.00  0.00     0.049 A 
ATOM     49  H   UNL     1      -0.999   6.373  -4.725  1.00  0.00     0.167 HD
ATOM     50  C   UNL     1      -0.148   7.951  -0.725  1.00  0.00     0.037 A 
ATOM     51  C   UNL     1      -1.417   6.587  -7.504  1.00  0.00     0.037 A 
ATOM     52  C   UNL     1       0.253   8.981  -1.664  1.00  0.00     0.049 A 
ATOM     53  C   UNL     1      -0.839   7.886  -7.070  1.00  0.00     0.074 A 
ATOM     54  C   UNL     1       0.889  10.187  -1.412  1.00  0.00     0.029 A 
ATOM     55  N   UNL     1       0.035   8.937  -3.037  1.00  0.00    -0.354 N 
ATOM     56  N   UNL     1      -0.526   8.280  -5.861  1.00  0.00    -0.248 NA
ATOM     57  C   UNL     1      -0.580   8.867  -8.123  1.00  0.00     0.031 C 
ATOM     58  C   UNL     1       0.981  10.902  -2.612  1.00  0.00     0.029 A 
ATOM     59  C   UNL     1       0.488  10.108  -3.634  1.00  0.00     0.049 A 
ATOM     60  H   UNL     1      -0.380   8.185  -3.517  1.00  0.00     0.167 HD
ATOM     61  C   UNL     1      -0.012   9.556  -6.005  1.00  0.00     0.074 A 
ATOM     62  C   UNL     1      -0.035   9.852  -7.426  1.00  0.00     0.031 C 
ATOM     63  C   UNL     1       0.440  10.400  -5.046  1.00  0.00     0.037 A 
BRANCH  50  64
ATOM     64  C   UNL     1       0.089   8.224   0.746  1.00  0.00     0.064 A 
ATOM     65  C   UNL     1       1.010   7.487   1.506  1.00  0.00     0.173 A 
ATOM     66  C   UNL     1      -0.547   9.306   1.384  1.00  0.00     0.173 A 
ATOM     67  F   UNL     1       1.662   6.451   0.957  1.00  0.00    -0.203 F 
ATOM     68  C   UNL     1       1.258   7.797   2.846  1.00  0.00     0.198 A 
ATOM     69  C   UNL     1      -0.271   9.635   2.712  1.00  0.00     0.198 A 
ATOM     70  F   UNL     1      -1.421  10.070   0.711  1.00  0.00    -0.203 F 
ATOM     71  F   UNL     1       2.112   7.048   3.558  1.00  0.00    -0.200 F 
ATOM     72  C   UNL     1       0.623   8.874   3.445  1.00  0.00     0.200 A 
ATOM     73  F   UNL     1      -0.867  10.694   3.278  1.00  0.00    -0.200 F 
ATOM     74  F   UNL     1       0.872   9.176   4.728  1.00  0.00    -0.200 F 
ENDBRANCH  50  64
BRANCH  51  75
ATOM     75  C   UNL     1      -1.814   6.305  -8.906  1.00  0.00     0.064 A 
ATOM     76  C   UNL     1      -0.850   6.097  -9.896  1.00  0.00     0.173 A 
ATOM     77  C   UNL     1      -3.165   6.119  -9.251  1.00  0.00     0.173 A 
ATOM     78  F   UNL     1       0.450   6.261  -9.611  1.00  0.00    -0.203 F 
ATOM     79  C   UNL     1      -1.221   5.717 -11.184  1.00  0.00     0.198 A 
ATOM     80  C   UNL     1      -3.530   5.694 -10.523  1.00  0.00     0.198 A 
ATOM     81  F   UNL     1      -4.123   6.274  -8.324  1.00  0.00    -0.203 F 
ATOM     82  F   UNL     1      -0.282   5.547 -12.123  1.00  0.00    -0.200 F 
ATOM     83  C   UNL     1      -2.558   5.501 -11.491  1.00  0.00     0.200 A 
ATOM     84  F   UNL     1      -4.816   5.442 -10.800  1.00  0.00    -0.200 F 
ATOM     85  F   UNL     1      -2.907   5.100 -12.721  1.00  0.00    -0.200 F 
ENDBRANCH  51  75
BRANCH  63  86
ATOM     86  C   UNL     1       0.985  11.713  -5.527  1.00  0.00     0.064 A 
ATOM     87  C   UNL     1       0.160  12.692  -6.103  1.00  0.00     0.173 A 
ATOM     88  C   UNL     1       2.359  11.982  -5.436  1.00  0.00     0.173 A 
ATOM     89  F   UNL     1      -1.157  12.472  -6.237  1.00  0.00    -0.203 F 
ATOM     90  C   UNL     1       0.698  13.869  -6.614  1.00  0.00     0.198 A 
ATOM     91  C   UNL     1       2.887  13.180  -5.908  1.00  0.00     0.198 A 
ATOM     92  F   UNL     1       3.192  11.080  -4.896  1.00  0.00    -0.203 F 
ATOM     93  F   UNL     1      -0.096  14.751  -7.237  1.00  0.00    -0.200 F 
ATOM     94  C   UNL     1       2.059  14.115  -6.510  1.00  0.00     0.200 A 
ATOM     95  F   UNL     1       4.200  13.421  -5.793  1.00  0.00    -0.200 F 
ATOM     96  F   UNL     1       2.576  15.248  -7.004  1.00  0.00    -0.200 F 
ENDBRANCH  63  86
ENDBRANCH  37  38
ENDBRANCH  30  32
ENDBRANCH  29  30
ENDBRANCH  28  29
ENDBRANCH   1  28
TORSDOF 15
