REMARK SMILES C[C@@H](C(=O)OCCOC(=O)c1ccc(-c2c3nc(c(-c4c(F)c(F)c(F)c(F)c4F)c4ccc([nH]4)c(-c4c(F)c(F)c(F)c(F)c4F)c4nc(c(-c5c(F)c(F)c(F)c(F)c5F)c5ccc2[nH]5)C=C4)C=C3)cc1)S(=O)(=O)N[C@@]12C[C@@H]3C[C@@](C)(C[C@@](C)(C3)C1)C2
REMARK SMILES IDX 6 1 5 2 3 3 4 4 2 5 1 6 74 7 75 8 76 9 77 10 78 12 79 13
REMARK SMILES IDX 88 14 89 15 80 16 85 17 82 18 87 19 81 20 84 21 86 22 83 23
REMARK SMILES IDX 7 24 8 25 9 26 10 27 11 28 12 29 73 30 13 31 72 32 14 33
REMARK SMILES IDX 15 34 16 35 66 36 17 37 71 38 65 39 67 40 18 41 70 42 64 43
REMARK SMILES IDX 63 44 19 46 51 47 31 48 50 49 32 50 35 51 49 52 68 53 33 54
REMARK SMILES IDX 34 55 48 57 69 58 36 59 20 60 21 61 29 62 22 63 23 64 27 65
REMARK SMILES IDX 30 66 24 67 25 68 28 69 26 70 52 71 53 72 61 73 54 74 55 75
REMARK SMILES IDX 59 76 62 77 56 78 57 79 60 80 58 81 37 82 38 83 46 84 39 85
REMARK SMILES IDX 40 86 44 87 47 88 41 89 42 90 45 91 43 92
REMARK H PARENT 77 11 67 45 35 56
REMARK Flexibility Score: inf
ROOT
ATOM      1  C   UNL     1       2.529  -2.376  -3.219  1.00  0.00     0.274 C 
ENDROOT
BRANCH   1   2
ATOM      2  O   UNL     1       2.034  -1.439  -2.232  1.00  0.00    -0.461 OA
BRANCH   2   3
ATOM      3  C   UNL     1       1.018  -0.611  -2.616  1.00  0.00     0.325 C 
ATOM      4  O   UNL     1       0.421  -0.730  -3.679  1.00  0.00    -0.251 OA
BRANCH   3   5
ATOM      5  C   UNL     1       0.822   0.551  -1.679  1.00  0.00     0.230 C 
ATOM      6  C   UNL     1       1.952   0.763  -0.687  1.00  0.00     0.039 C 
BRANCH   5   7
ATOM      7  S   UNL     1      -0.830   0.610  -0.981  1.00  0.00     0.225 S 
ATOM      8  O   UNL     1      -0.907   1.724  -0.057  1.00  0.00    -0.212 OA
ATOM      9  O   UNL     1      -1.778   0.539  -2.070  1.00  0.00    -0.212 OA
BRANCH   7  10
ATOM     10  N   UNL     1      -1.102  -0.797  -0.129  1.00  0.00    -0.208 NA
ATOM     11  H   UNL     1      -0.442  -1.473  -0.514  1.00  0.00     0.141 HD
BRANCH  10  12
ATOM     12  C   UNL     1      -1.014  -0.966   1.347  1.00  0.00     0.034 C 
ATOM     13  C   UNL     1       0.270  -0.374   1.935  1.00  0.00     0.027 C 
ATOM     14  C   UNL     1      -2.252  -0.402   2.082  1.00  0.00     0.030 C 
ATOM     15  C   UNL     1      -1.001  -2.497   1.597  1.00  0.00     0.030 C 
ATOM     16  C   UNL     1       0.370  -0.659   3.435  1.00  0.00    -0.008 C 
ATOM     17  C   UNL     1      -2.155  -0.696   3.608  1.00  0.00    -0.030 C 
ATOM     18  C   UNL     1      -0.871  -2.830   3.097  1.00  0.00    -0.030 C 
ATOM     19  C   UNL     1      -0.852  -0.064   4.149  1.00  0.00     0.010 C 
ATOM     20  C   UNL     1       0.418  -2.178   3.640  1.00  0.00     0.010 C 
ATOM     21  C   UNL     1      -2.083  -2.226   3.836  1.00  0.00     0.013 C 
ATOM     22  C   UNL     1      -3.364  -0.124   4.355  1.00  0.00     0.011 C 
ATOM     23  C   UNL     1      -0.816  -4.348   3.295  1.00  0.00     0.011 C 
ENDBRANCH  10  12
ENDBRANCH   7  10
ENDBRANCH   5   7
ENDBRANCH   3   5
ENDBRANCH   2   3
ENDBRANCH   1   2
BRANCH   1  24
ATOM     24  C   UNL     1       2.099  -3.805  -2.906  1.00  0.00     0.275 C 
BRANCH  24  25
ATOM     25  O   UNL     1       0.666  -3.885  -2.973  1.00  0.00    -0.458 OA
BRANCH  25  26
ATOM     26  C   UNL     1       0.051  -4.139  -1.800  1.00  0.00     0.338 C 
ATOM     27  O   UNL     1       0.580  -4.426  -0.735  1.00  0.00    -0.246 OA
BRANCH  26  28
ATOM     28  C   UNL     1      -1.407  -3.998  -1.942  1.00  0.00     0.060 A 
ATOM     29  C   UNL     1      -1.952  -2.826  -2.456  1.00  0.00     0.016 A 
ATOM     30  C   UNL     1      -2.245  -4.973  -1.403  1.00  0.00     0.016 A 
ATOM     31  C   UNL     1      -3.316  -2.574  -2.318  1.00  0.00     0.010 A 
ATOM     32  C   UNL     1      -3.631  -4.771  -1.389  1.00  0.00     0.010 A 
ATOM     33  C   UNL     1      -4.187  -3.551  -1.813  1.00  0.00    -0.014 A 
BRANCH  33  34
ATOM     34  C   UNL     1      -5.657  -3.291  -1.729  1.00  0.00     0.031 A 
ATOM     35  C   UNL     1      -6.409  -3.481  -0.434  1.00  0.00     0.074 A 
ATOM     36  C   UNL     1      -6.336  -2.862  -2.813  1.00  0.00     0.049 A 
ATOM     37  N   UNL     1      -7.703  -3.501  -0.223  1.00  0.00    -0.248 NA
ATOM     38  C   UNL     1      -5.606  -3.686   0.781  1.00  0.00     0.031 C 
ATOM     39  C   UNL     1      -5.752  -2.585  -4.126  1.00  0.00     0.029 A 
ATOM     40  N   UNL     1      -7.668  -2.564  -2.980  1.00  0.00    -0.354 N 
ATOM     41  C   UNL     1      -7.869  -3.786   1.126  1.00  0.00     0.074 A 
ATOM     42  C   UNL     1      -6.542  -3.921   1.691  1.00  0.00     0.031 C 
ATOM     43  C   UNL     1      -6.697  -2.091  -4.937  1.00  0.00     0.029 A 
ATOM     44  C   UNL     1      -7.980  -2.133  -4.247  1.00  0.00     0.049 A 
ATOM     45  H   UNL     1      -8.335  -2.651  -2.261  1.00  0.00     0.167 HD
ATOM     46  C   UNL     1      -9.022  -3.930   1.825  1.00  0.00     0.037 A 
ATOM     47  C   UNL     1      -9.165  -1.854  -4.822  1.00  0.00     0.037 A 
ATOM     48  C   UNL     1     -10.341  -3.727   1.280  1.00  0.00     0.049 A 
ATOM     49  C   UNL     1     -10.428  -2.038  -4.035  1.00  0.00     0.074 A 
ATOM     50  C   UNL     1     -11.566  -3.845   1.918  1.00  0.00     0.029 A 
ATOM     51  N   UNL     1     -10.610  -3.339  -0.024  1.00  0.00    -0.354 N 
ATOM     52  N   UNL     1     -10.576  -2.412  -2.788  1.00  0.00    -0.248 NA
ATOM     53  C   UNL     1     -11.691  -1.796  -4.746  1.00  0.00     0.031 C 
ATOM     54  C   UNL     1     -12.576  -3.559   0.992  1.00  0.00     0.029 A 
ATOM     55  C   UNL     1     -11.980  -3.223  -0.211  1.00  0.00     0.049 A 
ATOM     56  H   UNL     1      -9.929  -3.171  -0.714  1.00  0.00     0.167 HD
ATOM     57  C   UNL     1     -11.944  -2.457  -2.566  1.00  0.00     0.074 A 
ATOM     58  C   UNL     1     -12.584  -2.043  -3.797  1.00  0.00     0.031 C 
ATOM     59  C   UNL     1     -12.608  -2.823  -1.443  1.00  0.00     0.037 A 
BRANCH  46  60
ATOM     60  C   UNL     1      -8.922  -4.367   3.258  1.00  0.00     0.064 A 
ATOM     61  C   UNL     1      -8.497  -3.502   4.275  1.00  0.00     0.173 A 
ATOM     62  C   UNL     1      -9.322  -5.663   3.623  1.00  0.00     0.173 A 
ATOM     63  F   UNL     1      -8.091  -2.258   3.977  1.00  0.00    -0.203 F 
ATOM     64  C   UNL     1      -8.461  -3.922   5.603  1.00  0.00     0.198 A 
ATOM     65  C   UNL     1      -9.309  -6.071   4.954  1.00  0.00     0.198 A 
ATOM     66  F   UNL     1      -9.744  -6.529   2.689  1.00  0.00    -0.203 F 
ATOM     67  F   UNL     1      -8.018  -3.090   6.555  1.00  0.00    -0.200 F 
ATOM     68  C   UNL     1      -8.874  -5.202   5.942  1.00  0.00     0.200 A 
ATOM     69  F   UNL     1      -9.722  -7.304   5.281  1.00  0.00    -0.200 F 
ATOM     70  F   UNL     1      -8.850  -5.599   7.222  1.00  0.00    -0.200 F 
ENDBRANCH  46  60
BRANCH  47  71
ATOM     71  C   UNL     1      -9.204  -1.433  -6.247  1.00  0.00     0.064 A 
ATOM     72  C   UNL     1      -9.563  -0.128  -6.606  1.00  0.00     0.173 A 
ATOM     73  C   UNL     1      -8.851  -2.321  -7.274  1.00  0.00     0.173 A 
ATOM     74  F   UNL     1      -9.941   0.747  -5.662  1.00  0.00    -0.203 F 
ATOM     75  C   UNL     1      -9.562   0.275  -7.940  1.00  0.00     0.198 A 
ATOM     76  C   UNL     1      -8.817  -1.908  -8.603  1.00  0.00     0.198 A 
ATOM     77  F   UNL     1      -8.504  -3.584  -6.982  1.00  0.00    -0.203 F 
ATOM     78  F   UNL     1      -9.941   1.519  -8.262  1.00  0.00    -0.200 F 
ATOM     79  C   UNL     1      -9.177  -0.612  -8.935  1.00  0.00     0.200 A 
ATOM     80  F   UNL     1      -8.429  -2.764  -9.558  1.00  0.00    -0.200 F 
ATOM     81  F   UNL     1      -9.158  -0.218 -10.216  1.00  0.00    -0.200 F 
ENDBRANCH  47  71
BRANCH  59  82
ATOM     82  C   UNL     1     -14.105  -2.781  -1.496  1.00  0.00     0.064 A 
ATOM     83  C   UNL     1     -14.838  -3.752  -2.195  1.00  0.00     0.173 A 
ATOM     84  C   UNL     1     -14.815  -1.769  -0.834  1.00  0.00     0.173 A 
ATOM     85  F   UNL     1     -14.202  -4.729  -2.859  1.00  0.00    -0.203 F 
ATOM     86  C   UNL     1     -16.228  -3.696  -2.249  1.00  0.00     0.198 A 
ATOM     87  C   UNL     1     -16.206  -1.730  -0.871  1.00  0.00     0.198 A 
ATOM     88  F   UNL     1     -14.159  -0.820  -0.150  1.00  0.00    -0.203 F 
ATOM     89  F   UNL     1     -16.906  -4.607  -2.960  1.00  0.00    -0.200 F 
ATOM     90  C   UNL     1     -16.911  -2.688  -1.584  1.00  0.00     0.200 A 
ATOM     91  F   UNL     1     -16.865  -0.760  -0.223  1.00  0.00    -0.200 F 
ATOM     92  F   UNL     1     -18.249  -2.635  -1.639  1.00  0.00    -0.200 F 
ENDBRANCH  59  82
ENDBRANCH  33  34
ENDBRANCH  26  28
ENDBRANCH  25  26
ENDBRANCH  24  25
ENDBRANCH   1  24
TORSDOF 14
