REMARK SMILES Cc1ccc(Nc2c(F)cccc2Cl)c(CC(=O)OCCOC(=O)c2ccc(-c3c4nc(c(-c5c(F)c(F)c(F)c(F)c5F)c5ccc([nH]5)c(-c5c(F)c(F)c(F)c(F)c5F)c5nc(c(-c6c(F)c(F)c(F)c(F)c6F)c6ccc3[nH]6)C=C5)C=C4)cc2)c1
REMARK SMILES IDX 20 1 19 2 17 3 18 4 16 5 15 6 1 7 2 8 3 9 88 10 4 11 5 12
REMARK SMILES IDX 6 13 7 15 8 16 13 17 9 18 10 19 12 20 14 21 11 22 21 23
REMARK SMILES IDX 22 24 23 25 24 26 25 27 26 28 87 29 27 30 86 31 28 32 29 33
REMARK SMILES IDX 30 34 80 35 31 36 85 37 79 38 81 39 32 40 84 41 78 42 77 43
REMARK SMILES IDX 33 45 65 46 45 47 64 48 46 49 49 50 63 51 82 52 47 53 48 54
REMARK SMILES IDX 62 56 83 57 50 58 34 59 35 60 43 61 36 62 37 63 41 64 44 65
REMARK SMILES IDX 38 66 39 67 42 68 40 69 66 70 67 71 75 72 68 73 69 74 73 75
REMARK SMILES IDX 76 76 70 77 71 78 74 79 72 80 51 81 52 82 60 83 53 84 54 85
REMARK SMILES IDX 58 86 61 87 55 88 56 89 59 90 57 91
REMARK H PARENT 6 14 81 44 49 55
REMARK Flexibility Score: inf
ROOT
ATOM      1  C   UNL     1      -2.200   0.858  -3.668  1.00  0.00     0.274 C 
ENDROOT
BRANCH   1   2
ATOM      2  O   UNL     1      -1.948   0.781  -2.274  1.00  0.00    -0.462 OA
BRANCH   2   3
ATOM      3  C   UNL     1      -1.090   1.691  -1.732  1.00  0.00     0.310 C 
ATOM      4  O   UNL     1      -0.464   2.525  -2.339  1.00  0.00    -0.252 OA
BRANCH   3   5
ATOM      5  C   UNL     1      -1.056   1.478  -0.230  1.00  0.00     0.160 C 
BRANCH   5   6
ATOM      6  C   UNL     1      -0.400   0.157   0.064  1.00  0.00    -0.013 A 
ATOM      7  C   UNL     1       3.242  -0.926   0.190  1.00  0.00     0.044 C 
ATOM      8  C   UNL     1       1.746  -0.981   0.209  1.00  0.00    -0.051 A 
ATOM      9  C   UNL     1       1.072  -2.201   0.188  1.00  0.00     0.005 A 
ATOM     10  C   UNL     1       1.002   0.192   0.172  1.00  0.00     0.009 A 
ATOM     11  C   UNL     1      -0.324  -2.245   0.118  1.00  0.00     0.026 A 
ATOM     12  C   UNL     1      -1.091  -1.077   0.039  1.00  0.00     0.042 A 
BRANCH  12  13
ATOM     13  N   UNL     1      -2.481  -1.167  -0.182  1.00  0.00    -0.352 N 
ATOM     14  H   UNL     1      -2.900  -0.362  -0.562  1.00  0.00     0.167 HD
BRANCH  13  15
ATOM     15  C   UNL     1      -3.360  -2.252   0.064  1.00  0.00     0.094 A 
ATOM     16  C   UNL     1      -3.634  -2.656   1.377  1.00  0.00     0.148 A 
ATOM     17  C   UNL     1      -4.143  -2.828  -0.952  1.00  0.00     0.067 A 
ATOM     18  F   UNL     1      -2.931  -2.142   2.398  1.00  0.00    -0.205 F 
ATOM     19  C   UNL     1      -4.631  -3.588   1.669  1.00  0.00     0.041 A 
ATOM     20  C   UNL     1      -5.192  -3.710  -0.662  1.00  0.00     0.023 A 
ATOM     21  Cl  UNL     1      -3.756  -2.631  -2.618  1.00  0.00    -0.082 Cl
ATOM     22  C   UNL     1      -5.433  -4.096   0.651  1.00  0.00     0.005 A 
ENDBRANCH  13  15
ENDBRANCH  12  13
ENDBRANCH   5   6
ENDBRANCH   3   5
ENDBRANCH   2   3
ENDBRANCH   1   2
BRANCH   1  23
ATOM     23  C   UNL     1      -3.636   0.392  -3.952  1.00  0.00     0.275 C 
BRANCH  23  24
ATOM     24  O   UNL     1      -4.581   0.289  -2.818  1.00  0.00    -0.458 OA
BRANCH  24  25
ATOM     25  C   UNL     1      -4.735   1.080  -1.718  1.00  0.00     0.338 C 
ATOM     26  O   UNL     1      -5.081   0.642  -0.630  1.00  0.00    -0.246 OA
BRANCH  25  27
ATOM     27  C   UNL     1      -4.376   2.497  -1.865  1.00  0.00     0.060 A 
ATOM     28  C   UNL     1      -3.879   3.262  -0.795  1.00  0.00     0.016 A 
ATOM     29  C   UNL     1      -4.365   2.991  -3.150  1.00  0.00     0.016 A 
ATOM     30  C   UNL     1      -3.229   4.465  -1.068  1.00  0.00     0.010 A 
ATOM     31  C   UNL     1      -3.462   3.964  -3.440  1.00  0.00     0.010 A 
ATOM     32  C   UNL     1      -2.993   4.779  -2.407  1.00  0.00    -0.014 A 
BRANCH  32  33
ATOM     33  C   UNL     1      -2.601   6.083  -2.909  1.00  0.00     0.031 A 
ATOM     34  C   UNL     1      -1.241   6.608  -2.788  1.00  0.00     0.074 A 
ATOM     35  C   UNL     1      -3.600   6.690  -3.595  1.00  0.00     0.049 A 
ATOM     36  N   UNL     1      -0.981   7.840  -2.519  1.00  0.00    -0.248 NA
ATOM     37  C   UNL     1      -0.044   5.790  -2.966  1.00  0.00     0.031 C 
ATOM     38  C   UNL     1      -3.616   7.869  -4.431  1.00  0.00     0.029 A 
ATOM     39  N   UNL     1      -4.952   6.287  -3.566  1.00  0.00    -0.354 N 
ATOM     40  C   UNL     1       0.343   8.035  -2.845  1.00  0.00     0.074 A 
ATOM     41  C   UNL     1       0.924   6.717  -2.942  1.00  0.00     0.031 C 
ATOM     42  C   UNL     1      -4.896   8.284  -4.545  1.00  0.00     0.029 A 
ATOM     43  C   UNL     1      -5.727   7.431  -3.697  1.00  0.00     0.049 A 
ATOM     44  H   UNL     1      -5.285   5.365  -3.470  1.00  0.00     0.167 HD
ATOM     45  C   UNL     1       0.754   9.266  -3.266  1.00  0.00     0.037 A 
ATOM     46  C   UNL     1      -6.471   7.798  -2.615  1.00  0.00     0.037 A 
ATOM     47  C   UNL     1      -0.396  10.155  -3.400  1.00  0.00     0.049 A 
ATOM     48  C   UNL     1      -5.928   9.069  -2.023  1.00  0.00     0.074 A 
ATOM     49  C   UNL     1      -1.175  10.465  -4.505  1.00  0.00     0.029 A 
ATOM     50  N   UNL     1      -1.148  10.503  -2.282  1.00  0.00    -0.354 N 
ATOM     51  N   UNL     1      -4.686   9.450  -2.147  1.00  0.00    -0.248 NA
ATOM     52  C   UNL     1      -6.748  10.026  -1.296  1.00  0.00     0.031 C 
ATOM     53  C   UNL     1      -2.422  10.949  -4.046  1.00  0.00     0.029 A 
ATOM     54  C   UNL     1      -2.405  10.938  -2.663  1.00  0.00     0.049 A 
ATOM     55  H   UNL     1      -0.830  10.448  -1.352  1.00  0.00     0.167 HD
ATOM     56  C   UNL     1      -4.544  10.698  -1.611  1.00  0.00     0.074 A 
ATOM     57  C   UNL     1      -5.858  11.009  -1.073  1.00  0.00     0.031 C 
ATOM     58  C   UNL     1      -3.371  11.392  -1.678  1.00  0.00     0.037 A 
BRANCH  45  59
ATOM     59  C   UNL     1       2.098   9.519  -3.904  1.00  0.00     0.064 A 
ATOM     60  C   UNL     1       2.242  10.393  -5.003  1.00  0.00     0.173 A 
ATOM     61  C   UNL     1       3.291   8.922  -3.453  1.00  0.00     0.173 A 
ATOM     62  F   UNL     1       1.204  11.073  -5.503  1.00  0.00    -0.203 F 
ATOM     63  C   UNL     1       3.465  10.599  -5.644  1.00  0.00     0.198 A 
ATOM     64  C   UNL     1       4.513   9.109  -4.114  1.00  0.00     0.198 A 
ATOM     65  F   UNL     1       3.302   8.158  -2.351  1.00  0.00    -0.203 F 
ATOM     66  F   UNL     1       3.532  11.434  -6.691  1.00  0.00    -0.200 F 
ATOM     67  C   UNL     1       4.598   9.944  -5.212  1.00  0.00     0.200 A 
ATOM     68  F   UNL     1       5.611   8.473  -3.680  1.00  0.00    -0.200 F 
ATOM     69  F   UNL     1       5.766  10.126  -5.843  1.00  0.00    -0.200 F 
ENDBRANCH  45  59
BRANCH  46  70
ATOM     70  C   UNL     1      -7.034   6.635  -1.844  1.00  0.00     0.064 A 
ATOM     71  C   UNL     1      -7.843   5.703  -2.535  1.00  0.00     0.173 A 
ATOM     72  C   UNL     1      -6.578   6.247  -0.577  1.00  0.00     0.173 A 
ATOM     73  F   UNL     1      -8.312   6.001  -3.758  1.00  0.00    -0.203 F 
ATOM     74  C   UNL     1      -8.097   4.425  -2.034  1.00  0.00     0.198 A 
ATOM     75  C   UNL     1      -6.855   4.970  -0.065  1.00  0.00     0.198 A 
ATOM     76  F   UNL     1      -5.800   7.065   0.145  1.00  0.00    -0.203 F 
ATOM     77  F   UNL     1      -8.776   3.537  -2.776  1.00  0.00    -0.200 F 
ATOM     78  C   UNL     1      -7.588   4.052  -0.805  1.00  0.00     0.200 A 
ATOM     79  F   UNL     1      -6.351   4.600   1.122  1.00  0.00    -0.200 F 
ATOM     80  F   UNL     1      -7.774   2.804  -0.352  1.00  0.00    -0.200 F 
ENDBRANCH  46  70
BRANCH  58  81
ATOM     81  C   UNL     1      -3.057  12.645  -0.913  1.00  0.00     0.064 A 
ATOM     82  C   UNL     1      -3.607  12.939   0.343  1.00  0.00     0.173 A 
ATOM     83  C   UNL     1      -2.040  13.523  -1.364  1.00  0.00     0.173 A 
ATOM     84  F   UNL     1      -4.486  12.116   0.930  1.00  0.00    -0.203 F 
ATOM     85  C   UNL     1      -3.219  14.066   1.065  1.00  0.00     0.198 A 
ATOM     86  C   UNL     1      -1.604  14.603  -0.606  1.00  0.00     0.198 A 
ATOM     87  F   UNL     1      -1.418  13.341  -2.538  1.00  0.00    -0.203 F 
ATOM     88  F   UNL     1      -3.813  14.336   2.235  1.00  0.00    -0.200 F 
ATOM     89  C   UNL     1      -2.208  14.888   0.599  1.00  0.00     0.200 A 
ATOM     90  F   UNL     1      -0.580  15.350  -1.043  1.00  0.00    -0.200 F 
ATOM     91  F   UNL     1      -1.803  15.939   1.323  1.00  0.00    -0.200 F 
ENDBRANCH  58  81
ENDBRANCH  32  33
ENDBRANCH  25  27
ENDBRANCH  24  25
ENDBRANCH  23  24
ENDBRANCH   1  23
TORSDOF 14
