REMARK SMILES Cc1csc(CSCC[C@H]([NH3+])C(=O)OCCOC(=O)c2ccc(-c3c4nc(c(-c5c(F)c(F)c(F)c(F)c5F)c5ccc([nH]5)c(-c5c(F)c(F)c(F)c(F)c5F)c5nc(c(-c6c(F)c(F)c(F)c(F)c6F)c6ccc3[nH]6)C=C5)C=C4)cc2)n1
REMARK SMILES IDX 14 1 12 2 13 3 10 4 9 5 8 6 7 7 6 8 5 9 1 10 2 11 3 12 83 13
REMARK SMILES IDX 4 14 11 15 15 19 16 20 17 21 18 22 19 23 20 24 21 25 82 26
REMARK SMILES IDX 22 27 81 28 23 29 24 30 25 31 75 32 26 33 80 34 74 35 76 36
REMARK SMILES IDX 27 37 79 38 73 39 72 40 28 42 60 43 40 44 59 45 41 46 44 47
REMARK SMILES IDX 58 48 77 49 42 50 43 51 57 53 78 54 45 55 29 56 30 57 38 58
REMARK SMILES IDX 31 59 32 60 36 61 39 62 33 63 34 64 37 65 35 66 61 67 62 68
REMARK SMILES IDX 70 69 63 70 64 71 68 72 71 73 65 74 66 75 69 76 67 77 46 78
REMARK SMILES IDX 47 79 55 80 48 81 49 82 53 83 56 84 50 85 51 86 54 87 52 88
REMARK H PARENT 11 16 11 17 11 18 76 41 44 52
REMARK Flexibility Score: inf
ROOT
ATOM      1  O   UNL     1       5.503   0.969  -2.192  1.00  0.00    -0.458 OA
ENDROOT
BRANCH   1   2
ATOM      2  C   UNL     1       4.585   0.800  -1.200  1.00  0.00     0.364 C 
ATOM      3  O   UNL     1       4.861   0.500  -0.046  1.00  0.00    -0.245 OA
BRANCH   2   4
ATOM      4  C   UNL     1       3.146   1.023  -1.701  1.00  0.00     0.292 C 
BRANCH   4   5
ATOM      5  C   UNL     1       2.224  -0.188  -1.491  1.00  0.00     0.088 C 
BRANCH   5   6
ATOM      6  C   UNL     1       2.350  -1.392  -2.430  1.00  0.00     0.077 C 
BRANCH   6   7
ATOM      7  S   UNL     1       3.304  -2.837  -1.845  1.00  0.00    -0.154 SA
BRANCH   7   8
ATOM      8  C   UNL     1       5.037  -2.398  -2.147  1.00  0.00     0.137 C 
BRANCH   8   9
ATOM      9  C   UNL     1       5.496  -2.272  -3.574  1.00  0.00     0.103 A 
ATOM     10  C   UNL     1       7.726  -3.397  -6.175  1.00  0.00     0.067 C 
ATOM     11  C   UNL     1       6.758  -2.609  -5.377  1.00  0.00     0.049 A 
ATOM     12  C   UNL     1       6.169  -1.422  -5.753  1.00  0.00     0.090 A 
ATOM     13  N   UNL     1       6.385  -3.076  -4.126  1.00  0.00    -0.246 NA
ATOM     14  S   UNL     1       5.050  -0.938  -4.570  1.00  0.00    -0.126 S 
ENDBRANCH   8   9
ENDBRANCH   7   8
ENDBRANCH   6   7
ENDBRANCH   5   6
ENDBRANCH   4   5
BRANCH   4  15
ATOM     15  N   UNL     1       3.074   1.578  -3.071  1.00  0.00    -0.346 N 
ATOM     16  H   UNL     1       3.437   0.893  -3.735  1.00  0.00     0.345 HD
ATOM     17  H   UNL     1       3.633   2.430  -3.123  1.00  0.00     0.345 HD
ATOM     18  H   UNL     1       2.104   1.794  -3.300  1.00  0.00     0.345 HD
ENDBRANCH   4  15
ENDBRANCH   2   4
ENDBRANCH   1   2
BRANCH   1  19
ATOM     19  C   UNL     1       6.905   0.791  -1.889  1.00  0.00     0.274 C 
BRANCH  19  20
ATOM     20  C   UNL     1       7.697   2.009  -2.366  1.00  0.00     0.275 C 
BRANCH  20  21
ATOM     21  O   UNL     1       7.450   3.108  -1.477  1.00  0.00    -0.458 OA
BRANCH  21  22
ATOM     22  C   UNL     1       6.289   3.763  -1.708  1.00  0.00     0.338 C 
ATOM     23  O   UNL     1       5.588   3.704  -2.708  1.00  0.00    -0.246 OA
BRANCH  22  24
ATOM     24  C   UNL     1       5.839   4.354  -0.439  1.00  0.00     0.060 A 
ATOM     25  C   UNL     1       4.489   4.196  -0.113  1.00  0.00     0.016 A 
ATOM     26  C   UNL     1       6.710   5.022   0.425  1.00  0.00     0.016 A 
ATOM     27  C   UNL     1       3.995   4.711   1.074  1.00  0.00     0.010 A 
ATOM     28  C   UNL     1       6.211   5.558   1.612  1.00  0.00     0.010 A 
ATOM     29  C   UNL     1       4.847   5.424   1.924  1.00  0.00    -0.014 A 
BRANCH  29  30
ATOM     30  C   UNL     1       4.247   6.162   3.053  1.00  0.00     0.031 A 
ATOM     31  C   UNL     1       4.012   7.635   2.895  1.00  0.00     0.074 A 
ATOM     32  C   UNL     1       3.845   5.500   4.150  1.00  0.00     0.049 A 
ATOM     33  N   UNL     1       3.481   8.486   3.732  1.00  0.00    -0.248 NA
ATOM     34  C   UNL     1       4.432   8.233   1.615  1.00  0.00     0.031 C 
ATOM     35  C   UNL     1       3.978   4.059   4.364  1.00  0.00     0.029 A 
ATOM     36  N   UNL     1       3.225   5.953   5.284  1.00  0.00    -0.354 N 
ATOM     37  C   UNL     1       3.520   9.717   3.091  1.00  0.00     0.074 A 
ATOM     38  C   UNL     1       4.147   9.512   1.805  1.00  0.00     0.031 C 
ATOM     39  C   UNL     1       3.443   3.743   5.555  1.00  0.00     0.029 A 
ATOM     40  C   UNL     1       2.967   4.963   6.200  1.00  0.00     0.049 A 
ATOM     41  H   UNL     1       2.987   6.898   5.429  1.00  0.00     0.167 HD
ATOM     42  C   UNL     1       3.066  10.909   3.542  1.00  0.00     0.037 A 
ATOM     43  C   UNL     1       2.419   5.049   7.426  1.00  0.00     0.037 A 
ATOM     44  C   UNL     1       2.428  11.087   4.819  1.00  0.00     0.049 A 
ATOM     45  C   UNL     1       1.974   6.402   7.919  1.00  0.00     0.074 A 
ATOM     46  C   UNL     1       1.911  12.244   5.373  1.00  0.00     0.029 A 
ATOM     47  N   UNL     1       2.226  10.073   5.746  1.00  0.00    -0.354 N 
ATOM     48  N   UNL     1       1.998   7.561   7.304  1.00  0.00    -0.248 NA
ATOM     49  C   UNL     1       1.420   6.456   9.277  1.00  0.00     0.031 C 
ATOM     50  C   UNL     1       1.454  11.942   6.660  1.00  0.00     0.029 A 
ATOM     51  C   UNL     1       1.620  10.584   6.882  1.00  0.00     0.049 A 
ATOM     52  H   UNL     1       2.477   9.130   5.615  1.00  0.00     0.167 HD
ATOM     53  C   UNL     1       1.434   8.474   8.186  1.00  0.00     0.074 A 
ATOM     54  C   UNL     1       1.053   7.725   9.366  1.00  0.00     0.031 C 
ATOM     55  C   UNL     1       1.250   9.811   8.041  1.00  0.00     0.037 A 
BRANCH  42  56
ATOM     56  C   UNL     1       3.284  12.114   2.673  1.00  0.00     0.064 A 
ATOM     57  C   UNL     1       2.591  12.304   1.468  1.00  0.00     0.173 A 
ATOM     58  C   UNL     1       4.187  13.112   3.072  1.00  0.00     0.173 A 
ATOM     59  F   UNL     1       1.733  11.371   1.028  1.00  0.00    -0.203 F 
ATOM     60  C   UNL     1       2.808  13.437   0.687  1.00  0.00     0.198 A 
ATOM     61  C   UNL     1       4.378  14.258   2.305  1.00  0.00     0.198 A 
ATOM     62  F   UNL     1       4.881  12.979   4.213  1.00  0.00    -0.203 F 
ATOM     63  F   UNL     1       2.169  13.575  -0.483  1.00  0.00    -0.200 F 
ATOM     64  C   UNL     1       3.693  14.417   1.111  1.00  0.00     0.200 A 
ATOM     65  F   UNL     1       5.226  15.208   2.723  1.00  0.00    -0.200 F 
ATOM     66  F   UNL     1       3.892  15.512   0.364  1.00  0.00    -0.200 F 
ENDBRANCH  42  56
BRANCH  43  67
ATOM     67  C   UNL     1       2.268   3.837   8.275  1.00  0.00     0.064 A 
ATOM     68  C   UNL     1       1.001   3.368   8.651  1.00  0.00     0.173 A 
ATOM     69  C   UNL     1       3.387   3.148   8.767  1.00  0.00     0.173 A 
ATOM     70  F   UNL     1      -0.102   4.003   8.227  1.00  0.00    -0.203 F 
ATOM     71  C   UNL     1       0.860   2.282   9.513  1.00  0.00     0.198 A 
ATOM     72  C   UNL     1       3.244   2.039   9.600  1.00  0.00     0.198 A 
ATOM     73  F   UNL     1       4.623   3.552   8.441  1.00  0.00    -0.203 F 
ATOM     74  F   UNL     1      -0.362   1.899   9.910  1.00  0.00    -0.200 F 
ATOM     75  C   UNL     1       1.981   1.616   9.983  1.00  0.00     0.200 A 
ATOM     76  F   UNL     1       4.331   1.391  10.040  1.00  0.00    -0.200 F 
ATOM     77  F   UNL     1       1.846   0.576  10.817  1.00  0.00    -0.200 F 
ENDBRANCH  43  67
BRANCH  55  78
ATOM     78  C   UNL     1       0.570  10.527   9.174  1.00  0.00     0.064 A 
ATOM     79  C   UNL     1       1.185  10.686  10.425  1.00  0.00     0.173 A 
ATOM     80  C   UNL     1      -0.719  11.056   9.004  1.00  0.00     0.173 A 
ATOM     81  F   UNL     1       2.412  10.189  10.643  1.00  0.00    -0.203 F 
ATOM     82  C   UNL     1       0.513  11.298  11.479  1.00  0.00     0.198 A 
ATOM     83  C   UNL     1      -1.370  11.705  10.048  1.00  0.00     0.198 A 
ATOM     84  F   UNL     1      -1.348  10.944   7.824  1.00  0.00    -0.203 F 
ATOM     85  F   UNL     1       1.089  11.365  12.688  1.00  0.00    -0.200 F 
ATOM     86  C   UNL     1      -0.761  11.811  11.289  1.00  0.00     0.200 A 
ATOM     87  F   UNL     1      -2.593  12.218   9.857  1.00  0.00    -0.200 F 
ATOM     88  F   UNL     1      -1.408  12.395  12.307  1.00  0.00    -0.200 F 
ENDBRANCH  55  78
ENDBRANCH  29  30
ENDBRANCH  22  24
ENDBRANCH  21  22
ENDBRANCH  20  21
ENDBRANCH  19  20
ENDBRANCH   1  19
TORSDOF 17
