REMARK SMILES O=C(OCCOC(=O)[C@H]1CN(C(=O)C[C@H]2NC(=O)c3ccccc32)C[C@@H]1c1ccc(F)cc1)c1ccc(-c2c3nc(c(-c4c(F)c(F)c(F)c(F)c4F)c4ccc([nH]4)c(-c4c(F)c(F)c(F)c(F)c4F)c4nc(c(-c5c(F)c(F)c(F)c(F)c5F)c5ccc2[nH]5)C=C4)C=C3)cc1
REMARK SMILES IDX 5 1 4 2 3 3 2 4 1 5 34 6 35 7 96 8 36 9 95 10 37 11 38 12
REMARK SMILES IDX 39 13 89 14 40 15 94 16 88 17 90 18 41 19 93 20 87 21 86 22
REMARK SMILES IDX 42 24 74 25 54 26 73 27 55 28 58 29 72 30 91 31 56 32 57 33
REMARK SMILES IDX 71 35 92 36 59 37 43 38 44 39 52 40 45 41 46 42 50 43 53 44
REMARK SMILES IDX 47 45 48 46 51 47 49 48 75 49 76 50 84 51 77 52 78 53 82 54
REMARK SMILES IDX 85 55 79 56 80 57 83 58 81 59 60 60 61 61 69 62 62 63 63 64
REMARK SMILES IDX 67 65 70 66 64 67 65 68 68 69 66 70 6 71 7 72 8 73 9 74
REMARK SMILES IDX 10 75 26 76 11 77 25 78 27 79 28 80 33 81 29 82 32 83 30 84
REMARK SMILES IDX 31 85 12 86 13 87 14 88 15 89 16 90 24 91 17 92 19 94 23 95
REMARK SMILES IDX 18 96 20 97 22 98 21 99
REMARK H PARENT 90 23 58 34 16 93
REMARK Flexibility Score: inf
ROOT
ATOM      1  C   UNL     1       9.626 -11.012  -0.034  1.00  0.00     0.274 C 
ENDROOT
BRANCH   1   2
ATOM      2  C   UNL     1      10.209 -10.720   1.351  1.00  0.00     0.275 C 
BRANCH   2   3
ATOM      3  O   UNL     1       9.231 -10.397   2.340  1.00  0.00    -0.458 OA
BRANCH   3   4
ATOM      4  C   UNL     1       8.638  -9.217   2.608  1.00  0.00     0.338 C 
ATOM      5  O   UNL     1       7.776  -9.206   3.489  1.00  0.00    -0.246 OA
BRANCH   4   6
ATOM      6  C   UNL     1       8.864  -7.935   1.849  1.00  0.00     0.060 A 
ATOM      7  C   UNL     1       9.838  -7.613   0.898  1.00  0.00     0.016 A 
ATOM      8  C   UNL     1       7.919  -6.945   2.114  1.00  0.00     0.016 A 
ATOM      9  C   UNL     1       9.794  -6.401   0.162  1.00  0.00     0.010 A 
ATOM     10  C   UNL     1       7.843  -5.790   1.334  1.00  0.00     0.010 A 
ATOM     11  C   UNL     1       8.731  -5.504   0.293  1.00  0.00    -0.014 A 
BRANCH  11  12
ATOM     12  C   UNL     1       8.441  -4.355  -0.651  1.00  0.00     0.031 A 
ATOM     13  C   UNL     1       7.856  -3.045  -0.127  1.00  0.00     0.074 A 
ATOM     14  C   UNL     1       8.454  -4.521  -1.998  1.00  0.00     0.049 A 
ATOM     15  N   UNL     1       7.298  -2.050  -0.779  1.00  0.00    -0.248 NA
ATOM     16  C   UNL     1       7.829  -2.861   1.334  1.00  0.00     0.031 C 
ATOM     17  C   UNL     1       8.831  -5.733  -2.731  1.00  0.00     0.029 A 
ATOM     18  N   UNL     1       8.065  -3.659  -3.007  1.00  0.00    -0.354 N 
ATOM     19  C   UNL     1       6.776  -1.204   0.194  1.00  0.00     0.074 A 
ATOM     20  C   UNL     1       6.968  -1.864   1.465  1.00  0.00     0.031 C 
ATOM     21  C   UNL     1       8.607  -5.561  -4.043  1.00  0.00     0.029 A 
ATOM     22  C   UNL     1       8.095  -4.216  -4.265  1.00  0.00     0.049 A 
ATOM     23  H   UNL     1       7.791  -2.729  -2.840  1.00  0.00     0.167 HD
ATOM     24  C   UNL     1       6.288   0.057   0.077  1.00  0.00     0.037 A 
ATOM     25  C   UNL     1       7.773  -3.712  -5.473  1.00  0.00     0.037 A 
ATOM     26  C   UNL     1       6.271   0.800  -1.152  1.00  0.00     0.049 A 
ATOM     27  C   UNL     1       7.398  -2.264  -5.604  1.00  0.00     0.074 A 
ATOM     28  C   UNL     1       6.061   2.156  -1.339  1.00  0.00     0.029 A 
ATOM     29  N   UNL     1       6.501   0.252  -2.401  1.00  0.00    -0.354 N 
ATOM     30  N   UNL     1       7.126  -1.396  -4.665  1.00  0.00    -0.248 NA
ATOM     31  C   UNL     1       7.368  -1.705  -6.965  1.00  0.00     0.031 C 
ATOM     32  C   UNL     1       6.179   2.432  -2.704  1.00  0.00     0.029 A 
ATOM     33  C   UNL     1       6.480   1.250  -3.360  1.00  0.00     0.049 A 
ATOM     34  H   UNL     1       6.656  -0.703  -2.580  1.00  0.00     0.167 HD
ATOM     35  C   UNL     1       6.969  -0.177  -5.310  1.00  0.00     0.074 A 
ATOM     36  C   UNL     1       7.151  -0.419  -6.724  1.00  0.00     0.031 C 
ATOM     37  C   UNL     1       6.723   1.034  -4.760  1.00  0.00     0.037 A 
BRANCH  24  38
ATOM     38  C   UNL     1       5.886   0.780   1.335  1.00  0.00     0.064 A 
ATOM     39  C   UNL     1       4.569   1.221   1.535  1.00  0.00     0.173 A 
ATOM     40  C   UNL     1       6.836   1.100   2.321  1.00  0.00     0.173 A 
ATOM     41  F   UNL     1       3.624   0.978   0.615  1.00  0.00    -0.203 F 
ATOM     42  C   UNL     1       4.219   1.935   2.680  1.00  0.00     0.198 A 
ATOM     43  C   UNL     1       6.473   1.772   3.482  1.00  0.00     0.198 A 
ATOM     44  F   UNL     1       8.115   0.721   2.176  1.00  0.00    -0.203 F 
ATOM     45  F   UNL     1       2.962   2.373   2.839  1.00  0.00    -0.200 F 
ATOM     46  C   UNL     1       5.167   2.197   3.658  1.00  0.00     0.200 A 
ATOM     47  F   UNL     1       7.388   1.995   4.436  1.00  0.00    -0.200 F 
ATOM     48  F   UNL     1       4.823   2.857   4.772  1.00  0.00    -0.200 F 
ENDBRANCH  24  38
BRANCH  25  49
ATOM     49  C   UNL     1       7.940  -4.543  -6.692  1.00  0.00     0.064 A 
ATOM     50  C   UNL     1       6.953  -5.442  -7.112  1.00  0.00     0.173 A 
ATOM     51  C   UNL     1       9.103  -4.432  -7.468  1.00  0.00     0.173 A 
ATOM     52  F   UNL     1       5.830  -5.593  -6.396  1.00  0.00    -0.203 F 
ATOM     53  C   UNL     1       7.118  -6.193  -8.275  1.00  0.00     0.198 A 
ATOM     54  C   UNL     1       9.260  -5.172  -8.637  1.00  0.00     0.198 A 
ATOM     55  F   UNL     1      10.068  -3.574  -7.107  1.00  0.00    -0.203 F 
ATOM     56  F   UNL     1       6.165  -7.055  -8.656  1.00  0.00    -0.200 F 
ATOM     57  C   UNL     1       8.268  -6.052  -9.040  1.00  0.00     0.200 A 
ATOM     58  F   UNL     1      10.367  -5.022  -9.378  1.00  0.00    -0.200 F 
ATOM     59  F   UNL     1       8.419  -6.763 -10.166  1.00  0.00    -0.200 F 
ENDBRANCH  25  49
BRANCH  37  60
ATOM     60  C   UNL     1       6.751   2.234  -5.655  1.00  0.00     0.064 A 
ATOM     61  C   UNL     1       7.811   3.151  -5.556  1.00  0.00     0.173 A 
ATOM     62  C   UNL     1       5.713   2.521  -6.550  1.00  0.00     0.173 A 
ATOM     63  F   UNL     1       8.829   2.921  -4.713  1.00  0.00    -0.203 F 
ATOM     64  C   UNL     1       7.819   4.320  -6.310  1.00  0.00     0.198 A 
ATOM     65  C   UNL     1       5.737   3.680  -7.321  1.00  0.00     0.198 A 
ATOM     66  F   UNL     1       4.690   1.666  -6.693  1.00  0.00    -0.203 F 
ATOM     67  F   UNL     1       8.825   5.195  -6.177  1.00  0.00    -0.200 F 
ATOM     68  C   UNL     1       6.784   4.582  -7.193  1.00  0.00     0.200 A 
ATOM     69  F   UNL     1       4.749   3.922  -8.194  1.00  0.00    -0.200 F 
ATOM     70  F   UNL     1       6.795   5.705  -7.925  1.00  0.00    -0.200 F 
ENDBRANCH  37  60
ENDBRANCH  11  12
ENDBRANCH   4   6
ENDBRANCH   3   4
ENDBRANCH   2   3
ENDBRANCH   1   2
BRANCH   1  71
ATOM     71  O   UNL     1       8.492 -10.202  -0.414  1.00  0.00    -0.462 OA
BRANCH  71  72
ATOM     72  C   UNL     1       7.284 -10.790  -0.196  1.00  0.00     0.311 C 
ATOM     73  O   UNL     1       7.135 -11.825   0.446  1.00  0.00    -0.252 OA
BRANCH  72  74
ATOM     74  C   UNL     1       6.097 -10.078  -0.815  1.00  0.00     0.128 C 
ATOM     75  C   UNL     1       5.441  -9.133   0.195  1.00  0.00     0.135 C 
ATOM     76  C   UNL     1       6.368  -9.242  -2.083  1.00  0.00     0.055 C 
ATOM     77  N   UNL     1       5.600  -7.794  -0.342  1.00  0.00    -0.341 N 
ATOM     78  C   UNL     1       6.398  -7.809  -1.551  1.00  0.00     0.128 C 
BRANCH  76  79
ATOM     79  C   UNL     1       5.367  -9.342  -3.234  1.00  0.00    -0.042 A 
ATOM     80  C   UNL     1       5.718  -8.765  -4.474  1.00  0.00     0.007 A 
ATOM     81  C   UNL     1       4.103  -9.938  -3.121  1.00  0.00     0.007 A 
ATOM     82  C   UNL     1       4.837  -8.787  -5.557  1.00  0.00     0.039 A 
ATOM     83  C   UNL     1       3.228  -9.974  -4.211  1.00  0.00     0.039 A 
ATOM     84  C   UNL     1       3.600  -9.395  -5.416  1.00  0.00     0.123 A 
ATOM     85  F   UNL     1       2.749  -9.419  -6.450  1.00  0.00    -0.207 F 
ENDBRANCH  76  79
BRANCH  77  86
ATOM     86  C   UNL     1       5.165  -6.588   0.162  1.00  0.00     0.225 C 
ATOM     87  O   UNL     1       5.402  -5.538  -0.441  1.00  0.00    -0.275 OA
BRANCH  86  88
ATOM     88  C   UNL     1       4.473  -6.529   1.523  1.00  0.00     0.130 C 
BRANCH  88  89
ATOM     89  C   UNL     1       3.074  -5.911   1.457  1.00  0.00     0.123 C 
ATOM     90  N   UNL     1       3.013  -4.618   0.809  1.00  0.00    -0.345 N 
ATOM     91  C   UNL     1       2.223  -6.756   0.566  1.00  0.00    -0.012 A 
ATOM     92  C   UNL     1       2.406  -4.670  -0.434  1.00  0.00     0.252 C 
ATOM     93  H   UNL     1       3.366  -3.791   1.209  1.00  0.00     0.164 HD
ATOM     94  C   UNL     1       1.943  -6.056  -0.608  1.00  0.00     0.045 A 
ATOM     95  C   UNL     1       1.883  -8.089   0.706  1.00  0.00     0.007 A 
ATOM     96  O   UNL     1       2.256  -3.762  -1.216  1.00  0.00    -0.269 OA
ATOM     97  C   UNL     1       1.407  -6.674  -1.714  1.00  0.00     0.014 A 
ATOM     98  C   UNL     1       1.330  -8.733  -0.399  1.00  0.00     0.000 A 
ATOM     99  C   UNL     1       1.114  -8.037  -1.605  1.00  0.00     0.001 A 
ENDBRANCH  88  89
ENDBRANCH  86  88
ENDBRANCH  77  86
ENDBRANCH  72  74
ENDBRANCH  71  72
ENDBRANCH   1  71
TORSDOF 15
