REMARK SMILES CCOc1ccc(C[N@H+]2CC[NH2+][C@H](C(=O)OCCOC(=O)c3ccc(-c4c5nc(c(-c6c(F)c(F)c(F)c(F)c6F)c6ccc([nH]6)c(-c6c(F)c(F)c(F)c(F)c6F)c6nc(c(-c7c(F)c(F)c(F)c(F)c7F)c7ccc4[nH]7)C=C6)C=C5)cc3)C2)c(OCC)c1C
REMARK SMILES IDX 17 1 16 2 14 3 15 4 13 5 9 6 10 7 85 8 11 10 12 11 8 14 7 15
REMARK SMILES IDX 4 16 5 17 90 18 6 19 86 20 91 21 3 22 2 23 1 24 87 25 88 26
REMARK SMILES IDX 89 27 18 28 19 29 20 30 21 31 22 32 23 33 84 34 24 35 83 36
REMARK SMILES IDX 25 37 26 38 27 39 77 40 28 41 82 42 76 43 78 44 29 45 81 46
REMARK SMILES IDX 75 47 74 48 30 50 62 51 42 52 61 53 43 54 46 55 60 56 79 57
REMARK SMILES IDX 44 58 45 59 59 61 80 62 47 63 31 64 32 65 40 66 33 67 34 68
REMARK SMILES IDX 38 69 41 70 35 71 36 72 39 73 37 74 63 75 64 76 72 77 65 78
REMARK SMILES IDX 66 79 70 80 73 81 67 82 68 83 71 84 69 85 48 86 49 87 57 88
REMARK SMILES IDX 50 89 51 90 55 91 58 92 52 93 53 94 56 95 54 96
REMARK H PARENT 9 9 12 12 12 13 78 49 46 60
REMARK Flexibility Score: inf
ROOT
ATOM      1  C   UNL     1       1.376  -6.776   0.709  1.00  0.00     0.274 C 
ENDROOT
BRANCH   1   2
ATOM      2  O   UNL     1       2.348  -5.726   0.817  1.00  0.00    -0.457 OA
BRANCH   2   3
ATOM      3  C   UNL     1       2.916  -5.682   2.068  1.00  0.00     0.371 C 
ATOM      4  O   UNL     1       2.639  -6.479   2.962  1.00  0.00    -0.245 OA
BRANCH   3   5
ATOM      5  C   UNL     1       3.907  -4.521   2.248  1.00  0.00     0.348 C 
ATOM      6  N   UNL     1       6.367  -3.828   1.887  1.00  0.00    -0.321 N 
ATOM      7  C   UNL     1       6.342  -3.329   3.272  1.00  0.00     0.324 C 
ATOM      8  C   UNL     1       5.312  -4.851   1.675  1.00  0.00     0.341 C 
ATOM      9  H   UNL     1       7.241  -4.333   1.743  1.00  0.00     0.348 HD
ATOM     10  C   UNL     1       4.947  -3.083   3.890  1.00  0.00     0.323 C 
ATOM     11  N   UNL     1       4.000  -4.187   3.702  1.00  0.00    -0.325 N 
ATOM     12  H   UNL     1       3.082  -3.909   4.048  1.00  0.00     0.347 HD
ATOM     13  H   UNL     1       4.324  -5.005   4.219  1.00  0.00     0.347 HD
BRANCH   6  14
ATOM     14  C   UNL     1       6.519  -2.775   0.856  1.00  0.00     0.303 C 
BRANCH  14  15
ATOM     15  C   UNL     1       5.242  -2.296   0.205  1.00  0.00     0.049 A 
ATOM     16  C   UNL     1       2.506  -1.808  -0.153  1.00  0.00     0.125 A 
ATOM     17  C   UNL     1       3.220  -1.034   0.747  1.00  0.00     0.047 A 
ATOM     18  C   UNL     1       3.163  -2.736  -0.972  1.00  0.00     0.034 A 
ATOM     19  C   UNL     1       4.581  -1.260   0.906  1.00  0.00     0.017 A 
ATOM     20  C   UNL     1       4.566  -2.945  -0.844  1.00  0.00     0.134 A 
ATOM     21  C   UNL     1       2.377  -3.615  -1.907  1.00  0.00     0.052 C 
BRANCH  16  22
ATOM     22  O   UNL     1       1.140  -1.800  -0.037  1.00  0.00    -0.493 OA
BRANCH  22  23
ATOM     23  C   UNL     1       0.509  -0.908  -0.956  1.00  0.00     0.226 C 
ATOM     24  C   UNL     1       0.486   0.507  -0.408  1.00  0.00     0.049 C 
ENDBRANCH  22  23
ENDBRANCH  16  22
BRANCH  20  25
ATOM     25  O   UNL     1       5.024  -3.876  -1.732  1.00  0.00    -0.493 OA
BRANCH  25  26
ATOM     26  C   UNL     1       6.360  -4.320  -1.904  1.00  0.00     0.226 C 
ATOM     27  C   UNL     1       7.192  -3.406  -2.776  1.00  0.00     0.049 C 
ENDBRANCH  25  26
ENDBRANCH  20  25
ENDBRANCH  14  15
ENDBRANCH   6  14
ENDBRANCH   3   5
ENDBRANCH   2   3
ENDBRANCH   1   2
BRANCH   1  28
ATOM     28  C   UNL     1       0.621  -6.864  -0.629  1.00  0.00     0.275 C 
BRANCH  28  29
ATOM     29  O   UNL     1       1.277  -6.601  -1.895  1.00  0.00    -0.458 OA
BRANCH  29  30
ATOM     30  C   UNL     1       2.413  -7.126  -2.418  1.00  0.00     0.338 C 
ATOM     31  O   UNL     1       2.809  -6.906  -3.535  1.00  0.00    -0.246 OA
BRANCH  30  32
ATOM     32  C   UNL     1       3.217  -7.914  -1.492  1.00  0.00     0.060 A 
ATOM     33  C   UNL     1       4.417  -7.361  -1.027  1.00  0.00     0.016 A 
ATOM     34  C   UNL     1       2.741  -9.139  -1.053  1.00  0.00     0.016 A 
ATOM     35  C   UNL     1       5.147  -8.016  -0.049  1.00  0.00     0.010 A 
ATOM     36  C   UNL     1       3.431  -9.762  -0.039  1.00  0.00     0.010 A 
ATOM     37  C   UNL     1       4.635  -9.208   0.447  1.00  0.00    -0.014 A 
BRANCH  37  38
ATOM     38  C   UNL     1       5.392 -10.087   1.317  1.00  0.00     0.031 A 
ATOM     39  C   UNL     1       5.420  -9.956   2.783  1.00  0.00     0.074 A 
ATOM     40  C   UNL     1       5.873 -11.152   0.650  1.00  0.00     0.049 A 
ATOM     41  N   UNL     1       6.220 -10.604   3.558  1.00  0.00    -0.248 NA
ATOM     42  C   UNL     1       4.564  -9.032   3.512  1.00  0.00     0.031 C 
ATOM     43  C   UNL     1       6.248 -12.460   1.147  1.00  0.00     0.029 A 
ATOM     44  N   UNL     1       6.234 -11.165  -0.708  1.00  0.00    -0.354 N 
ATOM     45  C   UNL     1       5.771 -10.434   4.854  1.00  0.00     0.074 A 
ATOM     46  C   UNL     1       4.817  -9.356   4.785  1.00  0.00     0.031 C 
ATOM     47  C   UNL     1       7.012 -13.060   0.217  1.00  0.00     0.029 A 
ATOM     48  C   UNL     1       7.311 -12.056  -0.798  1.00  0.00     0.049 A 
ATOM     49  H   UNL     1       5.818 -10.656  -1.441  1.00  0.00     0.167 HD
ATOM     50  C   UNL     1       6.117 -11.358   5.797  1.00  0.00     0.037 A 
ATOM     51  C   UNL     1       8.561 -11.563  -1.045  1.00  0.00     0.037 A 
ATOM     52  C   UNL     1       7.041 -12.330   5.227  1.00  0.00     0.049 A 
ATOM     53  C   UNL     1       9.517 -11.869   0.077  1.00  0.00     0.074 A 
ATOM     54  C   UNL     1       6.816 -13.554   4.617  1.00  0.00     0.029 A 
ATOM     55  N   UNL     1       8.319 -11.929   4.856  1.00  0.00    -0.354 N 
ATOM     56  N   UNL     1       9.182 -11.910   1.338  1.00  0.00    -0.248 NA
ATOM     57  C   UNL     1      10.912 -12.216  -0.158  1.00  0.00     0.031 C 
ATOM     58  C   UNL     1       7.934 -13.848   3.803  1.00  0.00     0.029 A 
ATOM     59  C   UNL     1       8.849 -12.818   3.941  1.00  0.00     0.049 A 
ATOM     60  H   UNL     1       8.780 -11.127   5.196  1.00  0.00     0.167 HD
ATOM     61  C   UNL     1      10.253 -12.365   2.063  1.00  0.00     0.074 A 
ATOM     62  C   UNL     1      11.318 -12.514   1.088  1.00  0.00     0.031 C 
ATOM     63  C   UNL     1      10.182 -12.636   3.400  1.00  0.00     0.037 A 
BRANCH  50  64
ATOM     64  C   UNL     1       5.333 -11.586   7.072  1.00  0.00     0.064 A 
ATOM     65  C   UNL     1       5.120 -12.896   7.560  1.00  0.00     0.173 A 
ATOM     66  C   UNL     1       4.710 -10.570   7.819  1.00  0.00     0.173 A 
ATOM     67  F   UNL     1       5.726 -13.957   7.014  1.00  0.00    -0.203 F 
ATOM     68  C   UNL     1       4.262 -13.175   8.626  1.00  0.00     0.198 A 
ATOM     69  C   UNL     1       3.823 -10.851   8.867  1.00  0.00     0.198 A 
ATOM     70  F   UNL     1       4.971  -9.279   7.577  1.00  0.00    -0.203 F 
ATOM     71  F   UNL     1       4.083 -14.444   9.021  1.00  0.00    -0.200 F 
ATOM     72  C   UNL     1       3.587 -12.155   9.260  1.00  0.00     0.200 A 
ATOM     73  F   UNL     1       3.191  -9.848   9.494  1.00  0.00    -0.200 F 
ATOM     74  F   UNL     1       2.731 -12.425  10.255  1.00  0.00    -0.200 F 
ENDBRANCH  50  64
BRANCH  51  75
ATOM     75  C   UNL     1       8.577 -10.311  -1.859  1.00  0.00     0.064 A 
ATOM     76  C   UNL     1       8.040 -10.343  -3.163  1.00  0.00     0.173 A 
ATOM     77  C   UNL     1       8.814  -9.049  -1.298  1.00  0.00     0.173 A 
ATOM     78  F   UNL     1       7.780 -11.522  -3.751  1.00  0.00    -0.203 F 
ATOM     79  C   UNL     1       7.686  -9.176  -3.839  1.00  0.00     0.198 A 
ATOM     80  C   UNL     1       8.464  -7.880  -1.982  1.00  0.00     0.198 A 
ATOM     81  F   UNL     1       9.314  -8.937  -0.060  1.00  0.00    -0.203 F 
ATOM     82  F   UNL     1       7.107  -9.249  -5.046  1.00  0.00    -0.200 F 
ATOM     83  C   UNL     1       7.885  -7.945  -3.241  1.00  0.00     0.200 A 
ATOM     84  F   UNL     1       8.634  -6.684  -1.397  1.00  0.00    -0.200 F 
ATOM     85  F   UNL     1       7.505  -6.822  -3.868  1.00  0.00    -0.200 F 
ENDBRANCH  51  75
BRANCH  63  86
ATOM     86  C   UNL     1      11.355 -12.898   4.306  1.00  0.00     0.064 A 
ATOM     87  C   UNL     1      12.628 -12.347   4.096  1.00  0.00     0.173 A 
ATOM     88  C   UNL     1      11.180 -13.593   5.528  1.00  0.00     0.173 A 
ATOM     89  F   UNL     1      12.884 -11.565   3.038  1.00  0.00    -0.203 F 
ATOM     90  C   UNL     1      13.668 -12.534   5.008  1.00  0.00     0.198 A 
ATOM     91  C   UNL     1      12.202 -13.722   6.464  1.00  0.00     0.198 A 
ATOM     92  F   UNL     1      10.004 -14.142   5.867  1.00  0.00    -0.203 F 
ATOM     93  F   UNL     1      14.880 -12.027   4.740  1.00  0.00    -0.200 F 
ATOM     94  C   UNL     1      13.452 -13.208   6.195  1.00  0.00     0.200 A 
ATOM     95  F   UNL     1      11.959 -14.326   7.635  1.00  0.00    -0.200 F 
ATOM     96  F   UNL     1      14.441 -13.340   7.089  1.00  0.00    -0.200 F 
ENDBRANCH  63  86
ENDBRANCH  37  38
ENDBRANCH  30  32
ENDBRANCH  29  30
ENDBRANCH  28  29
ENDBRANCH   1  28
TORSDOF 17
