REMARK SMILES CCCOC(=O)c1c(NC(=O)[C@@H]2CC=CC[C@H]2C(=O)OCCOC(=O)c2ccc(-c3c4nc(c(-c5c(F)c(F)c(F)c(F)c5F)c5ccc([nH]5)c(-c5c(F)c(F)c(F)c(F)c5F)c5nc(c(-c6c(F)c(F)c(F)c(F)c6F)c6ccc3[nH]6)C=C5)C=C4)cc2)sc2c1CCCC2
REMARK SMILES IDX 18 1 19 2 17 3 12 4 13 5 14 6 16 7 15 8 10 9 9 10 11 12 8 13
REMARK SMILES IDX 7 14 91 15 89 16 90 17 92 18 95 19 93 20 94 21 5 22 6 23
REMARK SMILES IDX 4 24 3 25 2 26 1 27 20 28 21 29 22 30 23 31 24 32 25 33
REMARK SMILES IDX 26 34 27 35 88 36 28 37 87 38 29 39 30 40 31 41 81 42 32 43
REMARK SMILES IDX 86 44 80 45 82 46 33 47 85 48 79 49 78 50 34 52 66 53 46 54
REMARK SMILES IDX 65 55 47 56 50 57 64 58 83 59 48 60 49 61 63 63 84 64 51 65
REMARK SMILES IDX 35 66 36 67 44 68 37 69 38 70 42 71 45 72 39 73 40 74 43 75
REMARK SMILES IDX 41 76 67 77 68 78 76 79 69 80 70 81 74 82 77 83 71 84 72 85
REMARK SMILES IDX 75 86 73 87 52 88 53 89 61 90 54 91 55 92 59 93 62 94 56 95
REMARK SMILES IDX 57 96 60 97 58 98
REMARK H PARENT 9 11 82 51 50 62
REMARK Flexibility Score: inf
ROOT
ATOM      1  C   UNL     1       2.676   1.075  -1.319  1.00  0.00     0.310 C 
ATOM      2  O   UNL     1       3.886   0.870  -1.384  1.00  0.00    -0.252 OA
ENDROOT
BRANCH   1   3
ATOM      3  C   UNL     1       1.857   0.653  -0.103  1.00  0.00     0.116 C 
ATOM      4  C   UNL     1       0.342   0.701  -0.294  1.00  0.00     0.097 C 
ATOM      5  C   UNL     1      -0.380   0.264   0.991  1.00  0.00     0.041 C 
ATOM      6  C   UNL     1       0.087  -1.093   1.423  1.00  0.00    -0.030 C 
ATOM      7  C   UNL     1       2.275  -0.800   0.241  1.00  0.00     0.043 C 
ATOM      8  C   UNL     1       1.283  -1.578   1.063  1.00  0.00    -0.030 C 
BRANCH   4   9
ATOM      9  C   UNL     1      -0.222   2.036  -0.756  1.00  0.00     0.229 C 
ATOM     10  N   UNL     1      -1.366   2.054  -1.522  1.00  0.00    -0.317 N 
ATOM     11  H   UNL     1      -1.680   2.930  -1.844  1.00  0.00     0.170 HD
ATOM     12  O   UNL     1       0.262   3.097  -0.354  1.00  0.00    -0.274 OA
BRANCH  10  13
ATOM     13  C   UNL     1      -2.107   0.946  -1.875  1.00  0.00     0.110 A 
ATOM     14  C   UNL     1      -1.823  -0.317  -2.377  1.00  0.00     0.098 A 
ATOM     15  C   UNL     1      -2.892  -1.219  -1.996  1.00  0.00    -0.017 A 
ATOM     16  S   UNL     1      -3.753   1.143  -1.479  1.00  0.00    -0.122 S 
ATOM     17  C   UNL     1      -3.981  -0.540  -1.478  1.00  0.00     0.011 A 
ATOM     18  C   UNL     1      -2.886  -2.719  -2.093  1.00  0.00     0.038 C 
ATOM     19  C   UNL     1      -5.257  -1.163  -1.004  1.00  0.00     0.047 C 
ATOM     20  C   UNL     1      -4.296  -3.311  -1.967  1.00  0.00     0.005 C 
ATOM     21  C   UNL     1      -5.079  -2.676  -0.810  1.00  0.00     0.006 C 
BRANCH  14  22
ATOM     22  C   UNL     1      -0.600  -0.681  -3.123  1.00  0.00     0.341 C 
ATOM     23  O   UNL     1      -0.104   0.031  -3.969  1.00  0.00    -0.246 OA
BRANCH  22  24
ATOM     24  O   UNL     1      -0.118  -1.895  -2.730  1.00  0.00    -0.462 OA
BRANCH  24  25
ATOM     25  C   UNL     1       0.814  -2.702  -3.486  1.00  0.00     0.233 C 
BRANCH  25  26
ATOM     26  C   UNL     1       1.897  -2.074  -4.363  1.00  0.00     0.038 C 
ATOM     27  C   UNL     1       3.092  -1.576  -3.576  1.00  0.00     0.007 C 
ENDBRANCH  25  26
ENDBRANCH  24  25
ENDBRANCH  22  24
ENDBRANCH  14  22
ENDBRANCH  10  13
ENDBRANCH   4   9
ENDBRANCH   1   3
BRANCH   1  28
ATOM     28  O   UNL     1       1.954   1.696  -2.284  1.00  0.00    -0.462 OA
BRANCH  28  29
ATOM     29  C   UNL     1       2.668   2.175  -3.446  1.00  0.00     0.274 C 
BRANCH  29  30
ATOM     30  C   UNL     1       2.879   3.688  -3.373  1.00  0.00     0.275 C 
BRANCH  30  31
ATOM     31  O   UNL     1       3.557   3.989  -2.146  1.00  0.00    -0.458 OA
BRANCH  31  32
ATOM     32  C   UNL     1       3.120   5.073  -1.461  1.00  0.00     0.338 C 
ATOM     33  O   UNL     1       2.432   5.983  -1.889  1.00  0.00    -0.246 OA
BRANCH  32  34
ATOM     34  C   UNL     1       3.579   4.964  -0.054  1.00  0.00     0.060 A 
ATOM     35  C   UNL     1       3.799   3.709   0.513  1.00  0.00     0.016 A 
ATOM     36  C   UNL     1       3.701   6.096   0.746  1.00  0.00     0.016 A 
ATOM     37  C   UNL     1       4.026   3.554   1.871  1.00  0.00     0.010 A 
ATOM     38  C   UNL     1       4.053   5.953   2.095  1.00  0.00     0.010 A 
ATOM     39  C   UNL     1       4.184   4.677   2.678  1.00  0.00    -0.014 A 
BRANCH  39  40
ATOM     40  C   UNL     1       4.413   4.520   4.137  1.00  0.00     0.031 A 
ATOM     41  C   UNL     1       3.456   5.167   5.095  1.00  0.00     0.074 A 
ATOM     42  C   UNL     1       5.446   3.793   4.608  1.00  0.00     0.049 A 
ATOM     43  N   UNL     1       3.602   5.426   6.368  1.00  0.00    -0.248 NA
ATOM     44  C   UNL     1       2.166   5.603   4.535  1.00  0.00     0.031 C 
ATOM     45  C   UNL     1       6.393   3.026   3.796  1.00  0.00     0.029 A 
ATOM     46  N   UNL     1       5.873   3.582   5.896  1.00  0.00    -0.354 N 
ATOM     47  C   UNL     1       2.466   6.134   6.738  1.00  0.00     0.074 A 
ATOM     48  C   UNL     1       1.631   6.248   5.561  1.00  0.00     0.031 C 
ATOM     49  C   UNL     1       7.268   2.407   4.602  1.00  0.00     0.029 A 
ATOM     50  C   UNL     1       7.016   2.823   5.976  1.00  0.00     0.049 A 
ATOM     51  H   UNL     1       5.407   3.939   6.686  1.00  0.00     0.167 HD
ATOM     52  C   UNL     1       2.165   6.653   7.951  1.00  0.00     0.037 A 
ATOM     53  C   UNL     1       7.810   2.549   7.028  1.00  0.00     0.037 A 
ATOM     54  C   UNL     1       2.978   6.463   9.124  1.00  0.00     0.049 A 
ATOM     55  C   UNL     1       7.471   3.155   8.361  1.00  0.00     0.074 A 
ATOM     56  C   UNL     1       2.780   6.946  10.405  1.00  0.00     0.029 A 
ATOM     57  N   UNL     1       4.138   5.701   9.157  1.00  0.00    -0.354 N 
ATOM     58  N   UNL     1       6.459   3.921   8.688  1.00  0.00    -0.248 NA
ATOM     59  C   UNL     1       8.400   2.881   9.465  1.00  0.00     0.031 C 
ATOM     60  C   UNL     1       3.835   6.497  11.207  1.00  0.00     0.029 A 
ATOM     61  C   UNL     1       4.668   5.700  10.436  1.00  0.00     0.049 A 
ATOM     62  H   UNL     1       4.528   5.231   8.384  1.00  0.00     0.167 HD
ATOM     63  C   UNL     1       6.621   4.214  10.034  1.00  0.00     0.074 A 
ATOM     64  C   UNL     1       7.819   3.523  10.469  1.00  0.00     0.031 C 
ATOM     65  C   UNL     1       5.856   4.992  10.838  1.00  0.00     0.037 A 
BRANCH  52  66
ATOM     66  C   UNL     1       0.940   7.513   8.053  1.00  0.00     0.064 A 
ATOM     67  C   UNL     1      -0.356   6.983   7.985  1.00  0.00     0.173 A 
ATOM     68  C   UNL     1       1.073   8.901   8.224  1.00  0.00     0.173 A 
ATOM     69  F   UNL     1      -0.538   5.667   7.803  1.00  0.00    -0.203 F 
ATOM     70  C   UNL     1      -1.473   7.812   8.057  1.00  0.00     0.198 A 
ATOM     71  C   UNL     1      -0.046   9.723   8.325  1.00  0.00     0.198 A 
ATOM     72  F   UNL     1       2.290   9.461   8.296  1.00  0.00    -0.203 F 
ATOM     73  F   UNL     1      -2.702   7.290   7.938  1.00  0.00    -0.200 F 
ATOM     74  C   UNL     1      -1.318   9.180   8.232  1.00  0.00     0.200 A 
ATOM     75  F   UNL     1       0.107  11.042   8.505  1.00  0.00    -0.200 F 
ATOM     76  F   UNL     1      -2.395   9.975   8.304  1.00  0.00    -0.200 F 
ENDBRANCH  52  66
BRANCH  53  77
ATOM     77  C   UNL     1       9.030   1.718   6.845  1.00  0.00     0.064 A 
ATOM     78  C   UNL     1       9.129   0.447   7.426  1.00  0.00     0.173 A 
ATOM     79  C   UNL     1      10.117   2.171   6.081  1.00  0.00     0.173 A 
ATOM     80  F   UNL     1       8.130  -0.021   8.188  1.00  0.00    -0.203 F 
ATOM     81  C   UNL     1      10.271  -0.335   7.257  1.00  0.00     0.198 A 
ATOM     82  C   UNL     1      11.244   1.376   5.886  1.00  0.00     0.198 A 
ATOM     83  F   UNL     1      10.076   3.382   5.506  1.00  0.00    -0.203 F 
ATOM     84  F   UNL     1      10.356  -1.530   7.857  1.00  0.00    -0.200 F 
ATOM     85  C   UNL     1      11.323   0.126   6.479  1.00  0.00     0.200 A 
ATOM     86  F   UNL     1      12.251   1.820   5.122  1.00  0.00    -0.200 F 
ATOM     87  F   UNL     1      12.415  -0.631   6.308  1.00  0.00    -0.200 F 
ENDBRANCH  53  77
BRANCH  65  88
ATOM     88  C   UNL     1       6.272   5.095  12.274  1.00  0.00     0.064 A 
ATOM     89  C   UNL     1       7.380   5.861  12.664  1.00  0.00     0.173 A 
ATOM     90  C   UNL     1       5.535   4.441  13.272  1.00  0.00     0.173 A 
ATOM     91  F   UNL     1       8.125   6.488  11.741  1.00  0.00    -0.203 F 
ATOM     92  C   UNL     1       7.750   5.947  14.002  1.00  0.00     0.198 A 
ATOM     93  C   UNL     1       5.892   4.552  14.612  1.00  0.00     0.198 A 
ATOM     94  F   UNL     1       4.465   3.701  12.947  1.00  0.00    -0.203 F 
ATOM     95  F   UNL     1       8.840   6.646  14.350  1.00  0.00    -0.200 F 
ATOM     96  C   UNL     1       7.003   5.299  14.975  1.00  0.00     0.200 A 
ATOM     97  F   UNL     1       5.165   3.933  15.551  1.00  0.00    -0.200 F 
ATOM     98  F   UNL     1       7.360   5.386  16.264  1.00  0.00    -0.200 F 
ENDBRANCH  65  88
ENDBRANCH  39  40
ENDBRANCH  32  34
ENDBRANCH  31  32
ENDBRANCH  30  31
ENDBRANCH  29  30
ENDBRANCH  28  29
ENDBRANCH   1  28
TORSDOF 17
