REMARK SMILES O=C(OCCOC(=O)c1ccc(-c2c3nc(c(-c4c(F)c(F)c(F)c(F)c4F)c4ccc([nH]4)c(-c4c(F)c(F)c(F)c(F)c4F)c4nc(c(-c5c(F)c(F)c(F)c(F)c5F)c5ccc2[nH]5)C=C4)C=C3)cc1)C1=Cc2c(Cl)cc(Cl)cc2O[C@@H]1C(F)(F)F
REMARK SMILES IDX 5 1 4 2 3 3 2 4 1 5 72 6 73 7 83 8 74 9 82 10 75 11 81 12
REMARK SMILES IDX 76 13 77 14 80 15 78 16 79 17 84 18 85 19 86 20 87 21 6 22
REMARK SMILES IDX 7 23 8 24 9 25 10 26 71 27 11 28 70 29 12 30 13 31 14 32
REMARK SMILES IDX 64 33 15 34 69 35 63 36 65 37 16 38 68 39 62 40 61 41 17 43
REMARK SMILES IDX 49 44 29 45 48 46 30 47 33 48 47 49 66 50 31 51 32 52 46 54
REMARK SMILES IDX 67 55 34 56 18 57 19 58 27 59 20 60 21 61 25 62 28 63 22 64
REMARK SMILES IDX 23 65 26 66 24 67 50 68 51 69 59 70 52 71 53 72 57 73 60 74
REMARK SMILES IDX 54 75 55 76 58 77 56 78 35 79 36 80 44 81 37 82 38 83 42 84
REMARK SMILES IDX 45 85 39 86 40 87 43 88 41 89
REMARK H PARENT 65 42 33 53
REMARK Flexibility Score: inf
ROOT
ATOM      1  C   UNL     1       4.735   0.712  -0.409  1.00  0.00     0.275 C 
ENDROOT
BRANCH   1   2
ATOM      2  C   UNL     1       3.948  -0.560   1.151  1.00  0.00     0.275 C 
BRANCH   2   3
ATOM      3  O   UNL     1       3.099  -0.102   2.375  1.00  0.00    -0.459 OA
BRANCH   3   4
ATOM      4  C   UNL     1       3.298   1.180   2.707  1.00  0.00     0.338 C 
ATOM      5  O   UNL     1       2.685   1.888   3.465  1.00  0.00    -0.246 OA
BRANCH   4   6
ATOM      6  C   UNL     1       4.129   1.477   1.566  1.00  0.00     0.087 C 
ATOM      7  C   UNL     1       5.498   0.972   1.719  1.00  0.00     0.029 C 
ATOM      8  C   UNL     1       2.857   0.881   0.246  1.00  0.00     0.316 C 
ATOM      9  C   UNL     1       6.148  -0.445   0.797  1.00  0.00     0.036 A 
ATOM     10  O   UNL     1       3.501  -0.665  -0.710  1.00  0.00    -0.475 OA
ATOM     11  C   UNL     1       7.351  -1.002   1.156  1.00  0.00     0.053 A 
ATOM     12  C   UNL     1       5.163  -1.325  -0.336  1.00  0.00     0.130 A 
ATOM     13  Cl  UNL     1       8.423  -0.284   2.283  1.00  0.00    -0.083 Cl
ATOM     14  C   UNL     1       7.637  -2.253   0.588  1.00  0.00     0.042 A 
ATOM     15  C   UNL     1       5.520  -2.539  -0.853  1.00  0.00     0.067 A 
ATOM     16  C   UNL     1       6.772  -2.973  -0.344  1.00  0.00     0.046 A 
ATOM     17  Cl  UNL     1       7.346  -4.542  -0.819  1.00  0.00    -0.084 Cl
BRANCH   8  18
ATOM     18  C   UNL     1       2.377   2.325  -0.184  1.00  0.00     0.430 C 
ATOM     19  F   UNL     1       1.101   2.323  -0.592  1.00  0.00    -0.167 F 
ATOM     20  F   UNL     1       2.358   3.130   0.924  1.00  0.00    -0.167 F 
ATOM     21  F   UNL     1       3.158   3.024  -1.023  1.00  0.00    -0.167 F 
ENDBRANCH   8  18
ENDBRANCH   4   6
ENDBRANCH   3   4
ENDBRANCH   2   3
ENDBRANCH   1   2
BRANCH   1  22
ATOM     22  O   UNL     1       3.915   1.120  -1.883  1.00  0.00    -0.458 OA
BRANCH  22  23
ATOM     23  C   UNL     1       3.029   0.654  -2.827  1.00  0.00     0.338 C 
ATOM     24  O   UNL     1       2.607  -0.473  -3.010  1.00  0.00    -0.246 OA
BRANCH  23  25
ATOM     25  C   UNL     1       2.328   1.869  -3.361  1.00  0.00     0.060 A 
ATOM     26  C   UNL     1       0.966   2.048  -3.057  1.00  0.00     0.016 A 
ATOM     27  C   UNL     1       3.086   2.961  -3.782  1.00  0.00     0.016 A 
ATOM     28  C   UNL     1       0.443   3.352  -2.926  1.00  0.00     0.010 A 
ATOM     29  C   UNL     1       2.556   4.252  -3.668  1.00  0.00     0.010 A 
ATOM     30  C   UNL     1       1.263   4.466  -3.156  1.00  0.00    -0.014 A 
BRANCH  30  31
ATOM     31  C   UNL     1       0.740   5.861  -3.084  1.00  0.00     0.031 A 
ATOM     32  C   UNL     1       0.168   6.407  -4.357  1.00  0.00     0.074 A 
ATOM     33  C   UNL     1       0.844   6.659  -1.998  1.00  0.00     0.049 A 
ATOM     34  N   UNL     1      -0.238   7.614  -4.646  1.00  0.00    -0.248 NA
ATOM     35  C   UNL     1       0.079   5.450  -5.473  1.00  0.00     0.031 C 
ATOM     36  C   UNL     1       1.380   6.275  -0.694  1.00  0.00     0.029 A 
ATOM     37  N   UNL     1       0.518   7.991  -1.833  1.00  0.00    -0.354 N 
ATOM     38  C   UNL     1      -0.625   7.558  -5.976  1.00  0.00     0.074 A 
ATOM     39  C   UNL     1      -0.351   6.222  -6.452  1.00  0.00     0.031 C 
ATOM     40  C   UNL     1       1.361   7.345   0.129  1.00  0.00     0.029 A 
ATOM     41  C   UNL     1       0.830   8.502  -0.591  1.00  0.00     0.049 A 
ATOM     42  H   UNL     1       0.098   8.530  -2.542  1.00  0.00     0.167 HD
ATOM     43  C   UNL     1      -1.180   8.527  -6.737  1.00  0.00     0.037 A 
ATOM     44  C   UNL     1       0.708   9.759  -0.105  1.00  0.00     0.037 A 
ATOM     45  C   UNL     1      -1.431   9.862  -6.284  1.00  0.00     0.049 A 
ATOM     46  C   UNL     1       0.143  10.846  -1.002  1.00  0.00     0.074 A 
ATOM     47  C   UNL     1      -1.994  10.915  -6.980  1.00  0.00     0.029 A 
ATOM     48  N   UNL     1      -1.120  10.331  -5.017  1.00  0.00    -0.354 N 
ATOM     49  N   UNL     1      -0.294  10.764  -2.236  1.00  0.00    -0.248 NA
ATOM     50  C   UNL     1       0.051  12.204  -0.434  1.00  0.00     0.031 C 
ATOM     51  C   UNL     1      -1.981  12.038  -6.147  1.00  0.00     0.029 A 
ATOM     52  C   UNL     1      -1.464  11.667  -4.916  1.00  0.00     0.049 A 
ATOM     53  H   UNL     1      -0.716   9.794  -4.298  1.00  0.00     0.167 HD
ATOM     54  C   UNL     1      -0.752  12.035  -2.570  1.00  0.00     0.074 A 
ATOM     55  C   UNL     1      -0.550  12.872  -1.408  1.00  0.00     0.031 C 
ATOM     56  C   UNL     1      -1.291  12.473  -3.735  1.00  0.00     0.037 A 
BRANCH  43  57
ATOM     57  C   UNL     1      -1.525   8.150  -8.143  1.00  0.00     0.064 A 
ATOM     58  C   UNL     1      -2.565   7.249  -8.421  1.00  0.00     0.173 A 
ATOM     59  C   UNL     1      -0.779   8.651  -9.218  1.00  0.00     0.173 A 
ATOM     60  F   UNL     1      -3.283   6.717  -7.420  1.00  0.00    -0.203 F 
ATOM     61  C   UNL     1      -2.818   6.832  -9.723  1.00  0.00     0.198 A 
ATOM     62  C   UNL     1      -1.058   8.258 -10.523  1.00  0.00     0.198 A 
ATOM     63  F   UNL     1       0.233   9.505  -9.001  1.00  0.00    -0.203 F 
ATOM     64  F   UNL     1      -3.764   5.911  -9.957  1.00  0.00    -0.200 F 
ATOM     65  C   UNL     1      -2.068   7.340 -10.773  1.00  0.00     0.200 A 
ATOM     66  F   UNL     1      -0.335   8.750 -11.538  1.00  0.00    -0.200 F 
ATOM     67  F   UNL     1      -2.308   6.931 -12.026  1.00  0.00    -0.200 F 
ENDBRANCH  43  57
BRANCH  44  68
ATOM     68  C   UNL     1       1.115  10.109   1.292  1.00  0.00     0.064 A 
ATOM     69  C   UNL     1       0.167  10.549   2.232  1.00  0.00     0.173 A 
ATOM     70  C   UNL     1       2.462  10.131   1.685  1.00  0.00     0.173 A 
ATOM     71  F   UNL     1      -1.132  10.592   1.900  1.00  0.00    -0.203 F 
ATOM     72  C   UNL     1       0.550  11.032   3.485  1.00  0.00     0.198 A 
ATOM     73  C   UNL     1       2.842  10.585   2.950  1.00  0.00     0.198 A 
ATOM     74  F   UNL     1       3.417   9.742   0.829  1.00  0.00    -0.203 F 
ATOM     75  F   UNL     1      -0.372  11.525   4.323  1.00  0.00    -0.200 F 
ATOM     76  C   UNL     1       1.888  11.050   3.843  1.00  0.00     0.200 A 
ATOM     77  F   UNL     1       4.138  10.603   3.293  1.00  0.00    -0.200 F 
ATOM     78  F   UNL     1       2.260  11.536   5.036  1.00  0.00    -0.200 F 
ENDBRANCH  44  68
BRANCH  56  79
ATOM     79  C   UNL     1      -1.763  13.897  -3.805  1.00  0.00     0.064 A 
ATOM     80  C   UNL     1      -0.868  14.975  -3.848  1.00  0.00     0.173 A 
ATOM     81  C   UNL     1      -3.134  14.177  -3.924  1.00  0.00     0.173 A 
ATOM     82  F   UNL     1       0.451  14.763  -3.729  1.00  0.00    -0.203 F 
ATOM     83  C   UNL     1      -1.328  16.282  -3.992  1.00  0.00     0.198 A 
ATOM     84  C   UNL     1      -3.588  15.481  -4.103  1.00  0.00     0.198 A 
ATOM     85  F   UNL     1      -4.033  13.181  -3.901  1.00  0.00    -0.203 F 
ATOM     86  F   UNL     1      -0.457  17.300  -3.996  1.00  0.00    -0.200 F 
ATOM     87  C   UNL     1      -2.685  16.532  -4.132  1.00  0.00     0.200 A 
ATOM     88  F   UNL     1      -4.898  15.717  -4.259  1.00  0.00    -0.200 F 
ATOM     89  F   UNL     1      -3.124  17.788  -4.294  1.00  0.00    -0.200 F 
ENDBRANCH  56  79
ENDBRANCH  30  31
ENDBRANCH  23  25
ENDBRANCH  22  23
ENDBRANCH   1  22
TORSDOF 12
