REMARK SMILES Cc1nsc(NC[C@@H]2C[C@H]3CC[C@@H]2C3)c1C(=O)OCCOC(=O)c1ccc(-c2c3nc(c(-c4c(F)c(F)c(F)c(F)c4F)c4ccc([nH]4)c(-c4c(F)c(F)c(F)c(F)c4F)c4nc(c(-c5c(F)c(F)c(F)c(F)c5F)c5ccc2[nH]5)C=C4)C=C3)cc1
REMARK SMILES IDX 19 1 18 2 16 3 17 4 15 5 1 6 2 7 3 8 4 9 5 10 6 11 7 13 8 14
REMARK SMILES IDX 9 15 13 16 10 17 12 18 14 19 11 20 20 21 21 22 22 23 23 24
REMARK SMILES IDX 24 25 25 26 86 27 26 28 85 29 27 30 28 31 29 32 79 33 30 34
REMARK SMILES IDX 84 35 78 36 80 37 31 38 83 39 77 40 76 41 32 43 64 44 44 45
REMARK SMILES IDX 63 46 45 47 48 48 62 49 81 50 46 51 47 52 61 54 82 55 49 56
REMARK SMILES IDX 33 57 34 58 42 59 35 60 36 61 40 62 43 63 37 64 38 65 41 66
REMARK SMILES IDX 39 67 65 68 66 69 74 70 67 71 68 72 72 73 75 74 69 75 70 76
REMARK SMILES IDX 73 77 71 78 50 79 51 80 59 81 52 82 53 83 57 84 60 85 54 86
REMARK SMILES IDX 55 87 58 88 56 89
REMARK H PARENT 6 12 80 42 48 53
REMARK Flexibility Score: inf
ROOT
ATOM      1  C   UNL     1       1.205   3.913   0.529  1.00  0.00     0.275 C 
ENDROOT
BRANCH   1   2
ATOM      2  O   UNL     1       0.887   2.650  -0.077  1.00  0.00    -0.458 OA
BRANCH   2   3
ATOM      3  C   UNL     1       0.172   2.708  -1.243  1.00  0.00     0.343 C 
ATOM      4  O   UNL     1      -0.326   3.737  -1.676  1.00  0.00    -0.246 OA
BRANCH   3   5
ATOM      5  C   UNL     1       0.131   1.431  -1.952  1.00  0.00     0.117 A 
ATOM      6  C   UNL     1       0.872  -0.217  -0.044  1.00  0.00     0.069 C 
ATOM      7  C   UNL     1       0.431   0.117  -1.429  1.00  0.00     0.068 A 
ATOM      8  N   UNL     1       0.304  -0.897  -2.283  1.00  0.00    -0.195 NA
ATOM      9  S   UNL     1      -0.116  -0.306  -3.760  1.00  0.00    -0.018 S 
ATOM     10  C   UNL     1      -0.169   1.352  -3.313  1.00  0.00     0.124 A 
BRANCH  10  11
ATOM     11  N   UNL     1      -0.431   2.401  -4.143  1.00  0.00    -0.375 N 
ATOM     12  H   UNL     1      -0.320   3.306  -3.772  1.00  0.00     0.161 HD
BRANCH  11  13
ATOM     13  C   UNL     1      -0.860   2.301  -5.526  1.00  0.00     0.117 C 
BRANCH  13  14
ATOM     14  C   UNL     1      -2.057   3.245  -5.734  1.00  0.00     0.012 C 
ATOM     15  C   UNL     1      -3.212   2.591  -6.526  1.00  0.00     0.009 C 
ATOM     16  C   UNL     1      -1.721   4.487  -6.602  1.00  0.00    -0.006 C 
ATOM     17  C   UNL     1      -3.494   3.617  -7.633  1.00  0.00    -0.011 C 
ATOM     18  C   UNL     1      -2.812   5.546  -6.362  1.00  0.00     0.004 C 
ATOM     19  C   UNL     1      -2.075   4.027  -8.018  1.00  0.00     0.007 C 
ATOM     20  C   UNL     1      -4.053   4.905  -7.002  1.00  0.00     0.004 C 
ENDBRANCH  13  14
ENDBRANCH  11  13
ENDBRANCH  10  11
ENDBRANCH   3   5
ENDBRANCH   2   3
ENDBRANCH   1   2
BRANCH   1  21
ATOM     21  C   UNL     1       2.532   4.449   0.007  1.00  0.00     0.275 C 
BRANCH  21  22
ATOM     22  O   UNL     1       2.419   4.984  -1.315  1.00  0.00    -0.458 OA
BRANCH  22  23
ATOM     23  C   UNL     1       2.769   4.135  -2.306  1.00  0.00     0.338 C 
ATOM     24  O   UNL     1       2.845   2.919  -2.240  1.00  0.00    -0.246 OA
BRANCH  23  25
ATOM     25  C   UNL     1       3.250   4.905  -3.460  1.00  0.00     0.060 A 
ATOM     26  C   UNL     1       3.388   4.244  -4.682  1.00  0.00     0.016 A 
ATOM     27  C   UNL     1       3.758   6.199  -3.270  1.00  0.00     0.016 A 
ATOM     28  C   UNL     1       4.128   4.848  -5.684  1.00  0.00     0.010 A 
ATOM     29  C   UNL     1       4.488   6.802  -4.275  1.00  0.00     0.010 A 
ATOM     30  C   UNL     1       4.716   6.103  -5.458  1.00  0.00    -0.014 A 
BRANCH  30  31
ATOM     31  C   UNL     1       5.480   6.704  -6.544  1.00  0.00     0.031 A 
ATOM     32  C   UNL     1       4.689   6.955  -7.775  1.00  0.00     0.074 A 
ATOM     33  C   UNL     1       6.760   7.112  -6.434  1.00  0.00     0.049 A 
ATOM     34  N   UNL     1       4.904   6.497  -8.964  1.00  0.00    -0.248 NA
ATOM     35  C   UNL     1       3.446   7.732  -7.644  1.00  0.00     0.031 C 
ATOM     36  C   UNL     1       7.572   7.188  -5.216  1.00  0.00     0.029 A 
ATOM     37  N   UNL     1       7.581   7.642  -7.391  1.00  0.00    -0.354 N 
ATOM     38  C   UNL     1       3.915   7.052  -9.770  1.00  0.00     0.074 A 
ATOM     39  C   UNL     1       2.980   7.705  -8.893  1.00  0.00     0.031 C 
ATOM     40  C   UNL     1       8.681   7.918  -5.465  1.00  0.00     0.029 A 
ATOM     41  C   UNL     1       8.726   8.236  -6.883  1.00  0.00     0.049 A 
ATOM     42  H   UNL     1       7.377   7.605  -8.353  1.00  0.00     0.167 HD
ATOM     43  C   UNL     1       4.071   7.122 -11.118  1.00  0.00     0.037 A 
ATOM     44  C   UNL     1       9.637   8.968  -7.565  1.00  0.00     0.037 A 
ATOM     45  C   UNL     1       5.092   6.222 -11.579  1.00  0.00     0.049 A 
ATOM     46  C   UNL     1       9.533   8.620  -8.999  1.00  0.00     0.074 A 
ATOM     47  C   UNL     1       5.209   4.865 -11.779  1.00  0.00     0.029 A 
ATOM     48  N   UNL     1       6.355   6.746 -11.593  1.00  0.00    -0.354 N 
ATOM     49  N   UNL     1       9.892   7.470  -9.495  1.00  0.00    -0.248 NA
ATOM     50  C   UNL     1       8.755   9.470  -9.894  1.00  0.00     0.031 C 
ATOM     51  C   UNL     1       6.601   4.569 -11.685  1.00  0.00     0.029 A 
ATOM     52  C   UNL     1       7.288   5.756 -11.437  1.00  0.00     0.049 A 
ATOM     53  H   UNL     1       6.565   7.702 -11.700  1.00  0.00     0.167 HD
ATOM     54  C   UNL     1       9.039   7.281 -10.564  1.00  0.00     0.074 A 
ATOM     55  C   UNL     1       8.517   8.601 -10.879  1.00  0.00     0.031 C 
ATOM     56  C   UNL     1       8.590   6.033 -10.876  1.00  0.00     0.037 A 
BRANCH  43  57
ATOM     57  C   UNL     1       3.642   8.304 -11.957  1.00  0.00     0.064 A 
ATOM     58  C   UNL     1       3.758   8.227 -13.361  1.00  0.00     0.173 A 
ATOM     59  C   UNL     1       3.453   9.601 -11.433  1.00  0.00     0.173 A 
ATOM     60  F   UNL     1       3.962   7.046 -13.965  1.00  0.00    -0.203 F 
ATOM     61  C   UNL     1       3.762   9.370 -14.165  1.00  0.00     0.198 A 
ATOM     62  C   UNL     1       3.407  10.734 -12.244  1.00  0.00     0.198 A 
ATOM     63  F   UNL     1       3.424   9.839 -10.116  1.00  0.00    -0.203 F 
ATOM     64  F   UNL     1       4.000   9.258 -15.479  1.00  0.00    -0.200 F 
ATOM     65  C   UNL     1       3.594  10.623 -13.605  1.00  0.00     0.200 A 
ATOM     66  F   UNL     1       3.267  11.942 -11.680  1.00  0.00    -0.200 F 
ATOM     67  F   UNL     1       3.662  11.724 -14.365  1.00  0.00    -0.200 F 
ENDBRANCH  43  57
BRANCH  44  68
ATOM     68  C   UNL     1      10.494  10.075  -7.090  1.00  0.00     0.064 A 
ATOM     69  C   UNL     1      11.646  10.459  -7.796  1.00  0.00     0.173 A 
ATOM     70  C   UNL     1      10.045  10.957  -6.089  1.00  0.00     0.173 A 
ATOM     71  F   UNL     1      12.118   9.690  -8.788  1.00  0.00    -0.203 F 
ATOM     72  C   UNL     1      12.288  11.673  -7.542  1.00  0.00     0.198 A 
ATOM     73  C   UNL     1      10.693  12.165  -5.830  1.00  0.00     0.198 A 
ATOM     74  F   UNL     1       8.915  10.709  -5.411  1.00  0.00    -0.203 F 
ATOM     75  F   UNL     1      13.343  12.038  -8.284  1.00  0.00    -0.200 F 
ATOM     76  C   UNL     1      11.804  12.531  -6.568  1.00  0.00     0.200 A 
ATOM     77  F   UNL     1      10.195  13.001  -4.908  1.00  0.00    -0.200 F 
ATOM     78  F   UNL     1      12.379  13.725  -6.371  1.00  0.00    -0.200 F 
ENDBRANCH  44  68
BRANCH  56  79
ATOM     79  C   UNL     1       9.425   4.882 -10.412  1.00  0.00     0.064 A 
ATOM     80  C   UNL     1       9.620   4.540  -9.064  1.00  0.00     0.173 A 
ATOM     81  C   UNL     1      10.015   4.064 -11.384  1.00  0.00     0.173 A 
ATOM     82  F   UNL     1       9.018   5.227  -8.084  1.00  0.00    -0.203 F 
ATOM     83  C   UNL     1      10.422   3.457  -8.709  1.00  0.00     0.198 A 
ATOM     84  C   UNL     1      10.783   2.961 -11.027  1.00  0.00     0.198 A 
ATOM     85  F   UNL     1       9.823   4.321 -12.687  1.00  0.00    -0.203 F 
ATOM     86  F   UNL     1      10.624   3.167  -7.415  1.00  0.00    -0.200 F 
ATOM     87  C   UNL     1      10.999   2.667  -9.690  1.00  0.00     0.200 A 
ATOM     88  F   UNL     1      11.304   2.176 -11.980  1.00  0.00    -0.200 F 
ATOM     89  F   UNL     1      11.750   1.611  -9.349  1.00  0.00    -0.200 F 
ENDBRANCH  56  79
ENDBRANCH  30  31
ENDBRANCH  23  25
ENDBRANCH  22  23
ENDBRANCH  21  22
ENDBRANCH   1  21
TORSDOF 14
