REMARK SMILES O=C(OCCOC(=O)c1ccc(-c2c3nc(c(-c4c(F)c(F)c(F)c(F)c4F)c4ccc([nH]4)c(-c4c(F)c(F)c(F)c(F)c4F)c4nc(c(-c5c(F)c(F)c(F)c(F)c5F)c5ccc2[nH]5)C=C4)C=C3)cc1)C1=Cc2c(cc(Cl)c(Cl)c2Cl)O[C@H]1C(F)(F)F
REMARK SMILES IDX 5 1 4 2 3 3 2 4 1 5 72 6 73 7 84 8 74 9 83 10 75 11 81 12
REMARK SMILES IDX 76 13 79 14 82 15 77 16 80 17 78 18 85 19 86 20 87 21 88 22
REMARK SMILES IDX 6 23 7 24 8 25 9 26 10 27 71 28 11 29 70 30 12 31 13 32
REMARK SMILES IDX 14 33 64 34 15 35 69 36 63 37 65 38 16 39 68 40 62 41 61 42
REMARK SMILES IDX 17 44 49 45 29 46 48 47 30 48 33 49 47 50 66 51 31 52 32 53
REMARK SMILES IDX 46 55 67 56 34 57 18 58 19 59 27 60 20 61 21 62 25 63 28 64
REMARK SMILES IDX 22 65 23 66 26 67 24 68 50 69 51 70 59 71 52 72 53 73 57 74
REMARK SMILES IDX 60 75 54 76 55 77 58 78 56 79 35 80 36 81 44 82 37 83 38 84
REMARK SMILES IDX 42 85 45 86 39 87 40 88 43 89 41 90
REMARK H PARENT 65 43 33 54
REMARK Flexibility Score: inf
ROOT
ATOM      1  C   UNL     1       2.591  -2.692   0.954  1.00  0.00     0.275 C 
ENDROOT
BRANCH   1   2
ATOM      2  C   UNL     1       2.494  -1.247   1.466  1.00  0.00     0.275 C 
BRANCH   2   3
ATOM      3  O   UNL     1       1.930  -0.318   0.514  1.00  0.00    -0.459 OA
BRANCH   3   4
ATOM      4  C   UNL     1       2.540   0.355  -0.484  1.00  0.00     0.338 C 
ATOM      5  O   UNL     1       1.900   1.193  -1.117  1.00  0.00    -0.246 OA
BRANCH   4   6
ATOM      6  C   UNL     1       3.962   0.143  -0.853  1.00  0.00     0.087 C 
ATOM      7  C   UNL     1       4.788  -0.765  -0.305  1.00  0.00     0.029 C 
ATOM      8  C   UNL     1       4.551   1.315  -1.626  1.00  0.00     0.316 C 
ATOM      9  C   UNL     1       5.884  -0.108   0.448  1.00  0.00     0.038 A 
ATOM     10  O   UNL     1       5.905   1.666  -1.205  1.00  0.00    -0.475 OA
ATOM     11  C   UNL     1       6.329   1.134  -0.016  1.00  0.00     0.131 A 
ATOM     12  C   UNL     1       6.424  -0.646   1.633  1.00  0.00     0.072 A 
ATOM     13  C   UNL     1       7.259   1.863   0.715  1.00  0.00     0.069 A 
ATOM     14  C   UNL     1       7.312   0.117   2.408  1.00  0.00     0.079 A 
ATOM     15  Cl  UNL     1       6.004  -2.261   2.115  1.00  0.00    -0.082 Cl
ATOM     16  C   UNL     1       7.718   1.375   1.942  1.00  0.00     0.064 A 
ATOM     17  Cl  UNL     1       7.869  -0.475   3.945  1.00  0.00    -0.081 Cl
ATOM     18  Cl  UNL     1       8.793   2.389   2.841  1.00  0.00    -0.083 Cl
BRANCH   8  19
ATOM     19  C   UNL     1       4.517   1.030  -3.137  1.00  0.00     0.430 C 
ATOM     20  F   UNL     1       3.283   0.687  -3.570  1.00  0.00    -0.167 F 
ATOM     21  F   UNL     1       4.903   2.110  -3.855  1.00  0.00    -0.167 F 
ATOM     22  F   UNL     1       5.348   0.008  -3.464  1.00  0.00    -0.167 F 
ENDBRANCH   8  19
ENDBRANCH   4   6
ENDBRANCH   3   4
ENDBRANCH   2   3
ENDBRANCH   1   2
BRANCH   1  23
ATOM     23  O   UNL     1       2.530  -2.761  -0.472  1.00  0.00    -0.458 OA
BRANCH  23  24
ATOM     24  C   UNL     1       1.264  -2.711  -0.948  1.00  0.00     0.338 C 
ATOM     25  O   UNL     1       0.236  -2.829  -0.299  1.00  0.00    -0.246 OA
BRANCH  24  26
ATOM     26  C   UNL     1       1.298  -2.310  -2.365  1.00  0.00     0.060 A 
ATOM     27  C   UNL     1       0.250  -1.506  -2.824  1.00  0.00     0.016 A 
ATOM     28  C   UNL     1       2.315  -2.723  -3.234  1.00  0.00     0.016 A 
ATOM     29  C   UNL     1       0.157  -1.200  -4.174  1.00  0.00     0.010 A 
ATOM     30  C   UNL     1       2.235  -2.393  -4.587  1.00  0.00     0.010 A 
ATOM     31  C   UNL     1       1.118  -1.690  -5.069  1.00  0.00    -0.014 A 
BRANCH  31  32
ATOM     32  C   UNL     1       0.817  -1.649  -6.517  1.00  0.00     0.031 A 
ATOM     33  C   UNL     1       0.327  -2.908  -7.178  1.00  0.00     0.074 A 
ATOM     34  C   UNL     1       0.887  -0.493  -7.199  1.00  0.00     0.049 A 
ATOM     35  N   UNL     1      -0.095  -3.098  -8.402  1.00  0.00    -0.248 NA
ATOM     36  C   UNL     1       0.309  -4.123  -6.346  1.00  0.00     0.031 C 
ATOM     37  C   UNL     1       1.325   0.787  -6.647  1.00  0.00     0.029 A 
ATOM     38  N   UNL     1       0.572  -0.210  -8.503  1.00  0.00    -0.354 N 
ATOM     39  C   UNL     1      -0.434  -4.443  -8.477  1.00  0.00     0.074 A 
ATOM     40  C   UNL     1      -0.107  -5.040  -7.204  1.00  0.00     0.031 C 
ATOM     41  C   UNL     1       1.238   1.726  -7.605  1.00  0.00     0.029 A 
ATOM     42  C   UNL     1       0.757   1.107  -8.838  1.00  0.00     0.049 A 
ATOM     43  H   UNL     1       0.244  -0.888  -9.138  1.00  0.00     0.167 HD
ATOM     44  C   UNL     1      -0.998  -5.114  -9.508  1.00  0.00     0.037 A 
ATOM     45  C   UNL     1       0.554   1.734 -10.012  1.00  0.00     0.037 A 
ATOM     46  C   UNL     1      -1.319  -4.511 -10.772  1.00  0.00     0.049 A 
ATOM     47  C   UNL     1      -0.007   0.946 -11.170  1.00  0.00     0.074 A 
ATOM     48  C   UNL     1      -1.898  -5.090 -11.885  1.00  0.00     0.029 A 
ATOM     49  N   UNL     1      -1.075  -3.182 -11.090  1.00  0.00    -0.354 N 
ATOM     50  N   UNL     1      -0.374  -0.312 -11.219  1.00  0.00    -0.248 NA
ATOM     51  C   UNL     1      -0.194   1.672 -12.434  1.00  0.00     0.031 C 
ATOM     52  C   UNL     1      -1.951  -4.127 -12.898  1.00  0.00     0.029 A 
ATOM     53  C   UNL     1      -1.466  -2.929 -12.394  1.00  0.00     0.049 A 
ATOM     54  H   UNL     1      -0.682  -2.517 -10.479  1.00  0.00     0.167 HD
ATOM     55  C   UNL     1      -0.871  -0.518 -12.499  1.00  0.00     0.074 A 
ATOM     56  C   UNL     1      -0.769   0.750 -13.192  1.00  0.00     0.031 C 
ATOM     57  C   UNL     1      -1.368  -1.652 -13.055  1.00  0.00     0.037 A 
BRANCH  44  58
ATOM     58  C   UNL     1      -1.279  -6.576  -9.308  1.00  0.00     0.064 A 
ATOM     59  C   UNL     1      -2.267  -7.022  -8.415  1.00  0.00     0.173 A 
ATOM     60  C   UNL     1      -0.552  -7.544 -10.015  1.00  0.00     0.173 A 
ATOM     61  F   UNL     1      -2.980  -6.139  -7.700  1.00  0.00    -0.203 F 
ATOM     62  C   UNL     1      -2.487  -8.382  -8.210  1.00  0.00     0.198 A 
ATOM     63  C   UNL     1      -0.798  -8.902  -9.833  1.00  0.00     0.198 A 
ATOM     64  F   UNL     1       0.403  -7.174 -10.883  1.00  0.00    -0.203 F 
ATOM     65  F   UNL     1      -3.390  -8.784  -7.304  1.00  0.00    -0.200 F 
ATOM     66  C   UNL     1      -1.757  -9.320  -8.923  1.00  0.00     0.200 A 
ATOM     67  F   UNL     1      -0.100  -9.808 -10.531  1.00  0.00    -0.200 F 
ATOM     68  F   UNL     1      -1.969 -10.629  -8.724  1.00  0.00    -0.200 F 
ENDBRANCH  44  58
BRANCH  45  69
ATOM     69  C   UNL     1       0.868   3.181 -10.153  1.00  0.00     0.064 A 
ATOM     70  C   UNL     1      -0.143   4.126 -10.377  1.00  0.00     0.173 A 
ATOM     71  C   UNL     1       2.191   3.646 -10.097  1.00  0.00     0.173 A 
ATOM     72  F   UNL     1      -1.422   3.732 -10.461  1.00  0.00    -0.203 F 
ATOM     73  C   UNL     1       0.159   5.473 -10.571  1.00  0.00     0.198 A 
ATOM     74  C   UNL     1       2.489   4.997 -10.259  1.00  0.00     0.198 A 
ATOM     75  F   UNL     1       3.197   2.785  -9.884  1.00  0.00    -0.203 F 
ATOM     76  F   UNL     1      -0.822   6.345 -10.844  1.00  0.00    -0.200 F 
ATOM     77  C   UNL     1       1.474   5.908 -10.508  1.00  0.00     0.200 A 
ATOM     78  F   UNL     1       3.760   5.415 -10.186  1.00  0.00    -0.200 F 
ATOM     79  F   UNL     1       1.764   7.202 -10.700  1.00  0.00    -0.200 F 
ENDBRANCH  45  69
BRANCH  57  80
ATOM     80  C   UNL     1      -1.882  -1.565 -14.463  1.00  0.00     0.064 A 
ATOM     81  C   UNL     1      -1.020  -1.399 -15.557  1.00  0.00     0.173 A 
ATOM     82  C   UNL     1      -3.254  -1.708 -14.724  1.00  0.00     0.173 A 
ATOM     83  F   UNL     1       0.298  -1.245 -15.360  1.00  0.00    -0.203 F 
ATOM     84  C   UNL     1      -1.515  -1.353 -16.857  1.00  0.00     0.198 A 
ATOM     85  C   UNL     1      -3.741  -1.699 -16.028  1.00  0.00     0.198 A 
ATOM     86  F   UNL     1      -4.121  -1.880 -13.715  1.00  0.00    -0.203 F 
ATOM     87  F   UNL     1      -0.679  -1.143 -17.883  1.00  0.00    -0.200 F 
ATOM     88  C   UNL     1      -2.873  -1.513 -17.092  1.00  0.00     0.200 A 
ATOM     89  F   UNL     1      -5.051  -1.874 -16.253  1.00  0.00    -0.200 F 
ATOM     90  F   UNL     1      -3.345  -1.483 -18.346  1.00  0.00    -0.200 F 
ENDBRANCH  57  80
ENDBRANCH  31  32
ENDBRANCH  24  26
ENDBRANCH  23  24
ENDBRANCH   1  23
TORSDOF 12
