REMARK SMILES C[NH2+][C@@]1(C(=O)OCCOC(=O)c2ccc(-c3c4nc(c(-c5c(F)c(F)c(F)c(F)c5F)c5ccc([nH]5)c(-c5c(F)c(F)c(F)c(F)c5F)c5nc(c(-c6c(F)c(F)c(F)c(F)c6F)c6ccc3[nH]6)C=C5)C=C4)cc2)CCC[C@H](Oc2cccc(OC)c2)C1
REMARK SMILES IDX 7 1 6 2 4 3 5 4 3 5 75 6 88 7 76 8 78 9 77 10 2 11 1 12
REMARK SMILES IDX 79 15 80 16 81 17 87 18 82 19 84 20 83 21 85 22 86 23 8 24
REMARK SMILES IDX 9 25 10 26 11 27 12 28 13 29 74 30 14 31 73 32 15 33 16 34
REMARK SMILES IDX 17 35 67 36 18 37 72 38 66 39 68 40 19 41 71 42 65 43 64 44
REMARK SMILES IDX 20 46 52 47 32 48 51 49 33 50 36 51 50 52 69 53 34 54 35 55
REMARK SMILES IDX 49 57 70 58 37 59 21 60 22 61 30 62 23 63 24 64 28 65 31 66
REMARK SMILES IDX 25 67 26 68 29 69 27 70 53 71 54 72 62 73 55 74 56 75 60 76
REMARK SMILES IDX 63 77 57 78 58 79 61 80 59 81 38 82 39 83 47 84 40 85 41 86
REMARK SMILES IDX 45 87 48 88 42 89 43 90 46 91 44 92
REMARK H PARENT 2 13 2 14 68 45 36 56
REMARK Flexibility Score: inf
ROOT
ATOM      1  C   UNL     1      -2.676   0.837  -3.970  1.00  0.00     0.274 C 
ENDROOT
BRANCH   1   2
ATOM      2  O   UNL     1      -2.358   1.166  -2.603  1.00  0.00    -0.457 OA
BRANCH   2   3
ATOM      3  C   UNL     1      -1.487   0.367  -1.943  1.00  0.00     0.368 C 
ATOM      4  O   UNL     1      -0.913  -0.583  -2.470  1.00  0.00    -0.245 OA
BRANCH   3   5
ATOM      5  C   UNL     1      -1.314   0.748  -0.423  1.00  0.00     0.197 C 
ATOM      6  C   UNL     1      -1.899  -0.430   0.385  1.00  0.00     0.081 C 
ATOM      7  C   UNL     1      -1.970   2.099   0.014  1.00  0.00     0.126 C 
ATOM      8  C   UNL     1      -3.420  -0.429   0.378  1.00  0.00     0.011 C 
ATOM      9  C   UNL     1      -3.501   2.102   0.249  1.00  0.00     0.180 C 
ATOM     10  C   UNL     1      -3.931   0.848   1.021  1.00  0.00     0.046 C 
BRANCH   5  11
ATOM     11  N   UNL     1       0.160   0.933  -0.186  1.00  0.00    -0.334 N 
ATOM     12  C   UNL     1       0.933  -0.268   0.100  1.00  0.00     0.331 C 
ATOM     13  H   UNL     1       0.556   1.364  -1.021  1.00  0.00     0.347 HD
ATOM     14  H   UNL     1       0.226   1.501   0.659  1.00  0.00     0.347 HD
ENDBRANCH   5  11
BRANCH   9  15
ATOM     15  O   UNL     1      -4.112   2.226  -1.031  1.00  0.00    -0.490 OA
BRANCH  15  16
ATOM     16  C   UNL     1      -5.447   2.426  -1.184  1.00  0.00     0.123 A 
ATOM     17  C   UNL     1      -6.396   2.568  -0.180  1.00  0.00     0.047 A 
ATOM     18  C   UNL     1      -5.855   2.431  -2.522  1.00  0.00     0.092 A 
ATOM     19  C   UNL     1      -7.753   2.594  -0.511  1.00  0.00     0.008 A 
ATOM     20  C   UNL     1      -7.203   2.471  -2.866  1.00  0.00     0.122 A 
ATOM     21  C   UNL     1      -8.152   2.527  -1.848  1.00  0.00     0.046 A 
BRANCH  20  22
ATOM     22  O   UNL     1      -7.702   2.436  -4.138  1.00  0.00    -0.497 OA
ATOM     23  C   UNL     1      -6.751   2.456  -5.197  1.00  0.00     0.278 C 
ENDBRANCH  20  22
ENDBRANCH  15  16
ENDBRANCH   9  15
ENDBRANCH   3   5
ENDBRANCH   2   3
ENDBRANCH   1   2
BRANCH   1  24
ATOM     24  C   UNL     1      -2.427   2.053  -4.859  1.00  0.00     0.275 C 
BRANCH  24  25
ATOM     25  O   UNL     1      -1.011   2.269  -4.965  1.00  0.00    -0.458 OA
BRANCH  25  26
ATOM     26  C   UNL     1      -0.509   3.215  -4.139  1.00  0.00     0.338 C 
ATOM     27  O   UNL     1      -1.110   4.021  -3.455  1.00  0.00    -0.246 OA
BRANCH  26  28
ATOM     28  C   UNL     1       0.943   3.030  -4.088  1.00  0.00     0.060 A 
ATOM     29  C   UNL     1       1.456   2.203  -3.091  1.00  0.00     0.016 A 
ATOM     30  C   UNL     1       1.790   3.698  -4.967  1.00  0.00     0.016 A 
ATOM     31  C   UNL     1       2.828   2.063  -2.933  1.00  0.00     0.010 A 
ATOM     32  C   UNL     1       3.170   3.523  -4.838  1.00  0.00     0.010 A 
ATOM     33  C   UNL     1       3.698   2.719  -3.810  1.00  0.00    -0.014 A 
BRANCH  33  34
ATOM     34  C   UNL     1       5.163   2.605  -3.616  1.00  0.00     0.031 A 
ATOM     35  C   UNL     1       5.948   3.813  -3.200  1.00  0.00     0.074 A 
ATOM     36  C   UNL     1       5.778   1.422  -3.796  1.00  0.00     0.049 A 
ATOM     37  N   UNL     1       7.244   3.980  -3.139  1.00  0.00    -0.248 NA
ATOM     38  C   UNL     1       5.168   4.997  -2.805  1.00  0.00     0.031 C 
ATOM     39  C   UNL     1       5.111   0.165  -4.135  1.00  0.00     0.029 A 
ATOM     40  N   UNL     1       7.106   1.086  -3.720  1.00  0.00    -0.354 N 
ATOM     41  C   UNL     1       7.435   5.297  -2.744  1.00  0.00     0.074 A 
ATOM     42  C   UNL     1       6.124   5.887  -2.582  1.00  0.00     0.031 C 
ATOM     43  C   UNL     1       6.031  -0.808  -4.229  1.00  0.00     0.029 A 
ATOM     44  C   UNL     1       7.355  -0.229  -4.026  1.00  0.00     0.049 A 
ATOM     45  H   UNL     1       7.812   1.725  -3.470  1.00  0.00     0.167 HD
ATOM     46  C   UNL     1       8.604   5.950  -2.542  1.00  0.00     0.037 A 
ATOM     47  C   UNL     1       8.524  -0.882  -4.169  1.00  0.00     0.037 A 
ATOM     48  C   UNL     1       9.901   5.340  -2.673  1.00  0.00     0.049 A 
ATOM     49  C   UNL     1       9.809  -0.124  -3.978  1.00  0.00     0.074 A 
ATOM     50  C   UNL     1      11.149   5.912  -2.495  1.00  0.00     0.029 A 
ATOM     51  N   UNL     1      10.114   4.010  -3.006  1.00  0.00    -0.354 N 
ATOM     52  N   UNL     1       9.987   1.135  -3.659  1.00  0.00    -0.248 NA
ATOM     53  C   UNL     1      11.056  -0.875  -4.181  1.00  0.00     0.031 C 
ATOM     54  C   UNL     1      12.117   4.934  -2.750  1.00  0.00     0.029 A 
ATOM     55  C   UNL     1      11.473   3.744  -3.047  1.00  0.00     0.049 A 
ATOM     56  H   UNL     1       9.404   3.352  -3.185  1.00  0.00     0.167 HD
ATOM     57  C   UNL     1      11.360   1.327  -3.612  1.00  0.00     0.074 A 
ATOM     58  C   UNL     1      11.970   0.048  -3.916  1.00  0.00     0.031 C 
ATOM     59  C   UNL     1      12.054   2.461  -3.349  1.00  0.00     0.037 A 
BRANCH  46  60
ATOM     60  C   UNL     1       8.530   7.407  -2.196  1.00  0.00     0.064 A 
ATOM     61  C   UNL     1       8.105   7.850  -0.935  1.00  0.00     0.173 A 
ATOM     62  C   UNL     1       8.906   8.375  -3.140  1.00  0.00     0.173 A 
ATOM     63  F   UNL     1       7.717   6.965  -0.005  1.00  0.00    -0.203 F 
ATOM     64  C   UNL     1       8.036   9.210  -0.641  1.00  0.00     0.198 A 
ATOM     65  C   UNL     1       8.861   9.732  -2.833  1.00  0.00     0.198 A 
ATOM     66  F   UNL     1       9.322   8.004  -4.361  1.00  0.00    -0.203 F 
ATOM     67  F   UNL     1       7.584   9.613   0.555  1.00  0.00    -0.200 F 
ATOM     68  C   UNL     1       8.420  10.149  -1.587  1.00  0.00     0.200 A 
ATOM     69  F   UNL     1       9.241  10.637  -3.746  1.00  0.00    -0.200 F 
ATOM     70  F   UNL     1       8.356  11.456  -1.300  1.00  0.00    -0.200 F 
ENDBRANCH  46  60
BRANCH  47  71
ATOM     71  C   UNL     1       8.527  -2.318  -4.548  1.00  0.00     0.064 A 
ATOM     72  C   UNL     1       8.940  -3.304  -3.642  1.00  0.00     0.173 A 
ATOM     73  C   UNL     1       8.108  -2.735  -5.821  1.00  0.00     0.173 A 
ATOM     74  F   UNL     1       9.373  -2.952  -2.422  1.00  0.00    -0.203 F 
ATOM     75  C   UNL     1       8.941  -4.651  -3.997  1.00  0.00     0.198 A 
ATOM     76  C   UNL     1       8.083  -4.085  -6.165  1.00  0.00     0.198 A 
ATOM     77  F   UNL     1       7.707  -1.831  -6.726  1.00  0.00    -0.203 F 
ATOM     78  F   UNL     1       9.377  -5.571  -3.125  1.00  0.00    -0.200 F 
ATOM     79  C   UNL     1       8.505  -5.041  -5.255  1.00  0.00     0.200 A 
ATOM     80  F   UNL     1       7.650  -4.457  -7.377  1.00  0.00    -0.200 F 
ATOM     81  F   UNL     1       8.499  -6.338  -5.592  1.00  0.00    -0.200 F 
ENDBRANCH  47  71
BRANCH  59  82
ATOM     82  C   UNL     1      13.550   2.358  -3.352  1.00  0.00     0.064 A 
ATOM     83  C   UNL     1      14.274   2.253  -4.548  1.00  0.00     0.173 A 
ATOM     84  C   UNL     1      14.266   2.401  -2.146  1.00  0.00     0.173 A 
ATOM     85  F   UNL     1      13.630   2.191  -5.723  1.00  0.00    -0.203 F 
ATOM     86  C   UNL     1      15.663   2.173  -4.535  1.00  0.00     0.198 A 
ATOM     87  C   UNL     1      15.656   2.346  -2.140  1.00  0.00     0.198 A 
ATOM     88  F   UNL     1      13.617   2.506  -0.977  1.00  0.00    -0.203 F 
ATOM     89  F   UNL     1      16.335   2.031  -5.686  1.00  0.00    -0.200 F 
ATOM     90  C   UNL     1      16.353   2.226  -3.333  1.00  0.00     0.200 A 
ATOM     91  F   UNL     1      16.322   2.407  -0.978  1.00  0.00    -0.200 F 
ATOM     92  F   UNL     1      17.691   2.153  -3.323  1.00  0.00    -0.200 F 
ENDBRANCH  59  82
ENDBRANCH  33  34
ENDBRANCH  26  28
ENDBRANCH  25  26
ENDBRANCH  24  25
ENDBRANCH   1  24
TORSDOF 15
