REMARK SMILES C[C@H](NC(=O)NC1C(C)(C)C1(C)C)C(=O)OCCOC(=O)c1ccc(-c2c3nc(c(-c4c(F)c(F)c(F)c(F)c4F)c4ccc([nH]4)c(-c4c(F)c(F)c(F)c(F)c4F)c4nc(c(-c5c(F)c(F)c(F)c(F)c5F)c5ccc2[nH]5)C=C4)C=C3)cc1
REMARK SMILES IDX 17 1 16 2 14 3 15 4 2 5 1 6 3 7 4 8 5 10 6 11 7 13 8 14
REMARK SMILES IDX 11 15 9 16 10 17 12 18 13 19 18 20 19 21 20 22 21 23 22 24
REMARK SMILES IDX 23 25 84 26 24 27 83 28 25 29 26 30 27 31 77 32 28 33 82 34
REMARK SMILES IDX 76 35 78 36 29 37 81 38 75 39 74 40 30 42 62 43 42 44 61 45
REMARK SMILES IDX 43 46 46 47 60 48 79 49 44 50 45 51 59 53 80 54 47 55 31 56
REMARK SMILES IDX 32 57 40 58 33 59 34 60 38 61 41 62 35 63 36 64 39 65 37 66
REMARK SMILES IDX 63 67 64 68 72 69 65 70 66 71 70 72 73 73 67 74 68 75 71 76
REMARK SMILES IDX 69 77 48 78 49 79 57 80 50 81 51 82 55 83 58 84 52 85 53 86
REMARK SMILES IDX 56 87 54 88
REMARK H PARENT 3 9 6 12 78 41 46 52
REMARK Flexibility Score: inf
ROOT
ATOM      1  C   UNL     1      -3.095  -0.169   0.776  1.00  0.00     0.274 C 
ENDROOT
BRANCH   1   2
ATOM      2  O   UNL     1      -1.683   0.198   0.845  1.00  0.00    -0.461 OA
BRANCH   2   3
ATOM      3  C   UNL     1      -1.116   0.043   2.084  1.00  0.00     0.328 C 
ATOM      4  O   UNL     1      -1.778  -0.234   3.083  1.00  0.00    -0.250 OA
BRANCH   3   5
ATOM      5  C   UNL     1       0.446   0.078   2.116  1.00  0.00     0.190 C 
ATOM      6  C   UNL     1       0.930   0.745   3.406  1.00  0.00     0.043 C 
BRANCH   5   7
ATOM      7  N   UNL     1       1.212   0.628   0.983  1.00  0.00    -0.325 N 
ATOM      8  C   UNL     1       2.259   0.203   0.247  1.00  0.00     0.315 C 
ATOM      9  H   UNL     1       0.882   1.510   0.697  1.00  0.00     0.166 HD
ATOM     10  O   UNL     1       2.938   1.074  -0.308  1.00  0.00    -0.249 OA
ATOM     11  N   UNL     1       2.615  -1.084   0.020  1.00  0.00    -0.334 N 
ATOM     12  H   UNL     1       3.565  -1.173  -0.224  1.00  0.00     0.165 HD
BRANCH  11  13
ATOM     13  C   UNL     1       1.933  -2.360   0.050  1.00  0.00     0.096 C 
ATOM     14  C   UNL     1       1.807  -3.164   1.215  1.00  0.00    -0.007 C 
ATOM     15  C   UNL     1       0.466  -2.448   0.558  1.00  0.00    -0.007 C 
ATOM     16  C   UNL     1       1.935  -4.675   1.070  1.00  0.00     0.014 C 
ATOM     17  C   UNL     1       2.468  -2.676   2.485  1.00  0.00     0.014 C 
ATOM     18  C   UNL     1      -0.103  -1.691  -0.651  1.00  0.00     0.014 C 
ATOM     19  C   UNL     1      -0.619  -3.391   1.075  1.00  0.00     0.014 C 
ENDBRANCH  11  13
ENDBRANCH   5   7
ENDBRANCH   3   5
ENDBRANCH   2   3
ENDBRANCH   1   2
BRANCH   1  20
ATOM     20  C   UNL     1      -3.622  -0.326  -0.677  1.00  0.00     0.275 C 
BRANCH  20  21
ATOM     21  O   UNL     1      -3.315  -1.643  -1.208  1.00  0.00    -0.458 OA
BRANCH  21  22
ATOM     22  C   UNL     1      -3.561  -1.879  -2.533  1.00  0.00     0.338 C 
ATOM     23  O   UNL     1      -4.181  -1.145  -3.280  1.00  0.00    -0.246 OA
BRANCH  22  24
ATOM     24  C   UNL     1      -2.872  -3.141  -2.983  1.00  0.00     0.060 A 
ATOM     25  C   UNL     1      -1.912  -3.719  -2.166  1.00  0.00     0.016 A 
ATOM     26  C   UNL     1      -3.078  -3.730  -4.233  1.00  0.00     0.016 A 
ATOM     27  C   UNL     1      -1.060  -4.728  -2.595  1.00  0.00     0.010 A 
ATOM     28  C   UNL     1      -2.337  -4.878  -4.612  1.00  0.00     0.010 A 
ATOM     29  C   UNL     1      -1.314  -5.387  -3.790  1.00  0.00    -0.014 A 
BRANCH  29  30
ATOM     30  C   UNL     1      -0.551  -6.633  -4.082  1.00  0.00     0.031 A 
ATOM     31  C   UNL     1       0.336  -6.730  -5.286  1.00  0.00     0.074 A 
ATOM     32  C   UNL     1      -0.577  -7.663  -3.206  1.00  0.00     0.049 A 
ATOM     33  N   UNL     1       0.873  -7.790  -5.832  1.00  0.00    -0.248 NA
ATOM     34  C   UNL     1       0.694  -5.465  -5.945  1.00  0.00     0.031 C 
ATOM     35  C   UNL     1      -1.247  -7.655  -1.901  1.00  0.00     0.029 A 
ATOM     36  N   UNL     1      -0.015  -8.917  -3.269  1.00  0.00    -0.354 N 
ATOM     37  C   UNL     1       1.583  -7.332  -6.934  1.00  0.00     0.074 A 
ATOM     38  C   UNL     1       1.449  -5.890  -6.951  1.00  0.00     0.031 C 
ATOM     39  C   UNL     1      -1.038  -8.825  -1.283  1.00  0.00     0.029 A 
ATOM     40  C   UNL     1      -0.349  -9.719  -2.201  1.00  0.00     0.049 A 
ATOM     41  H   UNL     1       0.568  -9.212  -4.006  1.00  0.00     0.167 HD
ATOM     42  C   UNL     1       2.252  -8.062  -7.857  1.00  0.00     0.037 A 
ATOM     43  C   UNL     1      -0.210 -11.047  -2.020  1.00  0.00     0.037 A 
ATOM     44  C   UNL     1       2.390  -9.495  -7.807  1.00  0.00     0.049 A 
ATOM     45  C   UNL     1       0.392 -11.861  -3.131  1.00  0.00     0.074 A 
ATOM     46  C   UNL     1       2.978 -10.345  -8.728  1.00  0.00     0.029 A 
ATOM     47  N   UNL     1       1.935 -10.290  -6.764  1.00  0.00    -0.354 N 
ATOM     48  N   UNL     1       0.930 -11.453  -4.254  1.00  0.00    -0.248 NA
ATOM     49  C   UNL     1       0.361 -13.321  -2.974  1.00  0.00     0.031 C 
ATOM     50  C   UNL     1       2.838 -11.658  -8.262  1.00  0.00     0.029 A 
ATOM     51  C   UNL     1       2.201 -11.622  -7.033  1.00  0.00     0.049 A 
ATOM     52  H   UNL     1       1.490  -9.955  -5.953  1.00  0.00     0.167 HD
ATOM     53  C   UNL     1       1.293 -12.602  -4.941  1.00  0.00     0.074 A 
ATOM     54  C   UNL     1       0.948 -13.724  -4.092  1.00  0.00     0.031 C 
ATOM     55  C   UNL     1       1.845 -12.720  -6.172  1.00  0.00     0.037 A 
BRANCH  42  56
ATOM     56  C   UNL     1       2.796  -7.340  -9.052  1.00  0.00     0.064 A 
ATOM     57  C   UNL     1       3.977  -6.590  -9.003  1.00  0.00     0.173 A 
ATOM     58  C   UNL     1       2.125  -7.435 -10.281  1.00  0.00     0.173 A 
ATOM     59  F   UNL     1       4.646  -6.456  -7.848  1.00  0.00    -0.203 F 
ATOM     60  C   UNL     1       4.461  -5.948 -10.142  1.00  0.00     0.198 A 
ATOM     61  C   UNL     1       2.620  -6.809 -11.421  1.00  0.00     0.198 A 
ATOM     62  F   UNL     1       0.990  -8.144 -10.378  1.00  0.00    -0.203 F 
ATOM     63  F   UNL     1       5.576  -5.208 -10.071  1.00  0.00    -0.200 F 
ATOM     64  C   UNL     1       3.785  -6.062 -11.350  1.00  0.00     0.200 A 
ATOM     65  F   UNL     1       1.968  -6.927 -12.586  1.00  0.00    -0.200 F 
ATOM     66  F   UNL     1       4.254  -5.446 -12.444  1.00  0.00    -0.200 F 
ENDBRANCH  42  56
BRANCH  43  67
ATOM     67  C   UNL     1      -0.783 -11.708  -0.813  1.00  0.00     0.064 A 
ATOM     68  C   UNL     1       0.030 -12.391   0.101  1.00  0.00     0.173 A 
ATOM     69  C   UNL     1      -2.168 -11.706  -0.572  1.00  0.00     0.173 A 
ATOM     70  F   UNL     1       1.354 -12.455  -0.099  1.00  0.00    -0.203 F 
ATOM     71  C   UNL     1      -0.519 -13.055   1.198  1.00  0.00     0.198 A 
ATOM     72  C   UNL     1      -2.711 -12.335   0.545  1.00  0.00     0.198 A 
ATOM     73  F   UNL     1      -2.998 -11.081  -1.421  1.00  0.00    -0.203 F 
ATOM     74  F   UNL     1       0.276 -13.747   2.025  1.00  0.00    -0.200 F 
ATOM     75  C   UNL     1      -1.887 -13.020   1.423  1.00  0.00     0.200 A 
ATOM     76  F   UNL     1      -4.032 -12.284   0.763  1.00  0.00    -0.200 F 
ATOM     77  F   UNL     1      -2.413 -13.655   2.479  1.00  0.00    -0.200 F 
ENDBRANCH  43  67
BRANCH  55  78
ATOM     78  C   UNL     1       2.110 -14.109  -6.666  1.00  0.00     0.064 A 
ATOM     79  C   UNL     1       1.066 -14.932  -7.113  1.00  0.00     0.173 A 
ATOM     80  C   UNL     1       3.419 -14.607  -6.729  1.00  0.00     0.173 A 
ATOM     81  F   UNL     1      -0.204 -14.505  -7.050  1.00  0.00    -0.203 F 
ATOM     82  C   UNL     1       1.323 -16.212  -7.593  1.00  0.00     0.198 A 
ATOM     83  C   UNL     1       3.675 -15.878  -7.232  1.00  0.00     0.198 A 
ATOM     84  F   UNL     1       4.449 -13.855  -6.312  1.00  0.00    -0.203 F 
ATOM     85  F   UNL     1       0.308 -16.997  -7.980  1.00  0.00    -0.200 F 
ATOM     86  C   UNL     1       2.627 -16.681  -7.659  1.00  0.00     0.200 A 
ATOM     87  F   UNL     1       4.935 -16.328  -7.303  1.00  0.00    -0.200 F 
ATOM     88  F   UNL     1       2.874 -17.912  -8.129  1.00  0.00    -0.200 F 
ENDBRANCH  55  78
ENDBRANCH  29  30
ENDBRANCH  22  24
ENDBRANCH  21  22
ENDBRANCH  20  21
ENDBRANCH   1  20
TORSDOF 13
