REMARK SMILES CCNC(=O)c1ccc(N[C@@H]2COC[C@@]2(C)C(=O)OCCOC(=O)c2ccc(-c3c4nc(c(-c5c(F)c(F)c(F)c(F)c5F)c5ccc([nH]5)c(-c5c(F)c(F)c(F)c(F)c5F)c5nc(c(-c6c(F)c(F)c(F)c(F)c6F)c6ccc3[nH]6)C=C5)C=C4)cc2)nn1
REMARK SMILES IDX 20 1 19 2 17 3 18 4 15 5 11 6 12 7 13 8 14 9 16 10 10 11
REMARK SMILES IDX 9 13 6 14 7 15 89 16 8 17 88 18 4 19 3 20 5 22 2 23 1 24
REMARK SMILES IDX 21 25 22 26 23 27 24 28 25 29 26 30 87 31 27 32 86 33 28 34
REMARK SMILES IDX 29 35 30 36 80 37 31 38 85 39 79 40 81 41 32 42 84 43 78 44
REMARK SMILES IDX 77 45 33 47 65 48 45 49 64 50 46 51 49 52 63 53 82 54 47 55
REMARK SMILES IDX 48 56 62 58 83 59 50 60 34 61 35 62 43 63 36 64 37 65 41 66
REMARK SMILES IDX 44 67 38 68 39 69 42 70 40 71 66 72 67 73 75 74 68 75 69 76
REMARK SMILES IDX 73 77 76 78 70 79 71 80 74 81 72 82 51 83 52 84 60 85 53 86
REMARK SMILES IDX 54 87 58 88 61 89 55 90 56 91 59 92 57 93
REMARK H PARENT 10 12 3 21 81 46 49 57
REMARK Flexibility Score: inf
ROOT
ATOM      1  C   UNL     1      -8.730  -3.051   4.928  1.00  0.00     0.274 C 
ENDROOT
BRANCH   1   2
ATOM      2  O   UNL     1      -7.928  -1.995   4.356  1.00  0.00    -0.462 OA
BRANCH   2   3
ATOM      3  C   UNL     1      -7.320  -1.141   5.226  1.00  0.00     0.316 C 
ATOM      4  O   UNL     1      -7.394  -1.242   6.446  1.00  0.00    -0.251 OA
BRANCH   3   5
ATOM      5  C   UNL     1      -6.567  -0.016   4.535  1.00  0.00     0.111 C 
ATOM      6  C   UNL     1      -6.504  -0.112   3.010  1.00  0.00     0.126 C 
ATOM      7  C   UNL     1      -6.325   1.337   2.592  1.00  0.00     0.186 C 
ATOM      8  O   UNL     1      -7.118   2.098   3.528  1.00  0.00    -0.378 OA
ATOM      9  C   UNL     1      -7.410   1.259   4.665  1.00  0.00     0.181 C 
ATOM     10  C   UNL     1      -5.228   0.235   5.247  1.00  0.00     0.028 C 
BRANCH   6  11
ATOM     11  N   UNL     1      -5.629  -1.121   2.420  1.00  0.00    -0.362 N 
ATOM     12  H   UNL     1      -6.073  -1.906   2.026  1.00  0.00     0.162 HD
BRANCH  11  13
ATOM     13  C   UNL     1      -4.253  -1.099   2.352  1.00  0.00     0.149 A 
ATOM     14  C   UNL     1      -1.518  -1.198   2.442  1.00  0.00     0.150 A 
ATOM     15  C   UNL     1      -2.194  -2.280   1.912  1.00  0.00     0.040 A 
ATOM     16  N   UNL     1      -2.160  -0.092   2.860  1.00  0.00    -0.143 NA
ATOM     17  C   UNL     1      -3.585  -2.218   1.861  1.00  0.00     0.051 A 
ATOM     18  N   UNL     1      -3.537  -0.043   2.778  1.00  0.00    -0.132 NA
BRANCH  14  19
ATOM     19  C   UNL     1      -0.081  -1.302   2.771  1.00  0.00     0.271 C 
ATOM     20  N   UNL     1       0.855  -1.456   1.776  1.00  0.00    -0.351 N 
ATOM     21  H   UNL     1       1.747  -1.751   2.070  1.00  0.00     0.163 HD
ATOM     22  O   UNL     1       0.264  -1.320   3.949  1.00  0.00    -0.267 OA
BRANCH  20  23
ATOM     23  C   UNL     1       0.703  -1.243   0.350  1.00  0.00     0.113 C 
ATOM     24  C   UNL     1       1.145   0.157  -0.035  1.00  0.00     0.027 C 
ENDBRANCH  20  23
ENDBRANCH  14  19
ENDBRANCH  11  13
ENDBRANCH   6  11
ENDBRANCH   3   5
ENDBRANCH   2   3
ENDBRANCH   1   2
BRANCH   1  25
ATOM     25  C   UNL     1      -8.164  -4.413   4.534  1.00  0.00     0.275 C 
BRANCH  25  26
ATOM     26  O   UNL     1      -6.853  -4.559   5.097  1.00  0.00    -0.458 OA
BRANCH  26  27
ATOM     27  C   UNL     1      -5.838  -4.713   4.207  1.00  0.00     0.338 C 
ATOM     28  O   UNL     1      -5.917  -4.805   2.984  1.00  0.00    -0.246 OA
BRANCH  27  29
ATOM     29  C   UNL     1      -4.555  -4.636   4.917  1.00  0.00     0.060 A 
ATOM     30  C   UNL     1      -4.160  -3.399   5.403  1.00  0.00     0.016 A 
ATOM     31  C   UNL     1      -3.692  -5.724   4.960  1.00  0.00     0.016 A 
ATOM     32  C   UNL     1      -2.856  -3.209   5.858  1.00  0.00     0.010 A 
ATOM     33  C   UNL     1      -2.408  -5.557   5.504  1.00  0.00     0.010 A 
ATOM     34  C   UNL     1      -1.961  -4.287   5.916  1.00  0.00    -0.014 A 
BRANCH  34  35
ATOM     35  C   UNL     1      -0.548  -4.059   6.339  1.00  0.00     0.031 A 
ATOM     36  C   UNL     1       0.586  -4.325   5.382  1.00  0.00     0.074 A 
ATOM     37  C   UNL     1      -0.271  -3.567   7.564  1.00  0.00     0.049 A 
ATOM     38  N   UNL     1       1.880  -4.286   5.591  1.00  0.00    -0.248 NA
ATOM     39  C   UNL     1       0.218  -4.718   4.012  1.00  0.00     0.031 C 
ATOM     40  C   UNL     1      -1.259  -3.237   8.590  1.00  0.00     0.029 A 
ATOM     41  N   UNL     1       0.931  -3.237   8.143  1.00  0.00    -0.354 N 
ATOM     42  C   UNL     1       2.471  -4.669   4.395  1.00  0.00     0.074 A 
ATOM     43  C   UNL     1       1.401  -4.962   3.467  1.00  0.00     0.031 C 
ATOM     44  C   UNL     1      -0.631  -2.700   9.649  1.00  0.00     0.029 A 
ATOM     45  C   UNL     1       0.808  -2.702   9.402  1.00  0.00     0.049 A 
ATOM     46  H   UNL     1       1.799  -3.371   7.698  1.00  0.00     0.167 HD
ATOM     47  C   UNL     1       3.788  -4.766   4.094  1.00  0.00     0.037 A 
ATOM     48  C   UNL     1       1.746  -2.272  10.267  1.00  0.00     0.037 A 
ATOM     49  C   UNL     1       4.862  -4.412   4.982  1.00  0.00     0.049 A 
ATOM     50  C   UNL     1       3.200  -2.374   9.900  1.00  0.00     0.074 A 
ATOM     51  C   UNL     1       6.227  -4.489   4.763  1.00  0.00     0.029 A 
ATOM     52  N   UNL     1       4.690  -3.884   6.252  1.00  0.00    -0.354 N 
ATOM     53  N   UNL     1       3.746  -2.811   8.792  1.00  0.00    -0.248 NA
ATOM     54  C   UNL     1       4.171  -1.942  10.917  1.00  0.00     0.031 C 
ATOM     55  C   UNL     1       6.883  -4.024   5.908  1.00  0.00     0.029 A 
ATOM     56  C   UNL     1       5.925  -3.636   6.829  1.00  0.00     0.049 A 
ATOM     57  H   UNL     1       3.821  -3.710   6.680  1.00  0.00     0.167 HD
ATOM     58  C   UNL     1       5.117  -2.711   8.979  1.00  0.00     0.074 A 
ATOM     59  C   UNL     1       5.324  -2.143  10.294  1.00  0.00     0.031 C 
ATOM     60  C   UNL     1       6.116  -3.076   8.140  1.00  0.00     0.037 A 
BRANCH  47  61
ATOM     61  C   UNL     1       4.149  -5.305   2.745  1.00  0.00     0.064 A 
ATOM     62  C   UNL     1       4.068  -4.517   1.589  1.00  0.00     0.173 A 
ATOM     63  C   UNL     1       4.629  -6.617   2.620  1.00  0.00     0.173 A 
ATOM     64  F   UNL     1       3.590  -3.264   1.655  1.00  0.00    -0.203 F 
ATOM     65  C   UNL     1       4.449  -5.029   0.352  1.00  0.00     0.198 A 
ATOM     66  C   UNL     1       5.027  -7.119   1.385  1.00  0.00     0.198 A 
ATOM     67  F   UNL     1       4.721  -7.409   3.700  1.00  0.00    -0.203 F 
ATOM     68  F   UNL     1       4.335  -4.271  -0.748  1.00  0.00    -0.200 F 
ATOM     69  C   UNL     1       4.935  -6.326   0.252  1.00  0.00     0.200 A 
ATOM     70  F   UNL     1       5.498  -8.371   1.291  1.00  0.00    -0.200 F 
ATOM     71  F   UNL     1       5.306  -6.813  -0.940  1.00  0.00    -0.200 F 
ENDBRANCH  47  61
BRANCH  48  72
ATOM     72  C   UNL     1       1.342  -1.722  11.586  1.00  0.00     0.064 A 
ATOM     73  C   UNL     1       1.487  -0.358  11.871  1.00  0.00     0.173 A 
ATOM     74  C   UNL     1       0.822  -2.549  12.590  1.00  0.00     0.173 A 
ATOM     75  F   UNL     1       2.013   0.467  10.953  1.00  0.00    -0.203 F 
ATOM     76  C   UNL     1       1.138   0.156  13.118  1.00  0.00     0.198 A 
ATOM     77  C   UNL     1       0.450  -2.030  13.828  1.00  0.00     0.198 A 
ATOM     78  F   UNL     1       0.671  -3.864  12.367  1.00  0.00    -0.203 F 
ATOM     79  F   UNL     1       1.329   1.457  13.383  1.00  0.00    -0.200 F 
ATOM     80  C   UNL     1       0.614  -0.680  14.093  1.00  0.00     0.200 A 
ATOM     81  F   UNL     1      -0.061  -2.841  14.765  1.00  0.00    -0.200 F 
ATOM     82  F   UNL     1       0.279  -0.185  15.293  1.00  0.00    -0.200 F 
ENDBRANCH  48  72
BRANCH  60  83
ATOM     83  C   UNL     1       7.518  -2.877   8.626  1.00  0.00     0.064 A 
ATOM     84  C   UNL     1       8.088  -3.748   9.565  1.00  0.00     0.173 A 
ATOM     85  C   UNL     1       8.304  -1.825   8.136  1.00  0.00     0.173 A 
ATOM     86  F   UNL     1       7.368  -4.760  10.072  1.00  0.00    -0.203 F 
ATOM     87  C   UNL     1       9.392  -3.559  10.014  1.00  0.00     0.198 A 
ATOM     88  C   UNL     1       9.614  -1.650   8.573  1.00  0.00     0.198 A 
ATOM     89  F   UNL     1       7.803  -0.970   7.232  1.00  0.00    -0.203 F 
ATOM     90  F   UNL     1       9.906  -4.381  10.940  1.00  0.00    -0.200 F 
ATOM     91  C   UNL     1      10.154  -2.513   9.516  1.00  0.00     0.200 A 
ATOM     92  F   UNL     1      10.353  -0.643   8.088  1.00  0.00    -0.200 F 
ATOM     93  F   UNL     1      11.409  -2.331   9.950  1.00  0.00    -0.200 F 
ENDBRANCH  60  83
ENDBRANCH  34  35
ENDBRANCH  27  29
ENDBRANCH  26  27
ENDBRANCH  25  26
ENDBRANCH   1  25
TORSDOF 15
