REMARK SMILES C#Cc1cc(Cl)cc2c1O[C@H](C(F)(F)F)C(C(=O)OCCOC(=O)c1ccc(-c3c4nc(c(-c5c(F)c(F)c(F)c(F)c5F)c5ccc([nH]5)c(-c5c(F)c(F)c(F)c(F)c5F)c5nc(c(-c6c(F)c(F)c(F)c(F)c6F)c6ccc3[nH]6)C=C5)C=C4)cc1)=C2
REMARK SMILES IDX 21 1 20 2 19 3 17 4 18 5 16 6 3 7 4 8 9 9 5 10 8 11 10 12
REMARK SMILES IDX 6 13 7 14 88 15 11 16 2 17 1 18 12 19 13 20 14 21 15 22
REMARK SMILES IDX 22 23 23 24 24 25 25 26 26 27 87 28 27 29 86 30 28 31 29 32
REMARK SMILES IDX 30 33 80 34 31 35 85 36 79 37 81 38 32 39 84 40 78 41 77 42
REMARK SMILES IDX 33 44 65 45 45 46 64 47 46 48 49 49 63 50 82 51 47 52 48 53
REMARK SMILES IDX 62 55 83 56 50 57 34 58 35 59 43 60 36 61 37 62 41 63 44 64
REMARK SMILES IDX 38 65 39 66 42 67 40 68 66 69 67 70 75 71 68 72 69 73 73 74
REMARK SMILES IDX 76 75 70 76 71 77 74 78 72 79 51 80 52 81 60 82 53 83 54 84
REMARK SMILES IDX 58 85 61 86 55 87 56 88 59 89 57 90
REMARK H PARENT 81 43 49 54
REMARK Flexibility Score: inf
ROOT
ATOM      1  C   UNL     1      -5.761  -7.348   1.168  1.00  0.00     0.275 C 
ENDROOT
BRANCH   1   2
ATOM      2  C   UNL     1      -4.746  -7.149   0.040  1.00  0.00     0.275 C 
BRANCH   2   3
ATOM      3  O   UNL     1      -4.017  -5.910   0.199  1.00  0.00    -0.459 OA
BRANCH   3   4
ATOM      4  C   UNL     1      -4.415  -4.894  -0.599  1.00  0.00     0.338 C 
ATOM      5  O   UNL     1      -5.285  -4.940  -1.455  1.00  0.00    -0.246 OA
BRANCH   4   6
ATOM      6  C   UNL     1      -3.660  -3.661  -0.301  1.00  0.00     0.087 C 
ATOM      7  C   UNL     1      -1.545  -0.056  -0.026  1.00  0.00     0.068 A 
ATOM      8  C   UNL     1      -2.255   1.152  -0.004  1.00  0.00     0.041 A 
ATOM      9  C   UNL     1      -2.232  -1.279  -0.055  1.00  0.00     0.143 A 
ATOM     10  C   UNL     1      -3.646   1.141   0.008  1.00  0.00     0.043 A 
ATOM     11  C   UNL     1      -3.626  -1.273  -0.049  1.00  0.00     0.020 A 
ATOM     12  O   UNL     1      -1.501  -2.440  -0.072  1.00  0.00    -0.474 OA
ATOM     13  Cl  UNL     1      -4.522   2.621   0.023  1.00  0.00    -0.084 Cl
ATOM     14  C   UNL     1      -4.337  -0.066  -0.006  1.00  0.00     0.032 A 
ATOM     15  C   UNL     1      -4.346  -2.525  -0.140  1.00  0.00     0.027 C 
ATOM     16  C   UNL     1      -2.164  -3.703  -0.363  1.00  0.00     0.316 C 
BRANCH   7  17
ATOM     17  C   UNL     1      -0.115  -0.015  -0.039  1.00  0.00    -0.067 C 
ATOM     18  C   UNL     1       1.087   0.012  -0.053  1.00  0.00     0.010 C 
ENDBRANCH   7  17
BRANCH  16  19
ATOM     19  C   UNL     1      -1.686  -4.221  -1.729  1.00  0.00     0.430 C 
ATOM     20  F   UNL     1      -0.335  -4.250  -1.806  1.00  0.00    -0.167 F 
ATOM     21  F   UNL     1      -2.112  -5.488  -1.956  1.00  0.00    -0.167 F 
ATOM     22  F   UNL     1      -2.138  -3.456  -2.749  1.00  0.00    -0.167 F 
ENDBRANCH  16  19
ENDBRANCH   4   6
ENDBRANCH   3   4
ENDBRANCH   2   3
ENDBRANCH   1   2
BRANCH   1  23
ATOM     23  O   UNL     1      -6.847  -6.407   1.059  1.00  0.00    -0.458 OA
BRANCH  23  24
ATOM     24  C   UNL     1      -6.707  -5.299   1.816  1.00  0.00     0.338 C 
ATOM     25  O   UNL     1      -5.793  -5.028   2.578  1.00  0.00    -0.246 OA
BRANCH  24  26
ATOM     26  C   UNL     1      -7.774  -4.335   1.525  1.00  0.00     0.060 A 
ATOM     27  C   UNL     1      -7.617  -3.522   0.413  1.00  0.00     0.016 A 
ATOM     28  C   UNL     1      -8.758  -4.048   2.464  1.00  0.00     0.016 A 
ATOM     29  C   UNL     1      -8.281  -2.308   0.340  1.00  0.00     0.010 A 
ATOM     30  C   UNL     1      -9.567  -2.920   2.280  1.00  0.00     0.010 A 
ATOM     31  C   UNL     1      -9.299  -2.001   1.248  1.00  0.00    -0.014 A 
BRANCH  31  32
ATOM     32  C   UNL     1     -10.061  -0.727   1.108  1.00  0.00     0.031 A 
ATOM     33  C   UNL     1     -10.192   0.218   2.276  1.00  0.00     0.074 A 
ATOM     34  C   UNL     1     -10.618  -0.402  -0.079  1.00  0.00     0.049 A 
ATOM     35  N   UNL     1     -10.960   1.272   2.404  1.00  0.00    -0.248 NA
ATOM     36  C   UNL     1      -9.366  -0.062   3.462  1.00  0.00     0.031 C 
ATOM     37  C   UNL     1     -10.517  -1.192  -1.311  1.00  0.00     0.029 A 
ATOM     38  N   UNL     1     -11.372   0.683  -0.455  1.00  0.00    -0.354 N 
ATOM     39  C   UNL     1     -10.742   1.748   3.692  1.00  0.00     0.074 A 
ATOM     40  C   UNL     1      -9.791   0.857   4.318  1.00  0.00     0.031 C 
ATOM     41  C   UNL     1     -11.126  -0.542  -2.310  1.00  0.00     0.029 A 
ATOM     42  C   UNL     1     -11.775   0.643  -1.770  1.00  0.00     0.049 A 
ATOM     43  H   UNL     1     -11.602   1.418   0.157  1.00  0.00     0.167 HD
ATOM     44  C   UNL     1     -11.282   2.838   4.287  1.00  0.00     0.037 A 
ATOM     45  C   UNL     1     -12.619   1.433  -2.458  1.00  0.00     0.037 A 
ATOM     46  C   UNL     1     -12.192   3.744   3.635  1.00  0.00     0.049 A 
ATOM     47  C   UNL     1     -13.275   2.579  -1.742  1.00  0.00     0.074 A 
ATOM     48  C   UNL     1     -12.796   4.877   4.153  1.00  0.00     0.029 A 
ATOM     49  N   UNL     1     -12.616   3.631   2.319  1.00  0.00    -0.354 N 
ATOM     50  N   UNL     1     -13.099   2.992  -0.511  1.00  0.00    -0.248 NA
ATOM     51  C   UNL     1     -14.259   3.358  -2.504  1.00  0.00     0.031 C 
ATOM     52  C   UNL     1     -13.629   5.415   3.170  1.00  0.00     0.029 A 
ATOM     53  C   UNL     1     -13.494   4.660   2.017  1.00  0.00     0.049 A 
ATOM     54  H   UNL     1     -12.335   2.925   1.693  1.00  0.00     0.167 HD
ATOM     55  C   UNL     1     -13.927   4.094  -0.359  1.00  0.00     0.074 A 
ATOM     56  C   UNL     1     -14.589   4.299  -1.631  1.00  0.00     0.031 C 
ATOM     57  C   UNL     1     -14.128   4.861   0.739  1.00  0.00     0.037 A 
BRANCH  44  58
ATOM     58  C   UNL     1     -10.922   3.123   5.718  1.00  0.00     0.064 A 
ATOM     59  C   UNL     1      -9.650   3.585   6.083  1.00  0.00     0.173 A 
ATOM     60  C   UNL     1     -11.898   3.032   6.725  1.00  0.00     0.173 A 
ATOM     61  F   UNL     1      -8.677   3.680   5.164  1.00  0.00    -0.203 F 
ATOM     62  C   UNL     1      -9.366   3.940   7.400  1.00  0.00     0.198 A 
ATOM     63  C   UNL     1     -11.620   3.418   8.034  1.00  0.00     0.198 A 
ATOM     64  F   UNL     1     -13.134   2.601   6.431  1.00  0.00    -0.203 F 
ATOM     65  F   UNL     1      -8.134   4.354   7.730  1.00  0.00    -0.200 F 
ATOM     66  C   UNL     1     -10.354   3.870   8.370  1.00  0.00     0.200 A 
ATOM     67  F   UNL     1     -12.583   3.368   8.965  1.00  0.00    -0.200 F 
ATOM     68  F   UNL     1     -10.087   4.241   9.630  1.00  0.00    -0.200 F 
ENDBRANCH  44  58
BRANCH  45  69
ATOM     69  C   UNL     1     -12.918   1.144  -3.888  1.00  0.00     0.064 A 
ATOM     70  C   UNL     1     -12.554   2.049  -4.894  1.00  0.00     0.173 A 
ATOM     71  C   UNL     1     -13.566  -0.038  -4.282  1.00  0.00     0.173 A 
ATOM     72  F   UNL     1     -11.952   3.203  -4.570  1.00  0.00    -0.203 F 
ATOM     73  C   UNL     1     -12.842   1.792  -6.233  1.00  0.00     0.198 A 
ATOM     74  C   UNL     1     -13.816  -0.313  -5.624  1.00  0.00     0.198 A 
ATOM     75  F   UNL     1     -13.937  -0.942  -3.363  1.00  0.00    -0.203 F 
ATOM     76  F   UNL     1     -12.530   2.700  -7.168  1.00  0.00    -0.200 F 
ATOM     77  C   UNL     1     -13.463   0.608  -6.598  1.00  0.00     0.200 A 
ATOM     78  F   UNL     1     -14.396  -1.469  -5.973  1.00  0.00    -0.200 F 
ATOM     79  F   UNL     1     -13.729   0.357  -7.887  1.00  0.00    -0.200 F 
ENDBRANCH  45  69
BRANCH  57  80
ATOM     80  C   UNL     1     -15.073   6.020   0.613  1.00  0.00     0.064 A 
ATOM     81  C   UNL     1     -16.456   5.829   0.485  1.00  0.00     0.173 A 
ATOM     82  C   UNL     1     -14.595   7.337   0.696  1.00  0.00     0.173 A 
ATOM     83  F   UNL     1     -16.962   4.590   0.387  1.00  0.00    -0.203 F 
ATOM     84  C   UNL     1     -17.325   6.915   0.429  1.00  0.00     0.198 A 
ATOM     85  C   UNL     1     -15.470   8.418   0.678  1.00  0.00     0.198 A 
ATOM     86  F   UNL     1     -13.281   7.573   0.827  1.00  0.00    -0.203 F 
ATOM     87  F   UNL     1     -18.639   6.710   0.263  1.00  0.00    -0.200 F 
ATOM     88  C   UNL     1     -16.833   8.207   0.538  1.00  0.00     0.200 A 
ATOM     89  F   UNL     1     -14.994   9.665   0.806  1.00  0.00    -0.200 F 
ATOM     90  F   UNL     1     -17.674   9.250   0.508  1.00  0.00    -0.200 F 
ENDBRANCH  57  80
ENDBRANCH  31  32
ENDBRANCH  24  26
ENDBRANCH  23  24
ENDBRANCH   1  23
TORSDOF 13
