REMARK SMILES CC[C@@H](C)SCc1cc(F)cc(/C=C/C(=O)OCCOC(=O)c2ccc(-c3c4nc(c(-c5c(F)c(F)c(F)c(F)c5F)c5ccc([nH]5)c(-c5c(F)c(F)c(F)c(F)c5F)c5nc(c(-c6c(F)c(F)c(F)c(F)c6F)c6ccc3[nH]6)C=C5)C=C4)cc2)c1
REMARK SMILES IDX 17 1 15 2 16 3 14 4 13 5 12 6 7 7 8 8 86 9 9 10 10 11 11 12
REMARK SMILES IDX 6 13 5 14 3 15 4 16 2 17 1 18 18 19 19 20 20 21 21 22 22 23
REMARK SMILES IDX 23 24 24 25 85 26 25 27 84 28 26 29 27 30 28 31 78 32 29 33
REMARK SMILES IDX 83 34 77 35 79 36 30 37 82 38 76 39 75 40 31 42 63 43 43 44
REMARK SMILES IDX 62 45 44 46 47 47 61 48 80 49 45 50 46 51 60 53 81 54 48 55
REMARK SMILES IDX 32 56 33 57 41 58 34 59 35 60 39 61 42 62 36 63 37 64 40 65
REMARK SMILES IDX 38 66 64 67 65 68 73 69 66 70 67 71 71 72 74 73 68 74 69 75
REMARK SMILES IDX 72 76 70 77 49 78 50 79 58 80 51 81 52 82 56 83 59 84 53 85
REMARK SMILES IDX 54 86 57 87 55 88
REMARK H PARENT 79 41 47 52
REMARK Flexibility Score: inf
ROOT
ATOM      1  O   UNL     1      -4.152  -0.881   4.236  1.00  0.00    -0.459 OA
ENDROOT
BRANCH   1   2
ATOM      2  C   UNL     1      -3.250  -1.838   4.550  1.00  0.00     0.330 C 
ATOM      3  O   UNL     1      -2.822  -2.095   5.666  1.00  0.00    -0.247 OA
BRANCH   2   4
ATOM      4  C   UNL     1      -2.832  -2.630   3.377  1.00  0.00     0.094 C 
ATOM      5  C   UNL     1      -3.398  -2.581   2.161  1.00  0.00     0.016 C 
BRANCH   5   6
ATOM      6  C   UNL     1      -2.944  -3.469   1.085  1.00  0.00    -0.022 A 
ATOM      7  C   UNL     1      -1.968  -3.732  -1.138  1.00  0.00    -0.035 A 
ATOM      8  C   UNL     1      -1.904  -5.117  -0.932  1.00  0.00     0.043 A 
ATOM      9  C   UNL     1      -2.533  -2.921  -0.137  1.00  0.00     0.013 A 
ATOM     10  C   UNL     1      -2.364  -5.662   0.259  1.00  0.00     0.124 A 
ATOM     11  F   UNL     1      -2.288  -6.985   0.453  1.00  0.00    -0.207 F 
ATOM     12  C   UNL     1      -2.875  -4.854   1.268  1.00  0.00     0.047 A 
BRANCH   7  13
ATOM     13  C   UNL     1      -1.399  -3.118  -2.390  1.00  0.00     0.105 C 
BRANCH  13  14
ATOM     14  S   UNL     1       0.417  -3.248  -2.525  1.00  0.00    -0.154 SA
BRANCH  14  15
ATOM     15  C   UNL     1       1.048  -2.163  -1.170  1.00  0.00     0.043 C 
ATOM     16  C   UNL     1       0.956  -2.831   0.201  1.00  0.00     0.019 C 
BRANCH  15  17
ATOM     17  C   UNL     1       0.457  -0.746  -1.222  1.00  0.00     0.011 C 
ATOM     18  C   UNL     1       1.034   0.187  -0.164  1.00  0.00     0.005 C 
ENDBRANCH  15  17
ENDBRANCH  14  15
ENDBRANCH  13  14
ENDBRANCH   7  13
ENDBRANCH   5   6
ENDBRANCH   2   4
ENDBRANCH   1   2
BRANCH   1  19
ATOM     19  C   UNL     1      -4.738  -0.184   5.350  1.00  0.00     0.275 C 
BRANCH  19  20
ATOM     20  C   UNL     1      -6.140  -0.717   5.657  1.00  0.00     0.275 C 
BRANCH  20  21
ATOM     21  O   UNL     1      -6.108  -2.070   6.150  1.00  0.00    -0.458 OA
BRANCH  21  22
ATOM     22  C   UNL     1      -6.202  -3.030   5.199  1.00  0.00     0.338 C 
ATOM     23  O   UNL     1      -6.334  -2.868   3.997  1.00  0.00    -0.246 OA
BRANCH  22  24
ATOM     24  C   UNL     1      -6.014  -4.362   5.803  1.00  0.00     0.060 A 
ATOM     25  C   UNL     1      -5.082  -5.223   5.215  1.00  0.00     0.016 A 
ATOM     26  C   UNL     1      -6.797  -4.793   6.877  1.00  0.00     0.016 A 
ATOM     27  C   UNL     1      -4.936  -6.524   5.692  1.00  0.00     0.010 A 
ATOM     28  C   UNL     1      -6.651  -6.101   7.353  1.00  0.00     0.010 A 
ATOM     29  C   UNL     1      -5.730  -6.978   6.754  1.00  0.00    -0.014 A 
BRANCH  29  30
ATOM     30  C   UNL     1      -5.623  -8.388   7.203  1.00  0.00     0.031 A 
ATOM     31  C   UNL     1      -6.665  -9.389   6.795  1.00  0.00     0.074 A 
ATOM     32  C   UNL     1      -4.572  -8.775   7.949  1.00  0.00     0.049 A 
ATOM     33  N   UNL     1      -6.760 -10.658   7.104  1.00  0.00    -0.248 NA
ATOM     34  C   UNL     1      -7.743  -8.899   5.923  1.00  0.00     0.031 C 
ATOM     35  C   UNL     1      -3.480  -7.905   8.378  1.00  0.00     0.029 A 
ATOM     36  N   UNL     1      -4.252 -10.003   8.474  1.00  0.00    -0.354 N 
ATOM     37  C   UNL     1      -7.905 -11.117   6.469  1.00  0.00     0.074 A 
ATOM     38  C   UNL     1      -8.488  -9.986   5.777  1.00  0.00     0.031 C 
ATOM     39  C   UNL     1      -2.603  -8.627   9.094  1.00  0.00     0.029 A 
ATOM     40  C   UNL     1      -3.090 -10.001   9.204  1.00  0.00     0.049 A 
ATOM     41  H   UNL     1      -4.803 -10.807   8.340  1.00  0.00     0.167 HD
ATOM     42  C   UNL     1      -8.417 -12.371   6.457  1.00  0.00     0.037 A 
ATOM     43  C   UNL     1      -2.493 -10.991   9.895  1.00  0.00     0.037 A 
ATOM     44  C   UNL     1      -7.831 -13.497   7.136  1.00  0.00     0.049 A 
ATOM     45  C   UNL     1      -3.114 -12.361   9.915  1.00  0.00     0.074 A 
ATOM     46  C   UNL     1      -8.273 -14.809   7.168  1.00  0.00     0.029 A 
ATOM     47  N   UNL     1      -6.678 -13.445   7.904  1.00  0.00    -0.354 N 
ATOM     48  N   UNL     1      -4.196 -12.786   9.310  1.00  0.00    -0.248 NA
ATOM     49  C   UNL     1      -2.435 -13.388  10.719  1.00  0.00     0.031 C 
ATOM     50  C   UNL     1      -7.410 -15.542   7.988  1.00  0.00     0.029 A 
ATOM     51  C   UNL     1      -6.405 -14.697   8.431  1.00  0.00     0.049 A 
ATOM     52  H   UNL     1      -6.133 -12.639   8.052  1.00  0.00     0.167 HD
ATOM     53  C   UNL     1      -4.319 -14.127   9.644  1.00  0.00     0.074 A 
ATOM     54  C   UNL     1      -3.194 -14.453  10.494  1.00  0.00     0.031 C 
ATOM     55  C   UNL     1      -5.282 -15.008   9.278  1.00  0.00     0.037 A 
BRANCH  42  56
ATOM     56  C   UNL     1      -9.685 -12.601   5.692  1.00  0.00     0.064 A 
ATOM     57  C   UNL     1     -10.889 -12.847   6.369  1.00  0.00     0.173 A 
ATOM     58  C   UNL     1      -9.696 -12.652   4.290  1.00  0.00     0.173 A 
ATOM     59  F   UNL     1     -10.928 -12.815   7.710  1.00  0.00    -0.203 F 
ATOM     60  C   UNL     1     -12.055 -13.148   5.671  1.00  0.00     0.198 A 
ATOM     61  C   UNL     1     -10.869 -12.932   3.595  1.00  0.00     0.198 A 
ATOM     62  F   UNL     1      -8.572 -12.414   3.598  1.00  0.00    -0.203 F 
ATOM     63  F   UNL     1     -13.186 -13.408   6.341  1.00  0.00    -0.200 F 
ATOM     64  C   UNL     1     -12.045 -13.188   4.285  1.00  0.00     0.200 A 
ATOM     65  F   UNL     1     -10.864 -12.951   2.255  1.00  0.00    -0.200 F 
ATOM     66  F   UNL     1     -13.169 -13.473   3.614  1.00  0.00    -0.200 F 
ENDBRANCH  42  56
BRANCH  43  67
ATOM     67  C   UNL     1      -1.230 -10.715  10.627  1.00  0.00     0.064 A 
ATOM     68  C   UNL     1      -1.216  -9.905  11.771  1.00  0.00     0.173 A 
ATOM     69  C   UNL     1      -0.011 -11.242  10.183  1.00  0.00     0.173 A 
ATOM     70  F   UNL     1      -2.359  -9.380  12.237  1.00  0.00    -0.203 F 
ATOM     71  C   UNL     1      -0.025  -9.615  12.432  1.00  0.00     0.198 A 
ATOM     72  C   UNL     1       1.177 -10.971  10.859  1.00  0.00     0.198 A 
ATOM     73  F   UNL     1       0.021 -12.043   9.108  1.00  0.00    -0.203 F 
ATOM     74  F   UNL     1      -0.035  -8.814  13.507  1.00  0.00    -0.200 F 
ATOM     75  C   UNL     1       1.170 -10.151  11.978  1.00  0.00     0.200 A 
ATOM     76  F   UNL     1       2.327 -11.512  10.433  1.00  0.00    -0.200 F 
ATOM     77  F   UNL     1       2.315  -9.882  12.621  1.00  0.00    -0.200 F 
ENDBRANCH  43  67
BRANCH  55  78
ATOM     78  C   UNL     1      -5.163 -16.416   9.781  1.00  0.00     0.064 A 
ATOM     79  C   UNL     1      -4.825 -17.459   8.905  1.00  0.00     0.173 A 
ATOM     80  C   UNL     1      -5.455 -16.743  11.113  1.00  0.00     0.173 A 
ATOM     81  F   UNL     1      -4.544 -17.199   7.620  1.00  0.00    -0.203 F 
ATOM     82  C   UNL     1      -4.798 -18.781   9.343  1.00  0.00     0.198 A 
ATOM     83  C   UNL     1      -5.404 -18.063  11.552  1.00  0.00     0.198 A 
ATOM     84  F   UNL     1      -5.771 -15.779  11.990  1.00  0.00    -0.203 F 
ATOM     85  F   UNL     1      -4.502 -19.765   8.482  1.00  0.00    -0.200 F 
ATOM     86  C   UNL     1      -5.084 -19.081  10.666  1.00  0.00     0.200 A 
ATOM     87  F   UNL     1      -5.660 -18.350  12.836  1.00  0.00    -0.200 F 
ATOM     88  F   UNL     1      -5.050 -20.353  11.088  1.00  0.00    -0.200 F 
ENDBRANCH  55  78
ENDBRANCH  29  30
ENDBRANCH  22  24
ENDBRANCH  21  22
ENDBRANCH  20  21
ENDBRANCH  19  20
ENDBRANCH   1  19
TORSDOF 16
