REMARK SMILES COc1ncccc1C[C@H](C(=O)OCCOC(=O)c1ccc(-c2c3nc(c(-c4c(F)c(F)c(F)c(F)c4F)c4ccc([nH]4)c(-c4c(F)c(F)c(F)c(F)c4F)c4nc(c(-c5c(F)c(F)c(F)c(F)c5F)c5ccc2[nH]5)C=C4)C=C3)cc1)c1ccc(F)cc1
REMARK SMILES IDX 14 1 13 2 11 3 12 4 10 5 9 6 8 7 3 8 4 9 5 10 7 11 6 12 2 13
REMARK SMILES IDX 1 14 82 15 83 16 88 17 84 18 87 19 85 20 86 21 15 22 16 23
REMARK SMILES IDX 17 24 18 25 19 26 20 27 81 28 21 29 80 30 22 31 23 32 24 33
REMARK SMILES IDX 74 34 25 35 79 36 73 37 75 38 26 39 78 40 72 41 71 42 27 44
REMARK SMILES IDX 59 45 39 46 58 47 40 48 43 49 57 50 76 51 41 52 42 53 56 55
REMARK SMILES IDX 77 56 44 57 28 58 29 59 37 60 30 61 31 62 35 63 38 64 32 65
REMARK SMILES IDX 33 66 36 67 34 68 60 69 61 70 69 71 62 72 63 73 67 74 70 75
REMARK SMILES IDX 64 76 65 77 68 78 66 79 45 80 46 81 54 82 47 83 48 84 52 85
REMARK SMILES IDX 55 86 49 87 50 88 53 89 51 90
REMARK H PARENT 75 43 43 54
REMARK Flexibility Score: inf
ROOT
ATOM      1  C   UNL     1       3.518  -2.732  -2.498  1.00  0.00     0.274 C 
ENDROOT
BRANCH   1   2
ATOM      2  O   UNL     1       3.130  -1.349  -2.667  1.00  0.00    -0.462 OA
BRANCH   2   3
ATOM      3  C   UNL     1       2.694  -0.733  -1.534  1.00  0.00     0.313 C 
ATOM      4  O   UNL     1       2.679  -1.260  -0.425  1.00  0.00    -0.252 OA
BRANCH   3   5
ATOM      5  C   UNL     1       2.197   0.692  -1.799  1.00  0.00     0.134 C 
BRANCH   5   6
ATOM      6  C   UNL     1       0.979   0.820  -0.840  1.00  0.00     0.061 C 
BRANCH   6   7
ATOM      7  C   UNL     1       0.043   1.981  -1.039  1.00  0.00     0.015 A 
ATOM      8  C   UNL     1       0.078   3.191  -0.334  1.00  0.00     0.216 A 
ATOM      9  N   UNL     1      -0.765   4.213  -0.608  1.00  0.00    -0.222 NA
ATOM     10  C   UNL     1      -1.678   4.046  -1.587  1.00  0.00     0.115 A 
ATOM     11  C   UNL     1      -0.925   1.852  -2.052  1.00  0.00     0.011 A 
ATOM     12  C   UNL     1      -1.794   2.895  -2.335  1.00  0.00     0.021 A 
BRANCH   8  13
ATOM     13  O   UNL     1       1.068   3.580   0.518  1.00  0.00    -0.481 OA
ATOM     14  C   UNL     1       1.361   2.740   1.620  1.00  0.00     0.280 C 
ENDBRANCH   8  13
ENDBRANCH   6   7
ENDBRANCH   5   6
BRANCH   5  15
ATOM     15  C   UNL     1       3.260   1.772  -1.593  1.00  0.00    -0.033 A 
ATOM     16  C   UNL     1       4.543   1.475  -1.120  1.00  0.00     0.007 A 
ATOM     17  C   UNL     1       2.972   3.125  -1.847  1.00  0.00     0.007 A 
ATOM     18  C   UNL     1       5.445   2.483  -0.773  1.00  0.00     0.039 A 
ATOM     19  C   UNL     1       3.862   4.142  -1.478  1.00  0.00     0.039 A 
ATOM     20  C   UNL     1       5.084   3.811  -0.920  1.00  0.00     0.123 A 
ATOM     21  F   UNL     1       5.931   4.773  -0.534  1.00  0.00    -0.207 F 
ENDBRANCH   5  15
ENDBRANCH   3   5
ENDBRANCH   2   3
ENDBRANCH   1   2
BRANCH   1  22
ATOM     22  C   UNL     1       5.013  -2.865  -2.205  1.00  0.00     0.275 C 
BRANCH  22  23
ATOM     23  O   UNL     1       5.317  -2.262  -0.936  1.00  0.00    -0.458 OA
BRANCH  23  24
ATOM     24  C   UNL     1       6.627  -2.010  -0.712  1.00  0.00     0.338 C 
ATOM     25  O   UNL     1       7.551  -2.339  -1.446  1.00  0.00    -0.246 OA
BRANCH  24  26
ATOM     26  C   UNL     1       6.806  -1.163   0.502  1.00  0.00     0.060 A 
ATOM     27  C   UNL     1       5.722  -0.651   1.224  1.00  0.00     0.016 A 
ATOM     28  C   UNL     1       8.100  -0.769   0.860  1.00  0.00     0.016 A 
ATOM     29  C   UNL     1       5.920   0.344   2.187  1.00  0.00     0.010 A 
ATOM     30  C   UNL     1       8.300   0.153   1.895  1.00  0.00     0.010 A 
ATOM     31  C   UNL     1       7.212   0.762   2.541  1.00  0.00    -0.014 A 
BRANCH  31  32
ATOM     32  C   UNL     1       7.439   1.852   3.540  1.00  0.00     0.031 A 
ATOM     33  C   UNL     1       8.251   3.073   3.173  1.00  0.00     0.074 A 
ATOM     34  C   UNL     1       6.926   1.773   4.784  1.00  0.00     0.049 A 
ATOM     35  N   UNL     1       8.742   4.012   3.945  1.00  0.00    -0.248 NA
ATOM     36  C   UNL     1       8.552   3.260   1.746  1.00  0.00     0.031 C 
ATOM     37  C   UNL     1       6.062   0.705   5.284  1.00  0.00     0.029 A 
ATOM     38  N   UNL     1       7.059   2.619   5.861  1.00  0.00    -0.354 N 
ATOM     39  C   UNL     1       9.441   4.872   3.104  1.00  0.00     0.074 A 
ATOM     40  C   UNL     1       9.309   4.348   1.762  1.00  0.00     0.031 C 
ATOM     41  C   UNL     1       5.709   0.978   6.549  1.00  0.00     0.029 A 
ATOM     42  C   UNL     1       6.405   2.184   6.987  1.00  0.00     0.049 A 
ATOM     43  H   UNL     1       7.575   3.457   5.827  1.00  0.00     0.167 HD
ATOM     44  C   UNL     1      10.139   5.990   3.420  1.00  0.00     0.037 A 
ATOM     45  C   UNL     1       6.403   2.660   8.247  1.00  0.00     0.037 A 
ATOM     46  C   UNL     1      10.252   6.538   4.746  1.00  0.00     0.049 A 
ATOM     47  C   UNL     1       7.256   3.847   8.595  1.00  0.00     0.074 A 
ATOM     48  C   UNL     1      10.954   7.656   5.164  1.00  0.00     0.029 A 
ATOM     49  N   UNL     1       9.632   6.014   5.869  1.00  0.00    -0.354 N 
ATOM     50  N   UNL     1       8.002   4.587   7.814  1.00  0.00    -0.248 NA
ATOM     51  C   UNL     1       7.293   4.239  10.011  1.00  0.00     0.031 C 
ATOM     52  C   UNL     1      10.787   7.789   6.547  1.00  0.00     0.029 A 
ATOM     53  C   UNL     1       9.948   6.777   6.982  1.00  0.00     0.049 A 
ATOM     54  H   UNL     1       9.053   5.218   5.875  1.00  0.00     0.167 HD
ATOM     55  C   UNL     1       8.593   5.534   8.639  1.00  0.00     0.074 A 
ATOM     56  C   UNL     1       8.104   5.287   9.980  1.00  0.00     0.031 C 
ATOM     57  C   UNL     1       9.467   6.517   8.313  1.00  0.00     0.037 A 
BRANCH  44  58
ATOM     58  C   UNL     1      10.883   6.679   2.313  1.00  0.00     0.064 A 
ATOM     59  C   UNL     1      10.227   7.459   1.351  1.00  0.00     0.173 A 
ATOM     60  C   UNL     1      12.282   6.589   2.245  1.00  0.00     0.173 A 
ATOM     61  F   UNL     1       8.890   7.566   1.366  1.00  0.00    -0.203 F 
ATOM     62  C   UNL     1      10.944   8.111   0.349  1.00  0.00     0.198 A 
ATOM     63  C   UNL     1      12.997   7.262   1.258  1.00  0.00     0.198 A 
ATOM     64  F   UNL     1      12.957   5.859   3.146  1.00  0.00    -0.203 F 
ATOM     65  F   UNL     1      10.296   8.824  -0.582  1.00  0.00    -0.200 F 
ATOM     66  C   UNL     1      12.328   8.018   0.309  1.00  0.00     0.200 A 
ATOM     67  F   UNL     1      14.335   7.180   1.228  1.00  0.00    -0.200 F 
ATOM     68  F   UNL     1      13.017   8.654  -0.649  1.00  0.00    -0.200 F 
ENDBRANCH  44  58
BRANCH  45  69
ATOM     69  C   UNL     1       5.600   1.971   9.289  1.00  0.00     0.064 A 
ATOM     70  C   UNL     1       4.459   2.575   9.832  1.00  0.00     0.173 A 
ATOM     71  C   UNL     1       5.941   0.688   9.743  1.00  0.00     0.173 A 
ATOM     72  F   UNL     1       4.113   3.814   9.453  1.00  0.00    -0.203 F 
ATOM     73  C   UNL     1       3.684   1.919  10.785  1.00  0.00     0.198 A 
ATOM     74  C   UNL     1       5.149   0.021  10.673  1.00  0.00     0.198 A 
ATOM     75  F   UNL     1       7.029   0.071   9.259  1.00  0.00    -0.203 F 
ATOM     76  F   UNL     1       2.611   2.528  11.308  1.00  0.00    -0.200 F 
ATOM     77  C   UNL     1       4.022   0.637  11.195  1.00  0.00     0.200 A 
ATOM     78  F   UNL     1       5.472  -1.222  11.056  1.00  0.00    -0.200 F 
ATOM     79  F   UNL     1       3.264  -0.002  12.097  1.00  0.00    -0.200 F 
ENDBRANCH  45  69
BRANCH  57  80
ATOM     80  C   UNL     1       9.935   7.410   9.422  1.00  0.00     0.064 A 
ATOM     81  C   UNL     1      10.870   6.968  10.371  1.00  0.00     0.173 A 
ATOM     82  C   UNL     1       9.456   8.723   9.531  1.00  0.00     0.173 A 
ATOM     83  F   UNL     1      11.344   5.715  10.318  1.00  0.00    -0.203 F 
ATOM     84  C   UNL     1      11.288   7.803  11.404  1.00  0.00     0.198 A 
ATOM     85  C   UNL     1       9.893   9.562  10.552  1.00  0.00     0.198 A 
ATOM     86  F   UNL     1       8.564   9.192   8.645  1.00  0.00    -0.203 F 
ATOM     87  F   UNL     1      12.146   7.347  12.326  1.00  0.00    -0.200 F 
ATOM     88  C   UNL     1      10.802   9.100  11.491  1.00  0.00     0.200 A 
ATOM     89  F   UNL     1       9.428  10.817  10.631  1.00  0.00    -0.200 F 
ATOM     90  F   UNL     1      11.203   9.900  12.488  1.00  0.00    -0.200 F 
ENDBRANCH  57  80
ENDBRANCH  31  32
ENDBRANCH  24  26
ENDBRANCH  23  24
ENDBRANCH  22  23
ENDBRANCH   1  22
TORSDOF 15
