REMARK SMILES N#Cc1cccc(NCCCC(=O)OCCOC(=O)c2ccc(-c3c4nc(c(-c5c(F)c(F)c(F)c(F)c5F)c5ccc([nH]5)c(-c5c(F)c(F)c(F)c(F)c5F)c5nc(c(-c6c(F)c(F)c(F)c(F)c6F)c6ccc3[nH]6)C=C5)C=C4)cc2)c1
REMARK SMILES IDX 14 1 12 2 13 3 11 4 10 5 9 6 8 7 7 9 3 10 4 11 83 12 5 13
REMARK SMILES IDX 6 14 2 15 1 16 15 17 16 18 17 19 18 20 19 21 20 22 21 23
REMARK SMILES IDX 82 24 22 25 81 26 23 27 24 28 25 29 75 30 26 31 80 32 74 33
REMARK SMILES IDX 76 34 27 35 79 36 73 37 72 38 28 40 60 41 40 42 59 43 41 44
REMARK SMILES IDX 44 45 58 46 77 47 42 48 43 49 57 51 78 52 45 53 29 54 30 55
REMARK SMILES IDX 38 56 31 57 32 58 36 59 39 60 33 61 34 62 37 63 35 64 61 65
REMARK SMILES IDX 62 66 70 67 63 68 64 69 68 70 71 71 65 72 66 73 69 74 67 75
REMARK SMILES IDX 46 76 47 77 55 78 48 79 49 80 53 81 56 82 50 83 51 84 54 85
REMARK SMILES IDX 52 86
REMARK H PARENT 8 8 76 39 44 50
REMARK Flexibility Score: inf
ROOT
ATOM      1  O   UNL     1       3.828  -4.990  -1.060  1.00  0.00    -0.462 OA
ENDROOT
BRANCH   1   2
ATOM      2  C   UNL     1       3.443  -5.597   0.088  1.00  0.00     0.305 C 
ATOM      3  O   UNL     1       3.462  -6.807   0.281  1.00  0.00    -0.252 OA
BRANCH   2   4
ATOM      4  C   UNL     1       2.922  -4.620   1.118  1.00  0.00     0.124 C 
BRANCH   4   5
ATOM      5  C   UNL     1       3.735  -3.335   1.307  1.00  0.00     0.033 C 
BRANCH   5   6
ATOM      6  C   UNL     1       3.684  -2.330   0.154  1.00  0.00     0.113 C 
BRANCH   6   7
ATOM      7  N   UNL     1       2.308  -2.114  -0.246  1.00  0.00    -0.385 N 
ATOM      8  H   UNL     1       1.826  -2.891  -0.610  1.00  0.00     0.160 HD
BRANCH   7   9
ATOM      9  C   UNL     1       1.607  -0.932  -0.171  1.00  0.00     0.035 A 
ATOM     10  C   UNL     1      -0.572   0.168  -0.059  1.00  0.00     0.054 A 
ATOM     11  C   UNL     1       0.050   1.413   0.030  1.00  0.00     0.019 A 
ATOM     12  C   UNL     1       0.207  -0.991  -0.158  1.00  0.00     0.045 A 
ATOM     13  C   UNL     1       1.440   1.489   0.038  1.00  0.00     0.003 A 
ATOM     14  C   UNL     1       2.207   0.323  -0.048  1.00  0.00     0.026 A 
BRANCH  10  15
ATOM     15  C   UNL     1      -2.002   0.068  -0.046  1.00  0.00     0.099 C 
ATOM     16  N   UNL     1      -3.157  -0.018  -0.035  1.00  0.00    -0.192 NA
ENDBRANCH  10  15
ENDBRANCH   7   9
ENDBRANCH   6   7
ENDBRANCH   5   6
ENDBRANCH   4   5
ENDBRANCH   2   4
ENDBRANCH   1   2
BRANCH   1  17
ATOM     17  C   UNL     1       4.380  -5.834  -2.089  1.00  0.00     0.274 C 
BRANCH  17  18
ATOM     18  C   UNL     1       5.910  -5.861  -2.037  1.00  0.00     0.275 C 
BRANCH  18  19
ATOM     19  O   UNL     1       6.389  -6.518  -0.847  1.00  0.00    -0.458 OA
BRANCH  19  20
ATOM     20  C   UNL     1       6.710  -5.686   0.170  1.00  0.00     0.338 C 
ATOM     21  O   UNL     1       6.693  -4.466   0.159  1.00  0.00    -0.246 OA
BRANCH  20  22
ATOM     22  C   UNL     1       6.963  -6.452   1.400  1.00  0.00     0.060 A 
ATOM     23  C   UNL     1       6.060  -6.306   2.454  1.00  0.00     0.016 A 
ATOM     24  C   UNL     1       8.132  -7.194   1.572  1.00  0.00     0.016 A 
ATOM     25  C   UNL     1       6.331  -6.865   3.696  1.00  0.00     0.010 A 
ATOM     26  C   UNL     1       8.393  -7.780   2.818  1.00  0.00     0.010 A 
ATOM     27  C   UNL     1       7.506  -7.599   3.896  1.00  0.00    -0.014 A 
BRANCH  27  28
ATOM     28  C   UNL     1       7.804  -8.117   5.255  1.00  0.00     0.031 A 
ATOM     29  C   UNL     1       8.926  -7.526   6.062  1.00  0.00     0.074 A 
ATOM     30  C   UNL     1       7.020  -9.073   5.789  1.00  0.00     0.049 A 
ATOM     31  N   UNL     1       9.340  -7.841   7.264  1.00  0.00    -0.248 NA
ATOM     32  C   UNL     1       9.688  -6.438   5.432  1.00  0.00     0.031 C 
ATOM     33  C   UNL     1       5.878  -9.696   5.119  1.00  0.00     0.029 A 
ATOM     34  N   UNL     1       7.055  -9.678   7.020  1.00  0.00    -0.354 N 
ATOM     35  C   UNL     1      10.417  -7.004   7.527  1.00  0.00     0.074 A 
ATOM     36  C   UNL     1      10.614  -6.190   6.347  1.00  0.00     0.031 C 
ATOM     37  C   UNL     1       5.308 -10.579   5.954  1.00  0.00     0.029 A 
ATOM     38  C   UNL     1       6.076 -10.625   7.194  1.00  0.00     0.049 A 
ATOM     39  H   UNL     1       7.719  -9.455   7.713  1.00  0.00     0.167 HD
ATOM     40  C   UNL     1      11.164  -6.918   8.655  1.00  0.00     0.037 A 
ATOM     41  C   UNL     1       5.838 -11.454   8.228  1.00  0.00     0.037 A 
ATOM     42  C   UNL     1      10.955  -7.727   9.829  1.00  0.00     0.049 A 
ATOM     43  C   UNL     1       6.723 -11.377   9.444  1.00  0.00     0.074 A 
ATOM     44  C   UNL     1      11.650  -7.707  11.027  1.00  0.00     0.029 A 
ATOM     45  N   UNL     1       9.980  -8.707   9.953  1.00  0.00    -0.354 N 
ATOM     46  N   UNL     1       7.731 -10.575   9.688  1.00  0.00    -0.248 NA
ATOM     47  C   UNL     1       6.430 -12.319  10.531  1.00  0.00     0.031 C 
ATOM     48  C   UNL     1      11.138  -8.717  11.848  1.00  0.00     0.029 A 
ATOM     49  C   UNL     1      10.074  -9.317  11.195  1.00  0.00     0.049 A 
ATOM     50  H   UNL     1       9.319  -8.936   9.260  1.00  0.00     0.167 HD
ATOM     51  C   UNL     1       8.173 -10.894  10.965  1.00  0.00     0.074 A 
ATOM     52  C   UNL     1       7.306 -11.947  11.452  1.00  0.00     0.031 C 
ATOM     53  C   UNL     1       9.204 -10.364  11.670  1.00  0.00     0.037 A 
BRANCH  40  54
ATOM     54  C   UNL     1      12.304  -5.936   8.662  1.00  0.00     0.064 A 
ATOM     55  C   UNL     1      12.091  -4.549   8.662  1.00  0.00     0.173 A 
ATOM     56  C   UNL     1      13.631  -6.392   8.702  1.00  0.00     0.173 A 
ATOM     57  F   UNL     1      10.845  -4.056   8.612  1.00  0.00    -0.203 F 
ATOM     58  C   UNL     1      13.163  -3.658   8.669  1.00  0.00     0.198 A 
ATOM     59  C   UNL     1      14.698  -5.499   8.745  1.00  0.00     0.198 A 
ATOM     60  F   UNL     1      13.894  -7.708   8.710  1.00  0.00    -0.203 F 
ATOM     61  F   UNL     1      12.936  -2.338   8.613  1.00  0.00    -0.200 F 
ATOM     62  C   UNL     1      14.464  -4.133   8.719  1.00  0.00     0.200 A 
ATOM     63  F   UNL     1      15.955  -5.962   8.810  1.00  0.00    -0.200 F 
ATOM     64  F   UNL     1      15.494  -3.275   8.734  1.00  0.00    -0.200 F 
ENDBRANCH  40  54
BRANCH  41  65
ATOM     65  C   UNL     1       4.723 -12.436   8.155  1.00  0.00     0.064 A 
ATOM     66  C   UNL     1       3.617 -12.344   9.011  1.00  0.00     0.173 A 
ATOM     67  C   UNL     1       4.751 -13.499   7.239  1.00  0.00     0.173 A 
ATOM     68  F   UNL     1       3.554 -11.361   9.921  1.00  0.00    -0.203 F 
ATOM     69  C   UNL     1       2.595 -13.291   8.972  1.00  0.00     0.198 A 
ATOM     70  C   UNL     1       3.711 -14.423   7.175  1.00  0.00     0.198 A 
ATOM     71  F   UNL     1       5.785 -13.634   6.396  1.00  0.00    -0.203 F 
ATOM     72  F   UNL     1       1.579 -13.212   9.842  1.00  0.00    -0.200 F 
ATOM     73  C   UNL     1       2.639 -14.325   8.049  1.00  0.00     0.200 A 
ATOM     74  F   UNL     1       3.750 -15.411   6.271  1.00  0.00    -0.200 F 
ATOM     75  F   UNL     1       1.655 -15.233   8.010  1.00  0.00    -0.200 F 
ENDBRANCH  41  65
BRANCH  53  76
ATOM     76  C   UNL     1       9.416 -10.884  13.066  1.00  0.00     0.064 A 
ATOM     77  C   UNL     1       9.847 -12.197  13.314  1.00  0.00     0.173 A 
ATOM     78  C   UNL     1       9.184 -10.053  14.174  1.00  0.00     0.173 A 
ATOM     79  F   UNL     1      10.072 -13.038  12.293  1.00  0.00    -0.203 F 
ATOM     80  C   UNL     1       9.989 -12.671  14.616  1.00  0.00     0.198 A 
ATOM     81  C   UNL     1       9.367 -10.518  15.473  1.00  0.00     0.198 A 
ATOM     82  F   UNL     1       8.780  -8.786  13.997  1.00  0.00    -0.203 F 
ATOM     83  F   UNL     1      10.328 -13.950  14.827  1.00  0.00    -0.200 F 
ATOM     84  C   UNL     1       9.755 -11.830  15.693  1.00  0.00     0.200 A 
ATOM     85  F   UNL     1       9.158  -9.698  16.512  1.00  0.00    -0.200 F 
ATOM     86  F   UNL     1       9.891 -12.289  16.945  1.00  0.00    -0.200 F 
ENDBRANCH  53  76
ENDBRANCH  27  28
ENDBRANCH  20  22
ENDBRANCH  19  20
ENDBRANCH  18  19
ENDBRANCH  17  18
ENDBRANCH   1  17
TORSDOF 16
