REMARK SMILES Cc1cccc2nc(C(=O)NCC(=O)OCCOC(=O)c3ccc(-c4c5nc(c(-c6c(F)c(F)c(F)c(F)c6F)c6ccc([nH]6)c(-c6c(F)c(F)c(F)c(F)c6F)c6nc(c(-c7c(F)c(F)c(F)c(F)c7F)c7ccc4[nH]7)C=C6)C=C5)cc3)cn12
REMARK SMILES IDX 16 1 15 2 13 3 14 4 12 5 11 6 9 7 10 8 8 10 1 11 2 12 3 13
REMARK SMILES IDX 85 14 4 15 6 16 84 17 5 18 7 19 17 20 18 21 19 22 20 23
REMARK SMILES IDX 21 24 22 25 83 26 23 27 82 28 24 29 25 30 26 31 76 32 27 33
REMARK SMILES IDX 81 34 75 35 77 36 28 37 80 38 74 39 73 40 29 42 61 43 41 44
REMARK SMILES IDX 60 45 42 46 45 47 59 48 78 49 43 50 44 51 58 53 79 54 46 55
REMARK SMILES IDX 30 56 31 57 39 58 32 59 33 60 37 61 40 62 34 63 35 64 38 65
REMARK SMILES IDX 36 66 62 67 63 68 71 69 64 70 65 71 69 72 72 73 66 74 67 75
REMARK SMILES IDX 70 76 68 77 47 78 48 79 56 80 49 81 50 82 54 83 57 84 51 85
REMARK SMILES IDX 52 86 55 87 53 88
REMARK H PARENT 11 9 77 41 45 52
REMARK Flexibility Score: inf
ROOT
ATOM      1  C   UNL     1       4.092   7.469   3.059  1.00  0.00     0.274 C 
ENDROOT
BRANCH   1   2
ATOM      2  O   UNL     1       3.877   6.708   1.859  1.00  0.00    -0.461 OA
BRANCH   2   3
ATOM      3  C   UNL     1       3.136   7.309   0.884  1.00  0.00     0.325 C 
ATOM      4  O   UNL     1       2.420   8.290   1.063  1.00  0.00    -0.250 OA
BRANCH   3   5
ATOM      5  C   UNL     1       3.405   6.727  -0.507  1.00  0.00     0.239 C 
BRANCH   5   6
ATOM      6  N   UNL     1       4.405   5.669  -0.572  1.00  0.00    -0.340 N 
ATOM      7  C   UNL     1       4.256   4.315  -0.474  1.00  0.00     0.272 C 
ATOM      8  O   UNL     1       5.251   3.594  -0.573  1.00  0.00    -0.267 OA
ATOM      9  H   UNL     1       5.330   5.978  -0.706  1.00  0.00     0.164 HD
BRANCH   7  10
ATOM     10  C   UNL     1       2.924   3.762  -0.243  1.00  0.00     0.147 A 
ATOM     11  C   UNL     1       1.004  -0.176   0.069  1.00  0.00     0.065 C 
ATOM     12  C   UNL     1       0.441   1.206   0.210  1.00  0.00     0.021 A 
ATOM     13  C   UNL     1      -0.857   1.419   0.515  1.00  0.00     0.022 A 
ATOM     14  N   UNL     1       1.272   2.329   0.053  1.00  0.00    -0.304 N 
ATOM     15  C   UNL     1      -1.358   2.778   0.648  1.00  0.00     0.006 A 
ATOM     16  C   UNL     1       0.826   3.639   0.208  1.00  0.00     0.137 A 
ATOM     17  C   UNL     1       2.607   2.417  -0.251  1.00  0.00     0.127 A 
ATOM     18  C   UNL     1      -0.548   3.841   0.504  1.00  0.00     0.048 A 
ATOM     19  N   UNL     1       1.799   4.506   0.056  1.00  0.00    -0.223 NA
ENDBRANCH   7  10
ENDBRANCH   5   6
ENDBRANCH   3   5
ENDBRANCH   2   3
ENDBRANCH   1   2
BRANCH   1  20
ATOM     20  C   UNL     1       5.463   8.138   3.021  1.00  0.00     0.275 C 
BRANCH  20  21
ATOM     21  O   UNL     1       5.567   9.072   1.942  1.00  0.00    -0.458 OA
BRANCH  21  22
ATOM     22  C   UNL     1       6.048   8.529   0.803  1.00  0.00     0.338 C 
ATOM     23  O   UNL     1       6.165   7.344   0.532  1.00  0.00    -0.246 OA
BRANCH  22  24
ATOM     24  C   UNL     1       6.665   9.545  -0.044  1.00  0.00     0.060 A 
ATOM     25  C   UNL     1       7.010   9.139  -1.337  1.00  0.00     0.016 A 
ATOM     26  C   UNL     1       7.241  10.661   0.573  1.00  0.00     0.016 A 
ATOM     27  C   UNL     1       8.094   9.736  -1.936  1.00  0.00     0.010 A 
ATOM     28  C   UNL     1       8.336  11.243  -0.021  1.00  0.00     0.010 A 
ATOM     29  C   UNL     1       8.792  10.723  -1.230  1.00  0.00    -0.014 A 
BRANCH  29  30
ATOM     30  C   UNL     1       9.973  11.270  -1.858  1.00  0.00     0.031 A 
ATOM     31  C   UNL     1       9.654  12.218  -2.941  1.00  0.00     0.074 A 
ATOM     32  C   UNL     1      11.225  10.993  -1.453  1.00  0.00     0.049 A 
ATOM     33  N   UNL     1       9.859  12.062  -4.205  1.00  0.00    -0.248 NA
ATOM     34  C   UNL     1       8.879  13.418  -2.594  1.00  0.00     0.031 C 
ATOM     35  C   UNL     1      11.641  10.322  -0.220  1.00  0.00     0.029 A 
ATOM     36  N   UNL     1      12.406  11.348  -2.033  1.00  0.00    -0.354 N 
ATOM     37  C   UNL     1       9.403  13.232  -4.800  1.00  0.00     0.074 A 
ATOM     38  C   UNL     1       8.662  13.948  -3.797  1.00  0.00     0.031 C 
ATOM     39  C   UNL     1      12.970  10.510  -0.042  1.00  0.00     0.029 A 
ATOM     40  C   UNL     1      13.511  11.181  -1.213  1.00  0.00     0.049 A 
ATOM     41  H   UNL     1      12.469  11.693  -2.953  1.00  0.00     0.167 HD
ATOM     42  C   UNL     1       9.912  13.642  -5.990  1.00  0.00     0.037 A 
ATOM     43  C   UNL     1      14.765  11.621  -1.472  1.00  0.00     0.037 A 
ATOM     44  C   UNL     1      10.637  12.586  -6.644  1.00  0.00     0.049 A 
ATOM     45  C   UNL     1      14.884  11.829  -2.934  1.00  0.00     0.074 A 
ATOM     46  C   UNL     1      10.335  11.486  -7.414  1.00  0.00     0.029 A 
ATOM     47  N   UNL     1      11.922  12.437  -6.202  1.00  0.00    -0.354 N 
ATOM     48  N   UNL     1      14.898  10.861  -3.806  1.00  0.00    -0.248 NA
ATOM     49  C   UNL     1      14.707  13.169  -3.488  1.00  0.00     0.031 C 
ATOM     50  C   UNL     1      11.448  10.600  -7.303  1.00  0.00     0.029 A 
ATOM     51  C   UNL     1      12.402  11.184  -6.474  1.00  0.00     0.049 A 
ATOM     52  H   UNL     1      12.437  13.141  -5.745  1.00  0.00     0.167 HD
ATOM     53  C   UNL     1      14.323  11.412  -4.931  1.00  0.00     0.074 A 
ATOM     54  C   UNL     1      14.406  12.853  -4.749  1.00  0.00     0.031 C 
ATOM     55  C   UNL     1      13.531  10.659  -5.744  1.00  0.00     0.037 A 
BRANCH  42  56
ATOM     56  C   UNL     1      10.173  15.085  -6.342  1.00  0.00     0.064 A 
ATOM     57  C   UNL     1      10.556  15.408  -7.659  1.00  0.00     0.173 A 
ATOM     58  C   UNL     1      10.374  16.101  -5.382  1.00  0.00     0.173 A 
ATOM     59  F   UNL     1      10.438  14.505  -8.644  1.00  0.00    -0.203 F 
ATOM     60  C   UNL     1      11.148  16.633  -7.975  1.00  0.00     0.198 A 
ATOM     61  C   UNL     1      10.912  17.343  -5.712  1.00  0.00     0.198 A 
ATOM     62  F   UNL     1      10.176  15.896  -4.074  1.00  0.00    -0.203 F 
ATOM     63  F   UNL     1      11.604  16.852  -9.215  1.00  0.00    -0.200 F 
ATOM     64  C   UNL     1      11.326  17.599  -7.001  1.00  0.00     0.200 A 
ATOM     65  F   UNL     1      11.101  18.255  -4.748  1.00  0.00    -0.200 F 
ATOM     66  F   UNL     1      11.940  18.754  -7.290  1.00  0.00    -0.200 F 
ENDBRANCH  42  56
BRANCH  43  67
ATOM     67  C   UNL     1      15.817  12.101  -0.548  1.00  0.00     0.064 A 
ATOM     68  C   UNL     1      17.142  12.241  -0.996  1.00  0.00     0.173 A 
ATOM     69  C   UNL     1      15.491  12.736   0.664  1.00  0.00     0.173 A 
ATOM     70  F   UNL     1      17.527  11.681  -2.152  1.00  0.00    -0.203 F 
ATOM     71  C   UNL     1      18.066  13.034  -0.314  1.00  0.00     0.198 A 
ATOM     72  C   UNL     1      16.420  13.519   1.351  1.00  0.00     0.198 A 
ATOM     73  F   UNL     1      14.241  12.698   1.147  1.00  0.00    -0.203 F 
ATOM     74  F   UNL     1      19.290  13.221  -0.825  1.00  0.00    -0.200 F 
ATOM     75  C   UNL     1      17.698  13.689   0.849  1.00  0.00     0.200 A 
ATOM     76  F   UNL     1      16.046  14.171   2.461  1.00  0.00    -0.200 F 
ATOM     77  F   UNL     1      18.556  14.518   1.458  1.00  0.00    -0.200 F 
ENDBRANCH  43  67
BRANCH  55  78
ATOM     78  C   UNL     1      13.747   9.182  -5.721  1.00  0.00     0.064 A 
ATOM     79  C   UNL     1      13.458   8.357  -4.622  1.00  0.00     0.173 A 
ATOM     80  C   UNL     1      14.222   8.573  -6.889  1.00  0.00     0.173 A 
ATOM     81  F   UNL     1      12.935   8.865  -3.498  1.00  0.00    -0.203 F 
ATOM     82  C   UNL     1      13.679   6.982  -4.684  1.00  0.00     0.198 A 
ATOM     83  C   UNL     1      14.406   7.197  -6.960  1.00  0.00     0.198 A 
ATOM     84  F   UNL     1      14.479   9.316  -7.978  1.00  0.00    -0.203 F 
ATOM     85  F   UNL     1      13.423   6.212  -3.617  1.00  0.00    -0.200 F 
ATOM     86  C   UNL     1      14.146   6.404  -5.854  1.00  0.00     0.200 A 
ATOM     87  F   UNL     1      14.821   6.639  -8.106  1.00  0.00    -0.200 F 
ATOM     88  F   UNL     1      14.329   5.078  -5.924  1.00  0.00    -0.200 F 
ENDBRANCH  55  78
ENDBRANCH  29  30
ENDBRANCH  22  24
ENDBRANCH  21  22
ENDBRANCH  20  21
ENDBRANCH   1  20
TORSDOF 13
