REMARK SMILES C[C@@H](C(=O)OCCOC(=O)c1ccc(-c2c3nc(c(-c4c(F)c(F)c(F)c(F)c4F)c4ccc([nH]4)c(-c4c(F)c(F)c(F)c(F)c4F)c4nc(c(-c5c(F)c(F)c(F)c(F)c5F)c5ccc2[nH]5)C=C4)C=C3)cc1)c1ccc(-c2cccc(OC(=O)Nc3ccccc3)c2)c(F)c1
REMARK SMILES IDX 5 1 3 2 4 3 2 4 1 5 74 6 75 7 96 8 76 9 94 10 77 11 95 12
REMARK SMILES IDX 78 13 79 14 93 15 80 16 82 17 81 18 83 19 84 20 85 21 86 22
REMARK SMILES IDX 87 24 88 25 92 26 89 27 91 28 90 29 6 30 7 31 8 32 9 33
REMARK SMILES IDX 10 34 11 35 12 36 73 37 13 38 72 39 14 40 15 41 16 42 66 43
REMARK SMILES IDX 17 44 71 45 65 46 67 47 18 48 70 49 64 50 63 51 19 53 51 54
REMARK SMILES IDX 31 55 50 56 32 57 35 58 49 59 68 60 33 61 34 62 48 64 69 65
REMARK SMILES IDX 36 66 20 67 21 68 29 69 22 70 23 71 27 72 30 73 24 74 25 75
REMARK SMILES IDX 28 76 26 77 52 78 53 79 61 80 54 81 55 82 59 83 62 84 56 85
REMARK SMILES IDX 57 86 60 87 58 88 37 89 38 90 46 91 39 92 40 93 44 94 47 95
REMARK SMILES IDX 41 96 42 97 45 98 43 99
REMARK H PARENT 86 23 67 52 35 63
REMARK Flexibility Score: inf
ROOT
ATOM      1  O   UNL     1       1.672  -2.337   0.038  1.00  0.00    -0.462 OA
ENDROOT
BRANCH   1   2
ATOM      2  C   UNL     1       0.559  -2.452  -0.750  1.00  0.00     0.313 C 
ATOM      3  O   UNL     1       0.044  -3.528  -1.028  1.00  0.00    -0.252 OA
BRANCH   2   4
ATOM      4  C   UNL     1       0.086  -1.083  -1.326  1.00  0.00     0.126 C 
ATOM      5  C   UNL     1       0.818   0.079  -0.625  1.00  0.00     0.025 C 
BRANCH   4   6
ATOM      6  C   UNL     1      -1.455  -0.897  -1.389  1.00  0.00    -0.031 A 
ATOM      7  C   UNL     1      -2.106   0.268  -0.935  1.00  0.00     0.005 A 
ATOM      8  C   UNL     1      -2.292  -1.883  -1.940  1.00  0.00     0.044 A 
ATOM      9  C   UNL     1      -3.516   0.393  -0.925  1.00  0.00     0.012 A 
ATOM     10  C   UNL     1      -3.700  -1.758  -1.921  1.00  0.00     0.131 A 
ATOM     11  C   UNL     1      -4.350  -0.640  -1.373  1.00  0.00     0.018 A 
ATOM     12  F   UNL     1      -4.422  -2.781  -2.404  1.00  0.00    -0.206 F 
BRANCH  11  13
ATOM     13  C   UNL     1      -5.821  -0.599  -1.152  1.00  0.00    -0.012 A 
ATOM     14  C   UNL     1      -6.718  -0.077  -2.091  1.00  0.00     0.009 A 
ATOM     15  C   UNL     1      -6.377  -1.138   0.028  1.00  0.00     0.056 A 
ATOM     16  C   UNL     1      -8.113  -0.124  -1.868  1.00  0.00     0.004 A 
ATOM     17  C   UNL     1      -7.767  -1.247   0.205  1.00  0.00     0.133 A 
ATOM     18  C   UNL     1      -8.655  -0.731  -0.728  1.00  0.00     0.047 A 
BRANCH  17  19
ATOM     19  O   UNL     1      -8.379  -2.255   1.395  1.00  0.00    -0.410 OA
BRANCH  19  20
ATOM     20  C   UNL     1      -8.899  -3.499   2.370  1.00  0.00     0.417 C 
ATOM     21  O   UNL     1      -8.838  -4.669   1.993  1.00  0.00    -0.224 OA
ATOM     22  N   UNL     1      -9.391  -3.168   3.601  1.00  0.00    -0.291 N 
ATOM     23  H   UNL     1      -8.976  -2.405   4.064  1.00  0.00     0.173 HD
BRANCH  22  24
ATOM     24  C   UNL     1     -10.442  -3.829   4.260  1.00  0.00     0.044 A 
ATOM     25  C   UNL     1     -10.884  -3.308   5.476  1.00  0.00     0.026 A 
ATOM     26  C   UNL     1     -11.158  -4.874   3.673  1.00  0.00     0.026 A 
ATOM     27  C   UNL     1     -12.078  -3.756   6.046  1.00  0.00     0.002 A 
ATOM     28  C   UNL     1     -12.341  -5.335   4.250  1.00  0.00     0.002 A 
ATOM     29  C   UNL     1     -12.818  -4.754   5.419  1.00  0.00     0.000 A 
ENDBRANCH  22  24
ENDBRANCH  19  20
ENDBRANCH  17  19
ENDBRANCH  11  13
ENDBRANCH   4   6
ENDBRANCH   2   4
ENDBRANCH   1   2
BRANCH   1  30
ATOM     30  C   UNL     1       2.324  -3.550   0.492  1.00  0.00     0.274 C 
BRANCH  30  31
ATOM     31  C   UNL     1       2.375  -3.625   2.022  1.00  0.00     0.275 C 
BRANCH  31  32
ATOM     32  O   UNL     1       1.050  -3.826   2.538  1.00  0.00    -0.458 OA
BRANCH  32  33
ATOM     33  C   UNL     1       0.464  -2.728   3.067  1.00  0.00     0.338 C 
ATOM     34  O   UNL     1       0.971  -1.655   3.330  1.00  0.00    -0.246 OA
BRANCH  33  35
ATOM     35  C   UNL     1      -0.984  -2.940   2.972  1.00  0.00     0.060 A 
ATOM     36  C   UNL     1      -1.613  -2.263   1.936  1.00  0.00     0.016 A 
ATOM     37  C   UNL     1      -1.707  -3.771   3.830  1.00  0.00     0.016 A 
ATOM     38  C   UNL     1      -2.964  -2.449   1.723  1.00  0.00     0.010 A 
ATOM     39  C   UNL     1      -3.088  -3.926   3.634  1.00  0.00     0.010 A 
ATOM     40  C   UNL     1      -3.717  -3.270   2.571  1.00  0.00    -0.014 A 
BRANCH  40  41
ATOM     41  C   UNL     1      -5.184  -3.252   2.361  1.00  0.00     0.031 A 
ATOM     42  C   UNL     1      -5.928  -2.094   3.190  1.00  0.00     0.074 A 
ATOM     43  C   UNL     1      -5.645  -4.011   1.304  1.00  0.00     0.049 A 
ATOM     44  N   UNL     1      -7.179  -1.716   3.184  1.00  0.00    -0.248 NA
ATOM     45  C   UNL     1      -5.167  -1.206   4.098  1.00  0.00     0.031 C 
ATOM     46  C   UNL     1      -4.960  -4.996   0.442  1.00  0.00     0.029 A 
ATOM     47  N   UNL     1      -6.851  -3.995   0.668  1.00  0.00    -0.354 N 
ATOM     48  C   UNL     1      -7.392  -0.577   3.932  1.00  0.00     0.074 A 
ATOM     49  C   UNL     1      -6.088  -0.327   4.524  1.00  0.00     0.031 C 
ATOM     50  C   UNL     1      -5.818  -5.468  -0.512  1.00  0.00     0.029 A 
ATOM     51  C   UNL     1      -7.140  -4.852  -0.353  1.00  0.00     0.049 A 
ATOM     52  H   UNL     1      -7.534  -3.346   0.955  1.00  0.00     0.167 HD
ATOM     53  C   UNL     1      -8.576   0.104   4.115  1.00  0.00     0.037 A 
ATOM     54  C   UNL     1      -8.351  -5.047  -0.975  1.00  0.00     0.037 A 
ATOM     55  C   UNL     1      -9.909  -0.175   3.499  1.00  0.00     0.049 A 
ATOM     56  C   UNL     1      -9.741  -4.343  -0.576  1.00  0.00     0.074 A 
ATOM     57  C   UNL     1     -11.186   0.153   3.938  1.00  0.00     0.029 A 
ATOM     58  N   UNL     1     -10.168  -0.819   2.282  1.00  0.00    -0.354 N 
ATOM     59  N   UNL     1     -10.004  -3.220   0.054  1.00  0.00    -0.248 NA
ATOM     60  C   UNL     1     -11.008  -5.001  -0.957  1.00  0.00     0.031 C 
ATOM     61  C   UNL     1     -12.141  -0.532   3.138  1.00  0.00     0.029 A 
ATOM     62  C   UNL     1     -11.490  -1.242   2.131  1.00  0.00     0.049 A 
ATOM     63  H   UNL     1      -9.479  -0.962   1.593  1.00  0.00     0.167 HD
ATOM     64  C   UNL     1     -11.364  -3.084   0.298  1.00  0.00     0.074 A 
ATOM     65  C   UNL     1     -11.941  -4.163  -0.491  1.00  0.00     0.031 C 
ATOM     66  C   UNL     1     -12.042  -2.225   1.142  1.00  0.00     0.037 A 
BRANCH  53  67
ATOM     67  C   UNL     1      -8.576   1.086   5.257  1.00  0.00     0.064 A 
ATOM     68  C   UNL     1      -8.134   2.405   5.132  1.00  0.00     0.173 A 
ATOM     69  C   UNL     1      -9.113   0.695   6.498  1.00  0.00     0.173 A 
ATOM     70  F   UNL     1      -7.593   2.828   3.980  1.00  0.00    -0.203 F 
ATOM     71  C   UNL     1      -8.241   3.298   6.201  1.00  0.00     0.198 A 
ATOM     72  C   UNL     1      -9.241   1.591   7.554  1.00  0.00     0.198 A 
ATOM     73  F   UNL     1      -9.541  -0.561   6.680  1.00  0.00    -0.203 F 
ATOM     74  F   UNL     1      -7.800   4.557   6.067  1.00  0.00    -0.200 F 
ATOM     75  C   UNL     1      -8.805   2.894   7.405  1.00  0.00     0.200 A 
ATOM     76  F   UNL     1      -9.798   1.191   8.706  1.00  0.00    -0.200 F 
ATOM     77  F   UNL     1      -8.924   3.760   8.421  1.00  0.00    -0.200 F 
ENDBRANCH  53  67
BRANCH  54  78
ATOM     78  C   UNL     1      -8.460  -6.079  -2.050  1.00  0.00     0.064 A 
ATOM     79  C   UNL     1      -9.004  -5.732  -3.298  1.00  0.00     0.173 A 
ATOM     80  C   UNL     1      -8.173  -7.434  -1.827  1.00  0.00     0.173 A 
ATOM     81  F   UNL     1      -9.354  -4.461  -3.548  1.00  0.00    -0.203 F 
ATOM     82  C   UNL     1      -9.270  -6.697  -4.267  1.00  0.00     0.198 A 
ATOM     83  C   UNL     1      -8.410  -8.395  -2.811  1.00  0.00     0.198 A 
ATOM     84  F   UNL     1      -7.702  -7.844  -0.640  1.00  0.00    -0.203 F 
ATOM     85  F   UNL     1      -9.861  -6.343  -5.417  1.00  0.00    -0.200 F 
ATOM     86  C   UNL     1      -8.967  -8.027  -4.026  1.00  0.00     0.200 A 
ATOM     87  F   UNL     1      -8.127  -9.683  -2.571  1.00  0.00    -0.200 F 
ATOM     88  F   UNL     1      -9.239  -8.957  -4.952  1.00  0.00    -0.200 F 
ENDBRANCH  54  78
BRANCH  66  89
ATOM     89  C   UNL     1     -13.563  -2.330   1.131  1.00  0.00     0.064 A 
ATOM     90  C   UNL     1     -14.271  -3.480   1.525  1.00  0.00     0.173 A 
ATOM     91  C   UNL     1     -14.333  -1.203   0.793  1.00  0.00     0.173 A 
ATOM     92  F   UNL     1     -13.623  -4.615   1.813  1.00  0.00    -0.203 F 
ATOM     93  C   UNL     1     -15.667  -3.502   1.575  1.00  0.00     0.198 A 
ATOM     94  C   UNL     1     -15.727  -1.218   0.868  1.00  0.00     0.198 A 
ATOM     95  F   UNL     1     -13.731  -0.067   0.409  1.00  0.00    -0.203 F 
ATOM     96  F   UNL     1     -16.306  -4.629   1.920  1.00  0.00    -0.200 F 
ATOM     97  C   UNL     1     -16.393  -2.368   1.256  1.00  0.00     0.200 A 
ATOM     98  F   UNL     1     -16.424  -0.113   0.569  1.00  0.00    -0.200 F 
ATOM     99  F   UNL     1     -17.732  -2.386   1.315  1.00  0.00    -0.200 F 
ENDBRANCH  66  89
ENDBRANCH  40  41
ENDBRANCH  33  35
ENDBRANCH  32  33
ENDBRANCH  31  32
ENDBRANCH  30  31
ENDBRANCH   1  30
TORSDOF 16
