REMARK SMILES O=C(OCCOC(=O)[C@@]1([NH2+]C2CC2)CCC[C@@H](n2cncn2)C1)c1ccc(-c2c3nc(c(-c4c(F)c(F)c(F)c(F)c4F)c4ccc([nH]4)c(-c4c(F)c(F)c(F)c(F)c4F)c4nc(c(-c5c(F)c(F)c(F)c(F)c5F)c5ccc2[nH]5)C=C4)C=C3)cc1
REMARK SMILES IDX 4 1 3 2 2 3 1 4 24 5 25 6 86 7 26 8 85 9 27 10 28 11 29 12
REMARK SMILES IDX 79 13 30 14 84 15 78 16 80 17 31 18 83 19 77 20 76 21 32 23
REMARK SMILES IDX 64 24 44 25 63 26 45 27 48 28 62 29 81 30 46 31 47 32 61 34
REMARK SMILES IDX 82 35 49 36 33 37 34 38 42 39 35 40 36 41 40 42 43 43 37 44
REMARK SMILES IDX 38 45 41 46 39 47 65 48 66 49 74 50 67 51 68 52 72 53 75 54
REMARK SMILES IDX 69 55 70 56 73 57 71 58 50 59 51 60 59 61 52 62 53 63 57 64
REMARK SMILES IDX 60 65 54 66 55 67 58 68 56 69 5 70 6 71 7 72 8 73 9 74 14 75
REMARK SMILES IDX 23 76 15 77 17 78 16 79 10 80 11 83 12 84 13 85 18 86 19 87
REMARK SMILES IDX 22 88 20 89 21 90
REMARK H PARENT 80 22 48 33 10 81 10 82
REMARK Flexibility Score: inf
ROOT
ATOM      1  C   UNL     1       4.717   0.465   1.112  1.00  0.00     0.275 C 
ENDROOT
BRANCH   1   2
ATOM      2  O   UNL     1       3.777   1.551   0.993  1.00  0.00    -0.458 OA
BRANCH   2   3
ATOM      3  C   UNL     1       2.560   1.299   0.474  1.00  0.00     0.338 C 
ATOM      4  O   UNL     1       1.703   0.571   0.948  1.00  0.00    -0.246 OA
BRANCH   3   5
ATOM      5  C   UNL     1       2.404   2.049  -0.789  1.00  0.00     0.060 A 
ATOM      6  C   UNL     1       3.517   2.373  -1.575  1.00  0.00     0.016 A 
ATOM      7  C   UNL     1       1.117   2.355  -1.231  1.00  0.00     0.016 A 
ATOM      8  C   UNL     1       3.343   3.024  -2.789  1.00  0.00     0.010 A 
ATOM      9  C   UNL     1       0.947   3.008  -2.449  1.00  0.00     0.010 A 
ATOM     10  C   UNL     1       2.056   3.351  -3.232  1.00  0.00    -0.014 A 
BRANCH  10  11
ATOM     11  C   UNL     1       1.931   4.010  -4.535  1.00  0.00     0.031 A 
ATOM     12  C   UNL     1       2.576   3.352  -5.716  1.00  0.00     0.074 A 
ATOM     13  C   UNL     1       1.197   5.117  -4.763  1.00  0.00     0.049 A 
ATOM     14  N   UNL     1       3.575   3.774  -6.426  1.00  0.00    -0.248 NA
ATOM     15  C   UNL     1       2.057   2.052  -6.153  1.00  0.00     0.031 C 
ATOM     16  C   UNL     1       0.245   5.789  -3.879  1.00  0.00     0.029 A 
ATOM     17  N   UNL     1       1.113   5.838  -5.920  1.00  0.00    -0.354 N 
ATOM     18  C   UNL     1       3.716   2.878  -7.489  1.00  0.00     0.074 A 
ATOM     19  C   UNL     1       2.829   1.782  -7.206  1.00  0.00     0.031 C 
ATOM     20  C   UNL     1      -0.468   6.688  -4.593  1.00  0.00     0.029 A 
ATOM     21  C   UNL     1       0.090   6.768  -5.932  1.00  0.00     0.049 A 
ATOM     22  H   UNL     1       1.727   5.707  -6.678  1.00  0.00     0.167 HD
ATOM     23  C   UNL     1       4.424   3.188  -8.614  1.00  0.00     0.037 A 
ATOM     24  C   UNL     1      -0.290   7.542  -6.974  1.00  0.00     0.037 A 
ATOM     25  C   UNL     1       5.305   4.304  -8.390  1.00  0.00     0.049 A 
ATOM     26  C   UNL     1       0.848   7.635  -7.917  1.00  0.00     0.074 A 
ATOM     27  C   UNL     1       6.326   4.580  -7.500  1.00  0.00     0.029 A 
ATOM     28  N   UNL     1       5.003   5.512  -8.966  1.00  0.00    -0.354 N 
ATOM     29  N   UNL     1       1.945   8.298  -7.681  1.00  0.00    -0.248 NA
ATOM     30  C   UNL     1       0.920   6.679  -9.012  1.00  0.00     0.031 C 
ATOM     31  C   UNL     1       6.194   5.971  -7.210  1.00  0.00     0.029 A 
ATOM     32  C   UNL     1       5.130   6.448  -7.975  1.00  0.00     0.049 A 
ATOM     33  H   UNL     1       4.745   5.673  -9.902  1.00  0.00     0.167 HD
ATOM     34  C   UNL     1       2.942   7.555  -8.290  1.00  0.00     0.074 A 
ATOM     35  C   UNL     1       2.242   6.651  -9.196  1.00  0.00     0.031 C 
ATOM     36  C   UNL     1       4.216   7.549  -7.800  1.00  0.00     0.037 A 
BRANCH  23  37
ATOM     37  C   UNL     1       4.113   2.694 -10.014  1.00  0.00     0.064 A 
ATOM     38  C   UNL     1       4.999   3.012 -11.068  1.00  0.00     0.173 A 
ATOM     39  C   UNL     1       2.856   2.198 -10.416  1.00  0.00     0.173 A 
ATOM     40  F   UNL     1       6.224   3.495 -10.812  1.00  0.00    -0.203 F 
ATOM     41  C   UNL     1       4.616   2.938 -12.411  1.00  0.00     0.198 A 
ATOM     42  C   UNL     1       2.498   2.069 -11.761  1.00  0.00     0.198 A 
ATOM     43  F   UNL     1       1.887   1.919  -9.538  1.00  0.00    -0.203 F 
ATOM     44  F   UNL     1       5.444   3.387 -13.364  1.00  0.00    -0.200 F 
ATOM     45  C   UNL     1       3.362   2.475 -12.756  1.00  0.00     0.200 A 
ATOM     46  F   UNL     1       1.274   1.623 -12.076  1.00  0.00    -0.200 F 
ATOM     47  F   UNL     1       2.968   2.464 -14.036  1.00  0.00    -0.200 F 
ENDBRANCH  23  37
BRANCH  24  48
ATOM     48  C   UNL     1      -1.632   8.067  -7.293  1.00  0.00     0.064 A 
ATOM     49  C   UNL     1      -1.800   9.163  -8.151  1.00  0.00     0.173 A 
ATOM     50  C   UNL     1      -2.790   7.334  -6.968  1.00  0.00     0.173 A 
ATOM     51  F   UNL     1      -0.739   9.886  -8.539  1.00  0.00    -0.203 F 
ATOM     52  C   UNL     1      -3.051   9.493  -8.676  1.00  0.00     0.198 A 
ATOM     53  C   UNL     1      -4.040   7.670  -7.486  1.00  0.00     0.198 A 
ATOM     54  F   UNL     1      -2.713   6.225  -6.218  1.00  0.00    -0.203 F 
ATOM     55  F   UNL     1      -3.164  10.510  -9.542  1.00  0.00    -0.200 F 
ATOM     56  C   UNL     1      -4.168   8.740  -8.351  1.00  0.00     0.200 A 
ATOM     57  F   UNL     1      -5.107   6.914  -7.191  1.00  0.00    -0.200 F 
ATOM     58  F   UNL     1      -5.357   9.021  -8.902  1.00  0.00    -0.200 F 
ENDBRANCH  24  48
BRANCH  36  59
ATOM     59  C   UNL     1       4.597   8.595  -6.795  1.00  0.00     0.064 A 
ATOM     60  C   UNL     1       3.978   8.744  -5.543  1.00  0.00     0.173 A 
ATOM     61  C   UNL     1       5.724   9.387  -7.057  1.00  0.00     0.173 A 
ATOM     62  F   UNL     1       2.969   7.946  -5.170  1.00  0.00    -0.203 F 
ATOM     63  C   UNL     1       4.432   9.686  -4.622  1.00  0.00     0.198 A 
ATOM     64  C   UNL     1       6.201  10.298  -6.119  1.00  0.00     0.198 A 
ATOM     65  F   UNL     1       6.395   9.243  -8.211  1.00  0.00    -0.203 F 
ATOM     66  F   UNL     1       3.812   9.824  -3.441  1.00  0.00    -0.200 F 
ATOM     67  C   UNL     1       5.546  10.457  -4.909  1.00  0.00     0.200 A 
ATOM     68  F   UNL     1       7.311  11.002  -6.379  1.00  0.00    -0.200 F 
ATOM     69  F   UNL     1       6.008  11.335  -4.006  1.00  0.00    -0.200 F 
ENDBRANCH  36  59
ENDBRANCH  10  11
ENDBRANCH   3   5
ENDBRANCH   2   3
ENDBRANCH   1   2
BRANCH   1  70
ATOM     70  C   UNL     1       4.206  -0.952   0.851  1.00  0.00     0.274 C 
BRANCH  70  71
ATOM     71  O   UNL     1       3.702  -1.071  -0.493  1.00  0.00    -0.457 OA
BRANCH  71  72
ATOM     72  C   UNL     1       2.808  -2.090  -0.672  1.00  0.00     0.368 C 
ATOM     73  O   UNL     1       2.412  -2.814   0.237  1.00  0.00    -0.245 OA
BRANCH  72  74
ATOM     74  C   UNL     1       2.365  -2.273  -2.153  1.00  0.00     0.196 C 
ATOM     75  C   UNL     1       1.908  -3.737  -2.356  1.00  0.00     0.081 C 
ATOM     76  C   UNL     1       1.124  -1.364  -2.405  1.00  0.00     0.108 C 
ATOM     77  C   UNL     1       1.346  -4.001  -3.747  1.00  0.00     0.009 C 
ATOM     78  C   UNL     1       0.405  -1.625  -3.751  1.00  0.00     0.116 C 
ATOM     79  C   UNL     1       0.138  -3.119  -4.005  1.00  0.00     0.028 C 
BRANCH  74  80
ATOM     80  N   UNL     1       3.431  -1.881  -3.114  1.00  0.00    -0.330 N 
ATOM     81  H   UNL     1       3.481  -0.863  -3.088  1.00  0.00     0.347 HD
ATOM     82  H   UNL     1       3.127  -2.336  -3.975  1.00  0.00     0.347 HD
BRANCH  80  83
ATOM     83  C   UNL     1       4.810  -2.367  -2.972  1.00  0.00     0.183 C 
ATOM     84  C   UNL     1       5.312  -3.398  -2.003  1.00  0.00     0.071 C 
ATOM     85  C   UNL     1       5.162  -3.752  -3.452  1.00  0.00     0.071 C 
ENDBRANCH  80  83
ENDBRANCH  74  80
BRANCH  78  86
ATOM     86  N   UNL     1      -0.818  -0.831  -3.891  1.00  0.00    -0.250 N 
ATOM     87  C   UNL     1      -0.909   0.508  -4.111  1.00  0.00     0.220 A 
ATOM     88  N   UNL     1      -2.038  -1.396  -3.972  1.00  0.00    -0.160 NA
ATOM     89  N   UNL     1      -2.152   0.848  -4.347  1.00  0.00    -0.224 NA
ATOM     90  C   UNL     1      -2.810  -0.343  -4.251  1.00  0.00     0.246 A 
ENDBRANCH  78  86
ENDBRANCH  72  74
ENDBRANCH  71  72
ENDBRANCH  70  71
ENDBRANCH   1  70
TORSDOF 14
