REMARK SMILES O=C1CC[C@@H](CC(=O)N2CCC(Oc3ccccc3)(C(=O)OCCOC(=O)c3ccc(-c4c5nc(c(-c6c(F)c(F)c(F)c(F)c6F)c6ccc([nH]6)c(-c6c(F)c(F)c(F)c(F)c6F)c6nc(c(-c7c(F)c(F)c(F)c(F)c7F)c7ccc4[nH]7)C=C6)C=C5)cc3)CC2)N1
REMARK SMILES IDX 23 1 22 2 20 3 21 4 12 5 7 6 8 7 9 8 10 9 92 10 11 11 91 12
REMARK SMILES IDX 6 13 5 14 1 15 2 16 3 17 93 18 4 19 13 21 14 22 15 23 19 24
REMARK SMILES IDX 16 25 18 26 17 27 24 28 25 29 26 30 27 31 28 32 29 33 90 34
REMARK SMILES IDX 30 35 89 36 31 37 32 38 33 39 83 40 34 41 88 42 82 43 84 44
REMARK SMILES IDX 35 45 87 46 81 47 80 48 36 50 68 51 48 52 67 53 49 54 52 55
REMARK SMILES IDX 66 56 85 57 50 58 51 59 65 61 86 62 53 63 37 64 38 65 46 66
REMARK SMILES IDX 39 67 40 68 44 69 47 70 41 71 42 72 45 73 43 74 69 75 70 76
REMARK SMILES IDX 78 77 71 78 72 79 76 80 79 81 73 82 74 83 77 84 75 85 54 86
REMARK SMILES IDX 55 87 63 88 56 89 57 90 61 91 64 92 58 93 59 94 62 95 60 96
REMARK H PARENT 93 20 84 49 52 60
REMARK Flexibility Score: inf
ROOT
ATOM      1  C   UNL     1       0.507   3.535  -5.788  1.00  0.00     0.274 C 
ENDROOT
BRANCH   1   2
ATOM      2  O   UNL     1       0.656   2.106  -5.623  1.00  0.00    -0.459 OA
BRANCH   2   3
ATOM      3  C   UNL     1       1.379   1.706  -4.542  1.00  0.00     0.350 C 
ATOM      4  O   UNL     1       1.800   2.482  -3.687  1.00  0.00    -0.247 OA
BRANCH   3   5
ATOM      5  C   UNL     1       1.649   0.182  -4.499  1.00  0.00     0.209 C 
ATOM      6  C   UNL     1      -1.222  -2.261  -2.722  1.00  0.00     0.224 C 
ATOM      7  O   UNL     1      -1.496  -3.225  -3.444  1.00  0.00    -0.275 OA
ATOM      8  N   UNL     1      -0.643  -1.117  -3.247  1.00  0.00    -0.342 N 
ATOM      9  C   UNL     1      -0.721  -0.833  -4.679  1.00  0.00     0.124 C 
ATOM     10  C   UNL     1       0.164  -0.178  -2.507  1.00  0.00     0.124 C 
ATOM     11  C   UNL     1       0.655  -0.669  -5.322  1.00  0.00     0.082 C 
ATOM     12  C   UNL     1       1.598  -0.228  -3.009  1.00  0.00     0.082 C 
BRANCH   6  13
ATOM     13  C   UNL     1      -1.724  -2.263  -1.276  1.00  0.00     0.125 C 
BRANCH  13  14
ATOM     14  C   UNL     1      -0.786  -2.366  -0.069  1.00  0.00     0.091 C 
ATOM     15  O   UNL     1       2.657  -2.023   0.499  1.00  0.00    -0.275 OA
ATOM     16  C   UNL     1       1.453  -1.902   0.475  1.00  0.00     0.220 C 
ATOM     17  C   UNL     1       0.647  -0.926   1.291  1.00  0.00     0.102 C 
ATOM     18  N   UNL     1       0.594  -2.633  -0.322  1.00  0.00    -0.353 N 
ATOM     19  C   UNL     1      -0.777  -1.098   0.781  1.00  0.00     0.035 C 
ATOM     20  H   UNL     1       0.903  -3.277  -0.999  1.00  0.00     0.163 HD
ENDBRANCH  13  14
ENDBRANCH   6  13
BRANCH   5  21
ATOM     21  O   UNL     1       2.979   0.142  -5.099  1.00  0.00    -0.475 OA
BRANCH  21  22
ATOM     22  C   UNL     1       3.727  -0.959  -4.791  1.00  0.00     0.121 A 
ATOM     23  C   UNL     1       4.625  -0.900  -3.727  1.00  0.00     0.046 A 
ATOM     24  C   UNL     1       3.625  -2.116  -5.561  1.00  0.00     0.046 A 
ATOM     25  C   UNL     1       5.340  -2.041  -3.363  1.00  0.00     0.004 A 
ATOM     26  C   UNL     1       4.332  -3.259  -5.191  1.00  0.00     0.004 A 
ATOM     27  C   UNL     1       5.178  -3.225  -4.083  1.00  0.00     0.000 A 
ENDBRANCH  21  22
ENDBRANCH   5  21
ENDBRANCH   3   5
ENDBRANCH   2   3
ENDBRANCH   1   2
BRANCH   1  28
ATOM     28  C   UNL     1      -0.879   4.004  -5.346  1.00  0.00     0.275 C 
BRANCH  28  29
ATOM     29  O   UNL     1      -0.986   3.943  -3.910  1.00  0.00    -0.458 OA
BRANCH  29  30
ATOM     30  C   UNL     1      -2.003   3.204  -3.411  1.00  0.00     0.338 C 
ATOM     31  O   UNL     1      -2.854   2.601  -4.044  1.00  0.00    -0.246 OA
BRANCH  30  32
ATOM     32  C   UNL     1      -1.928   3.147  -1.933  1.00  0.00     0.060 A 
ATOM     33  C   UNL     1      -0.709   2.911  -1.313  1.00  0.00     0.016 A 
ATOM     34  C   UNL     1      -3.096   3.134  -1.165  1.00  0.00     0.016 A 
ATOM     35  C   UNL     1      -0.685   2.499   0.019  1.00  0.00     0.010 A 
ATOM     36  C   UNL     1      -3.039   2.867   0.218  1.00  0.00     0.010 A 
ATOM     37  C   UNL     1      -1.839   2.475   0.832  1.00  0.00    -0.014 A 
BRANCH  37  38
ATOM     38  C   UNL     1      -1.761   1.973   2.259  1.00  0.00     0.031 A 
ATOM     39  C   UNL     1      -2.710   0.910   2.803  1.00  0.00     0.074 A 
ATOM     40  C   UNL     1      -0.733   2.337   3.062  1.00  0.00     0.049 A 
ATOM     41  N   UNL     1      -2.734   0.358   3.998  1.00  0.00    -0.248 NA
ATOM     42  C   UNL     1      -3.711   0.341   1.884  1.00  0.00     0.031 C 
ATOM     43  C   UNL     1       0.332   3.275   2.704  1.00  0.00     0.029 A 
ATOM     44  N   UNL     1      -0.380   1.924   4.331  1.00  0.00    -0.354 N 
ATOM     45  C   UNL     1      -3.726  -0.618   3.966  1.00  0.00     0.074 A 
ATOM     46  C   UNL     1      -4.300  -0.579   2.639  1.00  0.00     0.031 C 
ATOM     47  C   UNL     1       1.266   3.276   3.663  1.00  0.00     0.029 A 
ATOM     48  C   UNL     1       0.781   2.499   4.796  1.00  0.00     0.049 A 
ATOM     49  H   UNL     1      -0.909   1.280   4.855  1.00  0.00     0.167 HD
ATOM     50  C   UNL     1      -4.123  -1.479   4.937  1.00  0.00     0.037 A 
ATOM     51  C   UNL     1       1.366   2.500   6.012  1.00  0.00     0.037 A 
ATOM     52  C   UNL     1      -3.611  -1.520   6.284  1.00  0.00     0.049 A 
ATOM     53  C   UNL     1       0.725   1.761   7.149  1.00  0.00     0.074 A 
ATOM     54  C   UNL     1      -4.034  -2.309   7.343  1.00  0.00     0.029 A 
ATOM     55  N   UNL     1      -2.583  -0.732   6.768  1.00  0.00    -0.354 N 
ATOM     56  N   UNL     1      -0.274   0.917   7.125  1.00  0.00    -0.248 NA
ATOM     57  C   UNL     1       1.262   2.019   8.494  1.00  0.00     0.031 C 
ATOM     58  C   UNL     1      -3.317  -1.939   8.486  1.00  0.00     0.029 A 
ATOM     59  C   UNL     1      -2.405  -0.965   8.125  1.00  0.00     0.049 A 
ATOM     60  H   UNL     1      -2.055  -0.099   6.229  1.00  0.00     0.167 HD
ATOM     61  C   UNL     1      -0.492   0.551   8.446  1.00  0.00     0.074 A 
ATOM     62  C   UNL     1       0.501   1.234   9.245  1.00  0.00     0.031 C 
ATOM     63  C   UNL     1      -1.447  -0.271   8.944  1.00  0.00     0.037 A 
BRANCH  50  64
ATOM     64  C   UNL     1      -5.236  -2.434   4.611  1.00  0.00     0.064 A 
ATOM     65  C   UNL     1      -5.009  -3.613   3.887  1.00  0.00     0.173 A 
ATOM     66  C   UNL     1      -6.525  -2.209   5.119  1.00  0.00     0.173 A 
ATOM     67  F   UNL     1      -3.797  -3.867   3.372  1.00  0.00    -0.203 F 
ATOM     68  C   UNL     1      -6.037  -4.533   3.683  1.00  0.00     0.198 A 
ATOM     69  C   UNL     1      -7.543  -3.138   4.928  1.00  0.00     0.198 A 
ATOM     70  F   UNL     1      -6.785  -1.099   5.825  1.00  0.00    -0.203 F 
ATOM     71  F   UNL     1      -5.806  -5.648   2.976  1.00  0.00    -0.200 F 
ATOM     72  C   UNL     1      -7.299  -4.299   4.210  1.00  0.00     0.200 A 
ATOM     73  F   UNL     1      -8.757  -2.914   5.449  1.00  0.00    -0.200 F 
ATOM     74  F   UNL     1      -8.282  -5.191   4.025  1.00  0.00    -0.200 F 
ENDBRANCH  50  64
BRANCH  51  75
ATOM     75  C   UNL     1       2.554   3.367   6.253  1.00  0.00     0.064 A 
ATOM     76  C   UNL     1       3.792   2.837   6.637  1.00  0.00     0.173 A 
ATOM     77  C   UNL     1       2.460   4.763   6.111  1.00  0.00     0.173 A 
ATOM     78  F   UNL     1       3.923   1.518   6.839  1.00  0.00    -0.203 F 
ATOM     79  C   UNL     1       4.891   3.668   6.855  1.00  0.00     0.198 A 
ATOM     80  C   UNL     1       3.568   5.585   6.280  1.00  0.00     0.198 A 
ATOM     81  F   UNL     1       1.290   5.328   5.775  1.00  0.00    -0.203 F 
ATOM     82  F   UNL     1       6.052   3.144   7.269  1.00  0.00    -0.200 F 
ATOM     83  C   UNL     1       4.782   5.038   6.660  1.00  0.00     0.200 A 
ATOM     84  F   UNL     1       3.457   6.904   6.071  1.00  0.00    -0.200 F 
ATOM     85  F   UNL     1       5.844   5.832   6.848  1.00  0.00    -0.200 F 
ENDBRANCH  51  75
BRANCH  63  86
ATOM     86  C   UNL     1      -1.484  -0.468  10.431  1.00  0.00     0.064 A 
ATOM     87  C   UNL     1      -1.901   0.560  11.291  1.00  0.00     0.173 A 
ATOM     88  C   UNL     1      -1.117  -1.693  11.008  1.00  0.00     0.173 A 
ATOM     89  F   UNL     1      -2.246   1.757  10.792  1.00  0.00    -0.203 F 
ATOM     90  C   UNL     1      -1.922   0.379  12.672  1.00  0.00     0.198 A 
ATOM     91  C   UNL     1      -1.166  -1.881  12.388  1.00  0.00     0.198 A 
ATOM     92  F   UNL     1      -0.714  -2.712  10.234  1.00  0.00    -0.203 F 
ATOM     93  F   UNL     1      -2.274   1.393  13.474  1.00  0.00    -0.200 F 
ATOM     94  C   UNL     1      -1.560  -0.843  13.219  1.00  0.00     0.200 A 
ATOM     95  F   UNL     1      -0.827  -3.066  12.914  1.00  0.00    -0.200 F 
ATOM     96  F   UNL     1      -1.582  -1.017  14.547  1.00  0.00    -0.200 F 
ENDBRANCH  63  86
ENDBRANCH  37  38
ENDBRANCH  30  32
ENDBRANCH  29  30
ENDBRANCH  28  29
ENDBRANCH   1  28
TORSDOF 15
