REMARK SMILES Cc1cccc(C[N@@H+](C)C[C@]2(C(=O)OCCOC(=O)c3ccc(-c4c5nc(c(-c6c(F)c(F)c(F)c(F)c6F)c6ccc([nH]6)c(-c6c(F)c(F)c(F)c(F)c6F)c6nc(c(-c7c(F)c(F)c(F)c(F)c7F)c7ccc4[nH]7)C=C6)C=C5)cc3)CCOC2)n1
REMARK SMILES IDX 15 1 14 2 12 3 13 4 11 5 83 6 86 7 84 8 85 9 10 10 8 11 9 12
REMARK SMILES IDX 7 14 6 15 1 16 2 17 3 18 87 19 4 20 5 21 16 22 17 23 18 24
REMARK SMILES IDX 19 25 20 26 21 27 82 28 22 29 81 30 23 31 24 32 25 33 75 34
REMARK SMILES IDX 26 35 80 36 74 37 76 38 27 39 79 40 73 41 72 42 28 44 60 45
REMARK SMILES IDX 40 46 59 47 41 48 44 49 58 50 77 51 42 52 43 53 57 55 78 56
REMARK SMILES IDX 45 57 29 58 30 59 38 60 31 61 32 62 36 63 39 64 33 65 34 66
REMARK SMILES IDX 37 67 35 68 61 69 62 70 70 71 63 72 64 73 68 74 71 75 65 76
REMARK SMILES IDX 66 77 69 78 67 79 46 80 47 81 55 82 48 83 49 84 53 85 56 86
REMARK SMILES IDX 50 87 51 88 54 89 52 90
REMARK H PARENT 8 13 76 43 44 54
REMARK Flexibility Score: inf
ROOT
ATOM      1  C   UNL     1      -5.146   2.643  -0.453  1.00  0.00     0.274 C 
ENDROOT
BRANCH   1   2
ATOM      2  O   UNL     1      -4.994   2.749   0.989  1.00  0.00    -0.461 OA
BRANCH   2   3
ATOM      3  C   UNL     1      -5.082   1.596   1.734  1.00  0.00     0.320 C 
ATOM      4  O   UNL     1      -5.478   0.524   1.293  1.00  0.00    -0.251 OA
BRANCH   3   5
ATOM      5  C   UNL     1      -4.449   1.772   3.115  1.00  0.00     0.142 C 
ATOM      6  C   UNL     1      -4.903   3.074   3.775  1.00  0.00     0.055 C 
ATOM      7  C   UNL     1      -5.034   0.789   4.135  1.00  0.00     0.185 C 
ATOM      8  C   UNL     1      -4.677   2.812   5.246  1.00  0.00     0.161 C 
ATOM      9  O   UNL     1      -4.909   1.410   5.432  1.00  0.00    -0.380 OA
BRANCH   5  10
ATOM     10  C   UNL     1      -2.909   1.500   3.101  1.00  0.00     0.283 C 
BRANCH  10  11
ATOM     11  N   UNL     1      -2.040   2.140   2.109  1.00  0.00    -0.331 N 
ATOM     12  C   UNL     1      -2.220   3.590   2.127  1.00  0.00     0.333 C 
ATOM     13  H   UNL     1      -1.056   2.032   2.354  1.00  0.00     0.348 HD
BRANCH  11  14
ATOM     14  C   UNL     1      -2.120   1.444   0.806  1.00  0.00     0.319 C 
BRANCH  14  15
ATOM     15  C   UNL     1      -1.439   0.091   0.688  1.00  0.00     0.095 A 
ATOM     16  C   UNL     1       2.013  -1.102   0.319  1.00  0.00     0.067 C 
ATOM     17  C   UNL     1       0.520  -1.111   0.391  1.00  0.00     0.038 A 
ATOM     18  C   UNL     1      -0.188  -2.268   0.083  1.00  0.00     0.023 A 
ATOM     19  N   UNL     1      -0.083   0.066   0.676  1.00  0.00    -0.252 NA
ATOM     20  C   UNL     1      -1.575  -2.228   0.098  1.00  0.00     0.004 A 
ATOM     21  C   UNL     1      -2.213  -1.035   0.405  1.00  0.00     0.030 A 
ENDBRANCH  14  15
ENDBRANCH  11  14
ENDBRANCH  10  11
ENDBRANCH   5  10
ENDBRANCH   3   5
ENDBRANCH   2   3
ENDBRANCH   1   2
BRANCH   1  22
ATOM     22  C   UNL     1      -4.426   3.807  -1.193  1.00  0.00     0.275 C 
BRANCH  22  23
ATOM     23  O   UNL     1      -2.973   3.750  -1.119  1.00  0.00    -0.458 OA
BRANCH  23  24
ATOM     24  C   UNL     1      -2.304   4.742  -1.797  1.00  0.00     0.338 C 
ATOM     25  O   UNL     1      -2.847   5.613  -2.463  1.00  0.00    -0.246 OA
BRANCH  24  26
ATOM     26  C   UNL     1      -0.808   4.686  -1.631  1.00  0.00     0.060 A 
ATOM     27  C   UNL     1      -0.243   4.022  -0.556  1.00  0.00     0.016 A 
ATOM     28  C   UNL     1       0.076   5.363  -2.474  1.00  0.00     0.016 A 
ATOM     29  C   UNL     1       1.112   4.004  -0.270  1.00  0.00     0.010 A 
ATOM     30  C   UNL     1       1.472   5.334  -2.226  1.00  0.00     0.010 A 
ATOM     31  C   UNL     1       1.998   4.652  -1.113  1.00  0.00    -0.014 A 
BRANCH  31  32
ATOM     32  C   UNL     1       3.422   4.676  -0.697  1.00  0.00     0.031 A 
ATOM     33  C   UNL     1       3.992   5.938  -0.127  1.00  0.00     0.074 A 
ATOM     34  C   UNL     1       4.133   3.534  -0.610  1.00  0.00     0.049 A 
ATOM     35  N   UNL     1       5.229   6.223   0.186  1.00  0.00    -0.248 NA
ATOM     36  C   UNL     1       3.033   7.016   0.159  1.00  0.00     0.031 C 
ATOM     37  C   UNL     1       3.612   2.198  -0.904  1.00  0.00     0.029 A 
ATOM     38  N   UNL     1       5.421   3.300  -0.193  1.00  0.00    -0.354 N 
ATOM     39  C   UNL     1       5.208   7.535   0.633  1.00  0.00     0.074 A 
ATOM     40  C   UNL     1       3.829   7.974   0.609  1.00  0.00     0.031 C 
ATOM     41  C   UNL     1       4.555   1.288  -0.616  1.00  0.00     0.029 A 
ATOM     42  C   UNL     1       5.776   1.972  -0.216  1.00  0.00     0.049 A 
ATOM     43  H   UNL     1       6.033   4.016   0.094  1.00  0.00     0.167 HD
ATOM     44  C   UNL     1       6.262   8.308   0.985  1.00  0.00     0.037 A 
ATOM     45  C   UNL     1       6.964   1.377   0.010  1.00  0.00     0.037 A 
ATOM     46  C   UNL     1       7.619   7.830   1.020  1.00  0.00     0.049 A 
ATOM     47  C   UNL     1       8.144   2.261   0.306  1.00  0.00     0.074 A 
ATOM     48  C   UNL     1       8.790   8.538   1.214  1.00  0.00     0.029 A 
ATOM     49  N   UNL     1       7.977   6.495   0.874  1.00  0.00    -0.354 N 
ATOM     50  N   UNL     1       8.171   3.556   0.512  1.00  0.00    -0.248 NA
ATOM     51  C   UNL     1       9.463   1.618   0.344  1.00  0.00     0.031 C 
ATOM     52  C   UNL     1       9.860   7.635   1.149  1.00  0.00     0.029 A 
ATOM     53  C   UNL     1       9.351   6.359   0.959  1.00  0.00     0.049 A 
ATOM     54  H   UNL     1       7.344   5.754   0.730  1.00  0.00     0.167 HD
ATOM     55  C   UNL     1       9.505   3.888   0.685  1.00  0.00     0.074 A 
ATOM     56  C   UNL     1      10.255   2.649   0.606  1.00  0.00     0.031 C 
ATOM     57  C   UNL     1      10.065   5.110   0.868  1.00  0.00     0.037 A 
BRANCH  44  58
ATOM     58  C   UNL     1       5.985   9.764   1.206  1.00  0.00     0.064 A 
ATOM     59  C   UNL     1       5.354  10.247   2.360  1.00  0.00     0.173 A 
ATOM     60  C   UNL     1       6.313  10.687   0.200  1.00  0.00     0.173 A 
ATOM     61  F   UNL     1       4.989   9.402   3.336  1.00  0.00    -0.203 F 
ATOM     62  C   UNL     1       5.033  11.599   2.484  1.00  0.00     0.198 A 
ATOM     63  C   UNL     1       6.012  12.038   0.338  1.00  0.00     0.198 A 
ATOM     64  F   UNL     1       6.909  10.273  -0.928  1.00  0.00    -0.203 F 
ATOM     65  F   UNL     1       4.374  12.033   3.568  1.00  0.00    -0.200 F 
ATOM     66  C   UNL     1       5.363  12.492   1.475  1.00  0.00     0.200 A 
ATOM     67  F   UNL     1       6.331  12.897  -0.641  1.00  0.00    -0.200 F 
ATOM     68  F   UNL     1       5.039  13.787   1.590  1.00  0.00    -0.200 F 
ENDBRANCH  44  58
BRANCH  45  69
ATOM     69  C   UNL     1       7.114  -0.101  -0.130  1.00  0.00     0.064 A 
ATOM     70  C   UNL     1       7.502  -0.904   0.953  1.00  0.00     0.173 A 
ATOM     71  C   UNL     1       6.870  -0.747  -1.353  1.00  0.00     0.173 A 
ATOM     72  F   UNL     1       7.785  -0.342   2.137  1.00  0.00    -0.203 F 
ATOM     73  C   UNL     1       7.633  -2.287   0.818  1.00  0.00     0.198 A 
ATOM     74  C   UNL     1       6.961  -2.132  -1.477  1.00  0.00     0.198 A 
ATOM     75  F   UNL     1       6.516  -0.034  -2.433  1.00  0.00    -0.203 F 
ATOM     76  F   UNL     1       8.044  -3.025   1.859  1.00  0.00    -0.200 F 
ATOM     77  C   UNL     1       7.349  -2.901  -0.393  1.00  0.00     0.200 A 
ATOM     78  F   UNL     1       6.668  -2.719  -2.645  1.00  0.00    -0.200 F 
ATOM     79  F   UNL     1       7.455  -4.231  -0.516  1.00  0.00    -0.200 F 
ENDBRANCH  45  69
BRANCH  57  80
ATOM     80  C   UNL     1      11.556   5.152   0.989  1.00  0.00     0.064 A 
ATOM     81  C   UNL     1      12.382   4.985  -0.133  1.00  0.00     0.173 A 
ATOM     82  C   UNL     1      12.162   5.385   2.231  1.00  0.00     0.173 A 
ATOM     83  F   UNL     1      11.844   4.741  -1.337  1.00  0.00    -0.203 F 
ATOM     84  C   UNL     1      13.767   5.028  -0.010  1.00  0.00     0.198 A 
ATOM     85  C   UNL     1      13.547   5.451   2.345  1.00  0.00     0.198 A 
ATOM     86  F   UNL     1      11.411   5.552   3.329  1.00  0.00    -0.203 F 
ATOM     87  F   UNL     1      14.540   4.822  -1.085  1.00  0.00    -0.200 F 
ATOM     88  C   UNL     1      14.348   5.266   1.227  1.00  0.00     0.200 A 
ATOM     89  F   UNL     1      14.108   5.688   3.539  1.00  0.00    -0.200 F 
ATOM     90  F   UNL     1      15.682   5.308   1.344  1.00  0.00    -0.200 F 
ENDBRANCH  57  80
ENDBRANCH  31  32
ENDBRANCH  24  26
ENDBRANCH  23  24
ENDBRANCH  22  23
ENDBRANCH   1  22
TORSDOF 15
