REMARK SMILES Cc1ccc(-c2cc3cccnc3n2CCC(=O)OCCOC(=O)c2ccc(-c3c4nc(c(-c5c(F)c(F)c(F)c(F)c5F)c5ccc([nH]5)c(-c5c(F)c(F)c(F)c(F)c5F)c5nc(c(-c6c(F)c(F)c(F)c(F)c6F)c6ccc3[nH]6)C=C5)C=C4)cc2)cn1
REMARK SMILES IDX 20 1 19 2 17 3 18 4 16 5 15 6 14 7 6 8 7 9 8 10 13 11 9 12
REMARK SMILES IDX 12 13 10 14 11 15 5 16 1 17 2 18 3 19 89 20 4 21 88 22 21 23
REMARK SMILES IDX 22 24 23 25 24 26 25 27 26 28 87 29 27 30 86 31 28 32 29 33
REMARK SMILES IDX 30 34 80 35 31 36 85 37 79 38 81 39 32 40 84 41 78 42 77 43
REMARK SMILES IDX 33 45 65 46 45 47 64 48 46 49 49 50 63 51 82 52 47 53 48 54
REMARK SMILES IDX 62 56 83 57 50 58 34 59 35 60 43 61 36 62 37 63 41 64 44 65
REMARK SMILES IDX 38 66 39 67 42 68 40 69 66 70 67 71 75 72 68 73 69 74 73 75
REMARK SMILES IDX 76 76 70 77 71 78 74 79 72 80 51 81 52 82 60 83 53 84 54 85
REMARK SMILES IDX 58 86 61 87 55 88 56 89 59 90 57 91
REMARK H PARENT 81 44 49 55
REMARK Flexibility Score: inf
ROOT
ATOM      1  C   UNL     1      -1.472  -1.695  -1.732  1.00  0.00     0.274 C 
ENDROOT
BRANCH   1   2
ATOM      2  O   UNL     1      -2.822  -1.884  -1.208  1.00  0.00    -0.462 OA
BRANCH   2   3
ATOM      3  C   UNL     1      -3.092  -3.049  -0.554  1.00  0.00     0.307 C 
ATOM      4  O   UNL     1      -2.465  -4.087  -0.741  1.00  0.00    -0.252 OA
BRANCH   3   5
ATOM      5  C   UNL     1      -4.181  -2.956   0.521  1.00  0.00     0.144 C 
BRANCH   5   6
ATOM      6  C   UNL     1      -4.226  -1.751   1.471  1.00  0.00     0.136 C 
BRANCH   6   7
ATOM      7  N   UNL     1      -4.452  -0.500   0.787  1.00  0.00    -0.325 N 
ATOM      8  C   UNL     1      -3.485   0.305   0.235  1.00  0.00     0.052 A 
ATOM      9  C   UNL     1      -4.147   1.200  -0.595  1.00  0.00     0.039 A 
ATOM     10  C   UNL     1      -5.532   0.967  -0.497  1.00  0.00     0.020 A 
ATOM     11  C   UNL     1      -5.702  -0.041   0.442  1.00  0.00     0.140 A 
ATOM     12  C   UNL     1      -6.669   1.482  -1.130  1.00  0.00     0.013 A 
ATOM     13  N   UNL     1      -6.873  -0.550   0.874  1.00  0.00    -0.238 NA
ATOM     14  C   UNL     1      -7.904   0.995  -0.714  1.00  0.00     0.021 A 
ATOM     15  C   UNL     1      -7.945   0.028   0.283  1.00  0.00     0.113 A 
BRANCH   8  16
ATOM     16  C   UNL     1      -2.038   0.117   0.285  1.00  0.00     0.017 A 
ATOM     17  C   UNL     1       2.992  -0.088  -0.322  1.00  0.00     0.066 C 
ATOM     18  C   UNL     1       1.505  -0.091  -0.163  1.00  0.00     0.037 A 
ATOM     19  C   UNL     1       0.640  -1.538   0.421  1.00  0.00     0.024 A 
ATOM     20  N   UNL     1       0.670   1.404  -0.524  1.00  0.00    -0.261 NA
ATOM     21  C   UNL     1      -1.139  -1.427   0.706  1.00  0.00     0.014 A 
ATOM     22  C   UNL     1      -1.066   1.525  -0.284  1.00  0.00     0.121 A 
ENDBRANCH   8  16
ENDBRANCH   6   7
ENDBRANCH   5   6
ENDBRANCH   3   5
ENDBRANCH   2   3
ENDBRANCH   1   2
BRANCH   1  23
ATOM     23  C   UNL     1      -0.515  -0.393  -1.180  1.00  0.00     0.275 C 
BRANCH  23  24
ATOM     24  O   UNL     1      -0.162   0.178   0.715  1.00  0.00    -0.458 OA
BRANCH  24  25
ATOM     25  C   UNL     1      -0.403   0.763   1.972  1.00  0.00     0.338 C 
ATOM     26  O   UNL     1      -1.306   1.511   2.331  1.00  0.00    -0.246 OA
BRANCH  25  27
ATOM     27  C   UNL     1       0.445   0.181   2.992  1.00  0.00     0.060 A 
ATOM     28  C   UNL     1      -0.217  -0.352   4.110  1.00  0.00     0.016 A 
ATOM     29  C   UNL     1       1.731   0.699   3.015  1.00  0.00     0.016 A 
ATOM     30  C   UNL     1       0.326  -0.093   5.340  1.00  0.00     0.010 A 
ATOM     31  C   UNL     1       2.281   0.934   4.236  1.00  0.00     0.010 A 
ATOM     32  C   UNL     1       1.502   0.655   5.363  1.00  0.00    -0.014 A 
BRANCH  32  33
ATOM     33  C   UNL     1       1.896   1.278   6.600  1.00  0.00     0.031 A 
ATOM     34  C   UNL     1       2.643   0.379   7.493  1.00  0.00     0.074 A 
ATOM     35  C   UNL     1       1.740   2.607   6.749  1.00  0.00     0.049 A 
ATOM     36  N   UNL     1       2.382   0.070   8.717  1.00  0.00    -0.248 NA
ATOM     37  C   UNL     1       3.755  -0.383   6.896  1.00  0.00     0.031 C 
ATOM     38  C   UNL     1       1.283   3.583   5.749  1.00  0.00     0.029 A 
ATOM     39  N   UNL     1       2.109   3.392   7.790  1.00  0.00    -0.354 N 
ATOM     40  C   UNL     1       3.404  -0.788   9.098  1.00  0.00     0.074 A 
ATOM     41  C   UNL     1       4.103  -1.177   7.904  1.00  0.00     0.031 C 
ATOM     42  C   UNL     1       1.634   4.824   6.151  1.00  0.00     0.029 A 
ATOM     43  C   UNL     1       2.233   4.736   7.471  1.00  0.00     0.049 A 
ATOM     44  H   UNL     1       2.275   3.039   8.694  1.00  0.00     0.167 HD
ATOM     45  C   UNL     1       3.774  -0.906  10.398  1.00  0.00     0.037 A 
ATOM     46  C   UNL     1       2.884   5.665   8.212  1.00  0.00     0.037 A 
ATOM     47  C   UNL     1       2.747  -0.448  11.290  1.00  0.00     0.049 A 
ATOM     48  C   UNL     1       3.072   5.088   9.572  1.00  0.00     0.074 A 
ATOM     49  C   UNL     1       1.440  -0.833  11.521  1.00  0.00     0.029 A 
ATOM     50  N   UNL     1       2.876   0.804  11.839  1.00  0.00    -0.354 N 
ATOM     51  N   UNL     1       2.105   4.869  10.419  1.00  0.00    -0.248 NA
ATOM     52  C   UNL     1       4.300   4.345   9.828  1.00  0.00     0.031 C 
ATOM     53  C   UNL     1       0.736   0.375  11.793  1.00  0.00     0.029 A 
ATOM     54  C   UNL     1       1.655   1.424  11.748  1.00  0.00     0.049 A 
ATOM     55  H   UNL     1       3.695   1.187  12.229  1.00  0.00     0.167 HD
ATOM     56  C   UNL     1       2.446   3.682  11.052  1.00  0.00     0.074 A 
ATOM     57  C   UNL     1       3.851   3.463  10.725  1.00  0.00     0.031 C 
ATOM     58  C   UNL     1       1.484   2.843  11.535  1.00  0.00     0.037 A 
BRANCH  45  59
ATOM     59  C   UNL     1       5.201  -1.112  10.812  1.00  0.00     0.064 A 
ATOM     60  C   UNL     1       5.487  -1.519  12.123  1.00  0.00     0.173 A 
ATOM     61  C   UNL     1       6.305  -0.675  10.044  1.00  0.00     0.173 A 
ATOM     62  F   UNL     1       4.501  -1.907  12.946  1.00  0.00    -0.203 F 
ATOM     63  C   UNL     1       6.783  -1.459  12.640  1.00  0.00     0.198 A 
ATOM     64  C   UNL     1       7.604  -0.678  10.540  1.00  0.00     0.198 A 
ATOM     65  F   UNL     1       6.157  -0.126   8.831  1.00  0.00    -0.203 F 
ATOM     66  F   UNL     1       6.997  -1.751  13.930  1.00  0.00    -0.200 F 
ATOM     67  C   UNL     1       7.840  -1.045  11.847  1.00  0.00     0.200 A 
ATOM     68  F   UNL     1       8.608  -0.251   9.762  1.00  0.00    -0.200 F 
ATOM     69  F   UNL     1       9.075  -0.947  12.355  1.00  0.00    -0.200 F 
ENDBRANCH  45  59
BRANCH  46  70
ATOM     70  C   UNL     1       3.622   6.865   7.749  1.00  0.00     0.064 A 
ATOM     71  C   UNL     1       3.997   7.867   8.659  1.00  0.00     0.173 A 
ATOM     72  C   UNL     1       4.201   6.941   6.466  1.00  0.00     0.173 A 
ATOM     73  F   UNL     1       3.527   7.848   9.915  1.00  0.00    -0.203 F 
ATOM     74  C   UNL     1       4.914   8.866   8.316  1.00  0.00     0.198 A 
ATOM     75  C   UNL     1       5.104   7.947   6.120  1.00  0.00     0.198 A 
ATOM     76  F   UNL     1       3.981   5.988   5.550  1.00  0.00    -0.203 F 
ATOM     77  F   UNL     1       5.298   9.763   9.234  1.00  0.00    -0.200 F 
ATOM     78  C   UNL     1       5.473   8.900   7.050  1.00  0.00     0.200 A 
ATOM     79  F   UNL     1       5.663   7.947   4.901  1.00  0.00    -0.200 F 
ATOM     80  F   UNL     1       6.396   9.820   6.739  1.00  0.00    -0.200 F 
ENDBRANCH  46  70
BRANCH  58  81
ATOM     81  C   UNL     1       0.076   3.365  11.600  1.00  0.00     0.064 A 
ATOM     82  C   UNL     1      -0.681   3.704  10.464  1.00  0.00     0.173 A 
ATOM     83  C   UNL     1      -0.581   3.369  12.836  1.00  0.00     0.173 A 
ATOM     84  F   UNL     1      -0.155   3.621   9.237  1.00  0.00    -0.203 F 
ATOM     85  C   UNL     1      -2.021   4.071  10.570  1.00  0.00     0.198 A 
ATOM     86  C   UNL     1      -1.930   3.700  12.935  1.00  0.00     0.198 A 
ATOM     87  F   UNL     1       0.074   2.996  13.946  1.00  0.00    -0.203 F 
ATOM     88  F   UNL     1      -2.718   4.397   9.471  1.00  0.00    -0.200 F 
ATOM     89  C   UNL     1      -2.647   4.059  11.804  1.00  0.00     0.200 A 
ATOM     90  F   UNL     1      -2.546   3.636  14.124  1.00  0.00    -0.200 F 
ATOM     91  F   UNL     1      -3.949   4.364  11.902  1.00  0.00    -0.200 F 
ENDBRANCH  58  81
ENDBRANCH  32  33
ENDBRANCH  25  27
ENDBRANCH  24  25
ENDBRANCH  23  24
ENDBRANCH   1  23
TORSDOF 14
