REMARK SMILES O=C(OCCOC(=O)[C@@H]1CCCN1S(=O)(=O)c1ccc2c3c(cccc13)C(=O)N2)c1ccc(-c2c3nc(c(-c4c(F)c(F)c(F)c(F)c4F)c4ccc([nH]4)c(-c4c(F)c(F)c(F)c(F)c4F)c4nc(c(-c5c(F)c(F)c(F)c(F)c5F)c5ccc2[nH]5)C=C4)C=C3)cc1
REMARK SMILES IDX 4 1 3 2 2 3 1 4 30 5 31 6 92 7 32 8 91 9 33 10 34 11 35 12
REMARK SMILES IDX 85 13 36 14 90 15 84 16 86 17 37 18 89 19 83 20 82 21 38 23
REMARK SMILES IDX 70 24 50 25 69 26 51 27 54 28 68 29 87 30 52 31 53 32 67 34
REMARK SMILES IDX 88 35 55 36 39 37 40 38 48 39 41 40 42 41 46 42 49 43 43 44
REMARK SMILES IDX 44 45 47 46 45 47 71 48 72 49 80 50 73 51 74 52 78 53 81 54
REMARK SMILES IDX 75 55 76 56 79 57 77 58 56 59 57 60 65 61 58 62 59 63 63 64
REMARK SMILES IDX 66 65 60 66 61 67 64 68 62 69 5 70 6 71 7 72 8 73 9 74 10 75
REMARK SMILES IDX 13 76 11 77 12 78 14 79 15 80 16 81 17 82 18 83 26 84 19 85
REMARK SMILES IDX 21 86 25 87 20 88 22 89 24 90 29 91 23 92 27 93 28 95
REMARK H PARENT 86 22 54 33 29 94
REMARK Flexibility Score: inf
ROOT
ATOM      1  C   UNL     1       3.472   2.188  -1.876  1.00  0.00     0.275 C 
ENDROOT
BRANCH   1   2
ATOM      2  O   UNL     1       2.390   1.291  -1.522  1.00  0.00    -0.458 OA
BRANCH   2   3
ATOM      3  C   UNL     1       2.255   0.387  -0.526  1.00  0.00     0.338 C 
ATOM      4  O   UNL     1       1.352  -0.444  -0.572  1.00  0.00    -0.246 OA
BRANCH   3   5
ATOM      5  C   UNL     1       3.092   0.381   0.723  1.00  0.00     0.060 A 
ATOM      6  C   UNL     1       4.387   1.576   1.161  1.00  0.00     0.016 A 
ATOM      7  C   UNL     1       2.565  -0.810   1.970  1.00  0.00     0.016 A 
ATOM      8  C   UNL     1       5.065   1.629   2.837  1.00  0.00     0.010 A 
ATOM      9  C   UNL     1       3.295  -0.801   3.611  1.00  0.00     0.010 A 
ATOM     10  C   UNL     1       4.543   0.442   4.067  1.00  0.00    -0.014 A 
BRANCH  10  11
ATOM     11  C   UNL     1       5.147   0.546   5.449  1.00  0.00     0.031 A 
ATOM     12  C   UNL     1       5.845  -0.595   6.141  1.00  0.00     0.074 A 
ATOM     13  C   UNL     1       5.124   1.726   6.108  1.00  0.00     0.049 A 
ATOM     14  N   UNL     1       6.739  -0.519   7.102  1.00  0.00    -0.248 NA
ATOM     15  C   UNL     1       5.587  -1.966   5.701  1.00  0.00     0.031 C 
ATOM     16  C   UNL     1       4.533   2.957   5.609  1.00  0.00     0.029 A 
ATOM     17  N   UNL     1       5.579   2.089   7.356  1.00  0.00    -0.354 N 
ATOM     18  C   UNL     1       7.284  -1.789   7.210  1.00  0.00     0.074 A 
ATOM     19  C   UNL     1       6.540  -2.647   6.321  1.00  0.00     0.031 C 
ATOM     20  C   UNL     1       4.564   3.908   6.548  1.00  0.00     0.029 A 
ATOM     21  C   UNL     1       5.234   3.370   7.719  1.00  0.00     0.049 A 
ATOM     22  H   UNL     1       6.101   1.488   7.934  1.00  0.00     0.167 HD
ATOM     23  C   UNL     1       8.330  -2.196   7.965  1.00  0.00     0.037 A 
ATOM     24  C   UNL     1       5.438   4.061   8.856  1.00  0.00     0.037 A 
ATOM     25  C   UNL     1       8.877  -1.434   9.052  1.00  0.00     0.049 A 
ATOM     26  C   UNL     1       6.337   3.472   9.896  1.00  0.00     0.074 A 
ATOM     27  C   UNL     1       9.870  -1.787   9.947  1.00  0.00     0.029 A 
ATOM     28  N   UNL     1       8.391  -0.200   9.457  1.00  0.00    -0.354 N 
ATOM     29  N   UNL     1       7.009   2.350   9.846  1.00  0.00    -0.248 NA
ATOM     30  C   UNL     1       6.551   4.255  11.118  1.00  0.00     0.031 C 
ATOM     31  C   UNL     1       9.909  -0.814  10.954  1.00  0.00     0.029 A 
ATOM     32  C   UNL     1       8.986   0.175  10.649  1.00  0.00     0.049 A 
ATOM     33  H   UNL     1       7.721   0.332   8.968  1.00  0.00     0.167 HD
ATOM     34  C   UNL     1       7.765   2.308  11.005  1.00  0.00     0.074 A 
ATOM     35  C   UNL     1       7.455   3.514  11.748  1.00  0.00     0.031 C 
ATOM     36  C   UNL     1       8.655   1.363  11.395  1.00  0.00     0.037 A 
BRANCH  23  37
ATOM     37  C   UNL     1       8.907  -3.540   7.646  1.00  0.00     0.064 A 
ATOM     38  C   UNL     1       9.742  -3.706   6.528  1.00  0.00     0.173 A 
ATOM     39  C   UNL     1       8.646  -4.659   8.445  1.00  0.00     0.173 A 
ATOM     40  F   UNL     1      10.020  -2.664   5.730  1.00  0.00    -0.203 F 
ATOM     41  C   UNL     1      10.283  -4.951   6.216  1.00  0.00     0.198 A 
ATOM     42  C   UNL     1       9.197  -5.900   8.135  1.00  0.00     0.198 A 
ATOM     43  F   UNL     1       7.851  -4.551   9.519  1.00  0.00    -0.203 F 
ATOM     44  F   UNL     1      11.059  -5.093   5.132  1.00  0.00    -0.200 F 
ATOM     45  C   UNL     1      10.011  -6.047   7.020  1.00  0.00     0.200 A 
ATOM     46  F   UNL     1       8.933  -6.960   8.911  1.00  0.00    -0.200 F 
ATOM     47  F   UNL     1      10.525  -7.247   6.718  1.00  0.00    -0.200 F 
ENDBRANCH  23  37
BRANCH  24  48
ATOM     48  C   UNL     1       4.796   5.391   9.019  1.00  0.00     0.064 A 
ATOM     49  C   UNL     1       5.532   6.579   8.948  1.00  0.00     0.173 A 
ATOM     50  C   UNL     1       3.403   5.493   9.171  1.00  0.00     0.173 A 
ATOM     51  F   UNL     1       6.865   6.534   8.807  1.00  0.00    -0.203 F 
ATOM     52  C   UNL     1       4.900   7.821   9.022  1.00  0.00     0.198 A 
ATOM     53  C   UNL     1       2.771   6.733   9.226  1.00  0.00     0.198 A 
ATOM     54  F   UNL     1       2.651   4.384   9.231  1.00  0.00    -0.203 F 
ATOM     55  F   UNL     1       5.627   8.944   8.957  1.00  0.00    -0.200 F 
ATOM     56  C   UNL     1       3.521   7.897   9.152  1.00  0.00     0.200 A 
ATOM     57  F   UNL     1       1.437   6.800   9.334  1.00  0.00    -0.200 F 
ATOM     58  F   UNL     1       2.914   9.090   9.200  1.00  0.00    -0.200 F 
ENDBRANCH  24  48
BRANCH  36  59
ATOM     59  C   UNL     1       9.361   1.586  12.695  1.00  0.00     0.064 A 
ATOM     60  C   UNL     1       8.702   1.419  13.920  1.00  0.00     0.173 A 
ATOM     61  C   UNL     1      10.725   1.909  12.714  1.00  0.00     0.173 A 
ATOM     62  F   UNL     1       7.392   1.128  13.949  1.00  0.00    -0.203 F 
ATOM     63  C   UNL     1       9.384   1.576  15.122  1.00  0.00     0.198 A 
ATOM     64  C   UNL     1      11.410   2.040  13.918  1.00  0.00     0.198 A 
ATOM     65  F   UNL     1      11.397   2.079  11.565  1.00  0.00    -0.203 F 
ATOM     66  F   UNL     1       8.729   1.444  16.284  1.00  0.00    -0.200 F 
ATOM     67  C   UNL     1      10.739   1.877  15.120  1.00  0.00     0.200 A 
ATOM     68  F   UNL     1      12.720   2.320  13.914  1.00  0.00    -0.200 F 
ATOM     69  F   UNL     1      11.397   2.013  16.279  1.00  0.00    -0.200 F 
ENDBRANCH  36  59
ENDBRANCH  10  11
ENDBRANCH   3   5
ENDBRANCH   2   3
ENDBRANCH   1   2
BRANCH   1  70
ATOM     70  C   UNL     1       3.292   3.611  -1.335  1.00  0.00     0.274 C 
BRANCH  70  71
ATOM     71  O   UNL     1       3.263   3.595   0.100  1.00  0.00    -0.461 OA
BRANCH  71  72
ATOM     72  C   UNL     1       2.094   3.141   0.602  1.00  0.00     0.324 C 
ATOM     73  O   UNL     1       1.014   3.389   0.070  1.00  0.00    -0.250 OA
BRANCH  72  74
ATOM     74  C   UNL     1       2.183   2.314   1.864  1.00  0.00     0.183 C 
ATOM     75  C   UNL     1       2.005   3.318   2.997  1.00  0.00     0.034 C 
ATOM     76  N   UNL     1       3.138   1.024   2.642  1.00  0.00    -0.184 NA
ATOM     77  C   UNL     1       1.503   2.503   4.159  1.00  0.00     0.019 C 
ATOM     78  C   UNL     1       2.034   1.063   4.035  1.00  0.00     0.103 C 
BRANCH  76  79
ATOM     79  S   UNL     1       4.899  -0.537   1.923  1.00  0.00     0.244 S 
ATOM     80  O   UNL     1       6.103   0.117   1.365  1.00  0.00    -0.207 OA
ATOM     81  O   UNL     1       5.282  -1.546   2.916  1.00  0.00    -0.207 OA
BRANCH  79  82
ATOM     82  C   UNL     1       4.652  -1.747   0.357  1.00  0.00     0.090 A 
ATOM     83  C   UNL     1       4.707  -1.113  -0.918  1.00  0.00     0.024 A 
ATOM     84  C   UNL     1       5.031  -3.149   0.408  1.00  0.00     0.005 A 
ATOM     85  C   UNL     1       4.688  -1.792  -2.141  1.00  0.00     0.028 A 
ATOM     86  C   UNL     1       5.105  -3.760  -0.825  1.00  0.00     0.019 A 
ATOM     87  C   UNL     1       5.482  -4.013   1.454  1.00  0.00     0.010 A 
ATOM     88  C   UNL     1       4.888  -3.144  -2.040  1.00  0.00     0.050 A 
ATOM     89  C   UNL     1       5.579  -5.038  -1.111  1.00  0.00     0.050 A 
ATOM     90  C   UNL     1       6.011  -5.305   1.199  1.00  0.00     0.002 A 
ATOM     91  N   UNL     1       5.115  -4.060  -3.046  1.00  0.00    -0.321 N 
ATOM     92  C   UNL     1       6.070  -5.840  -0.091  1.00  0.00     0.014 A 
ATOM     93  C   UNL     1       5.571  -5.277  -2.542  1.00  0.00     0.256 C 
ATOM     94  H   UNL     1       4.971  -3.877  -4.002  1.00  0.00     0.170 HD
ATOM     95  O   UNL     1       5.898  -6.234  -3.230  1.00  0.00    -0.269 OA
ENDBRANCH  79  82
ENDBRANCH  76  79
ENDBRANCH  72  74
ENDBRANCH  71  72
ENDBRANCH  70  71
ENDBRANCH   1  70
TORSDOF 13
