REMARK SMILES Cc1c(CC(=O)OCCOC(=O)c2ccc(-c3c4nc(c(-c5c(F)c(F)c(F)c(F)c5F)c5ccc([nH]5)c(-c5c(F)c(F)c(F)c(F)c5F)c5nc(c(-c6c(F)c(F)c(F)c(F)c6F)c6ccc3[nH]6)C=C5)C=C4)cc2)cc(-c2ccc(S(C)(=O)=O)cc2)n1-c1ccccc1
REMARK SMILES IDX 8 1 7 2 5 3 6 4 4 5 3 6 1 7 2 8 88 9 76 10 77 11 89 12 90 13
REMARK SMILES IDX 94 14 91 15 93 16 92 17 78 18 79 19 87 20 80 21 86 22 81 23
REMARK SMILES IDX 82 24 83 25 84 26 85 27 9 28 10 29 11 30 12 31 13 32 14 33
REMARK SMILES IDX 75 34 15 35 74 36 16 37 17 38 18 39 68 40 19 41 73 42 67 43
REMARK SMILES IDX 69 44 20 45 72 46 66 47 65 48 21 50 53 51 33 52 52 53 34 54
REMARK SMILES IDX 37 55 51 56 70 57 35 58 36 59 50 61 71 62 38 63 22 64 23 65
REMARK SMILES IDX 31 66 24 67 25 68 29 69 32 70 26 71 27 72 30 73 28 74 54 75
REMARK SMILES IDX 55 76 63 77 56 78 57 79 61 80 64 81 58 82 59 83 62 84 60 85
REMARK SMILES IDX 39 86 40 87 48 88 41 89 42 90 46 91 49 92 43 93 44 94 47 95
REMARK SMILES IDX 45 96
REMARK H PARENT 69 49 37 60
REMARK Flexibility Score: inf
ROOT
ATOM      1  C   UNL     1      -0.635  -2.477   0.119  1.00  0.00     0.274 C 
ENDROOT
BRANCH   1   2
ATOM      2  O   UNL     1      -0.334  -1.225   0.747  1.00  0.00    -0.462 OA
BRANCH   2   3
ATOM      3  C   UNL     1      -1.201  -0.749   1.679  1.00  0.00     0.310 C 
ATOM      4  O   UNL     1      -2.282  -1.266   1.943  1.00  0.00    -0.252 OA
BRANCH   3   5
ATOM      5  C   UNL     1      -0.608   0.416   2.456  1.00  0.00     0.160 C 
BRANCH   5   6
ATOM      6  C   UNL     1       0.012   1.527   1.645  1.00  0.00    -0.015 A 
ATOM      7  C   UNL     1       1.889   0.300   0.297  1.00  0.00     0.065 C 
ATOM      8  C   UNL     1       1.033   1.452   0.707  1.00  0.00     0.024 A 
ATOM      9  N   UNL     1       1.245   2.715   0.181  1.00  0.00    -0.314 N 
ATOM     10  C   UNL     1      -0.232   2.924   1.828  1.00  0.00     0.033 A 
ATOM     11  C   UNL     1       0.598   3.644   0.981  1.00  0.00     0.053 A 
BRANCH   9  12
ATOM     12  C   UNL     1       2.074   2.972  -0.937  1.00  0.00     0.046 A 
ATOM     13  C   UNL     1       3.240   3.724  -0.788  1.00  0.00     0.026 A 
ATOM     14  C   UNL     1       1.734   2.400  -2.170  1.00  0.00     0.026 A 
ATOM     15  C   UNL     1       4.079   3.895  -1.888  1.00  0.00     0.002 A 
ATOM     16  C   UNL     1       2.566   2.599  -3.268  1.00  0.00     0.002 A 
ATOM     17  C   UNL     1       3.740   3.339  -3.125  1.00  0.00     0.000 A 
ENDBRANCH   9  12
BRANCH  11  18
ATOM     18  C   UNL     1       0.781   5.092   0.876  1.00  0.00    -0.001 A 
ATOM     19  C   UNL     1       0.464   5.782  -0.302  1.00  0.00     0.011 A 
ATOM     20  C   UNL     1       1.352   5.791   1.949  1.00  0.00     0.011 A 
ATOM     21  C   UNL     1       0.755   7.142  -0.426  1.00  0.00     0.021 A 
ATOM     22  C   UNL     1       1.650   7.150   1.832  1.00  0.00     0.021 A 
ATOM     23  C   UNL     1       1.368   7.812   0.635  1.00  0.00     0.067 A 
BRANCH  23  24
ATOM     24  S   UNL     1       1.786   9.529   0.450  1.00  0.00     0.175 S 
ATOM     25  C   UNL     1       3.062   9.522  -0.785  1.00  0.00     0.163 C 
ATOM     26  O   UNL     1       0.621  10.194  -0.100  1.00  0.00    -0.224 OA
ATOM     27  O   UNL     1       2.386   9.976   1.692  1.00  0.00    -0.224 OA
ENDBRANCH  23  24
ENDBRANCH  11  18
ENDBRANCH   5   6
ENDBRANCH   3   5
ENDBRANCH   2   3
ENDBRANCH   1   2
BRANCH   1  28
ATOM     28  C   UNL     1       0.457  -2.826  -0.914  1.00  0.00     0.275 C 
BRANCH  28  29
ATOM     29  O   UNL     1       1.813  -3.303  -0.551  1.00  0.00    -0.458 OA
BRANCH  29  30
ATOM     30  C   UNL     1       2.400  -3.408   0.671  1.00  0.00     0.338 C 
ATOM     31  O   UNL     1       1.867  -3.076   1.730  1.00  0.00    -0.246 OA
BRANCH  30  32
ATOM     32  C   UNL     1       3.800  -4.064   0.595  1.00  0.00     0.060 A 
ATOM     33  C   UNL     1       4.554  -4.494   1.710  1.00  0.00     0.016 A 
ATOM     34  C   UNL     1       4.389  -4.373  -0.613  1.00  0.00     0.016 A 
ATOM     35  C   UNL     1       5.716  -5.402   1.610  1.00  0.00     0.010 A 
ATOM     36  C   UNL     1       5.590  -5.170  -0.668  1.00  0.00     0.010 A 
ATOM     37  C   UNL     1       6.234  -5.872   0.386  1.00  0.00    -0.014 A 
BRANCH  37  38
ATOM     38  C   UNL     1       6.659  -7.472   0.098  1.00  0.00     0.031 A 
ATOM     39  C   UNL     1       5.341  -8.145  -0.199  1.00  0.00     0.074 A 
ATOM     40  C   UNL     1       7.714  -8.284  -0.404  1.00  0.00     0.049 A 
ATOM     41  N   UNL     1       4.553  -7.504  -1.016  1.00  0.00    -0.248 NA
ATOM     42  C   UNL     1       4.970  -9.546  -0.039  1.00  0.00     0.031 C 
ATOM     43  C   UNL     1       9.104  -7.951  -0.793  1.00  0.00     0.029 A 
ATOM     44  N   UNL     1       7.728  -9.669  -0.816  1.00  0.00    -0.354 N 
ATOM     45  C   UNL     1       4.205  -8.447  -1.910  1.00  0.00     0.074 A 
ATOM     46  C   UNL     1       4.261  -9.706  -1.171  1.00  0.00     0.031 C 
ATOM     47  C   UNL     1       9.789  -9.043  -1.283  1.00  0.00     0.029 A 
ATOM     48  C   UNL     1       8.934 -10.232  -1.346  1.00  0.00     0.049 A 
ATOM     49  H   UNL     1       6.916 -10.220  -0.734  1.00  0.00     0.167 HD
ATOM     50  C   UNL     1       4.268  -8.166  -3.237  1.00  0.00     0.037 A 
ATOM     51  C   UNL     1       9.105 -11.540  -1.817  1.00  0.00     0.037 A 
ATOM     52  C   UNL     1       4.062  -9.231  -4.146  1.00  0.00     0.049 A 
ATOM     53  C   UNL     1       8.063 -11.550  -2.896  1.00  0.00     0.074 A 
ATOM     54  C   UNL     1       3.350 -10.409  -4.192  1.00  0.00     0.029 A 
ATOM     55  N   UNL     1       4.790  -9.209  -5.312  1.00  0.00    -0.354 N 
ATOM     56  N   UNL     1       8.330 -11.320  -4.158  1.00  0.00    -0.248 NA
ATOM     57  C   UNL     1       6.774 -12.177  -2.607  1.00  0.00     0.031 C 
ATOM     58  C   UNL     1       4.034 -11.234  -5.144  1.00  0.00     0.029 A 
ATOM     59  C   UNL     1       5.162 -10.512  -5.529  1.00  0.00     0.049 A 
ATOM     60  H   UNL     1       5.000  -8.427  -5.871  1.00  0.00     0.167 HD
ATOM     61  C   UNL     1       7.127 -11.573  -4.776  1.00  0.00     0.074 A 
ATOM     62  C   UNL     1       6.396 -12.415  -3.861  1.00  0.00     0.031 C 
ATOM     63  C   UNL     1       6.581 -10.734  -5.695  1.00  0.00     0.037 A 
BRANCH  50  64
ATOM     64  C   UNL     1       4.836  -6.831  -3.742  1.00  0.00     0.064 A 
ATOM     65  C   UNL     1       6.165  -6.388  -3.537  1.00  0.00     0.173 A 
ATOM     66  C   UNL     1       4.087  -6.040  -4.613  1.00  0.00     0.173 A 
ATOM     67  F   UNL     1       6.988  -7.061  -2.729  1.00  0.00    -0.203 F 
ATOM     68  C   UNL     1       6.652  -5.162  -4.021  1.00  0.00     0.198 A 
ATOM     69  C   UNL     1       4.591  -4.850  -5.158  1.00  0.00     0.198 A 
ATOM     70  F   UNL     1       2.870  -6.451  -4.993  1.00  0.00    -0.203 F 
ATOM     71  F   UNL     1       7.860  -4.716  -3.641  1.00  0.00    -0.200 F 
ATOM     72  C   UNL     1       5.856  -4.388  -4.830  1.00  0.00     0.200 A 
ATOM     73  F   UNL     1       3.848  -4.158  -6.031  1.00  0.00    -0.200 F 
ATOM     74  F   UNL     1       6.302  -3.215  -5.299  1.00  0.00    -0.200 F 
ENDBRANCH  50  64
BRANCH  51  75
ATOM     75  C   UNL     1      10.008 -12.798  -2.232  1.00  0.00     0.064 A 
ATOM     76  C   UNL     1      11.397 -12.940  -2.232  1.00  0.00     0.173 A 
ATOM     77  C   UNL     1       9.355 -14.019  -2.684  1.00  0.00     0.173 A 
ATOM     78  F   UNL     1      12.168 -11.963  -1.744  1.00  0.00    -0.203 F 
ATOM     79  C   UNL     1      12.048 -14.130  -2.703  1.00  0.00     0.198 A 
ATOM     80  C   UNL     1       9.988 -15.138  -3.252  1.00  0.00     0.198 A 
ATOM     81  F   UNL     1       8.046 -14.221  -2.488  1.00  0.00    -0.203 F 
ATOM     82  F   UNL     1      13.380 -14.251  -2.595  1.00  0.00    -0.200 F 
ATOM     83  C   UNL     1      11.350 -15.201  -3.253  1.00  0.00     0.200 A 
ATOM     84  F   UNL     1       9.258 -16.160  -3.732  1.00  0.00    -0.200 F 
ATOM     85  F   UNL     1      11.974 -16.300  -3.705  1.00  0.00    -0.200 F 
ENDBRANCH  51  75
BRANCH  63  86
ATOM     86  C   UNL     1       7.539  -9.700  -6.220  1.00  0.00     0.064 A 
ATOM     87  C   UNL     1       8.040  -9.734  -7.516  1.00  0.00     0.173 A 
ATOM     88  C   UNL     1       8.032  -8.694  -5.369  1.00  0.00     0.173 A 
ATOM     89  F   UNL     1       7.606 -10.664  -8.377  1.00  0.00    -0.203 F 
ATOM     90  C   UNL     1       9.005  -8.810  -7.931  1.00  0.00     0.198 A 
ATOM     91  C   UNL     1       8.975  -7.760  -5.780  1.00  0.00     0.198 A 
ATOM     92  F   UNL     1       7.596  -8.652  -4.109  1.00  0.00    -0.203 F 
ATOM     93  F   UNL     1       9.495  -8.877  -9.176  1.00  0.00    -0.200 F 
ATOM     94  C   UNL     1       9.471  -7.827  -7.065  1.00  0.00     0.200 A 
ATOM     95  F   UNL     1       9.397  -6.809  -4.935  1.00  0.00    -0.200 F 
ATOM     96  F   UNL     1      10.400  -6.950  -7.470  1.00  0.00    -0.200 F 
ENDBRANCH  63  86
ENDBRANCH  37  38
ENDBRANCH  30  32
ENDBRANCH  29  30
ENDBRANCH  28  29
ENDBRANCH   1  28
TORSDOF 15
