REMARK SMILES CCc1ccnc(C(=O)c2[nH]c3ccc(OC(F)(F)F)cc3c2CC(=O)OCCOC(=O)c2ccc(-c3c4nc(c(-c5c(F)c(F)c(F)c(F)c5F)c5ccc([nH]5)c(-c5c(F)c(F)c(F)c(F)c5F)c5nc(c(-c6c(F)c(F)c(F)c(F)c6F)c6ccc3[nH]6)C=C5)C=C4)cc2)c1
REMARK SMILES IDX 28 1 27 2 25 3 26 4 24 5 23 6 10 7 11 8 12 9 22 11 13 12
REMARK SMILES IDX 21 13 14 14 15 15 8 16 9 17 7 18 3 19 4 20 96 21 5 22 6 23
REMARK SMILES IDX 2 24 1 25 16 26 17 27 18 28 19 29 20 30 29 31 30 32 31 33
REMARK SMILES IDX 32 34 33 35 34 36 95 37 35 38 94 39 36 40 37 41 38 42 88 43
REMARK SMILES IDX 39 44 93 45 87 46 89 47 40 48 92 49 86 50 85 51 41 53 73 54
REMARK SMILES IDX 53 55 72 56 54 57 57 58 71 59 90 60 55 61 56 62 70 64 91 65
REMARK SMILES IDX 58 66 42 67 43 68 51 69 44 70 45 71 49 72 52 73 46 74 47 75
REMARK SMILES IDX 50 76 48 77 74 78 75 79 83 80 76 81 77 82 81 83 84 84 78 85
REMARK SMILES IDX 79 86 82 87 80 88 59 89 60 90 68 91 61 92 62 93 66 94 69 95
REMARK SMILES IDX 63 96 64 97 67 98 65 99
REMARK H PARENT 11 10 89 52 57 63
REMARK Flexibility Score: inf
ROOT
ATOM      1  C   UNL     1       2.128   6.734   6.181  1.00  0.00     0.274 C 
ENDROOT
BRANCH   1   2
ATOM      2  O   UNL     1       1.680   6.007   5.014  1.00  0.00    -0.462 OA
BRANCH   2   3
ATOM      3  C   UNL     1       2.647   5.570   4.171  1.00  0.00     0.310 C 
ATOM      4  O   UNL     1       3.839   5.850   4.291  1.00  0.00    -0.252 OA
BRANCH   3   5
ATOM      5  C   UNL     1       2.191   4.581   3.118  1.00  0.00     0.161 C 
BRANCH   5   6
ATOM      6  C   UNL     1       0.741   4.528   2.753  1.00  0.00     0.000 A 
ATOM      7  C   UNL     1      -0.243   3.669   3.241  1.00  0.00     0.093 A 
ATOM      8  N   UNL     1      -1.424   4.026   2.635  1.00  0.00    -0.352 N 
ATOM      9  C   UNL     1      -1.191   4.875   1.590  1.00  0.00     0.046 A 
ATOM     10  H   UNL     1      -2.315   3.713   2.916  1.00  0.00     0.167 HD
ATOM     11  C   UNL     1       0.138   5.275   1.681  1.00  0.00     0.008 A 
ATOM     12  C   UNL     1      -2.055   5.315   0.588  1.00  0.00     0.030 A 
ATOM     13  C   UNL     1       0.611   6.214   0.739  1.00  0.00     0.057 A 
ATOM     14  C   UNL     1      -1.548   6.208  -0.360  1.00  0.00     0.049 A 
ATOM     15  C   UNL     1      -0.234   6.671  -0.286  1.00  0.00     0.130 A 
BRANCH   7  16
ATOM     16  C   UNL     1      -0.253   2.570   4.195  1.00  0.00     0.227 C 
ATOM     17  O   UNL     1      -0.988   2.605   5.180  1.00  0.00    -0.285 OA
BRANCH  16  18
ATOM     18  C   UNL     1       0.375   1.252   3.802  1.00  0.00     0.113 A 
ATOM     19  C   UNL     1       0.767  -0.444   2.123  1.00  0.00    -0.044 A 
ATOM     20  C   UNL     1       0.939  -1.357   3.167  1.00  0.00     0.024 A 
ATOM     21  C   UNL     1       0.489   0.890   2.455  1.00  0.00     0.036 A 
ATOM     22  C   UNL     1       0.835  -0.911   4.472  1.00  0.00     0.112 A 
ATOM     23  N   UNL     1       0.566   0.364   4.813  1.00  0.00    -0.253 NA
BRANCH  19  24
ATOM     24  C   UNL     1       0.718  -0.962   0.704  1.00  0.00     0.032 C 
ATOM     25  C   UNL     1       1.263  -0.027  -0.366  1.00  0.00     0.009 C 
ENDBRANCH  19  24
ENDBRANCH  16  18
ENDBRANCH   7  16
BRANCH  15  26
ATOM     26  O   UNL     1       0.354   7.556  -1.147  1.00  0.00    -0.406 OA
BRANCH  26  27
ATOM     27  C   UNL     1      -0.402   7.984  -2.268  1.00  0.00     0.573 C 
ATOM     28  F   UNL     1      -0.740   6.939  -3.054  1.00  0.00    -0.132 F 
ATOM     29  F   UNL     1      -1.519   8.639  -1.885  1.00  0.00    -0.132 F 
ATOM     30  F   UNL     1       0.350   8.834  -3.001  1.00  0.00    -0.132 F 
ENDBRANCH  26  27
ENDBRANCH  15  26
ENDBRANCH   5   6
ENDBRANCH   3   5
ENDBRANCH   2   3
ENDBRANCH   1   2
BRANCH   1  31
ATOM     31  C   UNL     1       2.111   5.859   7.442  1.00  0.00     0.275 C 
BRANCH  31  32
ATOM     32  O   UNL     1       3.085   4.795   7.389  1.00  0.00    -0.458 OA
BRANCH  32  33
ATOM     33  C   UNL     1       2.624   3.674   6.800  1.00  0.00     0.338 C 
ATOM     34  O   UNL     1       1.518   3.508   6.303  1.00  0.00    -0.246 OA
BRANCH  33  35
ATOM     35  C   UNL     1       3.645   2.637   6.684  1.00  0.00     0.060 A 
ATOM     36  C   UNL     1       4.287   2.491   5.454  1.00  0.00     0.016 A 
ATOM     37  C   UNL     1       3.785   1.675   7.684  1.00  0.00     0.016 A 
ATOM     38  C   UNL     1       5.017   1.342   5.189  1.00  0.00     0.010 A 
ATOM     39  C   UNL     1       4.580   0.552   7.441  1.00  0.00     0.010 A 
ATOM     40  C   UNL     1       5.177   0.366   6.182  1.00  0.00    -0.014 A 
BRANCH  40  41
ATOM     41  C   UNL     1       6.010  -0.824   5.893  1.00  0.00     0.031 A 
ATOM     42  C   UNL     1       5.397  -2.183   5.737  1.00  0.00     0.074 A 
ATOM     43  C   UNL     1       7.334  -0.653   5.730  1.00  0.00     0.049 A 
ATOM     44  N   UNL     1       5.976  -3.325   5.467  1.00  0.00    -0.248 NA
ATOM     45  C   UNL     1       3.938  -2.272   5.890  1.00  0.00     0.031 C 
ATOM     46  C   UNL     1       8.033   0.630   5.824  1.00  0.00     0.029 A 
ATOM     47  N   UNL     1       8.325  -1.556   5.452  1.00  0.00    -0.354 N 
ATOM     48  C   UNL     1       4.955  -4.263   5.400  1.00  0.00     0.074 A 
ATOM     49  C   UNL     1       3.720  -3.565   5.687  1.00  0.00     0.031 C 
ATOM     50  C   UNL     1       9.340   0.433   5.602  1.00  0.00     0.029 A 
ATOM     51  C   UNL     1       9.575  -0.993   5.410  1.00  0.00     0.049 A 
ATOM     52  H   UNL     1       8.157  -2.514   5.298  1.00  0.00     0.167 HD
ATOM     53  C   UNL     1       5.047  -5.584   5.118  1.00  0.00     0.037 A 
ATOM     54  C   UNL     1      10.782  -1.569   5.271  1.00  0.00     0.037 A 
ATOM     55  C   UNL     1       6.284  -6.279   4.873  1.00  0.00     0.049 A 
ATOM     56  C   UNL     1      10.866  -3.056   5.103  1.00  0.00     0.074 A 
ATOM     57  C   UNL     1       6.483  -7.614   4.566  1.00  0.00     0.029 A 
ATOM     58  N   UNL     1       7.540  -5.691   4.933  1.00  0.00    -0.354 N 
ATOM     59  N   UNL     1       9.894  -3.931   5.010  1.00  0.00    -0.248 NA
ATOM     60  C   UNL     1      12.212  -3.638   5.035  1.00  0.00     0.031 C 
ATOM     61  C   UNL     1       7.862  -7.844   4.490  1.00  0.00     0.029 A 
ATOM     62  C   UNL     1       8.520  -6.645   4.712  1.00  0.00     0.049 A 
ATOM     63  H   UNL     1       7.709  -4.737   5.108  1.00  0.00     0.167 HD
ATOM     64  C   UNL     1      10.508  -5.165   4.864  1.00  0.00     0.074 A 
ATOM     65  C   UNL     1      11.937  -4.924   4.868  1.00  0.00     0.031 C 
ATOM     66  C   UNL     1       9.937  -6.388   4.737  1.00  0.00     0.037 A 
BRANCH  53  67
ATOM     67  C   UNL     1       3.773  -6.374   5.077  1.00  0.00     0.064 A 
ATOM     68  C   UNL     1       2.896  -6.287   3.986  1.00  0.00     0.173 A 
ATOM     69  C   UNL     1       3.450  -7.261   6.113  1.00  0.00     0.173 A 
ATOM     70  F   UNL     1       3.152  -5.438   2.979  1.00  0.00    -0.203 F 
ATOM     71  C   UNL     1       1.736  -7.056   3.938  1.00  0.00     0.198 A 
ATOM     72  C   UNL     1       2.297  -8.040   6.055  1.00  0.00     0.198 A 
ATOM     73  F   UNL     1       4.256  -7.378   7.179  1.00  0.00    -0.203 F 
ATOM     74  F   UNL     1       0.899  -6.939   2.898  1.00  0.00    -0.200 F 
ATOM     75  C   UNL     1       1.440  -7.936   4.969  1.00  0.00     0.200 A 
ATOM     76  F   UNL     1       2.013  -8.891   7.051  1.00  0.00    -0.200 F 
ATOM     77  F   UNL     1       0.326  -8.678   4.919  1.00  0.00    -0.200 F 
ENDBRANCH  53  67
BRANCH  54  78
ATOM     78  C   UNL     1      11.998  -0.723   5.335  1.00  0.00     0.064 A 
ATOM     79  C   UNL     1      12.761  -0.467   4.191  1.00  0.00     0.173 A 
ATOM     80  C   UNL     1      12.392  -0.120   6.539  1.00  0.00     0.173 A 
ATOM     81  F   UNL     1      12.431  -1.039   3.023  1.00  0.00    -0.203 F 
ATOM     82  C   UNL     1      13.876   0.366   4.247  1.00  0.00     0.198 A 
ATOM     83  C   UNL     1      13.492   0.731   6.589  1.00  0.00     0.198 A 
ATOM     84  F   UNL     1      11.689  -0.336   7.660  1.00  0.00    -0.203 F 
ATOM     85  F   UNL     1      14.605   0.581   3.144  1.00  0.00    -0.200 F 
ATOM     86  C   UNL     1      14.235   0.971   5.444  1.00  0.00     0.200 A 
ATOM     87  F   UNL     1      13.826   1.324   7.743  1.00  0.00    -0.200 F 
ATOM     88  F   UNL     1      15.299   1.784   5.493  1.00  0.00    -0.200 F 
ENDBRANCH  54  78
BRANCH  66  89
ATOM     89  C   UNL     1      10.866  -7.553   4.590  1.00  0.00     0.064 A 
ATOM     90  C   UNL     1      11.568  -8.067   5.689  1.00  0.00     0.173 A 
ATOM     91  C   UNL     1      11.042  -8.172   3.344  1.00  0.00     0.173 A 
ATOM     92  F   UNL     1      11.445  -7.494   6.896  1.00  0.00    -0.203 F 
ATOM     93  C   UNL     1      12.429  -9.150   5.542  1.00  0.00     0.198 A 
ATOM     94  C   UNL     1      11.887  -9.268   3.205  1.00  0.00     0.198 A 
ATOM     95  F   UNL     1      10.390  -7.715   2.264  1.00  0.00    -0.203 F 
ATOM     96  F   UNL     1      13.122  -9.601   6.597  1.00  0.00    -0.200 F 
ATOM     97  C   UNL     1      12.584  -9.753   4.302  1.00  0.00     0.200 A 
ATOM     98  F   UNL     1      12.033  -9.853   2.008  1.00  0.00    -0.200 F 
ATOM     99  F   UNL     1      13.414 -10.796   4.162  1.00  0.00    -0.200 F 
ENDBRANCH  66  89
ENDBRANCH  40  41
ENDBRANCH  33  35
ENDBRANCH  32  33
ENDBRANCH  31  32
ENDBRANCH   1  31
TORSDOF 17
