REMARK SMILES O=C(OCCOC(=O)[C@H]1CS[C@H](c2cc(F)ccc2F)[NH2+]1)c1ccc(-c2c3nc(c(-c4c(F)c(F)c(F)c(F)c4F)c4ccc([nH]4)c(-c4c(F)c(F)c(F)c(F)c4F)c4nc(c(-c5c(F)c(F)c(F)c(F)c5F)c5ccc2[nH]5)C=C4)C=C3)cc1
REMARK SMILES IDX 4 1 3 2 2 3 1 4 22 5 23 6 84 7 24 8 83 9 25 10 26 11 27 12
REMARK SMILES IDX 77 13 28 14 82 15 76 16 78 17 29 18 81 19 75 20 74 21 30 23
REMARK SMILES IDX 62 24 42 25 61 26 43 27 46 28 60 29 79 30 44 31 45 32 59 34
REMARK SMILES IDX 80 35 47 36 31 37 32 38 40 39 33 40 34 41 38 42 41 43 35 44
REMARK SMILES IDX 36 45 39 46 37 47 63 48 64 49 72 50 65 51 66 52 70 53 73 54
REMARK SMILES IDX 67 55 68 56 71 57 69 58 48 59 49 60 57 61 50 62 51 63 55 64
REMARK SMILES IDX 58 65 52 66 53 67 56 68 54 69 5 70 6 71 7 72 8 73 9 74 10 75
REMARK SMILES IDX 21 76 11 77 12 78 13 81 14 82 19 83 15 84 18 85 20 86 16 87
REMARK SMILES IDX 17 88
REMARK H PARENT 78 22 46 33 21 79 21 80
REMARK Flexibility Score: inf
ROOT
ATOM      1  C   UNL     1       4.368  -1.518  -0.052  1.00  0.00     0.275 C 
ENDROOT
BRANCH   1   2
ATOM      2  O   UNL     1       3.358  -0.942   0.785  1.00  0.00    -0.458 OA
BRANCH   2   3
ATOM      3  C   UNL     1       3.304   0.310   1.302  1.00  0.00     0.338 C 
ATOM      4  O   UNL     1       2.550   0.528   2.239  1.00  0.00    -0.246 OA
BRANCH   3   5
ATOM      5  C   UNL     1       3.993   1.487   0.674  1.00  0.00     0.060 A 
ATOM      6  C   UNL     1       5.165   1.473  -0.090  1.00  0.00     0.016 A 
ATOM      7  C   UNL     1       3.360   2.727   0.865  1.00  0.00     0.016 A 
ATOM      8  C   UNL     1       5.631   2.625  -0.737  1.00  0.00     0.010 A 
ATOM      9  C   UNL     1       3.831   3.884   0.235  1.00  0.00     0.010 A 
ATOM     10  C   UNL     1       4.955   3.834  -0.597  1.00  0.00    -0.014 A 
BRANCH  10  11
ATOM     11  C   UNL     1       5.506   5.082  -1.174  1.00  0.00     0.031 A 
ATOM     12  C   UNL     1       6.082   6.088  -0.222  1.00  0.00     0.074 A 
ATOM     13  C   UNL     1       5.490   5.319  -2.500  1.00  0.00     0.049 A 
ATOM     14  N   UNL     1       6.534   7.292  -0.453  1.00  0.00    -0.248 NA
ATOM     15  C   UNL     1       6.127   5.687   1.195  1.00  0.00     0.031 C 
ATOM     16  C   UNL     1       4.963   4.416  -3.522  1.00  0.00     0.029 A 
ATOM     17  N   UNL     1       5.925   6.408  -3.217  1.00  0.00    -0.354 N 
ATOM     18  C   UNL     1       6.902   7.789   0.789  1.00  0.00     0.074 A 
ATOM     19  C   UNL     1       6.545   6.798   1.777  1.00  0.00     0.031 C 
ATOM     20  C   UNL     1       5.103   4.986  -4.732  1.00  0.00     0.029 A 
ATOM     21  C   UNL     1       5.713   6.303  -4.572  1.00  0.00     0.049 A 
ATOM     22  H   UNL     1       6.351   7.191  -2.799  1.00  0.00     0.167 HD
ATOM     23  C   UNL     1       7.534   8.948   1.078  1.00  0.00     0.037 A 
ATOM     24  C   UNL     1       5.980   7.179  -5.561  1.00  0.00     0.037 A 
ATOM     25  C   UNL     1       7.926   9.909   0.089  1.00  0.00     0.049 A 
ATOM     26  C   UNL     1       6.640   8.491  -5.208  1.00  0.00     0.074 A 
ATOM     27  C   UNL     1       8.588  11.108   0.266  1.00  0.00     0.029 A 
ATOM     28  N   UNL     1       7.699   9.764  -1.272  1.00  0.00    -0.354 N 
ATOM     29  N   UNL     1       7.021   8.937  -4.034  1.00  0.00    -0.248 NA
ATOM     30  C   UNL     1       6.918   9.417  -6.316  1.00  0.00     0.031 C 
ATOM     31  C   UNL     1       8.745  11.701  -0.991  1.00  0.00     0.029 A 
ATOM     32  C   UNL     1       8.211  10.855  -1.951  1.00  0.00     0.049 A 
ATOM     33  H   UNL     1       7.242   9.000  -1.692  1.00  0.00     0.167 HD
ATOM     34  C   UNL     1       7.615  10.170  -4.266  1.00  0.00     0.074 A 
ATOM     35  C   UNL     1       7.553  10.401  -5.694  1.00  0.00     0.031 C 
ATOM     36  C   UNL     1       8.164  11.036  -3.379  1.00  0.00     0.037 A 
BRANCH  23  37
ATOM     37  C   UNL     1       7.855   9.201   2.519  1.00  0.00     0.064 A 
ATOM     38  C   UNL     1       7.165  10.177   3.249  1.00  0.00     0.173 A 
ATOM     39  C   UNL     1       8.831   8.444   3.187  1.00  0.00     0.173 A 
ATOM     40  F   UNL     1       6.221  10.924   2.657  1.00  0.00    -0.203 F 
ATOM     41  C   UNL     1       7.433  10.380   4.600  1.00  0.00     0.198 A 
ATOM     42  C   UNL     1       9.074   8.628   4.544  1.00  0.00     0.198 A 
ATOM     43  F   UNL     1       9.499   7.479   2.536  1.00  0.00    -0.203 F 
ATOM     44  F   UNL     1       6.764  11.320   5.281  1.00  0.00    -0.200 F 
ATOM     45  C   UNL     1       8.378   9.598   5.249  1.00  0.00     0.200 A 
ATOM     46  F   UNL     1       9.959   7.844   5.176  1.00  0.00    -0.200 F 
ATOM     47  F   UNL     1       8.608   9.769   6.558  1.00  0.00    -0.200 F 
ENDBRANCH  23  37
BRANCH  24  48
ATOM     48  C   UNL     1       5.656   6.856  -6.978  1.00  0.00     0.064 A 
ATOM     49  C   UNL     1       4.331   6.799  -7.434  1.00  0.00     0.173 A 
ATOM     50  C   UNL     1       6.675   6.646  -7.921  1.00  0.00     0.173 A 
ATOM     51  F   UNL     1       3.317   6.999  -6.581  1.00  0.00    -0.203 F 
ATOM     52  C   UNL     1       4.038   6.551  -8.775  1.00  0.00     0.198 A 
ATOM     53  C   UNL     1       6.382   6.424  -9.266  1.00  0.00     0.198 A 
ATOM     54  F   UNL     1       7.960   6.715  -7.543  1.00  0.00    -0.203 F 
ATOM     55  F   UNL     1       2.762   6.498  -9.181  1.00  0.00    -0.200 F 
ATOM     56  C   UNL     1       5.064   6.374  -9.692  1.00  0.00     0.200 A 
ATOM     57  F   UNL     1       7.377   6.287 -10.153  1.00  0.00    -0.200 F 
ATOM     58  F   UNL     1       4.782   6.172 -10.987  1.00  0.00    -0.200 F 
ENDBRANCH  24  48
BRANCH  36  59
ATOM     59  C   UNL     1       8.784  12.289  -3.920  1.00  0.00     0.064 A 
ATOM     60  C   UNL     1      10.176  12.464  -3.873  1.00  0.00     0.173 A 
ATOM     61  C   UNL     1       7.999  13.355  -4.379  1.00  0.00     0.173 A 
ATOM     62  F   UNL     1      10.967  11.474  -3.433  1.00  0.00    -0.203 F 
ATOM     63  C   UNL     1      10.757  13.672  -4.242  1.00  0.00     0.198 A 
ATOM     64  C   UNL     1       8.587  14.553  -4.775  1.00  0.00     0.198 A 
ATOM     65  F   UNL     1       6.666  13.229  -4.454  1.00  0.00    -0.203 F 
ATOM     66  F   UNL     1      12.084  13.834  -4.145  1.00  0.00    -0.200 F 
ATOM     67  C   UNL     1       9.963  14.715  -4.694  1.00  0.00     0.200 A 
ATOM     68  F   UNL     1       7.821  15.553  -5.233  1.00  0.00    -0.200 F 
ATOM     69  F   UNL     1      10.523  15.880  -5.049  1.00  0.00    -0.200 F 
ENDBRANCH  36  59
ENDBRANCH  10  11
ENDBRANCH   3   5
ENDBRANCH   2   3
ENDBRANCH   1   2
BRANCH   1  70
ATOM     70  C   UNL     1       4.106  -1.351  -1.551  1.00  0.00     0.274 C 
BRANCH  70  71
ATOM     71  O   UNL     1       3.388  -0.146  -1.888  1.00  0.00    -0.458 OA
BRANCH  71  72
ATOM     72  C   UNL     1       2.087  -0.327  -2.269  1.00  0.00     0.365 C 
ATOM     73  O   UNL     1       1.530  -1.417  -2.287  1.00  0.00    -0.245 OA
BRANCH  72  74
ATOM     74  C   UNL     1       1.400   0.966  -2.755  1.00  0.00     0.304 C 
ATOM     75  C   UNL     1      -0.038   0.997  -2.232  1.00  0.00     0.153 C 
ATOM     76  N   UNL     1       2.148   2.214  -2.423  1.00  0.00    -0.319 N 
ATOM     77  S   UNL     1      -0.077   2.341  -1.045  1.00  0.00    -0.087 SA
ATOM     78  C   UNL     1       1.232   3.232  -1.904  1.00  0.00     0.277 C 
ATOM     79  H   UNL     1       2.603   2.567  -3.264  1.00  0.00     0.348 HD
ATOM     80  H   UNL     1       2.846   2.002  -1.710  1.00  0.00     0.348 HD
BRANCH  78  81
ATOM     81  C   UNL     1       0.727   4.282  -2.874  1.00  0.00     0.059 A 
ATOM     82  C   UNL     1      -0.150   5.280  -2.391  1.00  0.00     0.053 A 
ATOM     83  C   UNL     1       1.164   4.407  -4.199  1.00  0.00     0.133 A 
ATOM     84  C   UNL     1      -0.582   6.320  -3.210  1.00  0.00     0.123 A 
ATOM     85  C   UNL     1       0.736   5.460  -5.015  1.00  0.00     0.043 A 
ATOM     86  F   UNL     1       2.022   3.529  -4.736  1.00  0.00    -0.206 F 
ATOM     87  F   UNL     1      -1.418   7.242  -2.718  1.00  0.00    -0.207 F 
ATOM     88  C   UNL     1      -0.145   6.419  -4.521  1.00  0.00     0.042 A 
ENDBRANCH  78  81
ENDBRANCH  72  74
ENDBRANCH  71  72
ENDBRANCH  70  71
ENDBRANCH   1  70
TORSDOF 12
