REMARK SMILES O=C(OCCOC(=O)c1ccc(CN2CC(=O)N3CCCC[C@@H]3C2=O)o1)c1ccc(-c2c3nc(c(-c4c(F)c(F)c(F)c(F)c4F)c4ccc([nH]4)c(-c4c(F)c(F)c(F)c(F)c4F)c4nc(c(-c5c(F)c(F)c(F)c(F)c5F)c5ccc2[nH]5)C=C4)C=C3)cc1
REMARK SMILES IDX 4 1 3 2 2 3 1 4 27 5 28 6 89 7 29 8 88 9 30 10 31 11 32 12
REMARK SMILES IDX 82 13 33 14 87 15 81 16 83 17 34 18 86 19 80 20 79 21 35 23
REMARK SMILES IDX 67 24 47 25 66 26 48 27 51 28 65 29 84 30 49 31 50 32 64 34
REMARK SMILES IDX 85 35 52 36 36 37 37 38 45 39 38 40 39 41 43 42 46 43 40 44
REMARK SMILES IDX 41 45 44 46 42 47 68 48 69 49 77 50 70 51 71 52 75 53 78 54
REMARK SMILES IDX 72 55 73 56 76 57 74 58 53 59 54 60 62 61 55 62 56 63 60 64
REMARK SMILES IDX 63 65 57 66 58 67 61 68 59 69 5 70 6 71 7 72 8 73 9 74 10 75
REMARK SMILES IDX 26 76 11 77 12 78 13 79 14 80 15 81 24 82 16 83 23 84 25 85
REMARK SMILES IDX 17 86 18 87 22 88 19 89 21 90 20 91
REMARK H PARENT 83 22 51 33
REMARK Flexibility Score: inf
ROOT
ATOM      1  C   UNL     1       3.811   1.127  -1.055  1.00  0.00     0.275 C 
ENDROOT
BRANCH   1   2
ATOM      2  O   UNL     1       2.735   0.181  -0.927  1.00  0.00    -0.458 OA
BRANCH   2   3
ATOM      3  C   UNL     1       2.817  -1.062  -0.391  1.00  0.00     0.338 C 
ATOM      4  O   UNL     1       2.144  -1.983  -0.843  1.00  0.00    -0.246 OA
BRANCH   3   5
ATOM      5  C   UNL     1       3.544  -1.285   0.889  1.00  0.00     0.060 A 
ATOM      6  C   UNL     1       4.889  -0.972   1.096  1.00  0.00     0.016 A 
ATOM      7  C   UNL     1       2.848  -1.959   1.906  1.00  0.00     0.016 A 
ATOM      8  C   UNL     1       5.509  -1.261   2.315  1.00  0.00     0.010 A 
ATOM      9  C   UNL     1       3.471  -2.265   3.123  1.00  0.00     0.010 A 
ATOM     10  C   UNL     1       4.808  -1.913   3.334  1.00  0.00    -0.014 A 
BRANCH  10  11
ATOM     11  C   UNL     1       5.530  -2.308   4.566  1.00  0.00     0.031 A 
ATOM     12  C   UNL     1       6.066  -3.701   4.684  1.00  0.00     0.074 A 
ATOM     13  C   UNL     1       5.769  -1.406   5.535  1.00  0.00     0.049 A 
ATOM     14  N   UNL     1       6.847  -4.208   5.603  1.00  0.00    -0.248 NA
ATOM     15  C   UNL     1       5.703  -4.640   3.611  1.00  0.00     0.031 C 
ATOM     16  C   UNL     1       5.339  -0.013   5.504  1.00  0.00     0.029 A 
ATOM     17  N   UNL     1       6.433  -1.522   6.729  1.00  0.00    -0.354 N 
ATOM     18  C   UNL     1       7.122  -5.501   5.185  1.00  0.00     0.074 A 
ATOM     19  C   UNL     1       6.362  -5.730   3.975  1.00  0.00     0.031 C 
ATOM     20  C   UNL     1       5.703   0.591   6.647  1.00  0.00     0.029 A 
ATOM     21  C   UNL     1       6.422  -0.370   7.478  1.00  0.00     0.049 A 
ATOM     22  H   UNL     1       6.876  -2.351   7.022  1.00  0.00     0.167 HD
ATOM     23  C   UNL     1       7.967  -6.400   5.741  1.00  0.00     0.037 A 
ATOM     24  C   UNL     1       6.946  -0.119   8.693  1.00  0.00     0.037 A 
ATOM     25  C   UNL     1       8.675  -6.191   6.974  1.00  0.00     0.049 A 
ATOM     26  C   UNL     1       7.777  -1.183   9.357  1.00  0.00     0.074 A 
ATOM     27  C   UNL     1       9.518  -7.056   7.649  1.00  0.00     0.029 A 
ATOM     28  N   UNL     1       8.603  -5.029   7.731  1.00  0.00    -0.354 N 
ATOM     29  N   UNL     1       8.083  -2.381   8.921  1.00  0.00    -0.248 NA
ATOM     30  C   UNL     1       8.367  -0.849  10.660  1.00  0.00     0.031 C 
ATOM     31  C   UNL     1       9.928  -6.430   8.832  1.00  0.00     0.029 A 
ATOM     32  C   UNL     1       9.370  -5.162   8.876  1.00  0.00     0.049 A 
ATOM     33  H   UNL     1       8.083  -4.229   7.489  1.00  0.00     0.167 HD
ATOM     34  C   UNL     1       8.929  -2.929   9.874  1.00  0.00     0.074 A 
ATOM     35  C   UNL     1       9.093  -1.929  10.910  1.00  0.00     0.031 C 
ATOM     36  C   UNL     1       9.524  -4.147   9.888  1.00  0.00     0.037 A 
BRANCH  23  37
ATOM     37  C   UNL     1       8.165  -7.685   4.997  1.00  0.00     0.064 A 
ATOM     38  C   UNL     1       8.919  -7.723   3.813  1.00  0.00     0.173 A 
ATOM     39  C   UNL     1       7.593  -8.880   5.453  1.00  0.00     0.173 A 
ATOM     40  F   UNL     1       9.470  -6.599   3.328  1.00  0.00    -0.203 F 
ATOM     41  C   UNL     1       9.073  -8.908   3.100  1.00  0.00     0.198 A 
ATOM     42  C   UNL     1       7.766 -10.068   4.747  1.00  0.00     0.198 A 
ATOM     43  F   UNL     1       6.861  -8.894   6.577  1.00  0.00    -0.203 F 
ATOM     44  F   UNL     1       9.759  -8.911   1.949  1.00  0.00    -0.200 F 
ATOM     45  C   UNL     1       8.498 -10.079   3.568  1.00  0.00     0.200 A 
ATOM     46  F   UNL     1       7.213 -11.201   5.201  1.00  0.00    -0.200 F 
ATOM     47  F   UNL     1       8.641 -11.219   2.877  1.00  0.00    -0.200 F 
ENDBRANCH  23  37
BRANCH  24  48
ATOM     48  C   UNL     1       6.721   1.198   9.344  1.00  0.00     0.064 A 
ATOM     49  C   UNL     1       7.764   2.118   9.516  1.00  0.00     0.173 A 
ATOM     50  C   UNL     1       5.453   1.553   9.827  1.00  0.00     0.173 A 
ATOM     51  F   UNL     1       8.998   1.818   9.085  1.00  0.00    -0.203 F 
ATOM     52  C   UNL     1       7.553   3.332  10.168  1.00  0.00     0.198 A 
ATOM     53  C   UNL     1       5.238   2.776  10.458  1.00  0.00     0.198 A 
ATOM     54  F   UNL     1       4.419   0.711   9.680  1.00  0.00    -0.203 F 
ATOM     55  F   UNL     1       8.578   4.175  10.357  1.00  0.00    -0.200 F 
ATOM     56  C   UNL     1       6.290   3.661  10.636  1.00  0.00     0.200 A 
ATOM     57  F   UNL     1       4.013   3.095  10.898  1.00  0.00    -0.200 F 
ATOM     58  F   UNL     1       6.089   4.828  11.264  1.00  0.00    -0.200 F 
ENDBRANCH  24  48
BRANCH  36  59
ATOM     59  C   UNL     1      10.429  -4.449  11.044  1.00  0.00     0.064 A 
ATOM     60  C   UNL     1       9.919  -4.726  12.320  1.00  0.00     0.173 A 
ATOM     61  C   UNL     1      11.819  -4.491  10.864  1.00  0.00     0.173 A 
ATOM     62  F   UNL     1       8.597  -4.679  12.543  1.00  0.00    -0.203 F 
ATOM     63  C   UNL     1      10.772  -5.011  13.383  1.00  0.00     0.198 A 
ATOM     64  C   UNL     1      12.667  -4.801  11.923  1.00  0.00     0.198 A 
ATOM     65  F   UNL     1      12.353  -4.235   9.661  1.00  0.00    -0.203 F 
ATOM     66  F   UNL     1      10.266  -5.229  14.605  1.00  0.00    -0.200 F 
ATOM     67  C   UNL     1      12.144  -5.055  13.182  1.00  0.00     0.200 A 
ATOM     68  F   UNL     1      13.992  -4.851  11.726  1.00  0.00    -0.200 F 
ATOM     69  F   UNL     1      12.963  -5.333  14.206  1.00  0.00    -0.200 F 
ENDBRANCH  36  59
ENDBRANCH  10  11
ENDBRANCH   3   5
ENDBRANCH   2   3
ENDBRANCH   1   2
BRANCH   1  70
ATOM     70  C   UNL     1       3.667   2.337  -0.129  1.00  0.00     0.275 C 
BRANCH  70  71
ATOM     71  O   UNL     1       3.397   1.975   1.233  1.00  0.00    -0.456 OA
BRANCH  71  72
ATOM     72  C   UNL     1       2.067   1.886   1.544  1.00  0.00     0.374 C 
ATOM     73  O   UNL     1       1.148   2.145   0.775  1.00  0.00    -0.242 OA
BRANCH  72  74
ATOM     74  C   UNL     1       1.913   1.385   2.884  1.00  0.00     0.211 A 
ATOM     75  C   UNL     1       2.490   1.707   4.096  1.00  0.00     0.058 A 
ATOM     76  O   UNL     1       1.040   0.356   3.069  1.00  0.00    -0.452 OA
ATOM     77  C   UNL     1       1.940   0.819   5.063  1.00  0.00     0.048 A 
ATOM     78  C   UNL     1       1.077  -0.012   4.382  1.00  0.00     0.124 A 
BRANCH  78  79
ATOM     79  C   UNL     1       0.205  -1.167   4.753  1.00  0.00     0.195 C 
BRANCH  79  80
ATOM     80  N   UNL     1      -1.163  -0.773   4.492  1.00  0.00    -0.324 N 
ATOM     81  C   UNL     1      -2.033  -0.350   5.567  1.00  0.00     0.220 C 
ATOM     82  C   UNL     1      -1.643  -0.776   3.188  1.00  0.00     0.246 C 
ATOM     83  C   UNL     1      -2.826   0.919   5.268  1.00  0.00     0.242 C 
ATOM     84  C   UNL     1      -2.315   0.576   2.860  1.00  0.00     0.174 C 
ATOM     85  O   UNL     1      -1.246  -1.569   2.338  1.00  0.00    -0.272 OA
ATOM     86  O   UNL     1      -3.290   1.594   6.188  1.00  0.00    -0.273 OA
ATOM     87  N   UNL     1      -3.176   1.115   3.929  1.00  0.00    -0.329 N 
ATOM     88  C   UNL     1      -3.028   0.514   1.509  1.00  0.00     0.035 C 
ATOM     89  C   UNL     1      -3.938   2.320   3.622  1.00  0.00     0.120 C 
ATOM     90  C   UNL     1      -3.645   1.864   1.164  1.00  0.00     0.004 C 
ATOM     91  C   UNL     1      -4.617   2.281   2.260  1.00  0.00     0.022 C 
ENDBRANCH  79  80
ENDBRANCH  78  79
ENDBRANCH  72  74
ENDBRANCH  71  72
ENDBRANCH  70  71
ENDBRANCH   1  70
TORSDOF 13
