REMARK SMILES COc1cc(OC)cc(-n2nnc(C(=O)OCCOC(=O)c3ccc(-c4c5nc(c(-c6c(F)c(F)c(F)c(F)c6F)c6ccc([nH]6)c(-c6c(F)c(F)c(F)c(F)c6F)c6nc(c(-c7c(F)c(F)c(F)c(F)c7F)c7ccc4[nH]7)C=C6)C=C5)cc3)c2C)c1
REMARK SMILES IDX 17 1 16 2 14 3 15 4 13 5 10 6 11 7 85 8 12 9 86 10 9 11 3 12
REMARK SMILES IDX 4 13 87 14 5 15 8 16 2 17 1 18 6 19 7 20 18 21 19 22 20 23
REMARK SMILES IDX 21 24 22 25 23 26 84 27 24 28 83 29 25 30 26 31 27 32 77 33
REMARK SMILES IDX 28 34 82 35 76 36 78 37 29 38 81 39 75 40 74 41 30 43 62 44
REMARK SMILES IDX 42 45 61 46 43 47 46 48 60 49 79 50 44 51 45 52 59 54 80 55
REMARK SMILES IDX 47 56 31 57 32 58 40 59 33 60 34 61 38 62 41 63 35 64 36 65
REMARK SMILES IDX 39 66 37 67 63 68 64 69 72 70 65 71 66 72 70 73 73 74 67 75
REMARK SMILES IDX 68 76 71 77 69 78 48 79 49 80 57 81 50 82 51 83 55 84 58 85
REMARK SMILES IDX 52 86 53 87 56 88 54 89
REMARK H PARENT 78 42 46 53
REMARK Flexibility Score: inf
ROOT
ATOM      1  C   UNL     1       8.584   2.957   2.267  1.00  0.00     0.275 C 
ENDROOT
BRANCH   1   2
ATOM      2  O   UNL     1       7.340   2.282   2.499  1.00  0.00    -0.457 OA
BRANCH   2   3
ATOM      3  C   UNL     1       7.365   1.118   3.223  1.00  0.00     0.360 C 
ATOM      4  O   UNL     1       8.385   0.487   3.469  1.00  0.00    -0.244 OA
BRANCH   3   5
ATOM      5  C   UNL     1       6.036   0.764   3.711  1.00  0.00     0.193 A 
ATOM      6  N   UNL     1       3.900   0.656   4.106  1.00  0.00    -0.217 N 
ATOM      7  N   UNL     1       4.500  -0.220   4.935  1.00  0.00    -0.061 NA
ATOM      8  C   UNL     1       4.838   1.396   3.422  1.00  0.00     0.076 A 
ATOM      9  N   UNL     1       5.798  -0.224   4.641  1.00  0.00    -0.122 NA
ATOM     10  C   UNL     1       4.539   2.636   2.661  1.00  0.00     0.069 C 
BRANCH   6  11
ATOM     11  C   UNL     1       2.509   0.688   3.914  1.00  0.00     0.074 A 
ATOM     12  C   UNL     1       0.683   0.842   2.344  1.00  0.00     0.124 A 
ATOM     13  C   UNL     1      -0.166   1.130   3.413  1.00  0.00     0.093 A 
ATOM     14  C   UNL     1       2.031   0.643   2.595  1.00  0.00     0.075 A 
ATOM     15  C   UNL     1       0.309   1.163   4.733  1.00  0.00     0.124 A 
ATOM     16  C   UNL     1       1.652   0.888   4.997  1.00  0.00     0.075 A 
BRANCH  12  17
ATOM     17  O   UNL     1       0.121   0.858   1.098  1.00  0.00    -0.497 OA
ATOM     18  C   UNL     1       0.758   0.035   0.123  1.00  0.00     0.278 C 
ENDBRANCH  12  17
BRANCH  15  19
ATOM     19  O   UNL     1      -0.632   1.498   5.668  1.00  0.00    -0.497 OA
ATOM     20  C   UNL     1      -0.140   1.986   6.912  1.00  0.00     0.278 C 
ENDBRANCH  15  19
ENDBRANCH   6  11
ENDBRANCH   3   5
ENDBRANCH   2   3
ENDBRANCH   1   2
BRANCH   1  21
ATOM     21  C   UNL     1       8.913   3.874   3.434  1.00  0.00     0.275 C 
BRANCH  21  22
ATOM     22  O   UNL     1       9.410   3.107   4.526  1.00  0.00    -0.458 OA
BRANCH  22  23
ATOM     23  C   UNL     1       8.518   2.789   5.491  1.00  0.00     0.338 C 
ATOM     24  O   UNL     1       7.308   2.912   5.441  1.00  0.00    -0.246 OA
BRANCH  23  25
ATOM     25  C   UNL     1       9.270   2.497   6.718  1.00  0.00     0.060 A 
ATOM     26  C   UNL     1       8.533   2.266   7.882  1.00  0.00     0.016 A 
ATOM     27  C   UNL     1      10.650   2.748   6.754  1.00  0.00     0.016 A 
ATOM     28  C   UNL     1       9.146   2.483   9.097  1.00  0.00     0.010 A 
ATOM     29  C   UNL     1      11.253   2.992   7.962  1.00  0.00     0.010 A 
ATOM     30  C   UNL     1      10.473   2.928   9.112  1.00  0.00    -0.014 A 
BRANCH  30  31
ATOM     31  C   UNL     1      11.077   3.239  10.387  1.00  0.00     0.031 A 
ATOM     32  C   UNL     1      11.417   2.039  11.184  1.00  0.00     0.074 A 
ATOM     33  C   UNL     1      11.420   4.493  10.731  1.00  0.00     0.049 A 
ATOM     34  N   UNL     1      10.976   1.712  12.352  1.00  0.00    -0.248 NA
ATOM     35  C   UNL     1      12.253   1.011  10.542  1.00  0.00     0.031 C 
ATOM     36  C   UNL     1      11.409   5.696   9.893  1.00  0.00     0.029 A 
ATOM     37  N   UNL     1      11.966   4.934  11.895  1.00  0.00    -0.354 N 
ATOM     38  C   UNL     1      11.615   0.519  12.670  1.00  0.00     0.074 A 
ATOM     39  C   UNL     1      12.252   0.054  11.468  1.00  0.00     0.031 C 
ATOM     40  C   UNL     1      12.126   6.666  10.504  1.00  0.00     0.029 A 
ATOM     41  C   UNL     1      12.541   6.193  11.814  1.00  0.00     0.049 A 
ATOM     42  H   UNL     1      11.954   4.404  12.724  1.00  0.00     0.167 HD
ATOM     43  C   UNL     1      11.784   0.144  13.964  1.00  0.00     0.037 A 
ATOM     44  C   UNL     1      13.368   6.752  12.732  1.00  0.00     0.037 A 
ATOM     45  C   UNL     1      10.842   0.806  14.829  1.00  0.00     0.049 A 
ATOM     46  C   UNL     1      13.192   6.009  14.007  1.00  0.00     0.074 A 
ATOM     47  C   UNL     1       9.462   0.854  14.899  1.00  0.00     0.029 A 
ATOM     48  N   UNL     1      11.286   1.859  15.590  1.00  0.00    -0.354 N 
ATOM     49  N   UNL     1      12.114   6.055  14.737  1.00  0.00    -0.248 NA
ATOM     50  C   UNL     1      14.059   4.864  14.249  1.00  0.00     0.031 C 
ATOM     51  C   UNL     1       9.155   2.191  15.288  1.00  0.00     0.029 A 
ATOM     52  C   UNL     1      10.361   2.864  15.479  1.00  0.00     0.049 A 
ATOM     53  H   UNL     1      12.116   1.886  16.119  1.00  0.00     0.167 HD
ATOM     54  C   UNL     1      11.947   4.758  15.201  1.00  0.00     0.074 A 
ATOM     55  C   UNL     1      13.224   4.097  14.954  1.00  0.00     0.031 C 
ATOM     56  C   UNL     1      10.703   4.266  15.474  1.00  0.00     0.037 A 
BRANCH  43  57
ATOM     57  C   UNL     1      13.049  -0.497  14.476  1.00  0.00     0.064 A 
ATOM     58  C   UNL     1      13.090  -0.951  15.808  1.00  0.00     0.173 A 
ATOM     59  C   UNL     1      14.302  -0.397  13.828  1.00  0.00     0.173 A 
ATOM     60  F   UNL     1      11.961  -1.068  16.524  1.00  0.00    -0.203 F 
ATOM     61  C   UNL     1      14.298  -1.193  16.466  1.00  0.00     0.198 A 
ATOM     62  C   UNL     1      15.500  -0.693  14.471  1.00  0.00     0.198 A 
ATOM     63  F   UNL     1      14.434   0.103  12.594  1.00  0.00    -0.203 F 
ATOM     64  F   UNL     1      14.294  -1.485  17.773  1.00  0.00    -0.200 F 
ATOM     65  C   UNL     1      15.502  -1.055  15.800  1.00  0.00     0.200 A 
ATOM     66  F   UNL     1      16.657  -0.535  13.811  1.00  0.00    -0.200 F 
ATOM     67  F   UNL     1      16.662  -1.216  16.448  1.00  0.00    -0.200 F 
ENDBRANCH  43  57
BRANCH  44  68
ATOM     68  C   UNL     1      14.514   7.664  12.500  1.00  0.00     0.064 A 
ATOM     69  C   UNL     1      15.086   8.389  13.558  1.00  0.00     0.173 A 
ATOM     70  C   UNL     1      15.243   7.636  11.295  1.00  0.00     0.173 A 
ATOM     71  F   UNL     1      14.480   8.429  14.753  1.00  0.00    -0.203 F 
ATOM     72  C   UNL     1      16.325   9.026  13.425  1.00  0.00     0.198 A 
ATOM     73  C   UNL     1      16.473   8.281  11.161  1.00  0.00     0.198 A 
ATOM     74  F   UNL     1      14.827   6.904  10.252  1.00  0.00    -0.203 F 
ATOM     75  F   UNL     1      16.870   9.653  14.477  1.00  0.00    -0.200 F 
ATOM     76  C   UNL     1      17.021   8.963  12.230  1.00  0.00     0.200 A 
ATOM     77  F   UNL     1      17.152   8.182  10.009  1.00  0.00    -0.200 F 
ATOM     78  F   UNL     1      18.235   9.521  12.121  1.00  0.00    -0.200 F 
ENDBRANCH  44  68
BRANCH  56  79
ATOM     79  C   UNL     1       9.565   5.245  15.531  1.00  0.00     0.064 A 
ATOM     80  C   UNL     1       9.137   6.018  14.437  1.00  0.00     0.173 A 
ATOM     81  C   UNL     1       8.801   5.308  16.703  1.00  0.00     0.173 A 
ATOM     82  F   UNL     1       9.750   5.933  13.250  1.00  0.00    -0.203 F 
ATOM     83  C   UNL     1       8.028   6.855  14.534  1.00  0.00     0.198 A 
ATOM     84  C   UNL     1       7.670   6.116  16.785  1.00  0.00     0.198 A 
ATOM     85  F   UNL     1       9.128   4.549  17.761  1.00  0.00    -0.203 F 
ATOM     86  F   UNL     1       7.651   7.598  13.482  1.00  0.00    -0.200 F 
ATOM     87  C   UNL     1       7.292   6.899  15.706  1.00  0.00     0.200 A 
ATOM     88  F   UNL     1       6.932   6.117  17.904  1.00  0.00    -0.200 F 
ATOM     89  F   UNL     1       6.202   7.675  15.788  1.00  0.00    -0.200 F 
ENDBRANCH  56  79
ENDBRANCH  30  31
ENDBRANCH  23  25
ENDBRANCH  22  23
ENDBRANCH  21  22
ENDBRANCH   1  21
TORSDOF 14
