REMARK SMILES Cn1nc(N2CCC(CC(=O)OCCOC(=O)c3ccc(-c4c5nc(c(-c6c(F)c(F)c(F)c(F)c6F)c6ccc([nH]6)c(-c6c(F)c(F)c(F)c(F)c6F)c6nc(c(-c7c(F)c(F)c(F)c(F)c7F)c7ccc4[nH]7)C=C6)C=C5)cc3)CC2)c(=O)n(C)c1=O
REMARK SMILES IDX 13 1 12 2 10 3 11 4 9 5 8 6 5 7 6 8 82 9 7 10 81 11 4 12
REMARK SMILES IDX 1 13 2 14 3 15 87 16 85 17 88 18 83 19 86 20 84 21 14 22
REMARK SMILES IDX 15 23 16 24 17 25 18 26 19 27 80 28 20 29 79 30 21 31 22 32
REMARK SMILES IDX 23 33 73 34 24 35 78 36 72 37 74 38 25 39 77 40 71 41 70 42
REMARK SMILES IDX 26 44 58 45 38 46 57 47 39 48 42 49 56 50 75 51 40 52 41 53
REMARK SMILES IDX 55 55 76 56 43 57 27 58 28 59 36 60 29 61 30 62 34 63 37 64
REMARK SMILES IDX 31 65 32 66 35 67 33 68 59 69 60 70 68 71 61 72 62 73 66 74
REMARK SMILES IDX 69 75 63 76 64 77 67 78 65 79 44 80 45 81 53 82 46 83 47 84
REMARK SMILES IDX 51 85 54 86 48 87 49 88 52 89 50 90
REMARK H PARENT 74 43 42 54
REMARK Flexibility Score: inf
ROOT
ATOM      1  C   UNL     1      -0.396  -7.441   4.683  1.00  0.00     0.274 C 
ENDROOT
BRANCH   1   2
ATOM      2  O   UNL     1      -0.821  -6.120   4.298  1.00  0.00    -0.462 OA
BRANCH   2   3
ATOM      3  C   UNL     1      -2.127  -5.954   3.980  1.00  0.00     0.306 C 
ATOM      4  O   UNL     1      -2.960  -6.852   3.958  1.00  0.00    -0.252 OA
BRANCH   3   5
ATOM      5  C   UNL     1      -2.455  -4.528   3.583  1.00  0.00     0.126 C 
BRANCH   5   6
ATOM      6  C   UNL     1      -1.823  -3.418   4.444  1.00  0.00     0.003 C 
ATOM      7  N   UNL     1      -0.588  -0.803   4.524  1.00  0.00    -0.351 N 
ATOM      8  C   UNL     1       0.233  -1.974   4.790  1.00  0.00     0.118 C 
ATOM      9  C   UNL     1      -1.965  -0.914   4.989  1.00  0.00     0.118 C 
ATOM     10  C   UNL     1      -0.346  -3.184   4.071  1.00  0.00     0.026 C 
ATOM     11  C   UNL     1      -2.631  -2.107   4.291  1.00  0.00     0.026 C 
BRANCH   7  12
ATOM     12  C   UNL     1      -0.236   0.098   3.527  1.00  0.00     0.215 A 
ATOM     13  C   UNL     1       1.020   0.049   0.164  1.00  0.00     0.180 C 
ATOM     14  N   UNL     1       0.592   0.598   1.438  1.00  0.00    -0.216 N 
ATOM     15  N   UNL     1       0.236  -0.319   2.386  1.00  0.00    -0.145 NA
ATOM     16  C   UNL     1       0.658   1.973   1.641  1.00  0.00     0.346 A 
ATOM     17  N   UNL     1       0.205   2.430   2.861  1.00  0.00    -0.259 N 
ATOM     18  O   UNL     1       1.085   2.735   0.771  1.00  0.00    -0.246 OA
ATOM     19  C   UNL     1      -0.366   1.601   3.804  1.00  0.00     0.299 A 
ATOM     20  C   UNL     1       0.265   3.843   3.168  1.00  0.00     0.159 C 
ATOM     21  O   UNL     1      -0.922   1.984   4.828  1.00  0.00    -0.265 OA
ENDBRANCH   7  12
ENDBRANCH   5   6
ENDBRANCH   3   5
ENDBRANCH   2   3
ENDBRANCH   1   2
BRANCH   1  22
ATOM     22  C   UNL     1      -0.309  -7.572   6.204  1.00  0.00     0.275 C 
BRANCH  22  23
ATOM     23  O   UNL     1      -1.622  -7.616   6.793  1.00  0.00    -0.458 OA
BRANCH  23  24
ATOM     24  C   UNL     1      -2.090  -6.436   7.259  1.00  0.00     0.338 C 
ATOM     25  O   UNL     1      -1.507  -5.368   7.305  1.00  0.00    -0.246 OA
BRANCH  24  26
ATOM     26  C   UNL     1      -3.509  -6.591   7.609  1.00  0.00     0.060 A 
ATOM     27  C   UNL     1      -4.461  -5.932   6.827  1.00  0.00     0.016 A 
ATOM     28  C   UNL     1      -3.893  -7.329   8.730  1.00  0.00     0.016 A 
ATOM     29  C   UNL     1      -5.810  -6.009   7.162  1.00  0.00     0.010 A 
ATOM     30  C   UNL     1      -5.248  -7.403   9.067  1.00  0.00     0.010 A 
ATOM     31  C   UNL     1      -6.212  -6.737   8.290  1.00  0.00    -0.014 A 
BRANCH  31  32
ATOM     32  C   UNL     1      -7.641  -6.751   8.684  1.00  0.00     0.031 A 
ATOM     33  C   UNL     1      -8.106  -5.890   9.823  1.00  0.00     0.074 A 
ATOM     34  C   UNL     1      -8.521  -7.501   7.996  1.00  0.00     0.049 A 
ATOM     35  N   UNL     1      -9.296  -5.799  10.359  1.00  0.00    -0.248 NA
ATOM     36  C   UNL     1      -7.100  -5.007  10.435  1.00  0.00     0.031 C 
ATOM     37  C   UNL     1      -8.196  -8.328   6.834  1.00  0.00     0.029 A 
ATOM     38  N   UNL     1      -9.870  -7.682   8.170  1.00  0.00    -0.354 N 
ATOM     39  C   UNL     1      -9.184  -4.852  11.367  1.00  0.00     0.074 A 
ATOM     40  C   UNL     1      -7.806  -4.413  11.388  1.00  0.00     0.031 C 
ATOM     41  C   UNL     1      -9.319  -8.919   6.391  1.00  0.00     0.029 A 
ATOM     42  C   UNL     1     -10.430  -8.548   7.263  1.00  0.00     0.049 A 
ATOM     43  H   UNL     1     -10.387  -7.233   8.877  1.00  0.00     0.167 HD
ATOM     44  C   UNL     1     -10.152  -4.383  12.190  1.00  0.00     0.037 A 
ATOM     45  C   UNL     1     -11.694  -9.004   7.164  1.00  0.00     0.037 A 
ATOM     46  C   UNL     1     -11.523  -4.819  12.165  1.00  0.00     0.049 A 
ATOM     47  C   UNL     1     -12.724  -8.539   8.159  1.00  0.00     0.074 A 
ATOM     48  C   UNL     1     -12.568  -4.422  12.980  1.00  0.00     0.029 A 
ATOM     49  N   UNL     1     -12.039  -5.745  11.271  1.00  0.00    -0.354 N 
ATOM     50  N   UNL     1     -12.604  -7.663   9.127  1.00  0.00    -0.248 NA
ATOM     51  C   UNL     1     -14.065  -9.135   8.055  1.00  0.00     0.031 C 
ATOM     52  C   UNL     1     -13.712  -5.131  12.600  1.00  0.00     0.029 A 
ATOM     53  C   UNL     1     -13.387  -5.941  11.524  1.00  0.00     0.049 A 
ATOM     54  H   UNL     1     -11.525  -6.197  10.563  1.00  0.00     0.167 HD
ATOM     55  C   UNL     1     -13.852  -7.586   9.729  1.00  0.00     0.074 A 
ATOM     56  C   UNL     1     -14.722  -8.492   9.010  1.00  0.00     0.031 C 
ATOM     57  C   UNL     1     -14.241  -6.834  10.787  1.00  0.00     0.037 A 
BRANCH  44  58
ATOM     58  C   UNL     1      -9.771  -3.342  13.197  1.00  0.00     0.064 A 
ATOM     59  C   UNL     1      -9.572  -2.006  12.820  1.00  0.00     0.173 A 
ATOM     60  C   UNL     1      -9.695  -3.663  14.560  1.00  0.00     0.173 A 
ATOM     61  F   UNL     1      -9.623  -1.655  11.527  1.00  0.00    -0.203 F 
ATOM     62  C   UNL     1      -9.310  -1.027  13.775  1.00  0.00     0.198 A 
ATOM     63  C   UNL     1      -9.453  -2.678  15.513  1.00  0.00     0.198 A 
ATOM     64  F   UNL     1      -9.883  -4.926  14.969  1.00  0.00    -0.203 F 
ATOM     65  F   UNL     1      -9.107   0.241  13.393  1.00  0.00    -0.200 F 
ATOM     66  C   UNL     1      -9.261  -1.361  15.120  1.00  0.00     0.200 A 
ATOM     67  F   UNL     1      -9.418  -3.000  16.814  1.00  0.00    -0.200 F 
ATOM     68  F   UNL     1      -9.030  -0.414  16.040  1.00  0.00    -0.200 F 
ENDBRANCH  44  58
BRANCH  45  69
ATOM     69  C   UNL     1     -12.061  -9.963   6.091  1.00  0.00     0.064 A 
ATOM     70  C   UNL     1     -12.929  -9.587   5.056  1.00  0.00     0.173 A 
ATOM     71  C   UNL     1     -11.579 -11.280   6.091  1.00  0.00     0.173 A 
ATOM     72  F   UNL     1     -13.440  -8.347   5.029  1.00  0.00    -0.203 F 
ATOM     73  C   UNL     1     -13.313 -10.496   4.072  1.00  0.00     0.198 A 
ATOM     74  C   UNL     1     -11.941 -12.180   5.092  1.00  0.00     0.198 A 
ATOM     75  F   UNL     1     -10.752 -11.693   7.063  1.00  0.00    -0.203 F 
ATOM     76  F   UNL     1     -14.181 -10.124   3.122  1.00  0.00    -0.200 F 
ATOM     77  C   UNL     1     -12.814 -11.790   4.088  1.00  0.00     0.200 A 
ATOM     78  F   UNL     1     -11.452 -13.428   5.107  1.00  0.00    -0.200 F 
ATOM     79  F   UNL     1     -13.185 -12.665   3.143  1.00  0.00    -0.200 F 
ENDBRANCH  45  69
BRANCH  57  80
ATOM     80  C   UNL     1     -15.674  -6.932  11.218  1.00  0.00     0.064 A 
ATOM     81  C   UNL     1     -16.151  -8.048  11.919  1.00  0.00     0.173 A 
ATOM     82  C   UNL     1     -16.558  -5.867  10.990  1.00  0.00     0.173 A 
ATOM     83  F   UNL     1     -15.345  -9.096  12.149  1.00  0.00    -0.203 F 
ATOM     84  C   UNL     1     -17.468  -8.100  12.367  1.00  0.00     0.198 A 
ATOM     85  C   UNL     1     -17.867  -5.912  11.461  1.00  0.00     0.198 A 
ATOM     86  F   UNL     1     -16.145  -4.774  10.331  1.00  0.00    -0.203 F 
ATOM     87  F   UNL     1     -17.912  -9.189  13.009  1.00  0.00    -0.200 F 
ATOM     88  C   UNL     1     -18.321  -7.029  12.146  1.00  0.00     0.200 A 
ATOM     89  F   UNL     1     -18.687  -4.871  11.258  1.00  0.00    -0.200 F 
ATOM     90  F   UNL     1     -19.585  -7.075  12.591  1.00  0.00    -0.200 F 
ENDBRANCH  57  80
ENDBRANCH  31  32
ENDBRANCH  24  26
ENDBRANCH  23  24
ENDBRANCH  22  23
ENDBRANCH   1  22
TORSDOF 13
