REMARK SMILES COc1ccc(-c2nc(NCC(=O)OCCOC(=O)c3ccc(-c4c5nc(c(-c6c(F)c(F)c(F)c(F)c6F)c6ccc([nH]6)c(-c6c(F)c(F)c(F)c(F)c6F)c6nc(c(-c7c(F)c(F)c(F)c(F)c7F)c7ccc4[nH]7)C=C6)C=C5)cc3)sc2-c2ccc(OC)cc2)cc1
REMARK SMILES IDX 15 1 14 2 12 3 13 4 11 5 10 6 9 8 7 9 8 10 84 11 83 12 6 13
REMARK SMILES IDX 3 14 4 15 94 16 5 17 93 18 2 19 1 20 85 21 86 22 92 23 87 24
REMARK SMILES IDX 91 25 88 26 89 27 90 28 16 29 17 30 18 31 19 32 20 33 21 34
REMARK SMILES IDX 82 35 22 36 81 37 23 38 24 39 25 40 75 41 26 42 80 43 74 44
REMARK SMILES IDX 76 45 27 46 79 47 73 48 72 49 28 51 60 52 40 53 59 54 41 55
REMARK SMILES IDX 44 56 58 57 77 58 42 59 43 60 57 62 78 63 45 64 29 65 30 66
REMARK SMILES IDX 38 67 31 68 32 69 36 70 39 71 33 72 34 73 37 74 35 75 61 76
REMARK SMILES IDX 62 77 70 78 63 79 64 80 68 81 71 82 65 83 66 84 69 85 67 86
REMARK SMILES IDX 46 87 47 88 55 89 48 90 49 91 53 92 56 93 50 94 51 95 54 96
REMARK SMILES IDX 52 97
REMARK H PARENT 10 7 76 50 44 61
REMARK Flexibility Score: inf
ROOT
ATOM      1  C   UNL     1       7.920   9.888   2.282  1.00  0.00     0.274 C 
ENDROOT
BRANCH   1   2
ATOM      2  O   UNL     1       6.546   9.643   1.943  1.00  0.00    -0.461 OA
BRANCH   2   3
ATOM      3  C   UNL     1       5.824  10.719   1.528  1.00  0.00     0.325 C 
ATOM      4  O   UNL     1       6.229  11.877   1.525  1.00  0.00    -0.250 OA
BRANCH   3   5
ATOM      5  C   UNL     1       4.417  10.337   1.098  1.00  0.00     0.238 C 
BRANCH   5   6
ATOM      6  N   UNL     1       4.324   8.998   0.528  1.00  0.00    -0.351 N 
ATOM      7  H   UNL     1       5.059   8.688  -0.049  1.00  0.00     0.163 HD
BRANCH   6   8
ATOM      8  C   UNL     1       3.290   8.159   0.745  1.00  0.00     0.184 A 
ATOM      9  C   UNL     1       2.076   6.296   0.655  1.00  0.00     0.091 A 
ATOM     10  N   UNL     1       3.209   6.964   0.202  1.00  0.00    -0.220 NA
ATOM     11  C   UNL     1       1.337   6.979   1.608  1.00  0.00     0.064 A 
ATOM     12  S   UNL     1       1.971   8.553   1.782  1.00  0.00    -0.096 S 
BRANCH   9  13
ATOM     13  C   UNL     1       1.746   4.949   0.208  1.00  0.00     0.002 A 
ATOM     14  C   UNL     1       1.038   2.308  -0.445  1.00  0.00     0.118 A 
ATOM     15  C   UNL     1       0.108   3.338  -0.582  1.00  0.00     0.047 A 
ATOM     16  C   UNL     1       2.340   2.605  -0.039  1.00  0.00     0.047 A 
ATOM     17  C   UNL     1       0.456   4.650  -0.253  1.00  0.00     0.014 A 
ATOM     18  C   UNL     1       2.695   3.924   0.281  1.00  0.00     0.014 A 
BRANCH  14  19
ATOM     19  O   UNL     1       0.578   1.061  -0.768  1.00  0.00    -0.497 OA
ATOM     20  C   UNL     1       1.174  -0.012  -0.047  1.00  0.00     0.278 C 
ENDBRANCH  14  19
ENDBRANCH   9  13
BRANCH  11  21
ATOM     21  C   UNL     1       0.240   6.572   2.482  1.00  0.00    -0.006 A 
ATOM     22  C   UNL     1      -0.953   7.300   2.541  1.00  0.00     0.013 A 
ATOM     23  C   UNL     1       0.408   5.474   3.336  1.00  0.00     0.013 A 
ATOM     24  C   UNL     1      -1.947   6.946   3.455  1.00  0.00     0.047 A 
ATOM     25  C   UNL     1      -0.590   5.120   4.247  1.00  0.00     0.047 A 
ATOM     26  C   UNL     1      -1.770   5.859   4.313  1.00  0.00     0.118 A 
BRANCH  26  27
ATOM     27  O   UNL     1      -2.811   5.632   5.170  1.00  0.00    -0.497 OA
ATOM     28  C   UNL     1      -2.704   4.492   6.012  1.00  0.00     0.278 C 
ENDBRANCH  26  27
ENDBRANCH  11  21
ENDBRANCH   6   8
ENDBRANCH   5   6
ENDBRANCH   3   5
ENDBRANCH   2   3
ENDBRANCH   1   2
BRANCH   1  29
ATOM     29  C   UNL     1       8.848   9.553   1.110  1.00  0.00     0.275 C 
BRANCH  29  30
ATOM     30  O   UNL     1       8.723  10.495   0.025  1.00  0.00    -0.458 OA
BRANCH  30  31
ATOM     31  C   UNL     1       7.758  10.213  -0.883  1.00  0.00     0.338 C 
ATOM     32  O   UNL     1       7.007   9.253  -0.890  1.00  0.00    -0.246 OA
BRANCH  31  33
ATOM     33  C   UNL     1       7.603  11.351  -1.807  1.00  0.00     0.060 A 
ATOM     34  C   UNL     1       6.330  11.915  -1.935  1.00  0.00     0.016 A 
ATOM     35  C   UNL     1       8.670  11.832  -2.567  1.00  0.00     0.016 A 
ATOM     36  C   UNL     1       6.117  12.973  -2.811  1.00  0.00     0.010 A 
ATOM     37  C   UNL     1       8.454  12.892  -3.455  1.00  0.00     0.010 A 
ATOM     38  C   UNL     1       7.177  13.468  -3.580  1.00  0.00    -0.014 A 
BRANCH  38  39
ATOM     39  C   UNL     1       6.936  14.578  -4.529  1.00  0.00     0.031 A 
ATOM     40  C   UNL     1       6.849  14.300  -5.999  1.00  0.00     0.074 A 
ATOM     41  C   UNL     1       6.773  15.829  -4.062  1.00  0.00     0.049 A 
ATOM     42  N   UNL     1       6.746  15.140  -6.997  1.00  0.00    -0.248 NA
ATOM     43  C   UNL     1       6.880  12.886  -6.402  1.00  0.00     0.031 C 
ATOM     44  C   UNL     1       6.779  16.206  -2.649  1.00  0.00     0.029 A 
ATOM     45  N   UNL     1       6.577  17.012  -4.726  1.00  0.00    -0.354 N 
ATOM     46  C   UNL     1       6.717  14.361  -8.145  1.00  0.00     0.074 A 
ATOM     47  C   UNL     1       6.825  12.980  -7.723  1.00  0.00     0.031 C 
ATOM     48  C   UNL     1       6.604  17.534  -2.552  1.00  0.00     0.029 A 
ATOM     49  C   UNL     1       6.525  18.103  -3.894  1.00  0.00     0.049 A 
ATOM     50  H   UNL     1       6.482  17.074  -5.705  1.00  0.00     0.167 HD
ATOM     51  C   UNL     1       6.609  14.768  -9.432  1.00  0.00     0.037 A 
ATOM     52  C   UNL     1       6.462  19.416  -4.186  1.00  0.00     0.037 A 
ATOM     53  C   UNL     1       6.493  16.144  -9.841  1.00  0.00     0.049 A 
ATOM     54  C   UNL     1       6.419  19.845  -5.627  1.00  0.00     0.074 A 
ATOM     55  C   UNL     1       6.372  16.659 -11.120  1.00  0.00     0.029 A 
ATOM     56  N   UNL     1       6.486  17.226  -8.972  1.00  0.00    -0.354 N 
ATOM     57  N   UNL     1       6.410  19.105  -6.710  1.00  0.00    -0.248 NA
ATOM     58  C   UNL     1       6.388  21.290  -5.887  1.00  0.00     0.031 C 
ATOM     59  C   UNL     1       6.334  18.055 -11.028  1.00  0.00     0.029 A 
ATOM     60  C   UNL     1       6.387  18.408  -9.689  1.00  0.00     0.049 A 
ATOM     61  H   UNL     1       6.543  17.163  -7.991  1.00  0.00     0.167 HD
ATOM     62  C   UNL     1       6.362  19.991  -7.777  1.00  0.00     0.074 A 
ATOM     63  C   UNL     1       6.322  21.324  -7.211  1.00  0.00     0.031 C 
ATOM     64  C   UNL     1       6.355  19.725  -9.106  1.00  0.00     0.037 A 
BRANCH  51  65
ATOM     65  C   UNL     1       6.647  13.712 -10.496  1.00  0.00     0.064 A 
ATOM     66  C   UNL     1       5.563  12.852 -10.723  1.00  0.00     0.173 A 
ATOM     67  C   UNL     1       7.774  13.581 -11.322  1.00  0.00     0.173 A 
ATOM     68  F   UNL     1       4.468  12.928  -9.950  1.00  0.00    -0.203 F 
ATOM     69  C   UNL     1       5.613  11.886 -11.725  1.00  0.00     0.198 A 
ATOM     70  C   UNL     1       7.811  12.630 -12.338  1.00  0.00     0.198 A 
ATOM     71  F   UNL     1       8.836  14.381 -11.148  1.00  0.00    -0.203 F 
ATOM     72  F   UNL     1       4.581  11.049 -11.899  1.00  0.00    -0.200 F 
ATOM     73  C   UNL     1       6.734  11.780 -12.535  1.00  0.00     0.200 A 
ATOM     74  F   UNL     1       8.891  12.536 -13.126  1.00  0.00    -0.200 F 
ATOM     75  F   UNL     1       6.779  10.853 -13.502  1.00  0.00    -0.200 F 
ENDBRANCH  51  65
BRANCH  52  76
ATOM     76  C   UNL     1       6.479  20.417  -3.089  1.00  0.00     0.064 A 
ATOM     77  C   UNL     1       5.350  21.192  -2.796  1.00  0.00     0.173 A 
ATOM     78  C   UNL     1       7.630  20.618  -2.311  1.00  0.00     0.173 A 
ATOM     79  F   UNL     1       4.236  21.055  -3.530  1.00  0.00    -0.203 F 
ATOM     80  C   UNL     1       5.373  22.138  -1.773  1.00  0.00     0.198 A 
ATOM     81  C   UNL     1       7.643  21.544  -1.271  1.00  0.00     0.198 A 
ATOM     82  F   UNL     1       8.739  19.904  -2.554  1.00  0.00    -0.203 F 
ATOM     83  F   UNL     1       4.292  22.894  -1.539  1.00  0.00    -0.200 F 
ATOM     84  C   UNL     1       6.516  22.307  -1.006  1.00  0.00     0.200 A 
ATOM     85  F   UNL     1       8.746  21.696  -0.526  1.00  0.00    -0.200 F 
ATOM     86  F   UNL     1       6.535  23.212  -0.018  1.00  0.00    -0.200 F 
ENDBRANCH  52  76
BRANCH  64  87
ATOM     87  C   UNL     1       6.289  20.900 -10.036  1.00  0.00     0.064 A 
ATOM     88  C   UNL     1       7.399  21.731 -10.245  1.00  0.00     0.173 A 
ATOM     89  C   UNL     1       5.114  21.179 -10.749  1.00  0.00     0.173 A 
ATOM     90  F   UNL     1       8.540  21.515  -9.572  1.00  0.00    -0.203 F 
ATOM     91  C   UNL     1       7.328  22.812 -11.119  1.00  0.00     0.198 A 
ATOM     92  C   UNL     1       5.054  22.245 -11.641  1.00  0.00     0.198 A 
ATOM     93  F   UNL     1       4.026  20.411 -10.586  1.00  0.00    -0.203 F 
ATOM     94  F   UNL     1       8.387  23.619 -11.271  1.00  0.00    -0.200 F 
ATOM     95  C   UNL     1       6.159  23.064 -11.821  1.00  0.00     0.200 A 
ATOM     96  F   UNL     1       3.927  22.482 -12.326  1.00  0.00    -0.200 F 
ATOM     97  F   UNL     1       6.093  24.103 -12.665  1.00  0.00    -0.200 F 
ENDBRANCH  64  87
ENDBRANCH  38  39
ENDBRANCH  31  33
ENDBRANCH  30  31
ENDBRANCH  29  30
ENDBRANCH   1  29
TORSDOF 17
