REMARK SMILES CCCOC(=O)c1c(NC(=O)[C@H]2[C@@H](C(=O)OCCOC(=O)c3ccc(-c4c5nc(c(-c6c(F)c(F)c(F)c(F)c6F)c6ccc([nH]6)c(-c6c(F)c(F)c(F)c(F)c6F)c6nc(c(-c7c(F)c(F)c(F)c(F)c7F)c7ccc4[nH]7)C=C6)C=C5)cc3)[C@@H]3C=C[C@H]2C3)sc2c1CCCCC2
REMARK SMILES IDX 14 1 15 2 13 3 12 4 88 5 85 6 87 7 89 8 86 9 10 10 9 11
REMARK SMILES IDX 11 13 8 14 7 15 92 16 90 17 91 18 5 19 6 20 4 21 3 22 2 23
REMARK SMILES IDX 1 24 93 25 94 26 95 27 97 29 96 30 16 32 17 33 18 34 19 35
REMARK SMILES IDX 20 36 21 37 22 38 23 39 84 40 24 41 83 42 25 43 26 44 27 45
REMARK SMILES IDX 77 46 28 47 82 48 76 49 78 50 29 51 81 52 75 53 74 54 30 56
REMARK SMILES IDX 62 57 42 58 61 59 43 60 46 61 60 62 79 63 44 64 45 65 59 67
REMARK SMILES IDX 80 68 47 69 31 70 32 71 40 72 33 73 34 74 38 75 41 76 35 77
REMARK SMILES IDX 36 78 39 79 37 80 63 81 64 82 72 83 65 84 66 85 70 86 73 87
REMARK SMILES IDX 67 88 68 89 71 90 69 91 48 92 49 93 57 94 50 95 51 96 55 97
REMARK SMILES IDX 58 98 52 99 53 100 56 101 54 102
REMARK H PARENT 9 12 78 55 46 66
REMARK Flexibility Score: 100.00
ROOT
ATOM      1  C   UNL     1      -1.514   7.618  -3.437  1.00  0.00     0.310 C 
ATOM      2  O   UNL     1      -0.556   8.131  -4.004  1.00  0.00    -0.252 OA
ENDROOT
BRANCH   1   3
ATOM      3  C   UNL     1      -1.398   6.381  -2.544  1.00  0.00     0.119 C 
ATOM      4  C   UNL     1      -0.978   5.107  -3.336  1.00  0.00     0.100 C 
ATOM      5  C   UNL     1      -2.287   4.265  -3.342  1.00  0.00     0.025 C 
ATOM      6  C   UNL     1      -2.743   5.938  -1.923  1.00  0.00     0.027 C 
ATOM      7  C   UNL     1      -2.333   3.666  -1.940  1.00  0.00    -0.027 C 
ATOM      8  C   UNL     1      -3.411   5.279  -3.138  1.00  0.00     0.017 C 
ATOM      9  C   UNL     1      -2.534   4.685  -1.087  1.00  0.00    -0.027 C 
BRANCH   4  10
ATOM     10  C   UNL     1      -0.230   5.404  -4.629  1.00  0.00     0.229 C 
ATOM     11  N   UNL     1       1.053   5.938  -4.567  1.00  0.00    -0.317 N 
ATOM     12  H   UNL     1       1.390   6.322  -5.408  1.00  0.00     0.170 HD
ATOM     13  O   UNL     1      -0.798   5.305  -5.719  1.00  0.00    -0.274 OA
BRANCH  11  14
ATOM     14  C   UNL     1       1.930   6.008  -3.487  1.00  0.00     0.110 A 
ATOM     15  C   UNL     1       2.950   6.908  -3.199  1.00  0.00     0.098 A 
ATOM     16  C   UNL     1       3.563   6.631  -1.899  1.00  0.00    -0.017 A 
ATOM     17  S   UNL     1       2.014   4.699  -2.400  1.00  0.00    -0.122 S 
ATOM     18  C   UNL     1       2.891   5.601  -1.266  1.00  0.00     0.011 A 
BRANCH  15  19
ATOM     19  C   UNL     1       3.298   8.056  -4.016  1.00  0.00     0.341 C 
ATOM     20  O   UNL     1       2.615   9.071  -4.083  1.00  0.00    -0.246 OA
BRANCH  19  21
ATOM     21  O   UNL     1       4.510   7.891  -4.615  1.00  0.00    -0.462 OA
BRANCH  21  22
ATOM     22  C   UNL     1       5.032   9.024  -5.325  1.00  0.00     0.233 C 
BRANCH  22  23
ATOM     23  C   UNL     1       4.694   8.951  -6.811  1.00  0.00     0.038 C 
ATOM     24  C   UNL     1       3.222   9.198  -7.105  1.00  0.00     0.007 C 
ENDBRANCH  22  23
ENDBRANCH  21  22
ENDBRANCH  19  21
ENDBRANCH  15  19
BRANCH  16  25
ATOM     25  C   UNL     1       4.708   7.402  -1.291  1.00  0.00     0.037 C 
BRANCH  25  26
ATOM     26  C   UNL     1       4.543   7.713   0.194  1.00  0.00     0.005 C 
BRANCH  26  27
ATOM     27  C   UNL     1       4.815   6.552   1.157  1.00  0.00     0.001 CG0
ATOM     28  G   UNL     1       4.301   5.168   0.759  1.00  0.00     0.000 G0
ENDBRANCH  26  27
ENDBRANCH  25  26
ENDBRANCH  16  25
BRANCH  18  29
ATOM     29  C   UNL     1       2.902   5.174   0.168  1.00  0.00     0.047 C 
BRANCH  29  30
ATOM     30  C   UNL     1       4.301   5.168   0.759  1.00  0.00     0.006 CG0
ATOM     31  G   UNL     1       4.815   6.552   1.157  1.00  0.00     0.000 G0
ENDBRANCH  29  30
ENDBRANCH  18  29
ENDBRANCH  11  14
ENDBRANCH   4  10
ENDBRANCH   1   3
BRANCH   1  32
ATOM     32  O   UNL     1      -2.778   8.120  -3.492  1.00  0.00    -0.462 OA
BRANCH  32  33
ATOM     33  C   UNL     1      -2.942   9.363  -4.194  1.00  0.00     0.274 C 
BRANCH  33  34
ATOM     34  C   UNL     1      -2.773  10.551  -3.254  1.00  0.00     0.275 C 
BRANCH  34  35
ATOM     35  O   UNL     1      -1.435  10.647  -2.767  1.00  0.00    -0.458 OA
BRANCH  35  36
ATOM     36  C   UNL     1      -1.164   9.913  -1.658  1.00  0.00     0.338 C 
ATOM     37  O   UNL     1      -1.912   9.166  -1.069  1.00  0.00    -0.246 OA
BRANCH  36  38
ATOM     38  C   UNL     1       0.177  10.258  -1.162  1.00  0.00     0.060 A 
ATOM     39  C   UNL     1       0.595   9.627   0.015  1.00  0.00     0.016 A 
ATOM     40  C   UNL     1       0.855  11.360  -1.691  1.00  0.00     0.016 A 
ATOM     41  C   UNL     1       1.569  10.235   0.779  1.00  0.00     0.010 A 
ATOM     42  C   UNL     1       1.806  11.980  -0.917  1.00  0.00     0.010 A 
ATOM     43  C   UNL     1       2.098  11.449   0.339  1.00  0.00    -0.014 A 
BRANCH  43  44
ATOM     44  C   UNL     1       2.962  12.188   1.234  1.00  0.00     0.031 A 
ATOM     45  C   UNL     1       4.404  11.857   1.125  1.00  0.00     0.074 A 
ATOM     46  C   UNL     1       2.466  13.194   1.980  1.00  0.00     0.049 A 
ATOM     47  N   UNL     1       5.185  11.371   2.033  1.00  0.00    -0.248 NA
ATOM     48  C   UNL     1       5.034  11.973  -0.202  1.00  0.00     0.031 C 
ATOM     49  C   UNL     1       1.133  13.804   1.926  1.00  0.00     0.029 A 
ATOM     50  N   UNL     1       3.113  13.963   2.891  1.00  0.00    -0.354 N 
ATOM     51  C   UNL     1       6.442  11.269   1.441  1.00  0.00     0.074 A 
ATOM     52  C   UNL     1       6.252  11.491   0.035  1.00  0.00     0.031 C 
ATOM     53  C   UNL     1       1.156  14.983   2.592  1.00  0.00     0.029 A 
ATOM     54  C   UNL     1       2.458  15.143   3.214  1.00  0.00     0.049 A 
ATOM     55  H   UNL     1       3.975  13.706   3.290  1.00  0.00     0.167 HD
ATOM     56  C   UNL     1       7.583  11.222   2.182  1.00  0.00     0.037 A 
ATOM     57  C   UNL     1       3.027  16.203   3.843  1.00  0.00     0.037 A 
ATOM     58  C   UNL     1       7.307  10.864   3.546  1.00  0.00     0.049 A 
ATOM     59  C   UNL     1       4.263  15.706   4.512  1.00  0.00     0.074 A 
ATOM     60  C   UNL     1       6.769   9.750   4.163  1.00  0.00     0.029 A 
ATOM     61  N   UNL     1       7.257  11.866   4.484  1.00  0.00    -0.354 N 
ATOM     62  N   UNL     1       4.254  14.869   5.516  1.00  0.00    -0.248 NA
ATOM     63  C   UNL     1       5.500  15.745   3.741  1.00  0.00     0.031 C 
ATOM     64  C   UNL     1       5.970  10.270   5.223  1.00  0.00     0.029 A 
ATOM     65  C   UNL     1       6.120  11.657   5.221  1.00  0.00     0.049 A 
ATOM     66  H   UNL     1       7.911  12.592   4.604  1.00  0.00     0.167 HD
ATOM     67  C   UNL     1       5.309  14.003   5.267  1.00  0.00     0.074 A 
ATOM     68  C   UNL     1       6.068  14.620   4.182  1.00  0.00     0.031 C 
ATOM     69  C   UNL     1       5.314  12.727   5.753  1.00  0.00     0.037 A 
BRANCH  56  70
ATOM     70  C   UNL     1       8.897  11.834   1.762  1.00  0.00     0.064 A 
ATOM     71  C   UNL     1      10.038  11.618   2.561  1.00  0.00     0.173 A 
ATOM     72  C   UNL     1       9.019  12.855   0.794  1.00  0.00     0.173 A 
ATOM     73  F   UNL     1      10.034  10.679   3.519  1.00  0.00    -0.203 F 
ATOM     74  C   UNL     1      11.175  12.422   2.457  1.00  0.00     0.198 A 
ATOM     75  C   UNL     1      10.177  13.616   0.654  1.00  0.00     0.198 A 
ATOM     76  F   UNL     1       7.996  13.236   0.020  1.00  0.00    -0.203 F 
ATOM     77  F   UNL     1      12.181  12.264   3.327  1.00  0.00    -0.200 F 
ATOM     78  C   UNL     1      11.241  13.426   1.509  1.00  0.00     0.200 A 
ATOM     79  F   UNL     1      10.215  14.592  -0.264  1.00  0.00    -0.200 F 
ATOM     80  F   UNL     1      12.302  14.240   1.450  1.00  0.00    -0.200 F 
ENDBRANCH  56  70
BRANCH  57  81
ATOM     81  C   UNL     1       2.806  17.638   3.535  1.00  0.00     0.064 A 
ATOM     82  C   UNL     1       3.158  18.647   4.444  1.00  0.00     0.173 A 
ATOM     83  C   UNL     1       2.483  18.059   2.228  1.00  0.00     0.173 A 
ATOM     84  F   UNL     1       3.538  18.327   5.689  1.00  0.00    -0.203 F 
ATOM     85  C   UNL     1       3.184  19.996   4.068  1.00  0.00     0.198 A 
ATOM     86  C   UNL     1       2.504  19.404   1.856  1.00  0.00     0.198 A 
ATOM     87  F   UNL     1       2.232  17.166   1.260  1.00  0.00    -0.203 F 
ATOM     88  F   UNL     1       3.571  20.930   4.949  1.00  0.00    -0.200 F 
ATOM     89  C   UNL     1       2.863  20.372   2.774  1.00  0.00     0.200 A 
ATOM     90  F   UNL     1       2.233  19.747   0.589  1.00  0.00    -0.200 F 
ATOM     91  F   UNL     1       2.938  21.657   2.399  1.00  0.00    -0.200 F 
ENDBRANCH  57  81
BRANCH  69  92
ATOM     92  C   UNL     1       4.246  12.331   6.728  1.00  0.00     0.064 A 
ATOM     93  C   UNL     1       2.885  12.236   6.390  1.00  0.00     0.173 A 
ATOM     94  C   UNL     1       4.641  11.832   7.975  1.00  0.00     0.173 A 
ATOM     95  F   UNL     1       2.451  12.599   5.177  1.00  0.00    -0.203 F 
ATOM     96  C   UNL     1       1.960  11.686   7.276  1.00  0.00     0.198 A 
ATOM     97  C   UNL     1       3.721  11.254   8.844  1.00  0.00     0.198 A 
ATOM     98  F   UNL     1       5.938  11.844   8.322  1.00  0.00    -0.203 F 
ATOM     99  F   UNL     1       0.668  11.594   6.927  1.00  0.00    -0.200 F 
ATOM    100  C   UNL     1       2.381  11.185   8.496  1.00  0.00     0.200 A 
ATOM    101  F   UNL     1       4.141  10.723  10.000  1.00  0.00    -0.200 F 
ATOM    102  F   UNL     1       1.502  10.603   9.325  1.00  0.00    -0.200 F 
ENDBRANCH  69  92
ENDBRANCH  43  44
ENDBRANCH  36  38
ENDBRANCH  35  36
ENDBRANCH  34  35
ENDBRANCH  33  34
ENDBRANCH  32  33
ENDBRANCH   1  32
TORSDOF 17
