REMARK SMILES COc1ccc(-n2c(SCc3cn(-c4ccc(C(=O)OCCOC(=O)c5ccc(-c6c7nc(c(-c8c(F)c(F)c(F)c(F)c8F)c8ccc([nH]8)c(-c8c(F)c(F)c(F)c(F)c8F)c8nc(c(-c9c(F)c(F)c(F)c(F)c9F)c9ccc6[nH]9)C=C8)C=C7)cc5)cc4)nn3)nc3ccccc3c2=O)cc1
REMARK SMILES IDX 18 1 19 2 17 3 14 4 15 5 90 6 16 7 89 8 13 9 11 10 12 11
REMARK SMILES IDX 92 12 91 13 10 14 9 15 8 16 7 17 100 18 93 19 99 20 101 21
REMARK SMILES IDX 94 22 98 23 95 24 97 25 96 26 6 27 3 28 4 29 103 30 5 31
REMARK SMILES IDX 102 32 2 33 1 34 20 35 21 36 22 37 23 38 24 39 25 40 26 41
REMARK SMILES IDX 27 42 88 43 28 44 87 45 29 46 30 47 31 48 81 49 32 50 86 51
REMARK SMILES IDX 80 52 82 53 33 54 85 55 79 56 78 57 34 59 66 60 46 61 65 62
REMARK SMILES IDX 47 63 50 64 64 65 83 66 48 67 49 68 63 70 84 71 51 72 35 73
REMARK SMILES IDX 36 74 44 75 37 76 38 77 42 78 45 79 39 80 40 81 43 82 41 83
REMARK SMILES IDX 67 84 68 85 76 86 69 87 70 88 74 89 77 90 71 91 72 92 75 93
REMARK SMILES IDX 73 94 52 95 53 96 61 97 54 98 55 99 59 100 62 101 56 102
REMARK SMILES IDX 57 103 60 104 58 105
REMARK H PARENT 82 58 50 69
REMARK Flexibility Score: inf
ROOT
ATOM      1  C   UNL     1      -5.130   0.578  -4.175  1.00  0.00     0.338 C 
ATOM      2  O   UNL     1      -5.704   0.722  -5.246  1.00  0.00    -0.246 OA
ENDROOT
BRANCH   1   3
ATOM      3  C   UNL     1      -3.679   0.823  -3.993  1.00  0.00     0.060 A 
ATOM      4  C   UNL     1      -1.000   1.453  -3.688  1.00  0.00     0.066 A 
ATOM      5  C   UNL     1      -1.646   1.810  -4.871  1.00  0.00     0.029 A 
ATOM      6  C   UNL     1      -1.665   0.786  -2.655  1.00  0.00     0.029 A 
ATOM      7  C   UNL     1      -2.998   1.512  -5.011  1.00  0.00     0.018 A 
ATOM      8  C   UNL     1      -3.007   0.457  -2.818  1.00  0.00     0.018 A 
BRANCH   4   9
ATOM      9  N   UNL     1       0.387   1.588  -3.617  1.00  0.00    -0.220 N 
ATOM     10  C   UNL     1       2.469   0.985  -3.626  1.00  0.00     0.093 A 
ATOM     11  C   UNL     1       1.260   0.732  -4.226  1.00  0.00     0.141 A 
ATOM     12  N   UNL     1       2.308   2.014  -2.734  1.00  0.00    -0.134 NA
ATOM     13  N   UNL     1       1.020   2.329  -2.690  1.00  0.00    -0.062 NA
BRANCH  10  14
ATOM     14  C   UNL     1       3.755   0.274  -3.716  1.00  0.00     0.138 C 
BRANCH  14  15
ATOM     15  S   UNL     1       4.268  -0.174  -5.358  1.00  0.00    -0.081 SA
BRANCH  15  16
ATOM     16  C   UNL     1       3.041  -1.267  -6.047  1.00  0.00     0.176 A 
ATOM     17  N   UNL     1       3.018  -2.555  -5.532  1.00  0.00    -0.255 N 
ATOM     18  C   UNL     1       3.497  -3.585  -6.334  1.00  0.00     0.266 A 
ATOM     19  N   UNL     1       2.849  -1.066  -7.316  1.00  0.00    -0.223 NA
ATOM     20  C   UNL     1       4.166  -3.102  -7.569  1.00  0.00     0.066 A 
ATOM     21  O   UNL     1       3.448  -4.785  -6.088  1.00  0.00    -0.268 OA
ATOM     22  C   UNL     1       3.740  -1.861  -8.067  1.00  0.00     0.079 A 
ATOM     23  C   UNL     1       5.313  -3.718  -8.065  1.00  0.00     0.016 A 
ATOM     24  C   UNL     1       4.433  -1.264  -9.118  1.00  0.00     0.029 A 
ATOM     25  C   UNL     1       6.047  -3.069  -9.061  1.00  0.00     0.001 A 
ATOM     26  C   UNL     1       5.600  -1.857  -9.597  1.00  0.00     0.002 A 
BRANCH  17  27
ATOM     27  C   UNL     1       2.286  -2.828  -4.352  1.00  0.00     0.052 A 
ATOM     28  C   UNL     1       0.981  -2.475  -1.925  1.00  0.00     0.119 A 
ATOM     29  C   UNL     1       0.234  -2.521  -3.099  1.00  0.00     0.048 A 
ATOM     30  C   UNL     1       2.336  -2.804  -1.944  1.00  0.00     0.048 A 
ATOM     31  C   UNL     1       0.891  -2.678  -4.323  1.00  0.00     0.030 A 
ATOM     32  C   UNL     1       2.988  -3.006  -3.161  1.00  0.00     0.030 A 
BRANCH  28  33
ATOM     33  O   UNL     1       0.347  -2.099  -0.771  1.00  0.00    -0.497 OA
ATOM     34  C   UNL     1       0.950  -0.929  -0.201  1.00  0.00     0.278 C 
ENDBRANCH  28  33
ENDBRANCH  17  27
ENDBRANCH  15  16
ENDBRANCH  14  15
ENDBRANCH  10  14
ENDBRANCH   4   9
ENDBRANCH   1   3
BRANCH   1  35
ATOM     35  O   UNL     1      -5.715   0.328  -2.977  1.00  0.00    -0.458 OA
BRANCH  35  36
ATOM     36  C   UNL     1      -7.135   0.525  -2.928  1.00  0.00     0.275 C 
BRANCH  36  37
ATOM     37  C   UNL     1      -7.462   1.957  -2.526  1.00  0.00     0.275 C 
BRANCH  37  38
ATOM     38  O   UNL     1      -7.070   2.893  -3.533  1.00  0.00    -0.458 OA
BRANCH  38  39
ATOM     39  C   UNL     1      -5.874   3.485  -3.321  1.00  0.00     0.338 C 
ATOM     40  O   UNL     1      -4.979   3.112  -2.581  1.00  0.00    -0.246 OA
BRANCH  39  41
ATOM     41  C   UNL     1      -5.880   4.813  -3.937  1.00  0.00     0.060 A 
ATOM     42  C   UNL     1      -4.665   5.498  -4.033  1.00  0.00     0.016 A 
ATOM     43  C   UNL     1      -7.111   5.458  -4.126  1.00  0.00     0.016 A 
ATOM     44  C   UNL     1      -4.691   6.870  -4.184  1.00  0.00     0.010 A 
ATOM     45  C   UNL     1      -7.136   6.825  -4.253  1.00  0.00     0.010 A 
ATOM     46  C   UNL     1      -5.930   7.521  -4.219  1.00  0.00    -0.014 A 
BRANCH  46  47
ATOM     47  C   UNL     1      -5.949   8.965  -4.310  1.00  0.00     0.031 A 
ATOM     48  C   UNL     1      -5.607   9.484  -5.654  1.00  0.00     0.074 A 
ATOM     49  C   UNL     1      -6.401   9.741  -3.308  1.00  0.00     0.049 A 
ATOM     50  N   UNL     1      -4.625  10.255  -5.984  1.00  0.00    -0.248 NA
ATOM     51  C   UNL     1      -6.389   8.982  -6.796  1.00  0.00     0.031 C 
ATOM     52  C   UNL     1      -7.065   9.322  -2.071  1.00  0.00     0.029 A 
ATOM     53  N   UNL     1      -6.465  11.097  -3.247  1.00  0.00    -0.354 N 
ATOM     54  C   UNL     1      -4.759  10.471  -7.352  1.00  0.00     0.074 A 
ATOM     55  C   UNL     1      -5.753   9.544  -7.823  1.00  0.00     0.031 C 
ATOM     56  C   UNL     1      -7.658  10.396  -1.501  1.00  0.00     0.029 A 
ATOM     57  C   UNL     1      -7.315  11.584  -2.266  1.00  0.00     0.049 A 
ATOM     58  H   UNL     1      -5.951  11.683  -3.848  1.00  0.00     0.167 HD
ATOM     59  C   UNL     1      -4.208  11.560  -7.951  1.00  0.00     0.037 A 
ATOM     60  C   UNL     1      -7.763  12.859  -2.160  1.00  0.00     0.037 A 
ATOM     61  C   UNL     1      -3.183  12.150  -7.134  1.00  0.00     0.049 A 
ATOM     62  C   UNL     1      -6.867  13.720  -2.976  1.00  0.00     0.074 A 
ATOM     63  C   UNL     1      -1.976  11.711  -6.627  1.00  0.00     0.029 A 
ATOM     64  N   UNL     1      -3.501  13.278  -6.419  1.00  0.00    -0.354 N 
ATOM     65  N   UNL     1      -5.626  13.980  -2.674  1.00  0.00    -0.248 NA
ATOM     66  C   UNL     1      -7.228  13.946  -4.369  1.00  0.00     0.031 C 
ATOM     67  C   UNL     1      -1.874  12.312  -5.338  1.00  0.00     0.029 A 
ATOM     68  C   UNL     1      -2.999  13.116  -5.154  1.00  0.00     0.049 A 
ATOM     69  H   UNL     1      -3.997  14.059  -6.753  1.00  0.00     0.167 HD
ATOM     70  C   UNL     1      -4.959  13.979  -3.890  1.00  0.00     0.074 A 
ATOM     71  C   UNL     1      -6.008  14.056  -4.902  1.00  0.00     0.031 C 
ATOM     72  C   UNL     1      -3.642  13.627  -3.967  1.00  0.00     0.037 A 
BRANCH  59  73
ATOM     73  C   UNL     1      -4.851  12.299  -9.095  1.00  0.00     0.064 A 
ATOM     74  C   UNL     1      -4.122  13.308  -9.754  1.00  0.00     0.173 A 
ATOM     75  C   UNL     1      -6.238  12.273  -9.363  1.00  0.00     0.173 A 
ATOM     76  F   UNL     1      -2.802  13.438  -9.553  1.00  0.00    -0.203 F 
ATOM     77  C   UNL     1      -4.749  14.265 -10.555  1.00  0.00     0.198 A 
ATOM     78  C   UNL     1      -6.850  13.194 -10.209  1.00  0.00     0.198 A 
ATOM     79  F   UNL     1      -7.072  11.439  -8.730  1.00  0.00    -0.203 F 
ATOM     80  F   UNL     1      -4.037  15.284 -11.052  1.00  0.00    -0.200 F 
ATOM     81  C   UNL     1      -6.113  14.210 -10.777  1.00  0.00     0.200 A 
ATOM     82  F   UNL     1      -8.177  13.136 -10.395  1.00  0.00    -0.200 F 
ATOM     83  F   UNL     1      -6.726  15.163 -11.491  1.00  0.00    -0.200 F 
ENDBRANCH  59  73
BRANCH  60  84
ATOM     84  C   UNL     1      -9.078  13.334  -1.668  1.00  0.00     0.064 A 
ATOM     85  C   UNL     1      -9.281  14.684  -1.337  1.00  0.00     0.173 A 
ATOM     86  C   UNL     1     -10.235  12.536  -1.769  1.00  0.00     0.173 A 
ATOM     87  F   UNL     1      -8.239  15.524  -1.264  1.00  0.00    -0.203 F 
ATOM     88  C   UNL     1     -10.564  15.208  -1.145  1.00  0.00     0.198 A 
ATOM     89  C   UNL     1     -11.513  13.057  -1.567  1.00  0.00     0.198 A 
ATOM     90  F   UNL     1     -10.158  11.256  -2.162  1.00  0.00    -0.203 F 
ATOM     91  F   UNL     1     -10.722  16.516  -0.896  1.00  0.00    -0.200 F 
ATOM     92  C   UNL     1     -11.679  14.396  -1.270  1.00  0.00     0.200 A 
ATOM     93  F   UNL     1     -12.585  12.267  -1.726  1.00  0.00    -0.200 F 
ATOM     94  F   UNL     1     -12.911  14.910  -1.147  1.00  0.00    -0.200 F 
ENDBRANCH  60  84
BRANCH  72  95
ATOM     95  C   UNL     1      -2.870  13.526  -2.683  1.00  0.00     0.064 A 
ATOM     96  C   UNL     1      -3.162  12.607  -1.660  1.00  0.00     0.173 A 
ATOM     97  C   UNL     1      -1.708  14.295  -2.547  1.00  0.00     0.173 A 
ATOM     98  F   UNL     1      -4.196  11.762  -1.764  1.00  0.00    -0.203 F 
ATOM     99  C   UNL     1      -2.352  12.503  -0.531  1.00  0.00     0.198 A 
ATOM    100  C   UNL     1      -0.879  14.161  -1.437  1.00  0.00     0.198 A 
ATOM    101  F   UNL     1      -1.349  15.148  -3.519  1.00  0.00    -0.203 F 
ATOM    102  F   UNL     1      -2.661  11.631   0.441  1.00  0.00    -0.200 F 
ATOM    103  C   UNL     1      -1.207  13.274  -0.424  1.00  0.00     0.200 A 
ATOM    104  F   UNL     1       0.254  14.873  -1.363  1.00  0.00    -0.200 F 
ATOM    105  F   UNL     1      -0.405  13.146   0.642  1.00  0.00    -0.200 F 
ENDBRANCH  72  95
ENDBRANCH  46  47
ENDBRANCH  39  41
ENDBRANCH  38  39
ENDBRANCH  37  38
ENDBRANCH  36  37
ENDBRANCH  35  36
ENDBRANCH   1  35
TORSDOF 17
