REMARK SMILES O=C(CC[NH+]1CCC(n2nccc2NC(=O)c2ccccc2Cl)CC1)OCCOC(=O)c1ccc(-c2c3nc(c(-c4c(F)c(F)c(F)c(F)c4F)c4ccc([nH]4)c(-c4c(F)c(F)c(F)c(F)c4F)c4nc(c(-c5c(F)c(F)c(F)c(F)c5F)c5ccc2[nH]5)C=C4)C=C3)cc1
REMARK SMILES IDX 26 1 2 2 1 3 3 4 4 5 5 6 6 7 25 8 7 10 24 11 8 12 9 13 10 14
REMARK SMILES IDX 13 15 11 16 12 17 14 18 15 19 16 21 17 22 18 23 22 24 19 25
REMARK SMILES IDX 21 26 23 27 20 28 27 29 28 30 29 31 30 32 31 33 32 34 33 35
REMARK SMILES IDX 94 36 34 37 93 38 35 39 36 40 37 41 87 42 38 43 92 44 86 45
REMARK SMILES IDX 88 46 39 47 91 48 85 49 84 50 40 52 72 53 52 54 71 55 53 56
REMARK SMILES IDX 56 57 70 58 89 59 54 60 55 61 69 63 90 64 57 65 41 66 42 67
REMARK SMILES IDX 50 68 43 69 44 70 48 71 51 72 45 73 46 74 49 75 47 76 73 77
REMARK SMILES IDX 74 78 82 79 75 80 76 81 80 82 83 83 77 84 78 85 81 86 79 87
REMARK SMILES IDX 58 88 59 89 67 90 60 91 61 92 65 93 68 94 62 95 63 96 66 97
REMARK SMILES IDX 64 98
REMARK H PARENT 5 9 14 20 88 51 56 62
REMARK Flexibility Score: inf
ROOT
ATOM      1  O   UNL     1       1.757  -0.453  -0.994  1.00  0.00    -0.462 OA
ENDROOT
BRANCH   1   2
ATOM      2  C   UNL     1       1.760  -0.979   0.262  1.00  0.00     0.311 C 
ATOM      3  O   UNL     1       0.968  -1.857   0.582  1.00  0.00    -0.252 OA
BRANCH   2   4
ATOM      4  C   UNL     1       2.670  -0.322   1.277  1.00  0.00     0.184 C 
BRANCH   4   5
ATOM      5  C   UNL     1       3.632  -1.259   2.022  1.00  0.00     0.274 C 
BRANCH   5   6
ATOM      6  N   UNL     1       4.792  -1.794   1.280  1.00  0.00    -0.334 N 
ATOM      7  C   UNL     1       4.462  -2.988   0.518  1.00  0.00     0.264 C 
ATOM      8  C   UNL     1       5.649  -0.784   0.693  1.00  0.00     0.264 C 
ATOM      9  H   UNL     1       5.456  -2.170   1.957  1.00  0.00     0.348 HD
ATOM     10  C   UNL     1       5.606  -3.473  -0.355  1.00  0.00     0.089 C 
ATOM     11  C   UNL     1       6.521  -1.176  -0.498  1.00  0.00     0.089 C 
ATOM     12  C   UNL     1       6.033  -2.367  -1.329  1.00  0.00     0.121 C 
BRANCH  12  13
ATOM     13  N   UNL     1       6.991  -2.853  -2.324  1.00  0.00    -0.246 N 
ATOM     14  N   UNL     1       6.768  -4.076  -2.851  1.00  0.00    -0.179 NA
ATOM     15  C   UNL     1       8.095  -2.235  -2.892  1.00  0.00     0.131 A 
ATOM     16  C   UNL     1       7.897  -4.360  -3.489  1.00  0.00     0.137 A 
ATOM     17  C   UNL     1       8.791  -3.276  -3.470  1.00  0.00     0.069 A 
BRANCH  15  18
ATOM     18  N   UNL     1       8.403  -0.881  -2.849  1.00  0.00    -0.307 N 
ATOM     19  C   UNL     1       9.518  -0.159  -3.364  1.00  0.00     0.258 C 
ATOM     20  H   UNL     1       7.737  -0.325  -2.384  1.00  0.00     0.171 HD
ATOM     21  O   UNL     1       9.570   1.018  -3.049  1.00  0.00    -0.269 OA
BRANCH  19  22
ATOM     22  C   UNL     1      10.551  -0.791  -4.168  1.00  0.00     0.058 A 
ATOM     23  C   UNL     1      11.793  -1.018  -3.566  1.00  0.00     0.015 A 
ATOM     24  C   UNL     1      10.279  -1.225  -5.467  1.00  0.00     0.053 A 
ATOM     25  C   UNL     1      12.743  -1.773  -4.246  1.00  0.00     0.001 A 
ATOM     26  C   UNL     1      11.229  -1.996  -6.132  1.00  0.00     0.021 A 
ATOM     27  Cl  UNL     1       8.775  -0.904  -6.249  1.00  0.00    -0.083 Cl
ATOM     28  C   UNL     1      12.451  -2.282  -5.514  1.00  0.00     0.002 A 
ENDBRANCH  19  22
ENDBRANCH  15  18
ENDBRANCH  12  13
ENDBRANCH   5   6
ENDBRANCH   4   5
ENDBRANCH   2   4
ENDBRANCH   1   2
BRANCH   1  29
ATOM     29  C   UNL     1       2.959  -0.476  -1.783  1.00  0.00     0.274 C 
BRANCH  29  30
ATOM     30  C   UNL     1       3.397   0.881  -2.321  1.00  0.00     0.275 C 
BRANCH  30  31
ATOM     31  O   UNL     1       3.589   1.763  -1.229  1.00  0.00    -0.458 OA
BRANCH  31  32
ATOM     32  C   UNL     1       2.435   2.322  -0.783  1.00  0.00     0.338 C 
ATOM     33  O   UNL     1       1.331   2.230  -1.272  1.00  0.00    -0.246 OA
BRANCH  32  34
ATOM     34  C   UNL     1       2.781   3.192   0.343  1.00  0.00     0.060 A 
ATOM     35  C   UNL     1       1.859   4.200   0.595  1.00  0.00     0.016 A 
ATOM     36  C   UNL     1       4.096   3.215   0.841  1.00  0.00     0.016 A 
ATOM     37  C   UNL     1       2.358   5.393   1.036  1.00  0.00     0.010 A 
ATOM     38  C   UNL     1       4.591   4.404   1.295  1.00  0.00     0.010 A 
ATOM     39  C   UNL     1       3.738   5.497   1.253  1.00  0.00    -0.014 A 
BRANCH  39  40
ATOM     40  C   UNL     1       4.261   6.820   1.456  1.00  0.00     0.031 A 
ATOM     41  C   UNL     1       3.839   7.385   2.748  1.00  0.00     0.074 A 
ATOM     42  C   UNL     1       5.046   7.410   0.539  1.00  0.00     0.049 A 
ATOM     43  N   UNL     1       3.053   8.386   2.950  1.00  0.00    -0.248 NA
ATOM     44  C   UNL     1       4.163   6.606   3.954  1.00  0.00     0.031 C 
ATOM     45  C   UNL     1       5.689   6.831  -0.644  1.00  0.00     0.029 A 
ATOM     46  N   UNL     1       5.503   8.686   0.540  1.00  0.00    -0.354 N 
ATOM     47  C   UNL     1       2.933   8.482   4.330  1.00  0.00     0.074 A 
ATOM     48  C   UNL     1       3.473   7.268   4.881  1.00  0.00     0.031 C 
ATOM     49  C   UNL     1       6.629   7.689  -1.104  1.00  0.00     0.029 A 
ATOM     50  C   UNL     1       6.553   8.918  -0.334  1.00  0.00     0.049 A 
ATOM     51  H   UNL     1       5.120   9.389   1.113  1.00  0.00     0.167 HD
ATOM     52  C   UNL     1       2.655   9.674   4.915  1.00  0.00     0.037 A 
ATOM     53  C   UNL     1       7.350  10.013  -0.305  1.00  0.00     0.037 A 
ATOM     54  C   UNL     1       1.993  10.564   3.995  1.00  0.00     0.049 A 
ATOM     55  C   UNL     1       6.608  11.075   0.434  1.00  0.00     0.074 A 
ATOM     56  C   UNL     1       0.796  10.515   3.307  1.00  0.00     0.029 A 
ATOM     57  N   UNL     1       2.742  11.529   3.365  1.00  0.00    -0.354 N 
ATOM     58  N   UNL     1       5.519  11.636  -0.018  1.00  0.00    -0.248 NA
ATOM     59  C   UNL     1       6.793  11.148   1.878  1.00  0.00     0.031 C 
ATOM     60  C   UNL     1       1.073  11.093   2.033  1.00  0.00     0.029 A 
ATOM     61  C   UNL     1       2.405  11.509   2.035  1.00  0.00     0.049 A 
ATOM     62  H   UNL     1       3.399  12.125   3.790  1.00  0.00     0.167 HD
ATOM     63  C   UNL     1       4.696  11.772   1.093  1.00  0.00     0.074 A 
ATOM     64  C   UNL     1       5.559  11.510   2.242  1.00  0.00     0.031 C 
ATOM     65  C   UNL     1       3.336  11.795   0.968  1.00  0.00     0.037 A 
BRANCH  52  66
ATOM     66  C   UNL     1       3.360  10.146   6.161  1.00  0.00     0.064 A 
ATOM     67  C   UNL     1       2.960  11.361   6.744  1.00  0.00     0.173 A 
ATOM     68  C   UNL     1       4.593   9.625   6.620  1.00  0.00     0.173 A 
ATOM     69  F   UNL     1       1.812  11.949   6.377  1.00  0.00    -0.203 F 
ATOM     70  C   UNL     1       3.780  12.049   7.642  1.00  0.00     0.198 A 
ATOM     71  C   UNL     1       5.381  10.288   7.555  1.00  0.00     0.198 A 
ATOM     72  F   UNL     1       5.147   8.520   6.110  1.00  0.00    -0.203 F 
ATOM     73  F   UNL     1       3.421  13.268   8.066  1.00  0.00    -0.200 F 
ATOM     74  C   UNL     1       4.994  11.517   8.037  1.00  0.00     0.200 A 
ATOM     75  F   UNL     1       6.561   9.760   7.910  1.00  0.00    -0.200 F 
ATOM     76  F   UNL     1       5.813  12.208   8.839  1.00  0.00    -0.200 F 
ENDBRANCH  52  66
BRANCH  53  77
ATOM     77  C   UNL     1       8.820  10.036  -0.493  1.00  0.00     0.064 A 
ATOM     78  C   UNL     1       9.503  11.238  -0.736  1.00  0.00     0.173 A 
ATOM     79  C   UNL     1       9.618   8.916  -0.178  1.00  0.00     0.173 A 
ATOM     80  F   UNL     1       8.816  12.361  -0.991  1.00  0.00    -0.203 F 
ATOM     81  C   UNL     1      10.898  11.316  -0.658  1.00  0.00     0.198 A 
ATOM     82  C   UNL     1      11.009   8.994  -0.108  1.00  0.00     0.198 A 
ATOM     83  F   UNL     1       9.061   7.744   0.158  1.00  0.00    -0.203 F 
ATOM     84  F   UNL     1      11.514  12.492  -0.845  1.00  0.00    -0.200 F 
ATOM     85  C   UNL     1      11.649  10.197  -0.337  1.00  0.00     0.200 A 
ATOM     86  F   UNL     1      11.717   7.910   0.239  1.00  0.00    -0.200 F 
ATOM     87  F   UNL     1      12.980  10.282  -0.210  1.00  0.00    -0.200 F 
ENDBRANCH  53  77
BRANCH  65  88
ATOM     88  C   UNL     1       2.767  11.884  -0.421  1.00  0.00     0.064 A 
ATOM     89  C   UNL     1       2.914  10.875  -1.389  1.00  0.00     0.173 A 
ATOM     90  C   UNL     1       1.915  12.952  -0.730  1.00  0.00     0.173 A 
ATOM     91  F   UNL     1       3.626   9.771  -1.129  1.00  0.00    -0.203 F 
ATOM     92  C   UNL     1       2.273  10.956  -2.625  1.00  0.00     0.198 A 
ATOM     93  C   UNL     1       1.248  13.014  -1.951  1.00  0.00     0.198 A 
ATOM     94  F   UNL     1       1.688  13.913   0.179  1.00  0.00    -0.203 F 
ATOM     95  F   UNL     1       2.438   9.982  -3.533  1.00  0.00    -0.200 F 
ATOM     96  C   UNL     1       1.435  12.022  -2.901  1.00  0.00     0.200 A 
ATOM     97  F   UNL     1       0.397  14.020  -2.193  1.00  0.00    -0.200 F 
ATOM     98  F   UNL     1       0.783  12.080  -4.071  1.00  0.00    -0.200 F 
ENDBRANCH  65  88
ENDBRANCH  39  40
ENDBRANCH  32  34
ENDBRANCH  31  32
ENDBRANCH  30  31
ENDBRANCH  29  30
ENDBRANCH   1  29
TORSDOF 16
