REMARK SMILES O=C(OCCOC(=O)[C@@H]1CCCCC[C@H]1NC(=O)c1cc(Cl)ccc1F)c1ccc(-c2c3nc(c(-c4c(F)c(F)c(F)c(F)c4F)c4ccc([nH]4)c(-c4c(F)c(F)c(F)c(F)c4F)c4nc(c(-c5c(F)c(F)c(F)c(F)c5F)c5ccc2[nH]5)C=C4)C=C3)cc1
REMARK SMILES IDX 5 1 4 2 3 3 2 4 1 5 27 6 28 7 89 8 29 9 88 10 30 11 31 12
REMARK SMILES IDX 32 13 82 14 33 15 87 16 81 17 83 18 34 19 86 20 80 21 79 22
REMARK SMILES IDX 35 24 67 25 47 26 66 27 48 28 51 29 65 30 84 31 49 32 50 33
REMARK SMILES IDX 64 35 85 36 52 37 36 38 37 39 45 40 38 41 39 42 43 43 46 44
REMARK SMILES IDX 40 45 41 46 44 47 42 48 68 49 69 50 77 51 70 52 71 53 75 54
REMARK SMILES IDX 78 55 72 56 73 57 76 58 74 59 53 60 54 61 62 62 55 63 56 64
REMARK SMILES IDX 60 65 63 66 57 67 58 68 61 69 59 70 6 71 7 72 8 73 9 74
REMARK SMILES IDX 10 75 11 76 12 77 15 79 14 80 13 81 16 83 17 84 18 86 19 87
REMARK SMILES IDX 20 88 25 89 21 90 24 91 26 92 22 93 23 94
REMARK H PARENT 83 23 51 34 16 85
REMARK Flexibility Score: 100.00
ROOT
ATOM      1  C   UNL     1       4.007  -1.696  -1.306  1.00  0.00     0.274 C 
ENDROOT
BRANCH   1   2
ATOM      2  C   UNL     1       4.401  -1.631   0.175  1.00  0.00     0.275 C 
BRANCH   2   3
ATOM      3  O   UNL     1       3.487  -0.897   0.996  1.00  0.00    -0.458 OA
BRANCH   3   4
ATOM      4  C   UNL     1       3.420   0.431   1.230  1.00  0.00     0.338 C 
ATOM      5  O   UNL     1       2.570   0.831   2.026  1.00  0.00    -0.246 OA
BRANCH   4   6
ATOM      6  C   UNL     1       4.205   1.470   0.475  1.00  0.00     0.060 A 
ATOM      7  C   UNL     1       5.301   1.267  -0.377  1.00  0.00     0.016 A 
ATOM      8  C   UNL     1       3.671   2.766   0.537  1.00  0.00     0.016 A 
ATOM      9  C   UNL     1       5.739   2.260  -1.268  1.00  0.00     0.010 A 
ATOM     10  C   UNL     1       4.074   3.742  -0.374  1.00  0.00     0.010 A 
ATOM     11  C   UNL     1       5.091   3.488  -1.313  1.00  0.00    -0.014 A 
BRANCH  11  12
ATOM     12  C   UNL     1       5.547   4.596  -2.188  1.00  0.00     0.031 A 
ATOM     13  C   UNL     1       6.056   5.808  -1.470  1.00  0.00     0.074 A 
ATOM     14  C   UNL     1       5.418   4.597  -3.532  1.00  0.00     0.049 A 
ATOM     15  N   UNL     1       6.281   7.013  -1.914  1.00  0.00    -0.248 NA
ATOM     16  C   UNL     1       6.253   5.649  -0.017  1.00  0.00     0.031 C 
ATOM     17  C   UNL     1       4.937   3.494  -4.363  1.00  0.00     0.029 A 
ATOM     18  N   UNL     1       5.649   5.604  -4.442  1.00  0.00    -0.354 N 
ATOM     19  C   UNL     1       6.601   7.746  -0.783  1.00  0.00     0.074 A 
ATOM     20  C   UNL     1       6.365   6.905   0.365  1.00  0.00     0.031 C 
ATOM     21  C   UNL     1       4.854   3.898  -5.644  1.00  0.00     0.029 A 
ATOM     22  C   UNL     1       5.305   5.282  -5.736  1.00  0.00     0.049 A 
ATOM     23  H   UNL     1       6.027   6.477  -4.190  1.00  0.00     0.167 HD
ATOM     24  C   UNL     1       7.145   8.980  -0.704  1.00  0.00     0.037 A 
ATOM     25  C   UNL     1       5.366   6.023  -6.861  1.00  0.00     0.037 A 
ATOM     26  C   UNL     1       7.439   9.774  -1.856  1.00  0.00     0.049 A 
ATOM     27  C   UNL     1       5.943   7.416  -6.769  1.00  0.00     0.074 A 
ATOM     28  C   UNL     1       8.037  11.015  -1.923  1.00  0.00     0.029 A 
ATOM     29  N   UNL     1       7.153   9.383  -3.158  1.00  0.00    -0.354 N 
ATOM     30  N   UNL     1       6.343   8.076  -5.707  1.00  0.00    -0.248 NA
ATOM     31  C   UNL     1       6.116   8.153  -8.029  1.00  0.00     0.031 C 
ATOM     32  C   UNL     1       8.076  11.395  -3.269  1.00  0.00     0.029 A 
ATOM     33  C   UNL     1       7.555  10.365  -4.040  1.00  0.00     0.049 A 
ATOM     34  H   UNL     1       6.727   8.533  -3.412  1.00  0.00     0.167 HD
ATOM     35  C   UNL     1       6.870   9.273  -6.173  1.00  0.00     0.074 A 
ATOM     36  C   UNL     1       6.725   9.257  -7.614  1.00  0.00     0.031 C 
ATOM     37  C   UNL     1       7.437  10.288  -5.476  1.00  0.00     0.037 A 
BRANCH  24  38
ATOM     38  C   UNL     1       7.456   9.474   0.677  1.00  0.00     0.064 A 
ATOM     39  C   UNL     1       8.403   8.823   1.490  1.00  0.00     0.173 A 
ATOM     40  C   UNL     1       6.706  10.511   1.244  1.00  0.00     0.173 A 
ATOM     41  F   UNL     1       9.125   7.801   1.002  1.00  0.00    -0.203 F 
ATOM     42  C   UNL     1       8.514   9.128   2.842  1.00  0.00     0.198 A 
ATOM     43  C   UNL     1       6.858  10.847   2.586  1.00  0.00     0.198 A 
ATOM     44  F   UNL     1       5.793  11.165   0.512  1.00  0.00    -0.203 F 
ATOM     45  F   UNL     1       9.322   8.400   3.627  1.00  0.00    -0.200 F 
ATOM     46  C   UNL     1       7.740  10.139   3.390  1.00  0.00     0.200 A 
ATOM     47  F   UNL     1       6.116  11.829   3.115  1.00  0.00    -0.200 F 
ATOM     48  F   UNL     1       7.824  10.411   4.699  1.00  0.00    -0.200 F 
ENDBRANCH  24  38
BRANCH  25  49
ATOM     49  C   UNL     1       4.958   5.455  -8.177  1.00  0.00     0.064 A 
ATOM     50  C   UNL     1       5.918   5.133  -9.150  1.00  0.00     0.173 A 
ATOM     51  C   UNL     1       3.611   5.252  -8.510  1.00  0.00     0.173 A 
ATOM     52  F   UNL     1       7.220   5.326  -8.892  1.00  0.00    -0.203 F 
ATOM     53  C   UNL     1       5.547   4.660 -10.409  1.00  0.00     0.198 A 
ATOM     54  C   UNL     1       3.241   4.760  -9.764  1.00  0.00     0.198 A 
ATOM     55  F   UNL     1       2.650   5.541  -7.620  1.00  0.00    -0.203 F 
ATOM     56  F   UNL     1       6.486   4.411 -11.332  1.00  0.00    -0.200 F 
ATOM     57  C   UNL     1       4.209   4.473 -10.715  1.00  0.00     0.200 A 
ATOM     58  F   UNL     1       1.946   4.576 -10.056  1.00  0.00    -0.200 F 
ATOM     59  F   UNL     1       3.853   4.027 -11.928  1.00  0.00    -0.200 F 
ENDBRANCH  25  49
BRANCH  37  60
ATOM     60  C   UNL     1       8.023  11.431  -6.247  1.00  0.00     0.064 A 
ATOM     61  C   UNL     1       7.218  12.403  -6.854  1.00  0.00     0.173 A 
ATOM     62  C   UNL     1       9.414  11.623  -6.253  1.00  0.00     0.173 A 
ATOM     63  F   UNL     1       5.885  12.255  -6.883  1.00  0.00    -0.203 F 
ATOM     64  C   UNL     1       7.786  13.533  -7.435  1.00  0.00     0.198 A 
ATOM     65  C   UNL     1       9.974  12.768  -6.805  1.00  0.00     0.198 A 
ATOM     66  F   UNL     1      10.223  10.721  -5.675  1.00  0.00    -0.203 F 
ATOM     67  F   UNL     1       7.001  14.446  -8.024  1.00  0.00    -0.200 F 
ATOM     68  C   UNL     1       9.160  13.723  -7.395  1.00  0.00     0.200 A 
ATOM     69  F   UNL     1      11.299  12.960  -6.744  1.00  0.00    -0.200 F 
ATOM     70  F   UNL     1       9.700  14.831  -7.921  1.00  0.00    -0.200 F 
ENDBRANCH  37  60
ENDBRANCH  11  12
ENDBRANCH   4   6
ENDBRANCH   3   4
ENDBRANCH   2   3
ENDBRANCH   1   2
BRANCH   1  71
ATOM     71  O   UNL     1       3.430  -0.483  -1.845  1.00  0.00    -0.462 OA
BRANCH  71  72
ATOM     72  C   UNL     1       2.070  -0.480  -2.006  1.00  0.00     0.311 C 
ATOM     73  O   UNL     1       1.356  -1.415  -1.665  1.00  0.00    -0.252 OA
BRANCH  72  74
ATOM     74  C   UNL     1       1.561   0.759  -2.778  1.00  0.00     0.121 C 
BRANCH  74  75
ATOM     75  C   UNL     1       2.233   2.032  -2.304  1.00  0.00     0.017 C 
BRANCH  75  76
ATOM     76  C   UNL     1       1.658   3.380  -2.742  1.00  0.00     0.001 C 
BRANCH  76  77
ATOM     77  C   UNL     1       0.636   3.934  -1.749  1.00  0.00     0.000 CG0
ATOM     78  G   UNL     1      -0.659   3.147  -1.615  1.00  0.00     0.000 G0
ENDBRANCH  76  77
ENDBRANCH  75  76
ENDBRANCH  74  75
BRANCH  74  79
ATOM     79  C   UNL     1       0.028   0.862  -2.684  1.00  0.00     0.096 C 
BRANCH  79  80
ATOM     80  C   UNL     1      -0.515   1.633  -1.464  1.00  0.00     0.026 C 
BRANCH  80  81
ATOM     81  C   UNL     1      -0.659   3.147  -1.615  1.00  0.00     0.002 CG0
ATOM     82  G   UNL     1       0.636   3.934  -1.749  1.00  0.00     0.000 G0
ENDBRANCH  80  81
ENDBRANCH  79  80
BRANCH  79  83
ATOM     83  N   UNL     1      -0.527   1.364  -3.953  1.00  0.00    -0.348 N 
ATOM     84  C   UNL     1      -0.820   0.658  -5.090  1.00  0.00     0.254 C 
ATOM     85  H   UNL     1      -0.711   2.330  -3.988  1.00  0.00     0.164 HD
ATOM     86  O   UNL     1      -0.967   1.240  -6.163  1.00  0.00    -0.269 OA
BRANCH  84  87
ATOM     87  C   UNL     1      -0.864  -0.808  -5.041  1.00  0.00     0.077 A 
ATOM     88  C   UNL     1      -0.099  -1.533  -5.957  1.00  0.00     0.037 A 
ATOM     89  C   UNL     1      -1.617  -1.471  -4.072  1.00  0.00     0.136 A 
ATOM     90  C   UNL     1      -0.031  -2.918  -5.830  1.00  0.00     0.042 A 
ATOM     91  C   UNL     1      -1.511  -2.846  -3.919  1.00  0.00     0.041 A 
ATOM     92  F   UNL     1      -2.412  -0.791  -3.232  1.00  0.00    -0.206 F 
ATOM     93  Cl  UNL     1       0.916  -3.829  -6.939  1.00  0.00    -0.084 Cl
ATOM     94  C   UNL     1      -0.709  -3.574  -4.798  1.00  0.00     0.023 A 
ENDBRANCH  84  87
ENDBRANCH  79  83
ENDBRANCH  74  79
ENDBRANCH  72  74
ENDBRANCH  71  72
ENDBRANCH   1  71
TORSDOF 13
