REMARK SMILES O=C(OCCOC(=O)[C@H](F)SCC1CCCC1)c1ccc(-c2c3nc(c(-c4c(F)c(F)c(F)c(F)c4F)c4ccc([nH]4)c(-c4c(F)c(F)c(F)c(F)c4F)c4nc(c(-c5c(F)c(F)c(F)c(F)c5F)c5ccc2[nH]5)C=C4)C=C3)cc1
REMARK SMILES IDX 5 1 4 2 3 3 2 4 1 5 18 6 19 7 80 8 20 9 79 10 21 11 22 12
REMARK SMILES IDX 23 13 73 14 24 15 78 16 72 17 74 18 25 19 77 20 71 21 70 22
REMARK SMILES IDX 26 24 58 25 38 26 57 27 39 28 42 29 56 30 75 31 40 32 41 33
REMARK SMILES IDX 55 35 76 36 43 37 27 38 28 39 36 40 29 41 30 42 34 43 37 44
REMARK SMILES IDX 31 45 32 46 35 47 33 48 59 49 60 50 68 51 61 52 62 53 66 54
REMARK SMILES IDX 69 55 63 56 64 57 67 58 65 59 44 60 45 61 53 62 46 63 47 64
REMARK SMILES IDX 51 65 54 66 48 67 49 68 52 69 50 70 6 71 7 72 8 73 9 74
REMARK SMILES IDX 10 75 11 76 12 77 13 78 14 79 17 80 15 81 16 82
REMARK H PARENT 74 23 42 34
REMARK Flexibility Score: inf
ROOT
ATOM      1  C   UNL     1       3.014  -5.089   0.797  1.00  0.00     0.274 C 
ENDROOT
BRANCH   1   2
ATOM      2  C   UNL     1       2.956  -4.968  -0.736  1.00  0.00     0.275 C 
BRANCH   2   3
ATOM      3  O   UNL     1       3.353  -3.731  -1.360  1.00  0.00    -0.458 OA
BRANCH   3   4
ATOM      4  C   UNL     1       2.648  -2.588  -1.543  1.00  0.00     0.338 C 
ATOM      5  O   UNL     1       3.037  -1.722  -2.321  1.00  0.00    -0.246 OA
BRANCH   4   6
ATOM      6  C   UNL     1       1.472  -2.286  -0.690  1.00  0.00     0.060 A 
ATOM      7  C   UNL     1       0.504  -3.236  -0.373  1.00  0.00     0.016 A 
ATOM      8  C   UNL     1       1.351  -0.983  -0.168  1.00  0.00     0.016 A 
ATOM      9  C   UNL     1      -0.480  -2.949   0.561  1.00  0.00     0.010 A 
ATOM     10  C   UNL     1       0.314  -0.664   0.717  1.00  0.00     0.010 A 
ATOM     11  C   UNL     1      -0.592  -1.661   1.095  1.00  0.00    -0.014 A 
BRANCH  11  12
ATOM     12  C   UNL     1      -1.844  -1.384   1.822  1.00  0.00     0.031 A 
ATOM     13  C   UNL     1      -3.037  -1.057   0.975  1.00  0.00     0.074 A 
ATOM     14  C   UNL     1      -1.958  -1.658   3.133  1.00  0.00     0.049 A 
ATOM     15  N   UNL     1      -4.302  -1.058   1.292  1.00  0.00    -0.248 NA
ATOM     16  C   UNL     1      -2.766  -0.759  -0.444  1.00  0.00     0.031 C 
ATOM     17  C   UNL     1      -0.870  -2.084   4.008  1.00  0.00     0.029 A 
ATOM     18  N   UNL     1      -3.059  -1.659   3.950  1.00  0.00    -0.354 N 
ATOM     19  C   UNL     1      -4.976  -0.824   0.103  1.00  0.00     0.074 A 
ATOM     20  C   UNL     1      -3.989  -0.644  -0.934  1.00  0.00     0.031 C 
ATOM     21  C   UNL     1      -1.351  -2.294   5.245  1.00  0.00     0.029 A 
ATOM     22  C   UNL     1      -2.783  -2.020   5.247  1.00  0.00     0.049 A 
ATOM     23  H   UNL     1      -3.962  -1.424   3.637  1.00  0.00     0.167 HD
ATOM     24  C   UNL     1      -6.311  -0.783  -0.101  1.00  0.00     0.037 A 
ATOM     25  C   UNL     1      -3.606  -2.115   6.308  1.00  0.00     0.037 A 
ATOM     26  C   UNL     1      -7.273  -0.883   0.959  1.00  0.00     0.049 A 
ATOM     27  C   UNL     1      -5.080  -1.892   6.078  1.00  0.00     0.074 A 
ATOM     28  C   UNL     1      -8.645  -0.743   0.898  1.00  0.00     0.029 A 
ATOM     29  N   UNL     1      -6.947  -1.126   2.287  1.00  0.00    -0.354 N 
ATOM     30  N   UNL     1      -5.718  -1.673   4.952  1.00  0.00    -0.248 NA
ATOM     31  C   UNL     1      -5.950  -1.946   7.259  1.00  0.00     0.031 C 
ATOM     32  C   UNL     1      -9.145  -0.846   2.201  1.00  0.00     0.029 A 
ATOM     33  C   UNL     1      -8.092  -1.112   3.063  1.00  0.00     0.049 A 
ATOM     34  H   UNL     1      -6.036  -1.283   2.626  1.00  0.00     0.167 HD
ATOM     35  C   UNL     1      -7.062  -1.585   5.283  1.00  0.00     0.074 A 
ATOM     36  C   UNL     1      -7.149  -1.808   6.712  1.00  0.00     0.031 C 
ATOM     37  C   UNL     1      -8.132  -1.337   4.486  1.00  0.00     0.037 A 
BRANCH  24  38
ATOM     38  C   UNL     1      -6.775  -0.562  -1.507  1.00  0.00     0.064 A 
ATOM     39  C   UNL     1      -6.677  -1.570  -2.479  1.00  0.00     0.173 A 
ATOM     40  C   UNL     1      -7.296   0.679  -1.896  1.00  0.00     0.173 A 
ATOM     41  F   UNL     1      -6.149  -2.764  -2.164  1.00  0.00    -0.203 F 
ATOM     42  C   UNL     1      -7.072  -1.337  -3.794  1.00  0.00     0.198 A 
ATOM     43  C   UNL     1      -7.712   0.901  -3.206  1.00  0.00     0.198 A 
ATOM     44  F   UNL     1      -7.392   1.680  -1.008  1.00  0.00    -0.203 F 
ATOM     45  F   UNL     1      -6.925  -2.298  -4.717  1.00  0.00    -0.200 F 
ATOM     46  C   UNL     1      -7.594  -0.104  -4.154  1.00  0.00     0.200 A 
ATOM     47  F   UNL     1      -8.214   2.094  -3.554  1.00  0.00    -0.200 F 
ATOM     48  F   UNL     1      -7.972   0.120  -5.420  1.00  0.00    -0.200 F 
ENDBRANCH  24  38
BRANCH  25  49
ATOM     49  C   UNL     1      -3.070  -2.394   7.670  1.00  0.00     0.064 A 
ATOM     50  C   UNL     1      -3.440  -3.536   8.395  1.00  0.00     0.173 A 
ATOM     51  C   UNL     1      -2.218  -1.475   8.305  1.00  0.00     0.173 A 
ATOM     52  F   UNL     1      -4.267  -4.439   7.848  1.00  0.00    -0.203 F 
ATOM     53  C   UNL     1      -3.013  -3.727   9.710  1.00  0.00     0.198 A 
ATOM     54  C   UNL     1      -1.765  -1.684   9.607  1.00  0.00     0.198 A 
ATOM     55  F   UNL     1      -1.832  -0.362   7.664  1.00  0.00    -0.203 F 
ATOM     56  F   UNL     1      -3.441  -4.792  10.403  1.00  0.00    -0.200 F 
ATOM     57  C   UNL     1      -2.175  -2.802  10.314  1.00  0.00     0.200 A 
ATOM     58  F   UNL     1      -0.947  -0.791  10.181  1.00  0.00    -0.200 F 
ATOM     59  F   UNL     1      -1.778  -2.980  11.582  1.00  0.00    -0.200 F 
ENDBRANCH  25  49
BRANCH  37  60
ATOM     60  C   UNL     1      -9.478  -1.315   5.148  1.00  0.00     0.064 A 
ATOM     61  C   UNL     1      -9.849  -0.282   6.021  1.00  0.00     0.173 A 
ATOM     62  C   UNL     1     -10.416  -2.323   4.880  1.00  0.00     0.173 A 
ATOM     63  F   UNL     1      -8.981   0.698   6.317  1.00  0.00    -0.203 F 
ATOM     64  C   UNL     1     -11.099  -0.279   6.631  1.00  0.00     0.198 A 
ATOM     65  C   UNL     1     -11.678  -2.296   5.463  1.00  0.00     0.198 A 
ATOM     66  F   UNL     1     -10.111  -3.326   4.044  1.00  0.00    -0.203 F 
ATOM     67  F   UNL     1     -11.411   0.683   7.510  1.00  0.00    -0.200 F 
ATOM     68  C   UNL     1     -12.015  -1.282   6.346  1.00  0.00     0.200 A 
ATOM     69  F   UNL     1     -12.568  -3.255   5.173  1.00  0.00    -0.200 F 
ATOM     70  F   UNL     1     -13.220  -1.274   6.931  1.00  0.00    -0.200 F 
ENDBRANCH  37  60
ENDBRANCH  11  12
ENDBRANCH   4   6
ENDBRANCH   3   4
ENDBRANCH   2   3
ENDBRANCH   1   2
BRANCH   1  71
ATOM     71  O   UNL     1       2.612  -3.971   1.605  1.00  0.00    -0.459 OA
BRANCH  71  72
ATOM     72  C   UNL     1       3.471  -2.908   1.657  1.00  0.00     0.351 C 
ATOM     73  O   UNL     1       4.464  -2.809   0.947  1.00  0.00    -0.248 OA
BRANCH  72  74
ATOM     74  C   UNL     1       3.008  -1.841   2.632  1.00  0.00     0.333 C 
ATOM     75  F   UNL     1       3.513  -0.606   2.343  1.00  0.00    -0.223 F 
BRANCH  74  76
ATOM     76  S   UNL     1       3.353  -2.246   4.358  1.00  0.00    -0.113 SA
BRANCH  76  77
ATOM     77  C   UNL     1       5.116  -1.780   4.474  1.00  0.00     0.076 C 
BRANCH  77  78
ATOM     78  C   UNL     1       6.163  -2.904   4.359  1.00  0.00    -0.001 C 
ATOM     79  C   UNL     1       5.747  -4.301   4.844  1.00  0.00     0.004 C 
ATOM     80  C   UNL     1       6.752  -3.091   2.955  1.00  0.00     0.004 C 
ATOM     81  C   UNL     1       6.413  -5.287   3.898  1.00  0.00     0.000 C 
ATOM     82  C   UNL     1       6.517  -4.545   2.582  1.00  0.00     0.000 C 
ENDBRANCH  77  78
ENDBRANCH  76  77
ENDBRANCH  74  76
ENDBRANCH  72  74
ENDBRANCH  71  72
ENDBRANCH   1  71
TORSDOF 14
