REMARK SMILES CC(=O)Nc1cccc(NC(=O)N[C@H](C(=O)OCCOC(=O)c2ccc(-c3c4nc(c(-c5c(F)c(F)c(F)c(F)c5F)c5ccc([nH]5)c(-c5c(F)c(F)c(F)c(F)c5F)c5nc(c(-c6c(F)c(F)c(F)c(F)c6F)c6ccc3[nH]6)C=C5)C=C4)cc2)C(C)C)c1
REMARK SMILES IDX 18 1 17 2 15 3 16 4 14 5 13 6 10 7 11 8 12 10 9 12 5 13 6 14
REMARK SMILES IDX 89 15 7 16 8 17 4 18 1 19 2 20 3 21 86 23 87 24 88 25 19 26
REMARK SMILES IDX 20 27 21 28 22 29 23 30 24 31 85 32 25 33 84 34 26 35 27 36
REMARK SMILES IDX 28 37 78 38 29 39 83 40 77 41 79 42 30 43 82 44 76 45 75 46
REMARK SMILES IDX 31 48 63 49 43 50 62 51 44 52 47 53 61 54 80 55 45 56 46 57
REMARK SMILES IDX 60 59 81 60 48 61 32 62 33 63 41 64 34 65 35 66 39 67 42 68
REMARK SMILES IDX 36 69 37 70 40 71 38 72 64 73 65 74 73 75 66 76 67 77 71 78
REMARK SMILES IDX 74 79 68 80 69 81 72 82 70 83 49 84 50 85 58 86 51 87 52 88
REMARK SMILES IDX 56 89 59 90 53 91 54 92 57 93 55 94
REMARK H PARENT 10 9 13 11 4 22 79 47 47 58
REMARK Flexibility Score: inf
ROOT
ATOM      1  C   UNL     1       8.460   4.026   4.591  1.00  0.00     0.274 C 
ENDROOT
BRANCH   1   2
ATOM      2  O   UNL     1       7.205   4.752   4.497  1.00  0.00    -0.461 OA
BRANCH   2   3
ATOM      3  C   UNL     1       6.355   4.193   3.604  1.00  0.00     0.329 C 
ATOM      4  O   UNL     1       6.595   3.110   3.069  1.00  0.00    -0.250 OA
BRANCH   3   5
ATOM      5  C   UNL     1       5.022   4.931   3.328  1.00  0.00     0.196 C 
BRANCH   5   6
ATOM      6  N   UNL     1       4.829   6.399   3.544  1.00  0.00    -0.324 N 
ATOM      7  N   UNL     1       3.098   7.618   2.343  1.00  0.00    -0.308 N 
ATOM      8  C   UNL     1       3.631   7.057   3.474  1.00  0.00     0.319 C 
ATOM      9  H   UNL     1       2.332   8.192   2.573  1.00  0.00     0.171 HD
ATOM     10  O   UNL     1       3.108   7.382   4.547  1.00  0.00    -0.248 OA
ATOM     11  H   UNL     1       5.628   6.935   3.754  1.00  0.00     0.166 HD
BRANCH   7  12
ATOM     12  C   UNL     1       3.318   7.620   0.940  1.00  0.00     0.044 A 
ATOM     13  C   UNL     1       3.710   8.905  -1.103  1.00  0.00     0.043 A 
ATOM     14  C   UNL     1       3.727   7.723  -1.851  1.00  0.00     0.026 A 
ATOM     15  C   UNL     1       3.517   8.840   0.289  1.00  0.00     0.052 A 
ATOM     16  C   UNL     1       3.377   6.531  -1.250  1.00  0.00     0.004 A 
ATOM     17  C   UNL     1       3.066   6.526   0.109  1.00  0.00     0.026 A 
BRANCH  13  18
ATOM     18  N   UNL     1       3.791  10.083  -1.862  1.00  0.00    -0.326 N 
ATOM     19  C   UNL     1       4.278  11.819  -0.151  1.00  0.00     0.114 C 
ATOM     20  C   UNL     1       3.896  11.398  -1.537  1.00  0.00     0.221 C 
ATOM     21  O   UNL     1       3.701  12.237  -2.419  1.00  0.00    -0.275 OA
ATOM     22  H   UNL     1       3.768   9.923  -2.833  1.00  0.00     0.169 HD
ENDBRANCH  13  18
ENDBRANCH   7  12
ENDBRANCH   5   6
BRANCH   5  23
ATOM     23  C   UNL     1       4.620   4.569   1.898  1.00  0.00     0.017 C 
ATOM     24  C   UNL     1       5.715   4.347   0.841  1.00  0.00     0.010 C 
ATOM     25  C   UNL     1       3.419   3.625   1.839  1.00  0.00     0.010 C 
ENDBRANCH   5  23
ENDBRANCH   3   5
ENDBRANCH   2   3
ENDBRANCH   1   2
BRANCH   1  26
ATOM     26  C   UNL     1       8.456   2.796   5.529  1.00  0.00     0.275 C 
BRANCH  26  27
ATOM     27  O   UNL     1       7.713   1.651   5.051  1.00  0.00    -0.458 OA
BRANCH  27  28
ATOM     28  C   UNL     1       6.409   1.617   5.402  1.00  0.00     0.338 C 
ATOM     29  O   UNL     1       5.809   2.459   6.069  1.00  0.00    -0.246 OA
BRANCH  28  30
ATOM     30  C   UNL     1       5.702   0.490   4.763  1.00  0.00     0.060 A 
ATOM     31  C   UNL     1       4.737   0.787   3.799  1.00  0.00     0.016 A 
ATOM     32  C   UNL     1       5.849  -0.819   5.201  1.00  0.00     0.016 A 
ATOM     33  C   UNL     1       3.877  -0.184   3.292  1.00  0.00     0.010 A 
ATOM     34  C   UNL     1       5.000  -1.808   4.686  1.00  0.00     0.010 A 
ATOM     35  C   UNL     1       3.990  -1.494   3.752  1.00  0.00    -0.014 A 
BRANCH  35  36
ATOM     36  C   UNL     1       3.012  -2.538   3.359  1.00  0.00     0.031 A 
ATOM     37  C   UNL     1       2.054  -3.053   4.393  1.00  0.00     0.074 A 
ATOM     38  C   UNL     1       3.018  -3.067   2.123  1.00  0.00     0.049 A 
ATOM     39  N   UNL     1       1.344  -4.151   4.399  1.00  0.00    -0.248 NA
ATOM     40  C   UNL     1       1.889  -2.218   5.594  1.00  0.00     0.031 C 
ATOM     41  C   UNL     1       3.827  -2.596   1.001  1.00  0.00     0.029 A 
ATOM     42  N   UNL     1       2.345  -4.155   1.621  1.00  0.00    -0.354 N 
ATOM     43  C   UNL     1       0.692  -4.168   5.625  1.00  0.00     0.074 A 
ATOM     44  C   UNL     1       1.085  -2.968   6.333  1.00  0.00     0.031 C 
ATOM     45  C   UNL     1       3.639  -3.417  -0.046  1.00  0.00     0.029 A 
ATOM     46  C   UNL     1       2.750  -4.504   0.355  1.00  0.00     0.049 A 
ATOM     47  H   UNL     1       1.644  -4.635   2.118  1.00  0.00     0.167 HD
ATOM     48  C   UNL     1      -0.148  -5.111   6.113  1.00  0.00     0.037 A 
ATOM     49  C   UNL     1       2.484  -5.609  -0.369  1.00  0.00     0.037 A 
ATOM     50  C   UNL     1      -0.545  -6.289   5.386  1.00  0.00     0.049 A 
ATOM     51  C   UNL     1       1.608  -6.683   0.221  1.00  0.00     0.074 A 
ATOM     52  C   UNL     1      -1.393  -7.307   5.784  1.00  0.00     0.029 A 
ATOM     53  N   UNL     1      -0.119  -6.602   4.103  1.00  0.00    -0.354 N 
ATOM     54  N   UNL     1       1.024  -6.726   1.394  1.00  0.00    -0.248 NA
ATOM     55  C   UNL     1       1.361  -7.870  -0.612  1.00  0.00     0.031 C 
ATOM     56  C   UNL     1      -1.446  -8.258   4.760  1.00  0.00     0.029 A 
ATOM     57  C   UNL     1      -0.676  -7.804   3.700  1.00  0.00     0.049 A 
ATOM     58  H   UNL     1       0.489  -6.050   3.559  1.00  0.00     0.167 HD
ATOM     59  C   UNL     1       0.312  -7.918   1.426  1.00  0.00     0.074 A 
ATOM     60  C   UNL     1       0.537  -8.572   0.154  1.00  0.00     0.031 C 
ATOM     61  C   UNL     1      -0.461  -8.425   2.417  1.00  0.00     0.037 A 
BRANCH  48  62
ATOM     62  C   UNL     1      -0.656  -4.933   7.514  1.00  0.00     0.064 A 
ATOM     63  C   UNL     1      -1.590  -3.942   7.846  1.00  0.00     0.173 A 
ATOM     64  C   UNL     1      -0.219  -5.791   8.537  1.00  0.00     0.173 A 
ATOM     65  F   UNL     1      -2.029  -3.087   6.910  1.00  0.00    -0.203 F 
ATOM     66  C   UNL     1      -2.048  -3.798   9.154  1.00  0.00     0.198 A 
ATOM     67  C   UNL     1      -0.702  -5.664   9.836  1.00  0.00     0.198 A 
ATOM     68  F   UNL     1       0.671  -6.759   8.273  1.00  0.00    -0.203 F 
ATOM     69  F   UNL     1      -2.904  -2.813   9.458  1.00  0.00    -0.200 F 
ATOM     70  C   UNL     1      -1.609  -4.663  10.146  1.00  0.00     0.200 A 
ATOM     71  F   UNL     1      -0.286  -6.510  10.789  1.00  0.00    -0.200 F 
ATOM     72  F   UNL     1      -2.057  -4.528  11.402  1.00  0.00    -0.200 F 
ENDBRANCH  48  62
BRANCH  49  73
ATOM     73  C   UNL     1       3.085  -5.775  -1.718  1.00  0.00     0.064 A 
ATOM     74  C   UNL     1       2.285  -5.743  -2.869  1.00  0.00     0.173 A 
ATOM     75  C   UNL     1       4.463  -5.978  -1.888  1.00  0.00     0.173 A 
ATOM     76  F   UNL     1       0.959  -5.580  -2.757  1.00  0.00    -0.203 F 
ATOM     77  C   UNL     1       2.838  -5.923  -4.135  1.00  0.00     0.198 A 
ATOM     78  C   UNL     1       5.019  -6.128  -3.157  1.00  0.00     0.198 A 
ATOM     79  F   UNL     1       5.273  -6.020  -0.820  1.00  0.00    -0.203 F 
ATOM     80  F   UNL     1       2.043  -5.934  -5.214  1.00  0.00    -0.200 F 
ATOM     81  C   UNL     1       4.205  -6.108  -4.279  1.00  0.00     0.200 A 
ATOM     82  F   UNL     1       6.341  -6.293  -3.292  1.00  0.00    -0.200 F 
ATOM     83  F   UNL     1       4.736  -6.275  -5.498  1.00  0.00    -0.200 F 
ENDBRANCH  49  73
BRANCH  61  84
ATOM     84  C   UNL     1      -1.183  -9.713   2.145  1.00  0.00     0.064 A 
ATOM     85  C   UNL     1      -0.513 -10.944   2.103  1.00  0.00     0.173 A 
ATOM     86  C   UNL     1      -2.577  -9.715   1.980  1.00  0.00     0.173 A 
ATOM     87  F   UNL     1       0.820 -10.992   2.240  1.00  0.00    -0.203 F 
ATOM     88  C   UNL     1      -1.212 -12.129   1.888  1.00  0.00     0.198 A 
ATOM     89  C   UNL     1      -3.275 -10.905   1.794  1.00  0.00     0.198 A 
ATOM     90  F   UNL     1      -3.264  -8.564   2.018  1.00  0.00    -0.203 F 
ATOM     91  F   UNL     1      -0.548 -13.291   1.812  1.00  0.00    -0.200 F 
ATOM     92  C   UNL     1      -2.591 -12.110   1.743  1.00  0.00     0.200 A 
ATOM     93  F   UNL     1      -4.609 -10.885   1.669  1.00  0.00    -0.200 F 
ATOM     94  F   UNL     1      -3.262 -13.253   1.548  1.00  0.00    -0.200 F 
ENDBRANCH  61  84
ENDBRANCH  35  36
ENDBRANCH  28  30
ENDBRANCH  27  28
ENDBRANCH  26  27
ENDBRANCH   1  26
TORSDOF 15
