REMARK SMILES C[C@@H](CC(=O)OCCOC(=O)c1ccc(-c2c3nc(c(-c4c(F)c(F)c(F)c(F)c4F)c4ccc([nH]4)c(-c4c(F)c(F)c(F)c(F)c4F)c4nc(c(-c5c(F)c(F)c(F)c(F)c5F)c5ccc2[nH]5)C=C4)C=C3)cc1)NC(=O)[C@@H]1CCCN(C(N)=O)C1
REMARK SMILES IDX 7 1 6 2 4 3 5 4 3 5 2 6 1 7 75 8 76 9 77 11 78 12 79 13
REMARK SMILES IDX 86 14 80 15 82 16 81 17 83 18 84 19 85 20 8 23 9 24 10 25
REMARK SMILES IDX 11 26 12 27 13 28 74 29 14 30 73 31 15 32 16 33 17 34 67 35
REMARK SMILES IDX 18 36 72 37 66 38 68 39 19 40 71 41 65 42 64 43 20 45 52 46
REMARK SMILES IDX 32 47 51 48 33 49 36 50 50 51 69 52 34 53 35 54 49 56 70 57
REMARK SMILES IDX 37 58 21 59 22 60 30 61 23 62 24 63 28 64 31 65 25 66 26 67
REMARK SMILES IDX 29 68 27 69 53 70 54 71 62 72 55 73 56 74 60 75 63 76 57 77
REMARK SMILES IDX 58 78 61 79 59 80 38 81 39 82 47 83 40 84 41 85 45 86 48 87
REMARK SMILES IDX 42 88 43 89 46 90 44 91
REMARK H PARENT 75 10 84 21 84 22 68 44 36 55
REMARK Flexibility Score: inf
ROOT
ATOM      1  C   UNL     1       0.208  -4.252  -0.642  1.00  0.00     0.274 C 
ENDROOT
BRANCH   1   2
ATOM      2  O   UNL     1       0.690  -2.898  -0.772  1.00  0.00    -0.462 OA
BRANCH   2   3
ATOM      3  C   UNL     1       1.022  -2.493  -2.020  1.00  0.00     0.307 C 
ATOM      4  O   UNL     1       0.967  -3.207  -3.017  1.00  0.00    -0.252 OA
BRANCH   3   5
ATOM      5  C   UNL     1       1.585  -1.092  -2.081  1.00  0.00     0.147 C 
BRANCH   5   6
ATOM      6  C   UNL     1       1.012   0.031  -1.204  1.00  0.00     0.090 C 
ATOM      7  C   UNL     1       1.185  -0.221   0.292  1.00  0.00     0.031 C 
BRANCH   6   8
ATOM      8  N   UNL     1      -0.375   0.389  -1.489  1.00  0.00    -0.353 N 
ATOM      9  C   UNL     1      -1.026   1.582  -1.612  1.00  0.00     0.225 C 
ATOM     10  H   UNL     1      -0.961  -0.392  -1.619  1.00  0.00     0.163 HD
ATOM     11  O   UNL     1      -2.245   1.519  -1.801  1.00  0.00    -0.275 OA
BRANCH   9  12
ATOM     12  C   UNL     1      -0.290   2.932  -1.670  1.00  0.00     0.098 C 
ATOM     13  C   UNL     1       0.703   3.246  -0.552  1.00  0.00     0.017 C 
ATOM     14  C   UNL     1      -1.315   4.098  -1.754  1.00  0.00     0.134 C 
ATOM     15  C   UNL     1      -0.016   3.448   0.769  1.00  0.00     0.022 C 
ATOM     16  N   UNL     1      -1.861   4.559  -0.459  1.00  0.00    -0.324 N 
ATOM     17  C   UNL     1      -0.937   4.647   0.668  1.00  0.00     0.121 C 
BRANCH  16  18
ATOM     18  C   UNL     1      -3.069   5.204  -0.285  1.00  0.00     0.314 C 
ATOM     19  N   UNL     1      -3.870   5.335  -1.362  1.00  0.00    -0.351 N 
ATOM     20  O   UNL     1      -3.440   5.702   0.775  1.00  0.00    -0.249 OA
ATOM     21  H   UNL     1      -3.600   4.947  -2.226  1.00  0.00     0.161 HD
ATOM     22  H   UNL     1      -4.724   5.819  -1.284  1.00  0.00     0.161 HD
ENDBRANCH  16  18
ENDBRANCH   9  12
ENDBRANCH   6   8
ENDBRANCH   5   6
ENDBRANCH   3   5
ENDBRANCH   2   3
ENDBRANCH   1   2
BRANCH   1  23
ATOM     23  C   UNL     1      -1.323  -4.330  -0.629  1.00  0.00     0.275 C 
BRANCH  23  24
ATOM     24  O   UNL     1      -1.897  -4.006  -1.909  1.00  0.00    -0.458 OA
BRANCH  24  25
ATOM     25  C   UNL     1      -2.162  -2.691  -2.090  1.00  0.00     0.338 C 
ATOM     26  O   UNL     1      -1.989  -1.796  -1.280  1.00  0.00    -0.246 OA
BRANCH  25  27
ATOM     27  C   UNL     1      -2.515  -2.431  -3.492  1.00  0.00     0.060 A 
ATOM     28  C   UNL     1      -1.663  -1.613  -4.240  1.00  0.00     0.016 A 
ATOM     29  C   UNL     1      -3.693  -2.925  -4.050  1.00  0.00     0.016 A 
ATOM     30  C   UNL     1      -1.971  -1.296  -5.557  1.00  0.00     0.010 A 
ATOM     31  C   UNL     1      -4.005  -2.605  -5.375  1.00  0.00     0.010 A 
ATOM     32  C   UNL     1      -3.143  -1.793  -6.135  1.00  0.00    -0.014 A 
BRANCH  32  33
ATOM     33  C   UNL     1      -3.469  -1.450  -7.536  1.00  0.00     0.031 A 
ATOM     34  C   UNL     1      -4.535  -0.442  -7.832  1.00  0.00     0.074 A 
ATOM     35  C   UNL     1      -2.789  -2.038  -8.537  1.00  0.00     0.049 A 
ATOM     36  N   UNL     1      -5.048  -0.096  -8.985  1.00  0.00    -0.248 NA
ATOM     37  C   UNL     1      -5.096   0.277  -6.678  1.00  0.00     0.031 C 
ATOM     38  C   UNL     1      -1.685  -2.982  -8.364  1.00  0.00     0.029 A 
ATOM     39  N   UNL     1      -2.930  -1.930  -9.896  1.00  0.00    -0.354 N 
ATOM     40  C   UNL     1      -6.009   0.863  -8.696  1.00  0.00     0.074 A 
ATOM     41  C   UNL     1      -6.012   1.040  -7.258  1.00  0.00     0.031 C 
ATOM     42  C   UNL     1      -1.250  -3.371  -9.574  1.00  0.00     0.029 A 
ATOM     43  C   UNL     1      -2.080  -2.746 -10.600  1.00  0.00     0.049 A 
ATOM     44  H   UNL     1      -3.578  -1.326 -10.326  1.00  0.00     0.167 HD
ATOM     45  C   UNL     1      -6.814   1.529  -9.557  1.00  0.00     0.037 A 
ATOM     46  C   UNL     1      -2.007  -2.990 -11.921  1.00  0.00     0.037 A 
ATOM     47  C   UNL     1      -6.796   1.352 -10.986  1.00  0.00     0.049 A 
ATOM     48  C   UNL     1      -2.969  -2.299 -12.848  1.00  0.00     0.074 A 
ATOM     49  C   UNL     1      -7.572   1.980 -11.945  1.00  0.00     0.029 A 
ATOM     50  N   UNL     1      -5.954   0.480 -11.662  1.00  0.00    -0.354 N 
ATOM     51  N   UNL     1      -3.897  -1.417 -12.568  1.00  0.00    -0.248 NA
ATOM     52  C   UNL     1      -2.883  -2.650 -14.272  1.00  0.00     0.031 C 
ATOM     53  C   UNL     1      -7.224   1.460 -13.198  1.00  0.00     0.029 A 
ATOM     54  C   UNL     1      -6.204   0.539 -13.023  1.00  0.00     0.049 A 
ATOM     55  H   UNL     1      -5.278  -0.095 -11.236  1.00  0.00     0.167 HD
ATOM     56  C   UNL     1      -4.493  -1.094 -13.778  1.00  0.00     0.074 A 
ATOM     57  C   UNL     1      -3.813  -1.866 -14.798  1.00  0.00     0.031 C 
ATOM     58  C   UNL     1      -5.514  -0.236 -14.022  1.00  0.00     0.037 A 
BRANCH  45  59
ATOM     59  C   UNL     1      -7.808   2.485  -8.971  1.00  0.00     0.064 A 
ATOM     60  C   UNL     1      -7.419   3.727  -8.451  1.00  0.00     0.173 A 
ATOM     61  C   UNL     1      -9.174   2.163  -8.956  1.00  0.00     0.173 A 
ATOM     62  F   UNL     1      -6.123   4.074  -8.429  1.00  0.00    -0.203 F 
ATOM     63  C   UNL     1      -8.359   4.605  -7.916  1.00  0.00     0.198 A 
ATOM     64  C   UNL     1     -10.114   3.053  -8.443  1.00  0.00     0.198 A 
ATOM     65  F   UNL     1      -9.597   0.988  -9.445  1.00  0.00    -0.203 F 
ATOM     66  F   UNL     1      -7.961   5.770  -7.388  1.00  0.00    -0.200 F 
ATOM     67  C   UNL     1      -9.706   4.270  -7.918  1.00  0.00     0.200 A 
ATOM     68  F   UNL     1     -11.415   2.731  -8.454  1.00  0.00    -0.200 F 
ATOM     69  F   UNL     1     -10.609   5.118  -7.408  1.00  0.00    -0.200 F 
ENDBRANCH  45  59
BRANCH  46  70
ATOM     70  C   UNL     1      -1.006  -3.956 -12.440  1.00  0.00     0.064 A 
ATOM     71  C   UNL     1       0.087  -3.521 -13.199  1.00  0.00     0.173 A 
ATOM     72  C   UNL     1      -1.122  -5.330 -12.184  1.00  0.00     0.173 A 
ATOM     73  F   UNL     1       0.224  -2.220 -13.491  1.00  0.00    -0.203 F 
ATOM     74  C   UNL     1       1.025  -4.427 -13.691  1.00  0.00     0.198 A 
ATOM     75  C   UNL     1      -0.170  -6.232 -12.654  1.00  0.00     0.198 A 
ATOM     76  F   UNL     1      -2.153  -5.796 -11.465  1.00  0.00    -0.203 F 
ATOM     77  F   UNL     1       2.043  -3.990 -14.445  1.00  0.00    -0.200 F 
ATOM     78  C   UNL     1       0.900  -5.780 -13.412  1.00  0.00     0.200 A 
ATOM     79  F   UNL     1      -0.289  -7.537 -12.374  1.00  0.00    -0.200 F 
ATOM     80  F   UNL     1       1.806  -6.649 -13.880  1.00  0.00    -0.200 F 
ENDBRANCH  46  70
BRANCH  58  81
ATOM     81  C   UNL     1      -5.936  -0.068 -15.451  1.00  0.00     0.064 A 
ATOM     82  C   UNL     1      -6.681  -1.053 -16.116  1.00  0.00     0.173 A 
ATOM     83  C   UNL     1      -5.621   1.106 -16.151  1.00  0.00     0.173 A 
ATOM     84  F   UNL     1      -6.989  -2.200 -15.493  1.00  0.00    -0.203 F 
ATOM     85  C   UNL     1      -7.079  -0.876 -17.438  1.00  0.00     0.198 A 
ATOM     86  C   UNL     1      -6.042   1.290 -17.465  1.00  0.00     0.198 A 
ATOM     87  F   UNL     1      -4.913   2.078 -15.556  1.00  0.00    -0.203 F 
ATOM     88  F   UNL     1      -7.755  -1.846 -18.068  1.00  0.00    -0.200 F 
ATOM     89  C   UNL     1      -6.765   0.297 -18.109  1.00  0.00     0.200 A 
ATOM     90  F   UNL     1      -5.745   2.427 -18.109  1.00  0.00    -0.200 F 
ATOM     91  F   UNL     1      -7.153   0.468 -19.380  1.00  0.00    -0.200 F 
ENDBRANCH  58  81
ENDBRANCH  32  33
ENDBRANCH  25  27
ENDBRANCH  24  25
ENDBRANCH  23  24
ENDBRANCH   1  23
TORSDOF 15
