REMARK SMILES O=C(C[C@H]1C[C@H]2CC[C@@H](C1)[N@H+]2[C@@H]1CCCSC1)OCCOC(=O)c1ccc(-c2c3nc(c(-c4c(F)c(F)c(F)c(F)c4F)c4ccc([nH]4)c(-c4c(F)c(F)c(F)c(F)c4F)c4nc(c(-c5c(F)c(F)c(F)c(F)c5F)c5ccc2[nH]5)C=C4)C=C3)cc1
REMARK SMILES IDX 19 1 18 2 2 3 1 4 3 5 4 6 5 7 10 8 6 9 9 10 7 11 11 12 8 13
REMARK SMILES IDX 12 15 13 16 17 17 14 18 16 19 15 20 20 21 21 22 22 23 23 24
REMARK SMILES IDX 24 25 25 26 86 27 26 28 85 29 27 30 28 31 29 32 79 33 30 34
REMARK SMILES IDX 84 35 78 36 80 37 31 38 83 39 77 40 76 41 32 43 64 44 44 45
REMARK SMILES IDX 63 46 45 47 48 48 62 49 81 50 46 51 47 52 61 54 82 55 49 56
REMARK SMILES IDX 33 57 34 58 42 59 35 60 36 61 40 62 43 63 37 64 38 65 41 66
REMARK SMILES IDX 39 67 65 68 66 69 74 70 67 71 68 72 72 73 75 74 69 75 70 76
REMARK SMILES IDX 73 77 71 78 50 79 51 80 59 81 52 82 53 83 57 84 60 85 54 86
REMARK SMILES IDX 55 87 58 88 56 89
REMARK H PARENT 11 14 80 42 48 53
REMARK Flexibility Score: inf
ROOT
ATOM      1  C   UNL     1       2.423   2.204  -0.095  1.00  0.00     0.274 C 
ENDROOT
BRANCH   1   2
ATOM      2  O   UNL     1       1.403   1.197  -0.223  1.00  0.00    -0.462 OA
BRANCH   2   3
ATOM      3  C   UNL     1       1.771  -0.010  -0.740  1.00  0.00     0.306 C 
ATOM      4  O   UNL     1       1.206  -0.502  -1.708  1.00  0.00    -0.252 OA
BRANCH   3   5
ATOM      5  C   UNL     1       2.784  -0.766   0.091  1.00  0.00     0.126 C 
BRANCH   5   6
ATOM      6  C   UNL     1       3.881  -1.524  -0.662  1.00  0.00     0.012 C 
ATOM      7  C   UNL     1       4.654  -0.640  -1.668  1.00  0.00     0.069 C 
ATOM      8  C   UNL     1       4.778  -2.243   0.386  1.00  0.00     0.069 C 
ATOM      9  C   UNL     1       6.063  -0.224  -1.233  1.00  0.00     0.185 C 
ATOM     10  C   UNL     1       6.210  -1.701   0.538  1.00  0.00     0.185 C 
ATOM     11  C   UNL     1       6.041   0.657   0.025  1.00  0.00     0.071 C 
ATOM     12  N   UNL     1       6.834  -1.345  -0.725  1.00  0.00    -0.327 N 
ATOM     13  C   UNL     1       6.211  -0.315   1.193  1.00  0.00     0.071 C 
ATOM     14  H   UNL     1       7.804  -1.083  -0.553  1.00  0.00     0.348 HD
BRANCH  12  15
ATOM     15  C   UNL     1       7.397  -2.343  -1.635  1.00  0.00     0.194 C 
ATOM     16  C   UNL     1       6.454  -3.477  -2.074  1.00  0.00     0.067 C 
ATOM     17  C   UNL     1       8.693  -2.881  -0.976  1.00  0.00     0.134 C 
ATOM     18  C   UNL     1       7.101  -4.521  -2.981  1.00  0.00     0.017 C 
ATOM     19  S   UNL     1       9.602  -4.101  -1.973  1.00  0.00    -0.156 SA
ATOM     20  C   UNL     1       8.238  -5.248  -2.283  1.00  0.00     0.070 C 
ENDBRANCH  12  15
ENDBRANCH   5   6
ENDBRANCH   3   5
ENDBRANCH   2   3
ENDBRANCH   1   2
BRANCH   1  21
ATOM     21  C   UNL     1       2.735   2.611   1.355  1.00  0.00     0.275 C 
BRANCH  21  22
ATOM     22  O   UNL     1       2.778   1.479   2.241  1.00  0.00    -0.458 OA
BRANCH  22  23
ATOM     23  C   UNL     1       1.572   1.167   2.773  1.00  0.00     0.338 C 
ATOM     24  O   UNL     1       0.576   1.874   2.765  1.00  0.00    -0.246 OA
BRANCH  23  25
ATOM     25  C   UNL     1       1.539  -0.240   3.232  1.00  0.00     0.060 A 
ATOM     26  C   UNL     1       0.337  -0.928   3.029  1.00  0.00     0.016 A 
ATOM     27  C   UNL     1       2.605  -0.871   3.883  1.00  0.00     0.016 A 
ATOM     28  C   UNL     1       0.149  -2.189   3.583  1.00  0.00     0.010 A 
ATOM     29  C   UNL     1       2.419  -2.149   4.435  1.00  0.00     0.010 A 
ATOM     30  C   UNL     1       1.161  -2.775   4.356  1.00  0.00    -0.014 A 
BRANCH  30  31
ATOM     31  C   UNL     1       0.753  -3.860   5.288  1.00  0.00     0.031 A 
ATOM     32  C   UNL     1       0.389  -3.476   6.701  1.00  0.00     0.074 A 
ATOM     33  C   UNL     1       0.540  -5.119   4.865  1.00  0.00     0.049 A 
ATOM     34  N   UNL     1      -0.236  -4.168   7.619  1.00  0.00    -0.248 NA
ATOM     35  C   UNL     1       0.769  -2.120   7.130  1.00  0.00     0.031 C 
ATOM     36  C   UNL     1       0.825  -5.625   3.526  1.00  0.00     0.029 A 
ATOM     37  N   UNL     1      -0.003  -6.196   5.526  1.00  0.00    -0.354 N 
ATOM     38  C   UNL     1      -0.349  -3.323   8.716  1.00  0.00     0.074 A 
ATOM     39  C   UNL     1       0.326  -2.091   8.377  1.00  0.00     0.031 C 
ATOM     40  C   UNL     1       0.434  -6.911   3.454  1.00  0.00     0.029 A 
ATOM     41  C   UNL     1      -0.135  -7.314   4.740  1.00  0.00     0.049 A 
ATOM     42  H   UNL     1      -0.272  -6.167   6.472  1.00  0.00     0.167 HD
ATOM     43  C   UNL     1      -0.983  -3.535   9.893  1.00  0.00     0.037 A 
ATOM     44  C   UNL     1      -0.678  -8.516   5.021  1.00  0.00     0.037 A 
ATOM     45  C   UNL     1      -1.652  -4.755  10.248  1.00  0.00     0.049 A 
ATOM     46  C   UNL     1      -1.327  -8.750   6.364  1.00  0.00     0.074 A 
ATOM     47  C   UNL     1      -2.332  -5.060  11.413  1.00  0.00     0.029 A 
ATOM     48  N   UNL     1      -1.714  -5.879   9.440  1.00  0.00    -0.354 N 
ATOM     49  N   UNL     1      -1.499  -7.917   7.362  1.00  0.00    -0.248 NA
ATOM     50  C   UNL     1      -1.880 -10.091   6.606  1.00  0.00     0.031 C 
ATOM     51  C   UNL     1      -2.765  -6.388  11.330  1.00  0.00     0.029 A 
ATOM     52  C   UNL     1      -2.399  -6.890  10.092  1.00  0.00     0.049 A 
ATOM     53  H   UNL     1      -1.327  -5.949   8.537  1.00  0.00     0.167 HD
ATOM     54  C   UNL     1      -2.219  -8.616   8.325  1.00  0.00     0.074 A 
ATOM     55  C   UNL     1      -2.454  -9.940   7.792  1.00  0.00     0.031 C 
ATOM     56  C   UNL     1      -2.651  -8.196   9.540  1.00  0.00     0.037 A 
BRANCH  43  57
ATOM     57  C   UNL     1      -0.968  -2.413  10.888  1.00  0.00     0.064 A 
ATOM     58  C   UNL     1      -1.731  -1.251  10.696  1.00  0.00     0.173 A 
ATOM     59  C   UNL     1      -0.186  -2.504  12.049  1.00  0.00     0.173 A 
ATOM     60  F   UNL     1      -2.478  -1.109   9.591  1.00  0.00    -0.203 F 
ATOM     61  C   UNL     1      -1.690  -0.209  11.618  1.00  0.00     0.198 A 
ATOM     62  C   UNL     1      -0.169  -1.471  12.981  1.00  0.00     0.198 A 
ATOM     63  F   UNL     1       0.562  -3.594  12.276  1.00  0.00    -0.203 F 
ATOM     64  F   UNL     1      -2.386   0.913  11.389  1.00  0.00    -0.200 F 
ATOM     65  C   UNL     1      -0.914  -0.322  12.761  1.00  0.00     0.200 A 
ATOM     66  F   UNL     1       0.576  -1.584  14.089  1.00  0.00    -0.200 F 
ATOM     67  F   UNL     1      -0.875   0.682  13.648  1.00  0.00    -0.200 F 
ENDBRANCH  43  57
BRANCH  44  68
ATOM     68  C   UNL     1      -0.676  -9.595   3.998  1.00  0.00     0.064 A 
ATOM     69  C   UNL     1      -1.868 -10.031   3.401  1.00  0.00     0.173 A 
ATOM     70  C   UNL     1       0.511 -10.246   3.637  1.00  0.00     0.173 A 
ATOM     71  F   UNL     1      -3.034  -9.459   3.736  1.00  0.00    -0.203 F 
ATOM     72  C   UNL     1      -1.874 -11.096   2.502  1.00  0.00     0.198 A 
ATOM     73  C   UNL     1       0.507 -11.293   2.719  1.00  0.00     0.198 A 
ATOM     74  F   UNL     1       1.677  -9.869   4.184  1.00  0.00    -0.203 F 
ATOM     75  F   UNL     1      -3.033 -11.531   1.989  1.00  0.00    -0.200 F 
ATOM     76  C   UNL     1      -0.686 -11.724   2.159  1.00  0.00     0.200 A 
ATOM     77  F   UNL     1       1.658 -11.894   2.387  1.00  0.00    -0.200 F 
ATOM     78  F   UNL     1      -0.693 -12.754   1.302  1.00  0.00    -0.200 F 
ENDBRANCH  44  68
BRANCH  56  79
ATOM     79  C   UNL     1      -3.472  -9.151  10.358  1.00  0.00     0.064 A 
ATOM     80  C   UNL     1      -2.906 -10.281  10.966  1.00  0.00     0.173 A 
ATOM     81  C   UNL     1      -4.837  -8.904  10.574  1.00  0.00     0.173 A 
ATOM     82  F   UNL     1      -1.608 -10.567  10.784  1.00  0.00    -0.203 F 
ATOM     83  C   UNL     1      -3.683 -11.144  11.736  1.00  0.00     0.198 A 
ATOM     84  C   UNL     1      -5.603  -9.752  11.369  1.00  0.00     0.198 A 
ATOM     85  F   UNL     1      -5.425  -7.831  10.024  1.00  0.00    -0.203 F 
ATOM     86  F   UNL     1      -3.131 -12.243  12.269  1.00  0.00    -0.200 F 
ATOM     87  C   UNL     1      -5.028 -10.875  11.943  1.00  0.00     0.200 A 
ATOM     88  F   UNL     1      -6.899  -9.482  11.579  1.00  0.00    -0.200 F 
ATOM     89  F   UNL     1      -5.771 -11.703  12.690  1.00  0.00    -0.200 F 
ENDBRANCH  56  79
ENDBRANCH  30  31
ENDBRANCH  23  25
ENDBRANCH  22  23
ENDBRANCH  21  22
ENDBRANCH   1  21
TORSDOF 13
