REMARK SMILES Cc1cc(OCC(=O)OCCOC(=O)c2ccc(-c3c4nc(c(-c5c(F)c(F)c(F)c(F)c5F)c5ccc([nH]5)c(-c5c(F)c(F)c(F)c(F)c5F)c5nc(c(-c6c(F)c(F)c(F)c(F)c6F)c6ccc3[nH]6)C=C5)C=C4)cc2)ccc1NC(=O)c1ccc(N2C(=O)[C@@H]3[C@H](C2=O)[C@H]2C=C[C@@H]3C2)cc1
REMARK SMILES IDX 9 1 7 2 8 3 6 4 5 5 4 6 1 7 2 8 3 9 80 10 79 11 78 12 81 13
REMARK SMILES IDX 82 14 83 16 84 17 85 18 101 19 86 20 100 21 87 22 88 23
REMARK SMILES IDX 89 24 93 25 90 26 91 27 92 28 94 29 98 30 95 31 97 32 99 33
REMARK SMILES IDX 96 34 10 35 11 36 12 37 13 38 14 39 15 40 16 41 77 42 17 43
REMARK SMILES IDX 76 44 18 45 19 46 20 47 70 48 21 49 75 50 69 51 71 52 22 53
REMARK SMILES IDX 74 54 68 55 67 56 23 58 55 59 35 60 54 61 36 62 39 63 53 64
REMARK SMILES IDX 72 65 37 66 38 67 52 69 73 70 40 71 24 72 25 73 33 74 26 75
REMARK SMILES IDX 27 76 31 77 34 78 28 79 29 80 32 81 30 82 56 83 57 84 65 85
REMARK SMILES IDX 58 86 59 87 63 88 66 89 60 90 61 91 64 92 62 93 41 94 42 95
REMARK SMILES IDX 50 96 43 97 44 98 48 99 51 100 45 101 46 102 49 103 47 104
REMARK H PARENT 81 15 71 57 39 68
REMARK Flexibility Score: inf
ROOT
ATOM      1  O   UNL     1      -1.621  -1.562   2.001  1.00  0.00    -0.460 OA
ENDROOT
BRANCH   1   2
ATOM      2  C   UNL     1      -1.814  -2.859   1.657  1.00  0.00     0.344 C 
ATOM      3  O   UNL     1      -2.117  -3.747   2.444  1.00  0.00    -0.248 OA
BRANCH   2   4
ATOM      4  C   UNL     1      -1.710  -3.037   0.142  1.00  0.00     0.351 C 
BRANCH   4   5
ATOM      5  O   UNL     1      -0.495  -2.640  -0.479  1.00  0.00    -0.482 OA
BRANCH   5   6
ATOM      6  C   UNL     1      -0.186  -1.310  -0.426  1.00  0.00     0.120 A 
ATOM      7  C   UNL     1       3.071   0.504   0.165  1.00  0.00     0.047 C 
ATOM      8  C   UNL     1       1.597   0.319  -0.072  1.00  0.00    -0.024 A 
ATOM      9  C   UNL     1       1.150  -1.013  -0.185  1.00  0.00     0.052 A 
ATOM     10  C   UNL     1       0.670   1.376  -0.185  1.00  0.00     0.044 A 
ATOM     11  C   UNL     1      -0.660   1.066  -0.473  1.00  0.00     0.030 A 
ATOM     12  C   UNL     1      -1.082  -0.266  -0.617  1.00  0.00     0.048 A 
BRANCH  10  13
ATOM     13  N   UNL     1       1.119   2.713  -0.158  1.00  0.00    -0.322 N 
ATOM     14  C   UNL     1       0.449   3.906   0.011  1.00  0.00     0.255 C 
ATOM     15  H   UNL     1       2.091   2.812  -0.282  1.00  0.00     0.170 HD
ATOM     16  O   UNL     1       0.904   4.931  -0.499  1.00  0.00    -0.269 OA
BRANCH  14  17
ATOM     17  C   UNL     1      -0.700   4.046   0.940  1.00  0.00     0.040 A 
ATOM     18  C   UNL     1      -1.763   4.887   0.608  1.00  0.00     0.016 A 
ATOM     19  C   UNL     1      -0.651   3.513   2.225  1.00  0.00     0.016 A 
ATOM     20  C   UNL     1      -2.820   5.099   1.513  1.00  0.00     0.027 A 
ATOM     21  C   UNL     1      -1.692   3.765   3.140  1.00  0.00     0.027 A 
ATOM     22  C   UNL     1      -2.829   4.515   2.790  1.00  0.00     0.052 A 
BRANCH  22  23
ATOM     23  N   UNL     1      -3.948   4.659   3.683  1.00  0.00    -0.250 N 
ATOM     24  C   UNL     1      -5.223   5.008   3.269  1.00  0.00     0.238 C 
ATOM     25  C   UNL     1      -3.915   4.369   5.034  1.00  0.00     0.238 C 
ATOM     26  O   UNL     1      -5.640   5.220   2.138  1.00  0.00    -0.274 OA
ATOM     27  C   UNL     1      -6.153   5.021   4.451  1.00  0.00     0.099 C 
ATOM     28  C   UNL     1      -5.263   4.646   5.643  1.00  0.00     0.099 C 
ATOM     29  O   UNL     1      -2.997   3.924   5.712  1.00  0.00    -0.274 OA
ATOM     30  C   UNL     1      -7.211   3.891   4.438  1.00  0.00     0.025 C 
ATOM     31  C   UNL     1      -5.932   3.372   6.201  1.00  0.00     0.025 C 
ATOM     32  C   UNL     1      -8.061   4.070   5.679  1.00  0.00    -0.027 C 
ATOM     33  C   UNL     1      -6.404   2.678   4.917  1.00  0.00     0.017 C 
ATOM     34  C   UNL     1      -7.291   3.767   6.737  1.00  0.00    -0.027 C 
ENDBRANCH  22  23
ENDBRANCH  14  17
ENDBRANCH  10  13
ENDBRANCH   5   6
ENDBRANCH   4   5
ENDBRANCH   2   4
ENDBRANCH   1   2
BRANCH   1  35
ATOM     35  C   UNL     1      -1.885  -1.221   3.356  1.00  0.00     0.274 C 
BRANCH  35  36
ATOM     36  C   UNL     1      -1.962   0.301   3.487  1.00  0.00     0.275 C 
BRANCH  36  37
ATOM     37  O   UNL     1      -2.326   1.075   2.298  1.00  0.00    -0.458 OA
BRANCH  37  38
ATOM     38  C   UNL     1      -3.407   1.077   1.482  1.00  0.00     0.338 C 
ATOM     39  O   UNL     1      -3.570   1.865   0.572  1.00  0.00    -0.246 OA
BRANCH  38  40
ATOM     40  C   UNL     1      -4.363   0.000   1.675  1.00  0.00     0.060 A 
ATOM     41  C   UNL     1      -4.734  -0.815   0.592  1.00  0.00     0.016 A 
ATOM     42  C   UNL     1      -4.819  -0.226   2.959  1.00  0.00     0.016 A 
ATOM     43  C   UNL     1      -5.493  -1.955   0.826  1.00  0.00     0.010 A 
ATOM     44  C   UNL     1      -5.452  -1.407   3.209  1.00  0.00     0.010 A 
ATOM     45  C   UNL     1      -5.826  -2.249   2.144  1.00  0.00    -0.014 A 
BRANCH  45  46
ATOM     46  C   UNL     1      -6.772  -3.267   2.561  1.00  0.00     0.031 A 
ATOM     47  C   UNL     1      -6.412  -4.674   2.786  1.00  0.00     0.074 A 
ATOM     48  C   UNL     1      -7.895  -2.709   3.059  1.00  0.00     0.049 A 
ATOM     49  N   UNL     1      -7.260  -5.570   3.152  1.00  0.00    -0.248 NA
ATOM     50  C   UNL     1      -5.071  -5.208   2.614  1.00  0.00     0.031 C 
ATOM     51  C   UNL     1      -8.831  -3.218   4.043  1.00  0.00     0.029 A 
ATOM     52  N   UNL     1      -8.435  -1.471   2.672  1.00  0.00    -0.354 N 
ATOM     53  C   UNL     1      -6.561  -6.688   3.552  1.00  0.00     0.074 A 
ATOM     54  C   UNL     1      -5.205  -6.441   3.121  1.00  0.00     0.031 C 
ATOM     55  C   UNL     1      -9.954  -2.479   3.980  1.00  0.00     0.029 A 
ATOM     56  C   UNL     1      -9.821  -1.609   2.817  1.00  0.00     0.049 A 
ATOM     57  H   UNL     1      -7.944  -0.675   2.364  1.00  0.00     0.167 HD
ATOM     58  C   UNL     1      -7.213  -7.610   4.322  1.00  0.00     0.037 A 
ATOM     59  C   UNL     1     -10.582  -1.696   1.684  1.00  0.00     0.037 A 
ATOM     60  C   UNL     1      -8.630  -7.256   4.435  1.00  0.00     0.049 A 
ATOM     61  C   UNL     1     -11.288  -3.023   1.603  1.00  0.00     0.074 A 
ATOM     62  C   UNL     1      -9.352  -6.597   5.418  1.00  0.00     0.029 A 
ATOM     63  N   UNL     1      -9.427  -7.254   3.292  1.00  0.00    -0.354 N 
ATOM     64  N   UNL     1     -10.800  -4.142   2.066  1.00  0.00    -0.248 NA
ATOM     65  C   UNL     1     -12.630  -3.166   1.056  1.00  0.00     0.031 C 
ATOM     66  C   UNL     1     -10.556  -6.127   4.834  1.00  0.00     0.029 A 
ATOM     67  C   UNL     1     -10.577  -6.519   3.506  1.00  0.00     0.049 A 
ATOM     68  H   UNL     1      -9.202  -7.712   2.450  1.00  0.00     0.167 HD
ATOM     69  C   UNL     1     -11.755  -5.116   1.966  1.00  0.00     0.074 A 
ATOM     70  C   UNL     1     -12.871  -4.464   1.302  1.00  0.00     0.031 C 
ATOM     71  C   UNL     1     -11.584  -6.374   2.467  1.00  0.00     0.037 A 
BRANCH  58  72
ATOM     72  C   UNL     1      -6.551  -8.656   5.202  1.00  0.00     0.064 A 
ATOM     73  C   UNL     1      -7.205  -9.138   6.363  1.00  0.00     0.173 A 
ATOM     74  C   UNL     1      -5.264  -9.190   5.003  1.00  0.00     0.173 A 
ATOM     75  F   UNL     1      -8.469  -8.801   6.648  1.00  0.00    -0.203 F 
ATOM     76  C   UNL     1      -6.588  -9.988   7.287  1.00  0.00     0.198 A 
ATOM     77  C   UNL     1      -4.632 -10.014   5.946  1.00  0.00     0.198 A 
ATOM     78  F   UNL     1      -4.592  -8.985   3.866  1.00  0.00    -0.203 F 
ATOM     79  F   UNL     1      -7.262 -10.390   8.374  1.00  0.00    -0.200 F 
ATOM     80  C   UNL     1      -5.289 -10.402   7.094  1.00  0.00     0.200 A 
ATOM     81  F   UNL     1      -3.377 -10.432   5.726  1.00  0.00    -0.200 F 
ATOM     82  F   UNL     1      -4.685 -11.191   7.994  1.00  0.00    -0.200 F 
ENDBRANCH  58  72
BRANCH  59  83
ATOM     83  C   UNL     1      -9.990  -0.959   0.522  1.00  0.00     0.064 A 
ATOM     84  C   UNL     1      -9.781   0.432   0.649  1.00  0.00     0.173 A 
ATOM     85  C   UNL     1      -9.297  -1.615  -0.505  1.00  0.00     0.173 A 
ATOM     86  F   UNL     1     -10.399   1.115   1.627  1.00  0.00    -0.203 F 
ATOM     87  C   UNL     1      -8.847   1.108  -0.138  1.00  0.00     0.198 A 
ATOM     88  C   UNL     1      -8.371  -0.930  -1.300  1.00  0.00     0.198 A 
ATOM     89  F   UNL     1      -9.435  -2.936  -0.682  1.00  0.00    -0.203 F 
ATOM     90  F   UNL     1      -8.597   2.405   0.089  1.00  0.00    -0.200 F 
ATOM     91  C   UNL     1      -8.126   0.420  -1.097  1.00  0.00     0.200 A 
ATOM     92  F   UNL     1      -7.653  -1.599  -2.216  1.00  0.00    -0.200 F 
ATOM     93  F   UNL     1      -7.172   1.046  -1.802  1.00  0.00    -0.200 F 
ENDBRANCH  59  83
BRANCH  71  94
ATOM     94  C   UNL     1     -12.438  -7.564   2.117  1.00  0.00     0.064 A 
ATOM     95  C   UNL     1     -13.110  -7.695   0.891  1.00  0.00     0.173 A 
ATOM     96  C   UNL     1     -12.464  -8.706   2.954  1.00  0.00     0.173 A 
ATOM     97  F   UNL     1     -13.053  -6.735  -0.042  1.00  0.00    -0.203 F 
ATOM     98  C   UNL     1     -13.815  -8.851   0.555  1.00  0.00     0.198 A 
ATOM     99  C   UNL     1     -13.114  -9.882   2.587  1.00  0.00     0.198 A 
ATOM    100  F   UNL     1     -11.830  -8.729   4.135  1.00  0.00    -0.203 F 
ATOM    101  F   UNL     1     -14.478  -8.906  -0.608  1.00  0.00    -0.200 F 
ATOM    102  C   UNL     1     -13.806  -9.948   1.396  1.00  0.00     0.200 A 
ATOM    103  F   UNL     1     -13.046 -10.956   3.385  1.00  0.00    -0.200 F 
ATOM    104  F   UNL     1     -14.440 -11.074   1.046  1.00  0.00    -0.200 F 
ENDBRANCH  71  94
ENDBRANCH  45  46
ENDBRANCH  38  40
ENDBRANCH  37  38
ENDBRANCH  36  37
ENDBRANCH  35  36
ENDBRANCH   1  35
TORSDOF 16
