REMARK SMILES CCOc1ccc(N2/C(=[NH+]/C(=O)CCCC(=O)OCCOC(=O)c3ccc(-c4c5nc(c(-c6c(F)c(F)c(F)c(F)c6F)c6ccc([nH]6)c(-c6c(F)c(F)c(F)c(F)c6F)c6nc(c(-c7c(F)c(F)c(F)c(F)c7F)c7ccc4[nH]7)C=C6)C=C5)cc3)S[C@H]3CS(=O)(=O)C[C@H]32)cc1
REMARK SMILES IDX 16 1 17 2 15 3 14 4 13 5 11 6 8 7 9 8 94 9 10 10 87 11 88 12
REMARK SMILES IDX 93 13 89 15 90 16 12 17 91 18 92 19 7 20 4 21 5 22 96 23
REMARK SMILES IDX 6 24 95 25 3 26 2 27 1 28 18 29 19 30 20 31 21 32 22 33
REMARK SMILES IDX 23 34 24 35 25 36 86 37 26 38 85 39 27 40 28 41 29 42 79 43
REMARK SMILES IDX 30 44 84 45 78 46 80 47 31 48 83 49 77 50 76 51 32 53 64 54
REMARK SMILES IDX 44 55 63 56 45 57 48 58 62 59 81 60 46 61 47 62 61 64 82 65
REMARK SMILES IDX 49 66 33 67 34 68 42 69 35 70 36 71 40 72 43 73 37 74 38 75
REMARK SMILES IDX 41 76 39 77 65 78 66 79 74 80 67 81 68 82 72 83 75 84 69 85
REMARK SMILES IDX 70 86 73 87 71 88 50 89 51 90 59 91 52 92 53 93 57 94 60 95
REMARK SMILES IDX 54 96 55 97 58 98 56 99
REMARK H PARENT 10 14 80 52 48 63
REMARK Flexibility Score: inf
ROOT
ATOM      1  C   UNL     1       4.699   0.367   5.530  1.00  0.00     0.305 C 
ATOM      2  O   UNL     1       3.558   0.046   5.216  1.00  0.00    -0.252 OA
ENDROOT
BRANCH   1   3
ATOM      3  C   UNL     1       5.536   1.293   4.668  1.00  0.00     0.123 C 
BRANCH   3   4
ATOM      4  C   UNL     1       6.739   1.992   5.294  1.00  0.00     0.024 C 
BRANCH   4   5
ATOM      5  C   UNL     1       7.870   1.127   5.846  1.00  0.00     0.128 C 
BRANCH   5   6
ATOM      6  C   UNL     1       8.434   0.048   4.937  1.00  0.00     0.307 C 
ATOM      7  N   UNL     1       6.900  -2.294   2.617  1.00  0.00    -0.217 N 
ATOM      8  C   UNL     1       7.746  -1.375   3.215  1.00  0.00     0.319 C 
ATOM      9  C   UNL     1       7.587  -3.462   2.068  1.00  0.00     0.212 C 
ATOM     10  N   UNL     1       7.490  -0.715   4.294  1.00  0.00    -0.204 N 
ATOM     11  S   UNL     1       9.272  -1.367   2.334  1.00  0.00    -0.029 SA
ATOM     12  C   UNL     1       8.911  -2.934   1.474  1.00  0.00     0.120 C 
ATOM     13  C   UNL     1       7.913  -4.441   3.188  1.00  0.00     0.188 C 
ATOM     14  H   UNL     1       6.582  -0.760   4.671  1.00  0.00     0.316 HD
ATOM     15  C   UNL     1      10.037  -3.936   1.669  1.00  0.00     0.156 C 
ATOM     16  S   UNL     1       9.364  -5.271   2.627  1.00  0.00     0.155 S 
ATOM     17  O   UNL     1       9.638  -0.197   4.978  1.00  0.00    -0.247 OA
ATOM     18  O   UNL     1      10.220  -5.538   3.760  1.00  0.00    -0.229 OA
ATOM     19  O   UNL     1       8.943  -6.309   1.708  1.00  0.00    -0.229 OA
BRANCH   7  20
ATOM     20  C   UNL     1       5.530  -2.127   2.370  1.00  0.00     0.128 A 
ATOM     21  C   UNL     1       2.778  -1.763   1.814  1.00  0.00     0.119 A 
ATOM     22  C   UNL     1       3.238  -2.983   2.297  1.00  0.00     0.051 A 
ATOM     23  C   UNL     1       3.671  -0.717   1.622  1.00  0.00     0.051 A 
ATOM     24  C   UNL     1       4.604  -3.166   2.560  1.00  0.00     0.055 A 
ATOM     25  C   UNL     1       5.034  -0.907   1.883  1.00  0.00     0.055 A 
BRANCH  21  26
ATOM     26  O   UNL     1       1.432  -1.580   1.664  1.00  0.00    -0.494 OA
BRANCH  26  27
ATOM     27  C   UNL     1       1.014  -1.536   0.295  1.00  0.00     0.226 C 
ATOM     28  C   UNL     1       0.860  -0.102  -0.187  1.00  0.00     0.049 C 
ENDBRANCH  26  27
ENDBRANCH  21  26
ENDBRANCH   7  20
ENDBRANCH   5   6
ENDBRANCH   4   5
ENDBRANCH   3   4
ENDBRANCH   1   3
BRANCH   1  29
ATOM     29  O   UNL     1       5.327  -0.034   6.660  1.00  0.00    -0.462 OA
BRANCH  29  30
ATOM     30  C   UNL     1       4.584  -0.875   7.563  1.00  0.00     0.274 C 
BRANCH  30  31
ATOM     31  C   UNL     1       4.089  -0.077   8.772  1.00  0.00     0.275 C 
BRANCH  31  32
ATOM     32  O   UNL     1       3.103   0.900   8.384  1.00  0.00    -0.458 OA
BRANCH  32  33
ATOM     33  C   UNL     1       3.590   2.138   8.144  1.00  0.00     0.338 C 
ATOM     34  O   UNL     1       4.736   2.531   8.287  1.00  0.00    -0.246 OA
BRANCH  33  35
ATOM     35  C   UNL     1       2.554   2.955   7.496  1.00  0.00     0.060 A 
ATOM     36  C   UNL     1       2.720   3.238   6.142  1.00  0.00     0.016 A 
ATOM     37  C   UNL     1       1.500   3.521   8.208  1.00  0.00     0.016 A 
ATOM     38  C   UNL     1       1.850   4.090   5.481  1.00  0.00     0.010 A 
ATOM     39  C   UNL     1       0.610   4.374   7.542  1.00  0.00     0.010 A 
ATOM     40  C   UNL     1       0.789   4.672   6.178  1.00  0.00    -0.014 A 
BRANCH  40  41
ATOM     41  C   UNL     1      -0.077   5.642   5.470  1.00  0.00     0.031 A 
ATOM     42  C   UNL     1       0.026   7.104   5.792  1.00  0.00     0.074 A 
ATOM     43  C   UNL     1      -0.900   5.216   4.494  1.00  0.00     0.049 A 
ATOM     44  N   UNL     1      -0.681   8.106   5.335  1.00  0.00    -0.248 NA
ATOM     45  C   UNL     1       1.067   7.491   6.757  1.00  0.00     0.031 C 
ATOM     46  C   UNL     1      -1.032   3.829   4.048  1.00  0.00     0.029 A 
ATOM     47  N   UNL     1      -1.772   5.910   3.695  1.00  0.00    -0.354 N 
ATOM     48  C   UNL     1      -0.194   9.235   5.979  1.00  0.00     0.074 A 
ATOM     49  C   UNL     1       0.862   8.796   6.866  1.00  0.00     0.031 C 
ATOM     50  C   UNL     1      -1.925   3.774   3.048  1.00  0.00     0.029 A 
ATOM     51  C   UNL     1      -2.467   5.111   2.821  1.00  0.00     0.049 A 
ATOM     52  H   UNL     1      -1.889   6.886   3.743  1.00  0.00     0.167 HD
ATOM     53  C   UNL     1      -0.596  10.521   5.838  1.00  0.00     0.037 A 
ATOM     54  C   UNL     1      -3.451   5.420   1.957  1.00  0.00     0.037 A 
ATOM     55  C   UNL     1      -1.631  10.951   4.934  1.00  0.00     0.049 A 
ATOM     56  C   UNL     1      -3.912   6.848   1.857  1.00  0.00     0.074 A 
ATOM     57  C   UNL     1      -2.112  12.229   4.715  1.00  0.00     0.029 A 
ATOM     58  N   UNL     1      -2.341  10.107   4.091  1.00  0.00    -0.354 N 
ATOM     59  N   UNL     1      -3.469   7.907   2.491  1.00  0.00    -0.248 NA
ATOM     60  C   UNL     1      -5.014   7.123   0.926  1.00  0.00     0.031 C 
ATOM     61  C   UNL     1      -3.141  12.154   3.770  1.00  0.00     0.029 A 
ATOM     62  C   UNL     1      -3.269  10.835   3.363  1.00  0.00     0.049 A 
ATOM     63  H   UNL     1      -2.207   9.134   4.021  1.00  0.00     0.167 HD
ATOM     64  C   UNL     1      -4.224   8.975   2.025  1.00  0.00     0.074 A 
ATOM     65  C   UNL     1      -5.138   8.438   1.038  1.00  0.00     0.031 C 
ATOM     66  C   UNL     1      -4.169  10.281   2.385  1.00  0.00     0.037 A 
BRANCH  53  67
ATOM     67  C   UNL     1       0.061  11.549   6.711  1.00  0.00     0.064 A 
ATOM     68  C   UNL     1       1.384  11.965   6.502  1.00  0.00     0.173 A 
ATOM     69  C   UNL     1      -0.654  12.141   7.763  1.00  0.00     0.173 A 
ATOM     70  F   UNL     1       2.117  11.417   5.521  1.00  0.00    -0.203 F 
ATOM     71  C   UNL     1       1.974  12.918   7.329  1.00  0.00     0.198 A 
ATOM     72  C   UNL     1      -0.070  13.114   8.571  1.00  0.00     0.198 A 
ATOM     73  F   UNL     1      -1.923  11.780   8.005  1.00  0.00    -0.203 F 
ATOM     74  F   UNL     1       3.255  13.267   7.140  1.00  0.00    -0.200 F 
ATOM     75  C   UNL     1       1.245  13.496   8.358  1.00  0.00     0.200 A 
ATOM     76  F   UNL     1      -0.780  13.678   9.558  1.00  0.00    -0.200 F 
ATOM     77  F   UNL     1       1.813  14.416   9.150  1.00  0.00    -0.200 F 
ENDBRANCH  53  67
BRANCH  54  78
ATOM     78  C   UNL     1      -4.081   4.353   1.139  1.00  0.00     0.064 A 
ATOM     79  C   UNL     1      -3.905   4.308  -0.251  1.00  0.00     0.173 A 
ATOM     80  C   UNL     1      -4.875   3.358   1.729  1.00  0.00     0.173 A 
ATOM     81  F   UNL     1      -3.175   5.251  -0.864  1.00  0.00    -0.203 F 
ATOM     82  C   UNL     1      -4.509   3.315  -1.020  1.00  0.00     0.198 A 
ATOM     83  C   UNL     1      -5.454   2.349   0.963  1.00  0.00     0.198 A 
ATOM     84  F   UNL     1      -5.077   3.358   3.055  1.00  0.00    -0.203 F 
ATOM     85  F   UNL     1      -4.358   3.318  -2.352  1.00  0.00    -0.200 F 
ATOM     86  C   UNL     1      -5.276   2.333  -0.412  1.00  0.00     0.200 A 
ATOM     87  F   UNL     1      -6.184   1.395   1.556  1.00  0.00    -0.200 F 
ATOM     88  F   UNL     1      -5.851   1.375  -1.152  1.00  0.00    -0.200 F 
ENDBRANCH  54  78
BRANCH  66  89
ATOM     89  C   UNL     1      -5.106  11.219   1.682  1.00  0.00     0.064 A 
ATOM     90  C   UNL     1      -6.484  11.214   1.943  1.00  0.00     0.173 A 
ATOM     91  C   UNL     1      -4.616  12.143   0.747  1.00  0.00     0.173 A 
ATOM     92  F   UNL     1      -7.003  10.337   2.816  1.00  0.00    -0.203 F 
ATOM     93  C   UNL     1      -7.342  12.080   1.271  1.00  0.00     0.198 A 
ATOM     94  C   UNL     1      -5.473  13.028   0.099  1.00  0.00     0.198 A 
ATOM     95  F   UNL     1      -3.305  12.192   0.467  1.00  0.00    -0.203 F 
ATOM     96  F   UNL     1      -8.662  12.021   1.496  1.00  0.00    -0.200 F 
ATOM     97  C   UNL     1      -6.835  12.989   0.354  1.00  0.00     0.200 A 
ATOM     98  F   UNL     1      -4.981  13.913  -0.779  1.00  0.00    -0.200 F 
ATOM     99  F   UNL     1      -7.663  13.822  -0.293  1.00  0.00    -0.200 F 
ENDBRANCH  66  89
ENDBRANCH  40  41
ENDBRANCH  33  35
ENDBRANCH  32  33
ENDBRANCH  31  32
ENDBRANCH  30  31
ENDBRANCH  29  30
ENDBRANCH   1  29
TORSDOF 17
