REMARK SMILES O=C(OCCOC(=O)c1cc(S(=O)(=O)N2CCCCCC2)ccc1Br)c1ccc(-c2c3nc(c(-c4c(F)c(F)c(F)c(F)c4F)c4ccc([nH]4)c(-c4c(F)c(F)c(F)c(F)c4F)c4nc(c(-c5c(F)c(F)c(F)c(F)c5F)c5ccc2[nH]5)C=C4)C=C3)cc1
REMARK SMILES IDX 6 1 5 2 4 3 3 4 2 5 1 6 26 7 27 8 88 9 28 10 87 11 29 12
REMARK SMILES IDX 30 13 31 14 81 15 32 16 86 17 80 18 82 19 33 20 85 21 79 22
REMARK SMILES IDX 78 23 34 25 66 26 46 27 65 28 47 29 50 30 64 31 83 32 48 33
REMARK SMILES IDX 49 34 63 36 84 37 51 38 35 39 36 40 44 41 37 42 38 43 42 44
REMARK SMILES IDX 45 45 39 46 40 47 43 48 41 49 67 50 68 51 76 52 69 53 70 54
REMARK SMILES IDX 74 55 77 56 71 57 72 58 75 59 73 60 52 61 53 62 61 63 54 64
REMARK SMILES IDX 55 65 59 66 62 67 56 68 57 69 60 70 58 71 7 72 8 73 9 74
REMARK SMILES IDX 10 75 24 76 11 77 23 78 25 79 22 80 12 81 13 82 14 83 15 84
REMARK SMILES IDX 16 85 17 86 18 87 21 89 20 90 19 91
REMARK H PARENT 82 24 50 35
REMARK Flexibility Score: 90.00
ROOT
ATOM      1  O   UNL     1       3.323  -1.219  -1.660  1.00  0.00    -0.458 OA
ENDROOT
BRANCH   1   2
ATOM      2  C   UNL     1       3.732  -2.080  -0.587  1.00  0.00     0.275 C 
BRANCH   2   3
ATOM      3  C   UNL     1       4.148  -1.304   0.658  1.00  0.00     0.275 C 
BRANCH   3   4
ATOM      4  O   UNL     1       3.157  -0.368   1.112  1.00  0.00    -0.458 OA
BRANCH   4   5
ATOM      5  C   UNL     1       2.976   0.934   0.804  1.00  0.00     0.338 C 
ATOM      6  O   UNL     1       2.194   1.595   1.487  1.00  0.00    -0.246 OA
BRANCH   5   7
ATOM      7  C   UNL     1       3.579   1.613  -0.387  1.00  0.00     0.060 A 
ATOM      8  C   UNL     1       4.832   1.355  -0.952  1.00  0.00     0.016 A 
ATOM      9  C   UNL     1       2.821   2.662  -0.938  1.00  0.00     0.016 A 
ATOM     10  C   UNL     1       5.300   2.087  -2.054  1.00  0.00     0.010 A 
ATOM     11  C   UNL     1       3.283   3.397  -2.032  1.00  0.00     0.010 A 
ATOM     12  C   UNL     1       4.534   3.122  -2.589  1.00  0.00    -0.014 A 
BRANCH  12  13
ATOM     13  C   UNL     1       5.087   4.048  -3.602  1.00  0.00     0.031 A 
ATOM     14  C   UNL     1       5.564   5.393  -3.148  1.00  0.00     0.074 A 
ATOM     15  C   UNL     1       5.112   3.724  -4.905  1.00  0.00     0.049 A 
ATOM     16  N   UNL     1       5.998   6.400  -3.858  1.00  0.00    -0.248 NA
ATOM     17  C   UNL     1       5.563   5.627  -1.695  1.00  0.00     0.031 C 
ATOM     18  C   UNL     1       4.741   2.426  -5.454  1.00  0.00     0.029 A 
ATOM     19  N   UNL     1       5.422   4.478  -6.008  1.00  0.00    -0.354 N 
ATOM     20  C   UNL     1       6.355   7.373  -2.937  1.00  0.00     0.074 A 
ATOM     21  C   UNL     1       6.018   6.867  -1.624  1.00  0.00     0.031 C 
ATOM     22  C   UNL     1       4.744   2.500  -6.796  1.00  0.00     0.029 A 
ATOM     23  C   UNL     1       5.127   3.852  -7.193  1.00  0.00     0.049 A 
ATOM     24  H   UNL     1       5.816   5.379  -5.955  1.00  0.00     0.167 HD
ATOM     25  C   UNL     1       6.945   8.569  -3.164  1.00  0.00     0.037 A 
ATOM     26  C   UNL     1       5.138   4.328  -8.453  1.00  0.00     0.037 A 
ATOM     27  C   UNL     1       7.239   9.079  -4.473  1.00  0.00     0.049 A 
ATOM     28  C   UNL     1       5.653   5.720  -8.697  1.00  0.00     0.074 A 
ATOM     29  C   UNL     1       7.848  10.269  -4.825  1.00  0.00     0.029 A 
ATOM     30  N   UNL     1       6.916   8.426  -5.655  1.00  0.00    -0.354 N 
ATOM     31  N   UNL     1       6.058   6.609  -7.823  1.00  0.00    -0.248 NA
ATOM     32  C   UNL     1       5.748   6.163 -10.094  1.00  0.00     0.031 C 
ATOM     33  C   UNL     1       7.852  10.357  -6.222  1.00  0.00     0.029 A 
ATOM     34  C   UNL     1       7.284   9.202  -6.740  1.00  0.00     0.049 A 
ATOM     35  H   UNL     1       6.488   7.542  -5.713  1.00  0.00     0.167 HD
ATOM     36  C   UNL     1       6.516   7.691  -8.561  1.00  0.00     0.074 A 
ATOM     37  C   UNL     1       6.307   7.360  -9.957  1.00  0.00     0.031 C 
ATOM     38  C   UNL     1       7.085   8.840  -8.122  1.00  0.00     0.037 A 
BRANCH  25  39
ATOM     39  C   UNL     1       7.284   9.384  -1.955  1.00  0.00     0.064 A 
ATOM     40  C   UNL     1       8.315   8.997  -1.083  1.00  0.00     0.173 A 
ATOM     41  C   UNL     1       6.537  10.523  -1.627  1.00  0.00     0.173 A 
ATOM     42  F   UNL     1       9.043   7.900  -1.344  1.00  0.00    -0.203 F 
ATOM     43  C   UNL     1       8.552   9.694   0.098  1.00  0.00     0.198 A 
ATOM     44  C   UNL     1       6.795  11.233  -0.457  1.00  0.00     0.198 A 
ATOM     45  F   UNL     1       5.542  10.932  -2.428  1.00  0.00    -0.203 F 
ATOM     46  F   UNL     1       9.493   9.264   0.950  1.00  0.00    -0.200 F 
ATOM     47  C   UNL     1       7.792  10.810   0.410  1.00  0.00     0.200 A 
ATOM     48  F   UNL     1       6.062  12.314  -0.157  1.00  0.00    -0.200 F 
ATOM     49  F   UNL     1       8.008  11.469   1.557  1.00  0.00    -0.200 F 
ENDBRANCH  25  39
BRANCH  26  50
ATOM     50  C   UNL     1       4.639   3.476  -9.561  1.00  0.00     0.064 A 
ATOM     51  C   UNL     1       5.513   2.888 -10.483  1.00  0.00     0.173 A 
ATOM     52  C   UNL     1       3.268   3.208  -9.695  1.00  0.00     0.173 A 
ATOM     53  F   UNL     1       6.830   3.124 -10.400  1.00  0.00    -0.203 F 
ATOM     54  C   UNL     1       5.035   2.071 -11.507  1.00  0.00     0.198 A 
ATOM     55  C   UNL     1       2.793   2.378 -10.709  1.00  0.00     0.198 A 
ATOM     56  F   UNL     1       2.390   3.735  -8.828  1.00  0.00    -0.203 F 
ATOM     57  F   UNL     1       5.890   1.536 -12.389  1.00  0.00    -0.200 F 
ATOM     58  C   UNL     1       3.676   1.812 -11.616  1.00  0.00     0.200 A 
ATOM     59  F   UNL     1       1.481   2.119 -10.799  1.00  0.00    -0.200 F 
ATOM     60  F   UNL     1       3.219   1.018 -12.593  1.00  0.00    -0.200 F 
ENDBRANCH  26  50
BRANCH  38  61
ATOM     61  C   UNL     1       7.587   9.802  -9.154  1.00  0.00     0.064 A 
ATOM     62  C   UNL     1       6.719  10.639  -9.866  1.00  0.00     0.173 A 
ATOM     63  C   UNL     1       8.967   9.944  -9.365  1.00  0.00     0.173 A 
ATOM     64  F   UNL     1       5.391  10.526  -9.708  1.00  0.00    -0.203 F 
ATOM     65  C   UNL     1       7.216  11.588 -10.755  1.00  0.00     0.198 A 
ATOM     66  C   UNL     1       9.461  10.907 -10.238  1.00  0.00     0.198 A 
ATOM     67  F   UNL     1       9.835   9.163  -8.704  1.00  0.00    -0.203 F 
ATOM     68  F   UNL     1       6.370  12.367 -11.443  1.00  0.00    -0.200 F 
ATOM     69  C   UNL     1       8.585  11.728 -10.932  1.00  0.00     0.200 A 
ATOM     70  F   UNL     1      10.784  11.048 -10.400  1.00  0.00    -0.200 F 
ATOM     71  F   UNL     1       9.062  12.655 -11.774  1.00  0.00    -0.200 F 
ENDBRANCH  38  61
ENDBRANCH  12  13
ENDBRANCH   5   7
ENDBRANCH   4   5
ENDBRANCH   3   4
ENDBRANCH   2   3
ENDBRANCH   1   2
BRANCH   1  72
ATOM     72  C   UNL     1       1.991  -1.193  -1.917  1.00  0.00     0.339 C 
ATOM     73  O   UNL     1       1.108  -1.753  -1.293  1.00  0.00    -0.246 OA
BRANCH  72  74
ATOM     74  C   UNL     1       1.722  -0.278  -3.041  1.00  0.00     0.075 A 
ATOM     75  C   UNL     1       0.824   0.777  -2.811  1.00  0.00     0.038 A 
ATOM     76  C   UNL     1       2.295  -0.443  -4.305  1.00  0.00     0.032 A 
ATOM     77  C   UNL     1       0.568   1.712  -3.823  1.00  0.00     0.083 A 
ATOM     78  C   UNL     1       2.002   0.475  -5.319  1.00  0.00     0.018 A 
ATOM     79  Br  UNL     1       3.438  -1.889  -4.757  1.00  0.00    -0.050 Br
ATOM     80  C   UNL     1       1.171   1.570  -5.072  1.00  0.00     0.023 A 
BRANCH  77  81
ATOM     81  S   UNL     1      -0.576   3.035  -3.458  1.00  0.00     0.243 S 
ATOM     82  O   UNL     1      -1.842   2.392  -3.187  1.00  0.00    -0.207 OA
ATOM     83  O   UNL     1       0.074   3.876  -2.476  1.00  0.00    -0.207 OA
BRANCH  81  84
ATOM     84  N   UNL     1      -0.747   3.919  -4.897  1.00  0.00    -0.198 NA
BRANCH  84  85
ATOM     85  C   UNL     1       0.223   4.983  -5.217  1.00  0.00     0.102 C 
BRANCH  85  86
ATOM     86  C   UNL     1      -0.485   6.224  -5.761  1.00  0.00     0.017 C 
BRANCH  86  87
ATOM     87  C   UNL     1      -0.692   6.190  -7.272  1.00  0.00     0.001 CG0
ATOM     88  G   UNL     1      -1.651   5.112  -7.759  1.00  0.00     0.000 G0
ENDBRANCH  86  87
ENDBRANCH  85  86
ENDBRANCH  84  85
BRANCH  84  89
ATOM     89  C   UNL     1      -1.601   3.325  -5.946  1.00  0.00     0.102 C 
BRANCH  89  90
ATOM     90  C   UNL     1      -1.235   3.695  -7.379  1.00  0.00     0.017 C 
BRANCH  90  91
ATOM     91  C   UNL     1      -1.651   5.112  -7.759  1.00  0.00     0.001 CG0
ATOM     92  G   UNL     1      -0.692   6.190  -7.272  1.00  0.00     0.000 G0
ENDBRANCH  90  91
ENDBRANCH  89  90
ENDBRANCH  84  89
ENDBRANCH  81  84
ENDBRANCH  77  81
ENDBRANCH  72  74
ENDBRANCH   1  72
TORSDOF 13
