REMARK SMILES CC1(C)S[C@@H]2[C@H]([NH2+]Cn3nnc4ccccc43)C(=O)N2[C@@H]1C(=O)OCCOC(=O)c1ccc(-c2c3nc(c(-c4c(F)c(F)c(F)c(F)c4F)c4ccc([nH]4)c(-c4c(F)c(F)c(F)c(F)c4F)c4nc(c(-c5c(F)c(F)c(F)c(F)c5F)c5ccc2[nH]5)C=C4)C=C3)cc1
REMARK SMILES IDX 25 1 24 2 22 3 23 4 21 5 1 6 2 7 3 8 4 9 5 10 20 11 6 12
REMARK SMILES IDX 18 13 19 14 7 15 8 18 9 19 10 20 17 21 11 22 12 23 16 24
REMARK SMILES IDX 13 25 15 26 14 27 26 28 27 29 28 30 29 31 30 32 31 33 92 34
REMARK SMILES IDX 32 35 91 36 33 37 34 38 35 39 85 40 36 41 90 42 84 43 86 44
REMARK SMILES IDX 37 45 89 46 83 47 82 48 38 50 70 51 50 52 69 53 51 54 54 55
REMARK SMILES IDX 68 56 87 57 52 58 53 59 67 61 88 62 55 63 39 64 40 65 48 66
REMARK SMILES IDX 41 67 42 68 46 69 49 70 43 71 44 72 47 73 45 74 71 75 72 76
REMARK SMILES IDX 80 77 73 78 74 79 78 80 81 81 75 82 76 83 79 84 77 85 56 86
REMARK SMILES IDX 57 87 65 88 58 89 59 90 63 91 66 92 60 93 61 94 64 95 62 96
REMARK H PARENT 7 16 7 17 86 49 54 60
REMARK Flexibility Score: inf
ROOT
ATOM      1  C   UNL     1      -1.130   1.736  -3.401  1.00  0.00     0.274 C 
ENDROOT
BRANCH   1   2
ATOM      2  O   UNL     1      -0.876   0.934  -2.224  1.00  0.00    -0.460 OA
BRANCH   2   3
ATOM      3  C   UNL     1       0.218   1.237  -1.474  1.00  0.00     0.330 C 
ATOM      4  O   UNL     1       1.052   2.077  -1.791  1.00  0.00    -0.250 OA
BRANCH   3   5
ATOM      5  C   UNL     1       0.270   0.454  -0.138  1.00  0.00     0.212 C 
ATOM      6  C   UNL     1       2.635  -0.255  -1.001  1.00  0.00     0.026 C 
ATOM      7  C   UNL     1       1.584  -0.342   0.112  1.00  0.00     0.044 C 
ATOM      8  C   UNL     1       2.145   0.001   1.497  1.00  0.00     0.026 C 
ATOM      9  S   UNL     1       1.135  -2.161   0.281  1.00  0.00    -0.121 SA
ATOM     10  C   UNL     1      -0.574  -1.775   0.715  1.00  0.00     0.213 C 
ATOM     11  N   UNL     1      -0.773  -0.515   0.026  1.00  0.00    -0.304 N 
ATOM     12  C   UNL     1      -1.911  -2.212   0.029  1.00  0.00     0.307 C 
ATOM     13  C   UNL     1      -2.103  -0.611  -0.035  1.00  0.00     0.285 C 
ATOM     14  O   UNL     1      -2.963   0.216  -0.229  1.00  0.00    -0.268 OA
BRANCH  12  15
ATOM     15  N   UNL     1      -1.942  -2.843  -1.329  1.00  0.00    -0.315 N 
ATOM     16  H   UNL     1      -2.639  -2.355  -1.893  1.00  0.00     0.348 HD
ATOM     17  H   UNL     1      -2.166  -3.828  -1.190  1.00  0.00     0.348 HD
BRANCH  15  18
ATOM     18  C   UNL     1      -0.673  -2.798  -2.035  1.00  0.00     0.415 C 
BRANCH  18  19
ATOM     19  N   UNL     1      -0.712  -3.289  -3.408  1.00  0.00    -0.194 N 
ATOM     20  N   UNL     1      -1.824  -3.651  -4.067  1.00  0.00    -0.061 NA
ATOM     21  C   UNL     1       0.421  -3.450  -4.169  1.00  0.00     0.095 A 
ATOM     22  N   UNL     1      -1.435  -4.132  -5.245  1.00  0.00    -0.130 NA
ATOM     23  C   UNL     1      -0.068  -4.027  -5.327  1.00  0.00     0.113 A 
ATOM     24  C   UNL     1       1.776  -3.179  -3.941  1.00  0.00     0.030 A 
ATOM     25  C   UNL     1       0.841  -4.394  -6.330  1.00  0.00     0.032 A 
ATOM     26  C   UNL     1       2.665  -3.534  -4.957  1.00  0.00     0.002 A 
ATOM     27  C   UNL     1       2.208  -4.141  -6.128  1.00  0.00     0.002 A 
ENDBRANCH  18  19
ENDBRANCH  15  18
ENDBRANCH  12  15
ENDBRANCH   3   5
ENDBRANCH   2   3
ENDBRANCH   1   2
BRANCH   1  28
ATOM     28  C   UNL     1      -2.139   2.853  -3.100  1.00  0.00     0.275 C 
BRANCH  28  29
ATOM     29  O   UNL     1      -1.467   3.866  -2.337  1.00  0.00    -0.458 OA
BRANCH  29  30
ATOM     30  C   UNL     1      -1.948   4.113  -1.096  1.00  0.00     0.338 C 
ATOM     31  O   UNL     1      -3.073   3.917  -0.676  1.00  0.00    -0.246 OA
BRANCH  30  32
ATOM     32  C   UNL     1      -0.757   4.330  -0.250  1.00  0.00     0.060 A 
ATOM     33  C   UNL     1       0.346   5.054  -0.715  1.00  0.00     0.016 A 
ATOM     34  C   UNL     1      -0.673   3.587   0.929  1.00  0.00     0.016 A 
ATOM     35  C   UNL     1       1.571   4.937  -0.059  1.00  0.00     0.010 A 
ATOM     36  C   UNL     1       0.559   3.459   1.568  1.00  0.00     0.010 A 
ATOM     37  C   UNL     1       1.697   4.091   1.050  1.00  0.00    -0.014 A 
BRANCH  37  38
ATOM     38  C   UNL     1       2.924   4.140   1.851  1.00  0.00     0.031 A 
ATOM     39  C   UNL     1       2.879   5.239   2.828  1.00  0.00     0.074 A 
ATOM     40  C   UNL     1       4.038   3.376   1.818  1.00  0.00     0.049 A 
ATOM     41  N   UNL     1       3.522   6.347   2.688  1.00  0.00    -0.248 NA
ATOM     42  C   UNL     1       1.965   5.196   3.972  1.00  0.00     0.031 C 
ATOM     43  C   UNL     1       4.302   2.207   0.996  1.00  0.00     0.029 A 
ATOM     44  N   UNL     1       5.175   3.451   2.586  1.00  0.00    -0.354 N 
ATOM     45  C   UNL     1       3.261   7.069   3.832  1.00  0.00     0.074 A 
ATOM     46  C   UNL     1       2.172   6.404   4.503  1.00  0.00     0.031 C 
ATOM     47  C   UNL     1       5.360   1.515   1.482  1.00  0.00     0.029 A 
ATOM     48  C   UNL     1       5.992   2.330   2.504  1.00  0.00     0.049 A 
ATOM     49  H   UNL     1       5.393   4.232   3.145  1.00  0.00     0.167 HD
ATOM     50  C   UNL     1       4.164   7.984   4.262  1.00  0.00     0.037 A 
ATOM     51  C   UNL     1       7.203   2.129   3.075  1.00  0.00     0.037 A 
ATOM     52  C   UNL     1       5.162   8.275   3.262  1.00  0.00     0.049 A 
ATOM     53  C   UNL     1       7.878   3.439   3.142  1.00  0.00     0.074 A 
ATOM     54  C   UNL     1       5.281   9.093   2.160  1.00  0.00     0.029 A 
ATOM     55  N   UNL     1       6.160   7.344   3.176  1.00  0.00    -0.354 N 
ATOM     56  N   UNL     1       8.269   4.096   2.086  1.00  0.00    -0.248 NA
ATOM     57  C   UNL     1       7.907   4.181   4.397  1.00  0.00     0.031 C 
ATOM     58  C   UNL     1       6.350   8.571   1.368  1.00  0.00     0.029 A 
ATOM     59  C   UNL     1       6.863   7.448   2.003  1.00  0.00     0.049 A 
ATOM     60  H   UNL     1       6.350   6.676   3.873  1.00  0.00     0.167 HD
ATOM     61  C   UNL     1       8.152   5.413   2.465  1.00  0.00     0.074 A 
ATOM     62  C   UNL     1       8.124   5.408   3.920  1.00  0.00     0.031 C 
ATOM     63  C   UNL     1       7.708   6.354   1.588  1.00  0.00     0.037 A 
BRANCH  50  64
ATOM     64  C   UNL     1       4.415   8.272   5.712  1.00  0.00     0.064 A 
ATOM     65  C   UNL     1       5.136   9.423   6.069  1.00  0.00     0.173 A 
ATOM     66  C   UNL     1       4.223   7.317   6.734  1.00  0.00     0.173 A 
ATOM     67  F   UNL     1       5.417  10.362   5.153  1.00  0.00    -0.203 F 
ATOM     68  C   UNL     1       5.647   9.595   7.357  1.00  0.00     0.198 A 
ATOM     69  C   UNL     1       4.681   7.519   8.032  1.00  0.00     0.198 A 
ATOM     70  F   UNL     1       3.694   6.111   6.486  1.00  0.00    -0.203 F 
ATOM     71  F   UNL     1       6.415  10.658   7.631  1.00  0.00    -0.200 F 
ATOM     72  C   UNL     1       5.412   8.648   8.339  1.00  0.00     0.200 A 
ATOM     73  F   UNL     1       4.473   6.574   8.960  1.00  0.00    -0.200 F 
ATOM     74  F   UNL     1       5.931   8.795   9.564  1.00  0.00    -0.200 F 
ENDBRANCH  50  64
BRANCH  51  75
ATOM     75  C   UNL     1       7.770   0.925   3.724  1.00  0.00     0.064 A 
ATOM     76  C   UNL     1       9.147   0.835   3.994  1.00  0.00     0.173 A 
ATOM     77  C   UNL     1       6.937   0.006   4.388  1.00  0.00     0.173 A 
ATOM     78  F   UNL     1      10.005   1.688   3.417  1.00  0.00    -0.203 F 
ATOM     79  C   UNL     1       9.655  -0.071   4.928  1.00  0.00     0.198 A 
ATOM     80  C   UNL     1       7.448  -0.902   5.320  1.00  0.00     0.198 A 
ATOM     81  F   UNL     1       5.607   0.048   4.220  1.00  0.00    -0.203 F 
ATOM     82  F   UNL     1      10.963  -0.065   5.222  1.00  0.00    -0.200 F 
ATOM     83  C   UNL     1       8.803  -0.925   5.606  1.00  0.00     0.200 A 
ATOM     84  F   UNL     1       6.612  -1.704   5.995  1.00  0.00    -0.200 F 
ATOM     85  F   UNL     1       9.278  -1.736   6.562  1.00  0.00    -0.200 F 
ENDBRANCH  51  75
BRANCH  63  86
ATOM     86  C   UNL     1       7.971   6.124   0.135  1.00  0.00     0.064 A 
ATOM     87  C   UNL     1       7.376   5.112  -0.634  1.00  0.00     0.173 A 
ATOM     88  C   UNL     1       8.855   6.996  -0.514  1.00  0.00     0.173 A 
ATOM     89  F   UNL     1       6.479   4.274  -0.097  1.00  0.00    -0.203 F 
ATOM     90  C   UNL     1       7.680   4.965  -1.988  1.00  0.00     0.198 A 
ATOM     91  C   UNL     1       9.134   6.866  -1.871  1.00  0.00     0.198 A 
ATOM     92  F   UNL     1       9.437   7.993   0.170  1.00  0.00    -0.203 F 
ATOM     93  F   UNL     1       7.117   3.978  -2.701  1.00  0.00    -0.200 F 
ATOM     94  C   UNL     1       8.554   5.846  -2.606  1.00  0.00     0.200 A 
ATOM     95  F   UNL     1       9.959   7.739  -2.467  1.00  0.00    -0.200 F 
ATOM     96  F   UNL     1       8.827   5.721  -3.912  1.00  0.00    -0.200 F 
ENDBRANCH  63  86
ENDBRANCH  37  38
ENDBRANCH  30  32
ENDBRANCH  29  30
ENDBRANCH  28  29
ENDBRANCH   1  28
TORSDOF 14
