REMARK SMILES CN(CC(=O)OCCOC(=O)c1ccc(-c2c3nc(c(-c4c(F)c(F)c(F)c(F)c4F)c4ccc([nH]4)c(-c4c(F)c(F)c(F)c(F)c4F)c4nc(c(-c5c(F)c(F)c(F)c(F)c5F)c5ccc2[nH]5)C=C4)C=C3)cc1)C(=O)c1ccccn1
REMARK SMILES IDX 7 1 6 2 4 3 5 4 3 5 2 6 1 7 75 8 76 9 77 10 78 11 82 12
REMARK SMILES IDX 79 13 81 14 80 15 8 16 9 17 10 18 11 19 12 20 13 21 74 22
REMARK SMILES IDX 14 23 73 24 15 25 16 26 17 27 67 28 18 29 72 30 66 31 68 32
REMARK SMILES IDX 19 33 71 34 65 35 64 36 20 38 52 39 32 40 51 41 33 42 36 43
REMARK SMILES IDX 50 44 69 45 34 46 35 47 49 49 70 50 37 51 21 52 22 53 30 54
REMARK SMILES IDX 23 55 24 56 28 57 31 58 25 59 26 60 29 61 27 62 53 63 54 64
REMARK SMILES IDX 62 65 55 66 56 67 60 68 63 69 57 70 58 71 61 72 59 73 38 74
REMARK SMILES IDX 39 75 47 76 40 77 41 78 45 79 48 80 42 81 43 82 46 83 44 84
REMARK H PARENT 68 37 36 48
REMARK Flexibility Score: inf
ROOT
ATOM      1  C   UNL     1      -3.587   1.348   0.987  1.00  0.00     0.274 C 
ENDROOT
BRANCH   1   2
ATOM      2  O   UNL     1      -2.185   0.999   1.051  1.00  0.00    -0.461 OA
BRANCH   2   3
ATOM      3  C   UNL     1      -1.353   1.767   0.298  1.00  0.00     0.325 C 
ATOM      4  O   UNL     1      -1.736   2.685  -0.425  1.00  0.00    -0.250 OA
BRANCH   3   5
ATOM      5  C   UNL     1       0.140   1.512   0.538  1.00  0.00     0.242 C 
BRANCH   5   6
ATOM      6  N   UNL     1       0.570   0.230   1.100  1.00  0.00    -0.329 N 
ATOM      7  C   UNL     1       0.726  -0.856   0.148  1.00  0.00     0.147 C 
BRANCH   6   8
ATOM      8  C   UNL     1       0.894  -0.014   2.440  1.00  0.00     0.272 C 
ATOM      9  O   UNL     1       1.222  -1.133   2.842  1.00  0.00    -0.267 OA
BRANCH   8  10
ATOM     10  C   UNL     1       0.828   1.069   3.461  1.00  0.00     0.128 A 
ATOM     11  C   UNL     1       0.075   0.831   4.607  1.00  0.00     0.034 A 
ATOM     12  N   UNL     1       1.559   2.199   3.253  1.00  0.00    -0.251 NA
ATOM     13  C   UNL     1       0.011   1.829   5.575  1.00  0.00     0.004 A 
ATOM     14  C   UNL     1       1.486   3.135   4.227  1.00  0.00     0.112 A 
ATOM     15  C   UNL     1       0.727   3.006   5.382  1.00  0.00     0.020 A 
ENDBRANCH   8  10
ENDBRANCH   6   8
ENDBRANCH   5   6
ENDBRANCH   3   5
ENDBRANCH   2   3
ENDBRANCH   1   2
BRANCH   1  16
ATOM     16  C   UNL     1      -4.028   2.291   2.118  1.00  0.00     0.275 C 
BRANCH  16  17
ATOM     17  O   UNL     1      -3.412   3.595   2.035  1.00  0.00    -0.458 OA
BRANCH  17  18
ATOM     18  C   UNL     1      -2.232   3.651   2.689  1.00  0.00     0.338 C 
ATOM     19  O   UNL     1      -1.708   2.729   3.286  1.00  0.00    -0.246 OA
BRANCH  18  20
ATOM     20  C   UNL     1      -1.569   4.955   2.610  1.00  0.00     0.060 A 
ATOM     21  C   UNL     1      -0.544   5.137   1.679  1.00  0.00     0.016 A 
ATOM     22  C   UNL     1      -1.782   5.890   3.624  1.00  0.00     0.016 A 
ATOM     23  C   UNL     1       0.289   6.248   1.771  1.00  0.00     0.010 A 
ATOM     24  C   UNL     1      -0.968   7.023   3.696  1.00  0.00     0.010 A 
ATOM     25  C   UNL     1       0.079   7.201   2.777  1.00  0.00    -0.014 A 
BRANCH  25  26
ATOM     26  C   UNL     1       0.885   8.441   2.785  1.00  0.00     0.031 A 
ATOM     27  C   UNL     1       2.021   8.638   3.741  1.00  0.00     0.074 A 
ATOM     28  C   UNL     1       0.568   9.394   1.892  1.00  0.00     0.049 A 
ATOM     29  N   UNL     1       2.795   9.682   3.894  1.00  0.00    -0.248 NA
ATOM     30  C   UNL     1       2.336   7.518   4.638  1.00  0.00     0.031 C 
ATOM     31  C   UNL     1      -0.501   9.284   0.898  1.00  0.00     0.029 A 
ATOM     32  N   UNL     1       1.104  10.635   1.677  1.00  0.00    -0.354 N 
ATOM     33  C   UNL     1       3.694   9.347   4.897  1.00  0.00     0.074 A 
ATOM     34  C   UNL     1       3.359   8.005   5.330  1.00  0.00     0.031 C 
ATOM     35  C   UNL     1      -0.545  10.415   0.179  1.00  0.00     0.029 A 
ATOM     36  C   UNL     1       0.461  11.338   0.691  1.00  0.00     0.049 A 
ATOM     37  H   UNL     1       1.873  10.988   2.180  1.00  0.00     0.167 HD
ATOM     38  C   UNL     1       4.703  10.097   5.403  1.00  0.00     0.037 A 
ATOM     39  C   UNL     1       0.643  12.600   0.264  1.00  0.00     0.037 A 
ATOM     40  C   UNL     1       5.015  11.437   4.972  1.00  0.00     0.049 A 
ATOM     41  C   UNL     1       1.717  13.434   0.893  1.00  0.00     0.074 A 
ATOM     42  C   UNL     1       6.027  12.274   5.412  1.00  0.00     0.029 A 
ATOM     43  N   UNL     1       4.310  12.139   4.005  1.00  0.00    -0.354 N 
ATOM     44  N   UNL     1       2.563  13.107   1.839  1.00  0.00    -0.248 NA
ATOM     45  C   UNL     1       1.858  14.809   0.401  1.00  0.00     0.031 C 
ATOM     46  C   UNL     1       5.909  13.496   4.738  1.00  0.00     0.029 A 
ATOM     47  C   UNL     1       4.845  13.409   3.855  1.00  0.00     0.049 A 
ATOM     48  H   UNL     1       3.541  11.787   3.501  1.00  0.00     0.167 HD
ATOM     49  C   UNL     1       3.341  14.233   2.057  1.00  0.00     0.074 A 
ATOM     50  C   UNL     1       2.875  15.248   1.132  1.00  0.00     0.031 C 
ATOM     51  C   UNL     1       4.350  14.409   2.945  1.00  0.00     0.037 A 
BRANCH  38  52
ATOM     52  C   UNL     1       5.534   9.498   6.497  1.00  0.00     0.064 A 
ATOM     53  C   UNL     1       6.523   8.541   6.226  1.00  0.00     0.173 A 
ATOM     54  C   UNL     1       5.381   9.928   7.823  1.00  0.00     0.173 A 
ATOM     55  F   UNL     1       6.700   8.091   4.975  1.00  0.00    -0.203 F 
ATOM     56  C   UNL     1       7.322   8.029   7.245  1.00  0.00     0.198 A 
ATOM     57  C   UNL     1       6.193   9.426   8.838  1.00  0.00     0.198 A 
ATOM     58  F   UNL     1       4.452  10.844   8.133  1.00  0.00    -0.203 F 
ATOM     59  F   UNL     1       8.246   7.098   6.968  1.00  0.00    -0.200 F 
ATOM     60  C   UNL     1       7.160   8.476   8.549  1.00  0.00     0.200 A 
ATOM     61  F   UNL     1       6.039   9.863  10.095  1.00  0.00    -0.200 F 
ATOM     62  F   UNL     1       7.934   7.987   9.528  1.00  0.00    -0.200 F 
ENDBRANCH  38  52
BRANCH  39  63
ATOM     63  C   UNL     1      -0.238  13.129  -0.802  1.00  0.00     0.064 A 
ATOM     64  C   UNL     1       0.230  13.282  -2.113  1.00  0.00     0.173 A 
ATOM     65  C   UNL     1      -1.587  13.414  -0.546  1.00  0.00     0.173 A 
ATOM     66  F   UNL     1       1.516  13.034  -2.397  1.00  0.00    -0.203 F 
ATOM     67  C   UNL     1      -0.625  13.693  -3.133  1.00  0.00     0.198 A 
ATOM     68  C   UNL     1      -2.445  13.804  -1.570  1.00  0.00     0.198 A 
ATOM     69  F   UNL     1      -2.079  13.273   0.694  1.00  0.00    -0.203 F 
ATOM     70  F   UNL     1      -0.155  13.840  -4.378  1.00  0.00    -0.200 F 
ATOM     71  C   UNL     1      -1.963  13.943  -2.863  1.00  0.00     0.200 A 
ATOM     72  F   UNL     1      -3.740  14.028  -1.308  1.00  0.00    -0.200 F 
ATOM     73  F   UNL     1      -2.789  14.315  -3.850  1.00  0.00    -0.200 F 
ENDBRANCH  39  63
BRANCH  51  74
ATOM     74  C   UNL     1       5.006  15.754   2.953  1.00  0.00     0.064 A 
ATOM     75  C   UNL     1       4.391  16.856   3.563  1.00  0.00     0.173 A 
ATOM     76  C   UNL     1       6.258  15.942   2.352  1.00  0.00     0.173 A 
ATOM     77  F   UNL     1       3.183  16.725   4.133  1.00  0.00    -0.203 F 
ATOM     78  C   UNL     1       5.000  18.107   3.554  1.00  0.00     0.198 A 
ATOM     79  C   UNL     1       6.872  17.191   2.360  1.00  0.00     0.198 A 
ATOM     80  F   UNL     1       6.882  14.916   1.755  1.00  0.00    -0.203 F 
ATOM     81  F   UNL     1       4.379  19.158   4.109  1.00  0.00    -0.200 F 
ATOM     82  C   UNL     1       6.241  18.273   2.956  1.00  0.00     0.200 A 
ATOM     83  F   UNL     1       8.072  17.350   1.784  1.00  0.00    -0.200 F 
ATOM     84  F   UNL     1       6.824  19.479   2.943  1.00  0.00    -0.200 F 
ENDBRANCH  51  74
ENDBRANCH  25  26
ENDBRANCH  18  20
ENDBRANCH  17  18
ENDBRANCH  16  17
ENDBRANCH   1  16
TORSDOF 14
