REMARK SMILES Cc1c(CCC(=O)N[C@@H](C)C(=O)OCCOC(=O)c2ccc(-c3c4nc(c(-c5c(F)c(F)c(F)c(F)c5F)c5ccc([nH]5)c(-c5c(F)c(F)c(F)c(F)c5F)c5nc(c(-c6c(F)c(F)c(F)c(F)c6F)c6ccc3[nH]6)C=C5)C=C4)cc2)c(=O)oc2cc3oc4c(c3cc12)CCCC4
REMARK SMILES IDX 14 1 13 2 11 3 12 4 9 5 10 6 8 7 6 8 7 9 5 11 4 12 3 13 1 14
REMARK SMILES IDX 2 15 93 16 82 17 85 18 92 19 83 20 84 21 86 22 91 23 87 24
REMARK SMILES IDX 90 25 88 26 89 27 94 28 97 29 95 30 96 31 15 32 16 33 17 34
REMARK SMILES IDX 18 35 19 36 20 37 81 38 21 39 80 40 22 41 23 42 24 43 74 44
REMARK SMILES IDX 25 45 79 46 73 47 75 48 26 49 78 50 72 51 71 52 27 54 59 55
REMARK SMILES IDX 39 56 58 57 40 58 43 59 57 60 76 61 41 62 42 63 56 65 77 66
REMARK SMILES IDX 44 67 28 68 29 69 37 70 30 71 31 72 35 73 38 74 32 75 33 76
REMARK SMILES IDX 36 77 34 78 60 79 61 80 69 81 62 82 63 83 67 84 70 85 64 86
REMARK SMILES IDX 65 87 68 88 66 89 45 90 46 91 54 92 47 93 48 94 52 95 55 96
REMARK SMILES IDX 49 97 50 98 53 99 51 100
REMARK H PARENT 8 10 75 53 43 64
REMARK Flexibility Score: inf
ROOT
ATOM      1  C   UNL     1       5.577  -2.057   2.326  1.00  0.00     0.274 C 
ENDROOT
BRANCH   1   2
ATOM      2  O   UNL     1       4.769  -1.364   1.355  1.00  0.00    -0.461 OA
BRANCH   2   3
ATOM      3  C   UNL     1       3.504  -1.060   1.747  1.00  0.00     0.328 C 
ATOM      4  O   UNL     1       3.008  -1.393   2.816  1.00  0.00    -0.250 OA
BRANCH   3   5
ATOM      5  C   UNL     1       2.750  -0.250   0.693  1.00  0.00     0.189 C 
ATOM      6  C   UNL     1       2.913  -0.887  -0.686  1.00  0.00     0.043 C 
BRANCH   5   7
ATOM      7  N   UNL     1       2.928   1.197   0.623  1.00  0.00    -0.343 N 
ATOM      8  C   UNL     1       1.887   2.091   0.698  1.00  0.00     0.221 C 
ATOM      9  O   UNL     1       1.639   2.808  -0.271  1.00  0.00    -0.275 OA
ATOM     10  H   UNL     1       3.840   1.550   0.518  1.00  0.00     0.164 HD
BRANCH   8  11
ATOM     11  C   UNL     1       1.161   2.257   2.027  1.00  0.00     0.105 C 
BRANCH  11  12
ATOM     12  C   UNL     1      -0.346   1.947   2.025  1.00  0.00     0.053 C 
BRANCH  12  13
ATOM     13  C   UNL     1      -0.590   0.486   2.319  1.00  0.00     0.042 A 
ATOM     14  C   UNL     1      -0.985  -0.110  -0.097  1.00  0.00     0.046 C 
ATOM     15  C   UNL     1      -0.722  -0.430   1.348  1.00  0.00    -0.030 A 
ATOM     16  C   UNL     1      -0.350  -1.790   1.724  1.00  0.00     0.022 A 
ATOM     17  C   UNL     1      -0.638   0.070   3.752  1.00  0.00     0.339 A 
ATOM     18  C   UNL     1      -0.489  -2.229   3.036  1.00  0.00     0.142 A 
ATOM     19  C   UNL     1       0.305  -2.606   0.803  1.00  0.00     0.024 A 
ATOM     20  O   UNL     1      -0.616   0.913   4.643  1.00  0.00    -0.246 OA
ATOM     21  O   UNL     1      -0.810  -1.287   4.030  1.00  0.00    -0.422 OA
ATOM     22  C   UNL     1      -0.294  -3.570   3.411  1.00  0.00     0.095 A 
ATOM     23  C   UNL     1       0.672  -3.891   1.185  1.00  0.00     0.025 A 
ATOM     24  C   UNL     1       0.194  -4.386   2.391  1.00  0.00     0.138 A 
ATOM     25  C   UNL     1       1.283  -4.963   0.507  1.00  0.00     0.001 A 
ATOM     26  O   UNL     1       0.144  -5.758   2.297  1.00  0.00    -0.461 OA
ATOM     27  C   UNL     1       0.606  -6.036   1.042  1.00  0.00     0.108 A 
ATOM     28  C   UNL     1       1.802  -5.028  -0.878  1.00  0.00     0.040 C 
ATOM     29  C   UNL     1      -0.111  -6.983   0.133  1.00  0.00     0.076 C 
ATOM     30  C   UNL     1       0.628  -5.349  -1.813  1.00  0.00     0.005 C 
ATOM     31  C   UNL     1      -0.527  -6.145  -1.129  1.00  0.00     0.008 C 
ENDBRANCH  12  13
ENDBRANCH  11  12
ENDBRANCH   8  11
ENDBRANCH   5   7
ENDBRANCH   3   5
ENDBRANCH   2   3
ENDBRANCH   1   2
BRANCH   1  32
ATOM     32  C   UNL     1       6.457  -1.056   3.070  1.00  0.00     0.275 C 
BRANCH  32  33
ATOM     33  O   UNL     1       5.736  -0.466   4.162  1.00  0.00    -0.458 OA
BRANCH  33  34
ATOM     34  C   UNL     1       5.067   0.681   3.891  1.00  0.00     0.338 C 
ATOM     35  O   UNL     1       5.053   1.321   2.866  1.00  0.00    -0.246 OA
BRANCH  34  36
ATOM     36  C   UNL     1       4.279   0.988   5.091  1.00  0.00     0.060 A 
ATOM     37  C   UNL     1       4.913   1.548   6.195  1.00  0.00     0.016 A 
ATOM     38  C   UNL     1       2.924   0.655   5.127  1.00  0.00     0.016 A 
ATOM     39  C   UNL     1       4.174   1.763   7.352  1.00  0.00     0.010 A 
ATOM     40  C   UNL     1       2.190   0.860   6.285  1.00  0.00     0.010 A 
ATOM     41  C   UNL     1       2.811   1.420   7.397  1.00  0.00    -0.014 A 
BRANCH  41  42
ATOM     42  C   UNL     1       2.076   1.663   8.643  1.00  0.00     0.031 A 
ATOM     43  C   UNL     1       0.709   2.269   8.512  1.00  0.00     0.074 A 
ATOM     44  C   UNL     1       2.300   0.818   9.667  1.00  0.00     0.049 A 
ATOM     45  N   UNL     1      -0.403   1.608   8.370  1.00  0.00    -0.248 NA
ATOM     46  C   UNL     1       0.562   3.714   8.321  1.00  0.00     0.031 C 
ATOM     47  C   UNL     1       2.439  -0.636   9.537  1.00  0.00     0.029 A 
ATOM     48  N   UNL     1       2.257   1.050  11.018  1.00  0.00    -0.354 N 
ATOM     49  C   UNL     1      -1.383   2.527   8.017  1.00  0.00     0.074 A 
ATOM     50  C   UNL     1      -0.741   3.822   8.026  1.00  0.00     0.031 C 
ATOM     51  C   UNL     1       2.308  -1.188  10.759  1.00  0.00     0.029 A 
ATOM     52  C   UNL     1       2.194  -0.126  11.755  1.00  0.00     0.049 A 
ATOM     53  H   UNL     1       2.269   1.948  11.421  1.00  0.00     0.167 HD
ATOM     54  C   UNL     1      -2.670   2.195   7.730  1.00  0.00     0.037 A 
ATOM     55  C   UNL     1       1.560  -0.232  12.953  1.00  0.00     0.037 A 
ATOM     56  C   UNL     1      -2.989   0.803   7.780  1.00  0.00     0.049 A 
ATOM     57  C   UNL     1       0.124  -0.294  12.488  1.00  0.00     0.074 A 
ATOM     58  C   UNL     1      -3.081  -0.241   6.888  1.00  0.00     0.029 A 
ATOM     59  N   UNL     1      -3.241   0.241   9.008  1.00  0.00    -0.354 N 
ATOM     60  N   UNL     1      -0.471  -1.347  11.990  1.00  0.00    -0.248 NA
ATOM     61  C   UNL     1      -0.563   0.973  12.221  1.00  0.00     0.031 C 
ATOM     62  C   UNL     1      -2.915  -1.426   7.671  1.00  0.00     0.029 A 
ATOM     63  C   UNL     1      -2.691  -1.015   8.984  1.00  0.00     0.049 A 
ATOM     64  H   UNL     1      -3.723   0.658   9.758  1.00  0.00     0.167 HD
ATOM     65  C   UNL     1      -1.438  -0.845  11.115  1.00  0.00     0.074 A 
ATOM     66  C   UNL     1      -1.476   0.584  11.341  1.00  0.00     0.031 C 
ATOM     67  C   UNL     1      -2.003  -1.584  10.117  1.00  0.00     0.037 A 
BRANCH  54  68
ATOM     68  C   UNL     1      -3.770   3.161   7.530  1.00  0.00     0.064 A 
ATOM     69  C   UNL     1      -4.666   3.358   8.593  1.00  0.00     0.173 A 
ATOM     70  C   UNL     1      -4.091   3.711   6.286  1.00  0.00     0.173 A 
ATOM     71  F   UNL     1      -4.397   2.834   9.801  1.00  0.00    -0.203 F 
ATOM     72  C   UNL     1      -5.862   4.041   8.411  1.00  0.00     0.198 A 
ATOM     73  C   UNL     1      -5.290   4.406   6.108  1.00  0.00     0.198 A 
ATOM     74  F   UNL     1      -3.277   3.540   5.235  1.00  0.00    -0.203 F 
ATOM     75  F   UNL     1      -6.720   4.167   9.433  1.00  0.00    -0.200 F 
ATOM     76  C   UNL     1      -6.179   4.556   7.165  1.00  0.00     0.200 A 
ATOM     77  F   UNL     1      -5.603   4.904   4.904  1.00  0.00    -0.200 F 
ATOM     78  F   UNL     1      -7.348   5.184   6.980  1.00  0.00    -0.200 F 
ENDBRANCH  54  68
BRANCH  55  79
ATOM     79  C   UNL     1       2.091   0.698  14.001  1.00  0.00     0.064 A 
ATOM     80  C   UNL     1       3.487   0.709  14.228  1.00  0.00     0.173 A 
ATOM     81  C   UNL     1       1.339   1.597  14.766  1.00  0.00     0.173 A 
ATOM     82  F   UNL     1       4.276  -0.196  13.626  1.00  0.00    -0.203 F 
ATOM     83  C   UNL     1       4.099   1.653  15.051  1.00  0.00     0.198 A 
ATOM     84  C   UNL     1       1.952   2.558  15.575  1.00  0.00     0.198 A 
ATOM     85  F   UNL     1       0.001   1.582  14.735  1.00  0.00    -0.203 F 
ATOM     86  F   UNL     1       5.431   1.659  15.189  1.00  0.00    -0.200 F 
ATOM     87  C   UNL     1       3.331   2.601  15.699  1.00  0.00     0.200 A 
ATOM     88  F   UNL     1       1.199   3.464  16.214  1.00  0.00    -0.200 F 
ATOM     89  F   UNL     1       3.914   3.551  16.442  1.00  0.00    -0.200 F 
ENDBRANCH  55  79
BRANCH  67  90
ATOM     90  C   UNL     1      -1.626  -3.022  10.095  1.00  0.00     0.064 A 
ATOM     91  C   UNL     1      -2.148  -3.904  11.048  1.00  0.00     0.173 A 
ATOM     92  C   UNL     1      -0.774  -3.540   9.107  1.00  0.00     0.173 A 
ATOM     93  F   UNL     1      -2.975  -3.455  12.005  1.00  0.00    -0.203 F 
ATOM     94  C   UNL     1      -1.844  -5.260  11.002  1.00  0.00     0.198 A 
ATOM     95  C   UNL     1      -0.495  -4.901   9.048  1.00  0.00     0.198 A 
ATOM     96  F   UNL     1      -0.229  -2.739   8.178  1.00  0.00    -0.203 F 
ATOM     97  F   UNL     1      -2.358  -6.091  11.919  1.00  0.00    -0.200 F 
ATOM     98  C   UNL     1      -1.030  -5.759   9.995  1.00  0.00     0.200 A 
ATOM     99  F   UNL     1       0.275  -5.385   8.062  1.00  0.00    -0.200 F 
ATOM    100  F   UNL     1      -0.771  -7.073   9.931  1.00  0.00    -0.200 F 
ENDBRANCH  67  90
ENDBRANCH  41  42
ENDBRANCH  34  36
ENDBRANCH  33  34
ENDBRANCH  32  33
ENDBRANCH   1  32
TORSDOF 15
