REMARK SMILES O=C(OCCOC(=O)C1(CC(=O)N2CCOCC2)CCCCCCCCCCC1)c1ccc(-c2c3nc(c(-c4c(F)c(F)c(F)c(F)c4F)c4ccc([nH]4)c(-c4c(F)c(F)c(F)c(F)c4F)c4nc(c(-c5c(F)c(F)c(F)c(F)c5F)c5ccc2[nH]5)C=C4)C=C3)cc1
REMARK SMILES IDX 7 1 8 2 6 3 5 4 4 5 3 6 2 7 1 8 30 9 31 10 92 11 32 12 91 13
REMARK SMILES IDX 33 14 34 15 35 16 85 17 36 18 90 19 84 20 86 21 37 22 89 23
REMARK SMILES IDX 83 24 82 25 38 27 70 28 50 29 69 30 51 31 54 32 68 33 87 34
REMARK SMILES IDX 52 35 53 36 67 38 88 39 55 40 39 41 40 42 48 43 41 44 42 45
REMARK SMILES IDX 46 46 49 47 43 48 44 49 47 50 45 51 71 52 72 53 80 54 73 55
REMARK SMILES IDX 74 56 78 57 81 58 75 59 76 60 79 61 77 62 56 63 57 64 65 65
REMARK SMILES IDX 58 66 59 67 63 68 66 69 60 70 61 71 64 72 62 73 9 74 10 75
REMARK SMILES IDX 11 76 12 77 13 78 14 79 18 80 15 81 17 82 16 83 19 84 20 85
REMARK SMILES IDX 21 86 22 87 23 88 24 89 25 90 29 92 28 93 27 94 26 95
REMARK H PARENT 86 26 54 37
REMARK Flexibility Score: 80.00
ROOT
ATOM      1  C   UNL     1       3.087  -1.489   1.412  1.00  0.00     0.312 C 
ATOM      2  O   UNL     1       2.470  -1.268   2.439  1.00  0.00    -0.252 OA
ENDROOT
BRANCH   1   3
ATOM      3  O   UNL     1       4.419  -1.259   1.351  1.00  0.00    -0.462 OA
BRANCH   3   4
ATOM      4  C   UNL     1       4.905  -0.161   2.132  1.00  0.00     0.274 C 
BRANCH   4   5
ATOM      5  C   UNL     1       5.348   1.048   1.253  1.00  0.00     0.275 C 
BRANCH   5   6
ATOM      6  O   UNL     1       5.060   1.031  -0.175  1.00  0.00    -0.458 OA
BRANCH   6   7
ATOM      7  C   UNL     1       3.840   0.561  -0.531  1.00  0.00     0.338 C 
ATOM      8  O   UNL     1       2.871   0.813   0.149  1.00  0.00    -0.246 OA
BRANCH   7   9
ATOM      9  C   UNL     1       4.012  -0.657  -1.421  1.00  0.00     0.060 A 
ATOM     10  C   UNL     1       5.615  -1.299  -0.928  1.00  0.00     0.016 A 
ATOM     11  C   UNL     1       2.888  -1.810  -2.379  1.00  0.00     0.016 A 
ATOM     12  C   UNL     1       6.149  -2.869  -1.381  1.00  0.00     0.010 A 
ATOM     13  C   UNL     1       3.521  -3.453  -2.879  1.00  0.00     0.010 A 
ATOM     14  C   UNL     1       5.172  -3.880  -2.374  1.00  0.00    -0.014 A 
BRANCH  14  15
ATOM     15  C   UNL     1       5.929  -5.010  -2.858  1.00  0.00     0.031 A 
ATOM     16  C   UNL     1       6.888  -4.827  -3.987  1.00  0.00     0.074 A 
ATOM     17  C   UNL     1       5.758  -6.128  -2.162  1.00  0.00     0.049 A 
ATOM     18  N   UNL     1       7.064  -5.608  -5.010  1.00  0.00    -0.248 NA
ATOM     19  C   UNL     1       7.631  -3.559  -4.092  1.00  0.00     0.031 C 
ATOM     20  C   UNL     1       5.014  -6.253  -0.906  1.00  0.00     0.029 A 
ATOM     21  N   UNL     1       6.183  -7.378  -2.440  1.00  0.00    -0.354 N 
ATOM     22  C   UNL     1       7.757  -4.844  -5.947  1.00  0.00     0.074 A 
ATOM     23  C   UNL     1       7.945  -3.539  -5.384  1.00  0.00     0.031 C 
ATOM     24  C   UNL     1       4.941  -7.549  -0.577  1.00  0.00     0.029 A 
ATOM     25  C   UNL     1       5.608  -8.308  -1.619  1.00  0.00     0.049 A 
ATOM     26  H   UNL     1       6.830  -7.595  -3.149  1.00  0.00     0.167 HD
ATOM     27  C   UNL     1       8.193  -5.277  -7.150  1.00  0.00     0.037 A 
ATOM     28  C   UNL     1       5.612  -9.636  -1.779  1.00  0.00     0.037 A 
ATOM     29  C   UNL     1       8.353  -6.699  -7.331  1.00  0.00     0.049 A 
ATOM     30  C   UNL     1       6.392 -10.117  -2.967  1.00  0.00     0.074 A 
ATOM     31  C   UNL     1       9.059  -7.380  -8.297  1.00  0.00     0.029 A 
ATOM     32  N   UNL     1       7.913  -7.645  -6.401  1.00  0.00    -0.354 N 
ATOM     33  N   UNL     1       6.862  -9.413  -3.978  1.00  0.00    -0.248 NA
ATOM     34  C   UNL     1       6.710 -11.537  -3.012  1.00  0.00     0.031 C 
ATOM     35  C   UNL     1       9.073  -8.731  -7.927  1.00  0.00     0.029 A 
ATOM     36  C   UNL     1       8.387  -8.893  -6.726  1.00  0.00     0.049 A 
ATOM     37  H   UNL     1       7.344  -7.445  -5.622  1.00  0.00     0.167 HD
ATOM     38  C   UNL     1       7.563 -10.295  -4.774  1.00  0.00     0.074 A 
ATOM     39  C   UNL     1       7.476 -11.584  -4.094  1.00  0.00     0.031 C 
ATOM     40  C   UNL     1       8.212 -10.100  -5.952  1.00  0.00     0.037 A 
BRANCH  27  41
ATOM     41  C   UNL     1       8.605  -4.315  -8.241  1.00  0.00     0.064 A 
ATOM     42  C   UNL     1       9.588  -3.322  -8.102  1.00  0.00     0.173 A 
ATOM     43  C   UNL     1       8.008  -4.428  -9.514  1.00  0.00     0.173 A 
ATOM     44  F   UNL     1      10.246  -3.170  -6.944  1.00  0.00    -0.203 F 
ATOM     45  C   UNL     1       9.920  -2.464  -9.154  1.00  0.00     0.198 A 
ATOM     46  C   UNL     1       8.383  -3.609 -10.582  1.00  0.00     0.198 A 
ATOM     47  F   UNL     1       7.059  -5.351  -9.737  1.00  0.00    -0.203 F 
ATOM     48  F   UNL     1      10.819  -1.489  -8.960  1.00  0.00    -0.200 F 
ATOM     49  C   UNL     1       9.331  -2.618 -10.397  1.00  0.00     0.200 A 
ATOM     50  F   UNL     1       7.830  -3.785 -11.790  1.00  0.00    -0.200 F 
ATOM     51  F   UNL     1       9.683  -1.820 -11.415  1.00  0.00    -0.200 F 
ENDBRANCH  27  41
BRANCH  28  52
ATOM     52  C   UNL     1       4.965 -10.488  -0.761  1.00  0.00     0.064 A 
ATOM     53  C   UNL     1       5.743 -11.220   0.142  1.00  0.00     0.173 A 
ATOM     54  C   UNL     1       3.574 -10.477  -0.563  1.00  0.00     0.173 A 
ATOM     55  F   UNL     1       7.080 -11.215   0.028  1.00  0.00    -0.203 F 
ATOM     56  C   UNL     1       5.158 -11.945   1.177  1.00  0.00     0.198 A 
ATOM     57  C   UNL     1       2.991 -11.180   0.490  1.00  0.00     0.198 A 
ATOM     58  F   UNL     1       2.786  -9.735  -1.355  1.00  0.00    -0.203 F 
ATOM     59  F   UNL     1       5.930 -12.654   2.011  1.00  0.00    -0.200 F 
ATOM     60  C   UNL     1       3.783 -11.924   1.351  1.00  0.00     0.200 A 
ATOM     61  F   UNL     1       1.667 -11.114   0.687  1.00  0.00    -0.200 F 
ATOM     62  F   UNL     1       3.223 -12.609   2.357  1.00  0.00    -0.200 F 
ENDBRANCH  28  52
BRANCH  40  63
ATOM     63  C   UNL     1       8.821 -11.327  -6.535  1.00  0.00     0.064 A 
ATOM     64  C   UNL     1       8.007 -12.313  -7.104  1.00  0.00     0.173 A 
ATOM     65  C   UNL     1      10.211 -11.492  -6.559  1.00  0.00     0.173 A 
ATOM     66  F   UNL     1       6.671 -12.183  -7.080  1.00  0.00    -0.203 F 
ATOM     67  C   UNL     1       8.568 -13.458  -7.644  1.00  0.00     0.198 A 
ATOM     68  C   UNL     1      10.770 -12.618  -7.143  1.00  0.00     0.198 A 
ATOM     69  F   UNL     1      11.017 -10.555  -6.036  1.00  0.00    -0.203 F 
ATOM     70  F   UNL     1       7.774 -14.427  -8.118  1.00  0.00    -0.200 F 
ATOM     71  C   UNL     1       9.948 -13.605  -7.672  1.00  0.00     0.200 A 
ATOM     72  F   UNL     1      12.101 -12.752  -7.194  1.00  0.00    -0.200 F 
ATOM     73  F   UNL     1      10.488 -14.708  -8.205  1.00  0.00    -0.200 F 
ENDBRANCH  40  63
ENDBRANCH  14  15
ENDBRANCH   7   9
ENDBRANCH   6   7
ENDBRANCH   5   6
ENDBRANCH   4   5
ENDBRANCH   3   4
ENDBRANCH   1   3
BRANCH   1  74
ATOM     74  C   UNL     1       2.481  -2.024   0.061  1.00  0.00     0.077 C 
BRANCH  74  75
ATOM     75  C   UNL     1       3.947  -2.646  -0.999  1.00  0.00     0.119 C 
BRANCH  75  76
ATOM     76  C   UNL     1       4.823  -1.839  -2.856  1.00  0.00     0.223 C 
ATOM     77  O   UNL     1       5.967  -1.337  -3.096  1.00  0.00    -0.275 OA
ATOM     78  N   UNL     1       4.180  -1.661  -4.277  1.00  0.00    -0.338 N 
ATOM     79  C   UNL     1       3.083  -0.788  -4.793  1.00  0.00     0.148 C 
ATOM     80  C   UNL     1       4.929  -2.144  -5.425  1.00  0.00     0.148 C 
ATOM     81  C   UNL     1       2.155  -1.654  -5.664  1.00  0.00     0.181 C 
ATOM     82  C   UNL     1       4.026  -2.909  -6.400  1.00  0.00     0.181 C 
ATOM     83  O   UNL     1       2.881  -2.143  -6.804  1.00  0.00    -0.378 OA
ENDBRANCH  75  76
ENDBRANCH  74  75
BRANCH  74  84
ATOM     84  C   UNL     1       1.620  -3.281   0.635  1.00  0.00     0.019 C 
BRANCH  84  85
ATOM     85  C   UNL     1       0.199  -3.001   1.327  1.00  0.00     0.001 C 
BRANCH  85  86
ATOM     86  C   UNL     1       0.085  -2.391   2.747  1.00  0.00     0.000 C 
BRANCH  86  87
ATOM     87  C   UNL     1      -0.275  -0.900   3.108  1.00  0.00     0.000 C 
BRANCH  87  88
ATOM     88  C   UNL     1      -0.534   0.265   2.117  1.00  0.00     0.000 C 
BRANCH  88  89
ATOM     89  C   UNL     1       0.605   1.308   2.073  1.00  0.00     0.000 C 
BRANCH  89  90
ATOM     90  C   UNL     1       0.559   2.424   1.012  1.00  0.00     0.000 CG0
ATOM     91  G   UNL     1      -0.019   2.140  -0.374  1.00  0.00     0.000 G0
ENDBRANCH  89  90
ENDBRANCH  88  89
ENDBRANCH  87  88
ENDBRANCH  86  87
ENDBRANCH  85  86
ENDBRANCH  84  85
ENDBRANCH  74  84
BRANCH  74  92
ATOM     92  C   UNL     1       1.197  -1.074  -0.539  1.00  0.00     0.019 C 
BRANCH  92  93
ATOM     93  C   UNL     1       0.996   0.089  -1.608  1.00  0.00     0.001 C 
BRANCH  93  94
ATOM     94  C   UNL     1       0.945   1.601  -1.402  1.00  0.00     0.000 C 
BRANCH  94  95
ATOM     95  C   UNL     1      -0.019   2.140  -0.374  1.00  0.00     0.000 CG0
ATOM     96  G   UNL     1       0.559   2.424   1.012  1.00  0.00     0.000 G0
ENDBRANCH  94  95
ENDBRANCH  93  94
ENDBRANCH  92  93
ENDBRANCH  74  92
ENDBRANCH   1  74
TORSDOF 13
