REMARK SMILES C=CCS(=O)(=O)N[C@H](CC(N)=O)C(=O)OCCOC(=O)c1ccc(-c2c3nc(c(-c4c(F)c(F)c(F)c(F)c4F)c4ccc([nH]4)c(-c4c(F)c(F)c(F)c(F)c4F)c4nc(c(-c5c(F)c(F)c(F)c(F)c5F)c5ccc2[nH]5)C=C4)C=C3)cc1
REMARK SMILES IDX 16 1 15 2 13 3 14 4 8 5 7 6 4 8 5 9 6 10 3 11 2 12 1 13 9 14
REMARK SMILES IDX 10 15 11 16 12 17 17 20 18 21 19 22 20 23 21 24 22 25 83 26
REMARK SMILES IDX 23 27 82 28 24 29 25 30 26 31 76 32 27 33 81 34 75 35 77 36
REMARK SMILES IDX 28 37 80 38 74 39 73 40 29 42 61 43 41 44 60 45 42 46 45 47
REMARK SMILES IDX 59 48 78 49 43 50 44 51 58 53 79 54 46 55 30 56 31 57 39 58
REMARK SMILES IDX 32 59 33 60 37 61 40 62 34 63 35 64 38 65 36 66 62 67 63 68
REMARK SMILES IDX 71 69 64 70 65 71 69 72 72 73 66 74 67 75 70 76 68 77 47 78
REMARK SMILES IDX 48 79 56 80 49 81 50 82 54 83 57 84 51 85 52 86 55 87 53 88
REMARK H PARENT 7 7 11 18 11 19 77 41 45 52
REMARK Flexibility Score: inf
ROOT
ATOM      1  C   UNL     1      -0.172  -6.404   1.535  1.00  0.00     0.274 C 
ENDROOT
BRANCH   1   2
ATOM      2  O   UNL     1      -0.576  -5.099   1.984  1.00  0.00    -0.461 OA
BRANCH   2   3
ATOM      3  C   UNL     1       0.356  -4.122   1.857  1.00  0.00     0.324 C 
ATOM      4  O   UNL     1       1.387  -4.238   1.202  1.00  0.00    -0.250 OA
BRANCH   3   5
ATOM      5  C   UNL     1       0.047  -2.852   2.624  1.00  0.00     0.188 C 
BRANCH   5   6
ATOM      6  N   UNL     1       0.833  -2.674   3.879  1.00  0.00    -0.200 NA
ATOM      7  H   UNL     1       1.662  -2.142   3.615  1.00  0.00     0.142 HD
BRANCH   6   8
ATOM      8  S   UNL     1       1.385  -3.946   4.814  1.00  0.00     0.215 S 
ATOM      9  O   UNL     1       0.593  -5.122   4.524  1.00  0.00    -0.212 OA
ATOM     10  O   UNL     1       1.412  -3.401   6.154  1.00  0.00    -0.212 OA
BRANCH   8  11
ATOM     11  C   UNL     1       3.124  -4.222   4.366  1.00  0.00     0.180 C 
BRANCH  11  12
ATOM     12  C   UNL     1       3.312  -4.961   3.078  1.00  0.00    -0.017 C 
ATOM     13  C   UNL     1       4.169  -4.605   2.109  1.00  0.00     0.005 C 
ENDBRANCH  11  12
ENDBRANCH   8  11
ENDBRANCH   6   8
ENDBRANCH   5   6
BRANCH   5  14
ATOM     14  C   UNL     1      -1.462  -2.588   2.720  1.00  0.00     0.131 C 
BRANCH  14  15
ATOM     15  C   UNL     1      -1.865  -1.573   3.756  1.00  0.00     0.219 C 
ATOM     16  N   UNL     1      -2.732  -0.607   3.350  1.00  0.00    -0.370 N 
ATOM     17  O   UNL     1      -1.465  -1.597   4.914  1.00  0.00    -0.275 OA
ATOM     18  H   UNL     1      -3.051  -0.591   2.418  1.00  0.00     0.159 HD
ATOM     19  H   UNL     1      -3.041   0.077   3.987  1.00  0.00     0.159 HD
ENDBRANCH  14  15
ENDBRANCH   5  14
ENDBRANCH   3   5
ENDBRANCH   2   3
ENDBRANCH   1   2
BRANCH   1  20
ATOM     20  C   UNL     1      -0.441  -6.670   0.050  1.00  0.00     0.275 C 
BRANCH  20  21
ATOM     21  O   UNL     1       0.295  -5.817  -0.843  1.00  0.00    -0.458 OA
BRANCH  21  22
ATOM     22  C   UNL     1      -0.260  -4.603  -1.071  1.00  0.00     0.338 C 
ATOM     23  O   UNL     1      -1.312  -4.169  -0.627  1.00  0.00    -0.246 OA
BRANCH  22  24
ATOM     24  C   UNL     1       0.654  -3.772  -1.871  1.00  0.00     0.060 A 
ATOM     25  C   UNL     1       1.054  -2.526  -1.367  1.00  0.00     0.016 A 
ATOM     26  C   UNL     1       1.013  -4.170  -3.156  1.00  0.00     0.016 A 
ATOM     27  C   UNL     1       1.789  -1.652  -2.160  1.00  0.00     0.010 A 
ATOM     28  C   UNL     1       1.740  -3.290  -3.955  1.00  0.00     0.010 A 
ATOM     29  C   UNL     1       2.103  -2.018  -3.472  1.00  0.00    -0.014 A 
BRANCH  29  30
ATOM     30  C   UNL     1       2.682  -1.040  -4.416  1.00  0.00     0.031 A 
ATOM     31  C   UNL     1       1.786  -0.451  -5.465  1.00  0.00     0.074 A 
ATOM     32  C   UNL     1       3.989  -0.738  -4.375  1.00  0.00     0.049 A 
ATOM     33  N   UNL     1       2.096   0.214  -6.546  1.00  0.00    -0.248 NA
ATOM     34  C   UNL     1       0.341  -0.657  -5.274  1.00  0.00     0.031 C 
ATOM     35  C   UNL     1       4.930  -1.194  -3.356  1.00  0.00     0.029 A 
ATOM     36  N   UNL     1       4.756  -0.003  -5.243  1.00  0.00    -0.354 N 
ATOM     37  C   UNL     1       0.890   0.474  -7.183  1.00  0.00     0.074 A 
ATOM     38  C   UNL     1      -0.156  -0.113  -6.375  1.00  0.00     0.031 C 
ATOM     39  C   UNL     1       6.161  -0.760  -3.676  1.00  0.00     0.029 A 
ATOM     40  C   UNL     1       6.097  -0.050  -4.952  1.00  0.00     0.049 A 
ATOM     41  H   UNL     1       4.383   0.508  -5.997  1.00  0.00     0.167 HD
ATOM     42  C   UNL     1       0.685   1.139  -8.344  1.00  0.00     0.037 A 
ATOM     43  C   UNL     1       7.152   0.382  -5.669  1.00  0.00     0.037 A 
ATOM     44  C   UNL     1       1.743   1.715  -9.129  1.00  0.00     0.049 A 
ATOM     45  C   UNL     1       6.907   1.039  -7.004  1.00  0.00     0.074 A 
ATOM     46  C   UNL     1       1.653   2.419 -10.316  1.00  0.00     0.029 A 
ATOM     47  N   UNL     1       3.091   1.646  -8.805  1.00  0.00    -0.354 N 
ATOM     48  N   UNL     1       5.771   1.280  -7.614  1.00  0.00    -0.248 NA
ATOM     49  C   UNL     1       8.092   1.479  -7.755  1.00  0.00     0.031 C 
ATOM     50  C   UNL     1       2.949   2.722 -10.741  1.00  0.00     0.029 A 
ATOM     51  C   UNL     1       3.844   2.272  -9.782  1.00  0.00     0.049 A 
ATOM     52  H   UNL     1       3.457   1.215  -7.998  1.00  0.00     0.167 HD
ATOM     53  C   UNL     1       6.099   1.934  -8.794  1.00  0.00     0.074 A 
ATOM     54  C   UNL     1       7.542   2.051  -8.818  1.00  0.00     0.031 C 
ATOM     55  C   UNL     1       5.280   2.402  -9.768  1.00  0.00     0.037 A 
BRANCH  42  56
ATOM     56  C   UNL     1      -0.723   1.238  -8.853  1.00  0.00     0.064 A 
ATOM     57  C   UNL     1      -1.694   2.020  -8.210  1.00  0.00     0.173 A 
ATOM     58  C   UNL     1      -1.101   0.558 -10.023  1.00  0.00     0.173 A 
ATOM     59  F   UNL     1      -1.391   2.678  -7.081  1.00  0.00    -0.203 F 
ATOM     60  C   UNL     1      -2.994   2.097  -8.702  1.00  0.00     0.198 A 
ATOM     61  C   UNL     1      -2.393   0.664 -10.530  1.00  0.00     0.198 A 
ATOM     62  F   UNL     1      -0.213  -0.203 -10.679  1.00  0.00    -0.203 F 
ATOM     63  F   UNL     1      -3.918   2.808  -8.041  1.00  0.00    -0.200 F 
ATOM     64  C   UNL     1      -3.341   1.425  -9.865  1.00  0.00     0.200 A 
ATOM     65  F   UNL     1      -2.720   0.025 -11.662  1.00  0.00    -0.200 F 
ATOM     66  F   UNL     1      -4.591   1.506 -10.341  1.00  0.00    -0.200 F 
ENDBRANCH  42  56
BRANCH  43  67
ATOM     67  C   UNL     1       8.533   0.178  -5.158  1.00  0.00     0.064 A 
ATOM     68  C   UNL     1       9.329   1.269  -4.785  1.00  0.00     0.173 A 
ATOM     69  C   UNL     1       9.091  -1.104  -5.042  1.00  0.00     0.173 A 
ATOM     70  F   UNL     1       8.850   2.517  -4.899  1.00  0.00    -0.203 F 
ATOM     71  C   UNL     1      10.635   1.088  -4.335  1.00  0.00     0.198 A 
ATOM     72  C   UNL     1      10.386  -1.287  -4.561  1.00  0.00     0.198 A 
ATOM     73  F   UNL     1       8.373  -2.184  -5.385  1.00  0.00    -0.203 F 
ATOM     74  F   UNL     1      11.391   2.153  -4.033  1.00  0.00    -0.200 F 
ATOM     75  C   UNL     1      11.161  -0.190  -4.217  1.00  0.00     0.200 A 
ATOM     76  F   UNL     1      10.884  -2.524  -4.435  1.00  0.00    -0.200 F 
ATOM     77  F   UNL     1      12.415  -0.363  -3.781  1.00  0.00    -0.200 F 
ENDBRANCH  43  67
BRANCH  55  78
ATOM     78  C   UNL     1       5.906   3.151 -10.908  1.00  0.00     0.064 A 
ATOM     79  C   UNL     1       6.638   2.500 -11.911  1.00  0.00     0.173 A 
ATOM     80  C   UNL     1       5.687   4.531 -11.044  1.00  0.00     0.173 A 
ATOM     81  F   UNL     1       6.887   1.185 -11.820  1.00  0.00    -0.203 F 
ATOM     82  C   UNL     1       7.136   3.206 -13.003  1.00  0.00     0.198 A 
ATOM     83  C   UNL     1       6.157   5.227 -12.152  1.00  0.00     0.198 A 
ATOM     84  F   UNL     1       4.985   5.198 -10.114  1.00  0.00    -0.203 F 
ATOM     85  F   UNL     1       7.859   2.571 -13.935  1.00  0.00    -0.200 F 
ATOM     86  C   UNL     1       6.884   4.565 -13.130  1.00  0.00     0.200 A 
ATOM     87  F   UNL     1       5.896   6.535 -12.281  1.00  0.00    -0.200 F 
ATOM     88  F   UNL     1       7.342   5.237 -14.195  1.00  0.00    -0.200 F 
ENDBRANCH  55  78
ENDBRANCH  29  30
ENDBRANCH  22  24
ENDBRANCH  21  22
ENDBRANCH  20  21
ENDBRANCH   1  20
TORSDOF 17
