REMARK SMILES Cc1cc(C(=O)OCCOC(=O)c2ccc(-c3c4nc(c(-c5c(F)c(F)c(F)c(F)c5F)c5ccc([nH]5)c(-c5c(F)c(F)c(F)c(F)c5F)c5nc(c(-c6c(F)c(F)c(F)c(F)c6F)c6ccc3[nH]6)C=C5)C=C4)cc2)ccc1-c1ccc(/C=N/NC(=O)c2cccc(N(C)C)c2)o1
REMARK SMILES IDX 7 1 5 2 6 3 4 4 1 5 2 6 3 7 78 8 77 9 76 10 79 11 80 12
REMARK SMILES IDX 97 13 81 14 82 15 83 16 84 17 85 18 86 19 87 21 88 22 89 23
REMARK SMILES IDX 96 24 90 25 92 26 91 27 93 28 94 29 95 30 8 31 9 32 10 33
REMARK SMILES IDX 11 34 12 35 13 36 14 37 75 38 15 39 74 40 16 41 17 42 18 43
REMARK SMILES IDX 68 44 19 45 73 46 67 47 69 48 20 49 72 50 66 51 65 52 21 54
REMARK SMILES IDX 53 55 33 56 52 57 34 58 37 59 51 60 70 61 35 62 36 63 50 65
REMARK SMILES IDX 71 66 38 67 22 68 23 69 31 70 24 71 25 72 29 73 32 74 26 75
REMARK SMILES IDX 27 76 30 77 28 78 54 79 55 80 63 81 56 82 57 83 61 84 64 85
REMARK SMILES IDX 58 86 59 87 62 88 60 89 39 90 40 91 48 92 41 93 42 94 46 95
REMARK SMILES IDX 49 96 43 97 44 98 47 99 45 100
REMARK H PARENT 85 20 69 53 37 64
REMARK Flexibility Score: inf
ROOT
ATOM      1  O   UNL     1      -2.876  -1.900  -1.970  1.00  0.00    -0.458 OA
ENDROOT
BRANCH   1   2
ATOM      2  C   UNL     1      -3.030  -0.943  -1.013  1.00  0.00     0.338 C 
ATOM      3  O   UNL     1      -4.028  -0.799  -0.318  1.00  0.00    -0.246 OA
BRANCH   2   4
ATOM      4  C   UNL     1      -1.892   0.000  -0.901  1.00  0.00     0.060 A 
ATOM      5  C   UNL     1       1.887   0.028  -0.550  1.00  0.00     0.045 C 
ATOM      6  C   UNL     1       0.484   0.562  -0.716  1.00  0.00    -0.039 A 
ATOM      7  C   UNL     1      -0.546  -0.363  -1.006  1.00  0.00     0.019 A 
ATOM      8  C   UNL     1       0.143   1.910  -0.485  1.00  0.00     0.020 A 
ATOM      9  C   UNL     1      -1.213   2.258  -0.380  1.00  0.00     0.013 A 
ATOM     10  C   UNL     1      -2.217   1.310  -0.551  1.00  0.00     0.016 A 
BRANCH   8  11
ATOM     11  C   UNL     1       1.119   2.991  -0.448  1.00  0.00     0.135 A 
ATOM     12  C   UNL     1       2.223   3.309  -1.213  1.00  0.00     0.051 A 
ATOM     13  O   UNL     1       0.877   3.989   0.452  1.00  0.00    -0.455 OA
ATOM     14  C   UNL     1       2.683   4.564  -0.751  1.00  0.00     0.053 A 
ATOM     15  C   UNL     1       1.831   4.945   0.266  1.00  0.00     0.147 A 
BRANCH  15  16
ATOM     16  C   UNL     1       1.795   6.109   1.102  1.00  0.00     0.180 C 
ATOM     17  N   UNL     1       2.773   6.958   1.054  1.00  0.00    -0.177 NA
BRANCH  17  18
ATOM     18  N   UNL     1       2.736   8.035   1.885  1.00  0.00    -0.243 N 
ATOM     19  C   UNL     1       2.415   8.150   3.225  1.00  0.00     0.271 C 
ATOM     20  H   UNL     1       2.982   8.886   1.454  1.00  0.00     0.194 HD
ATOM     21  O   UNL     1       2.288   9.280   3.701  1.00  0.00    -0.267 OA
BRANCH  19  22
ATOM     22  C   UNL     1       2.244   6.976   4.126  1.00  0.00     0.043 A 
ATOM     23  C   UNL     1       1.446   7.149   5.259  1.00  0.00     0.014 A 
ATOM     24  C   UNL     1       2.896   5.746   3.931  1.00  0.00     0.039 A 
ATOM     25  C   UNL     1       1.277   6.100   6.151  1.00  0.00     0.003 A 
ATOM     26  C   UNL     1       2.700   4.636   4.781  1.00  0.00     0.037 A 
ATOM     27  C   UNL     1       1.885   4.863   5.902  1.00  0.00     0.026 A 
BRANCH  26  28
ATOM     28  N   UNL     1       3.299   3.408   4.524  1.00  0.00    -0.378 N 
ATOM     29  C   UNL     1       3.147   2.241   5.389  1.00  0.00     0.143 C 
ATOM     30  C   UNL     1       3.851   3.124   3.200  1.00  0.00     0.143 C 
ENDBRANCH  26  28
ENDBRANCH  19  22
ENDBRANCH  17  18
ENDBRANCH  15  16
ENDBRANCH   8  11
ENDBRANCH   2   4
ENDBRANCH   1   2
BRANCH   1  31
ATOM     31  C   UNL     1      -4.039  -2.740  -2.057  1.00  0.00     0.275 C 
BRANCH  31  32
ATOM     32  C   UNL     1      -3.851  -4.049  -2.842  1.00  0.00     0.275 C 
BRANCH  32  33
ATOM     33  O   UNL     1      -2.580  -4.758  -2.863  1.00  0.00    -0.458 OA
BRANCH  33  34
ATOM     34  C   UNL     1      -1.503  -4.530  -2.084  1.00  0.00     0.338 C 
ATOM     35  O   UNL     1      -0.355  -4.526  -2.521  1.00  0.00    -0.246 OA
BRANCH  34  36
ATOM     36  C   UNL     1      -1.764  -4.312  -0.657  1.00  0.00     0.060 A 
ATOM     37  C   UNL     1      -0.869  -3.521   0.084  1.00  0.00     0.016 A 
ATOM     38  C   UNL     1      -2.950  -4.778  -0.104  1.00  0.00     0.016 A 
ATOM     39  C   UNL     1      -1.215  -3.086   1.351  1.00  0.00     0.010 A 
ATOM     40  C   UNL     1      -3.367  -4.234   1.078  1.00  0.00     0.010 A 
ATOM     41  C   UNL     1      -2.469  -3.453   1.824  1.00  0.00    -0.014 A 
BRANCH  41  42
ATOM     42  C   UNL     1      -2.801  -3.450   3.231  1.00  0.00     0.031 A 
ATOM     43  C   UNL     1      -3.399  -2.274   3.864  1.00  0.00     0.074 A 
ATOM     44  C   UNL     1      -2.682  -4.704   3.727  1.00  0.00     0.049 A 
ATOM     45  N   UNL     1      -3.476  -2.116   5.133  1.00  0.00    -0.248 NA
ATOM     46  C   UNL     1      -3.926  -1.129   3.127  1.00  0.00     0.031 C 
ATOM     47  C   UNL     1      -3.207  -5.343   4.914  1.00  0.00     0.029 A 
ATOM     48  N   UNL     1      -1.862  -5.701   3.150  1.00  0.00    -0.354 N 
ATOM     49  C   UNL     1      -4.359  -1.081   5.373  1.00  0.00     0.074 A 
ATOM     50  C   UNL     1      -4.474  -0.402   4.109  1.00  0.00     0.031 C 
ATOM     51  C   UNL     1      -2.462  -6.443   5.163  1.00  0.00     0.029 A 
ATOM     52  C   UNL     1      -1.355  -6.449   4.209  1.00  0.00     0.049 A 
ATOM     53  H   UNL     1      -1.686  -5.839   2.191  1.00  0.00     0.167 HD
ATOM     54  C   UNL     1      -5.002  -1.076   6.579  1.00  0.00     0.037 A 
ATOM     55  C   UNL     1      -0.034  -6.271   4.510  1.00  0.00     0.037 A 
ATOM     56  C   UNL     1      -4.460  -2.167   7.396  1.00  0.00     0.049 A 
ATOM     57  C   UNL     1       0.078  -5.574   5.843  1.00  0.00     0.074 A 
ATOM     58  C   UNL     1      -4.889  -3.470   7.587  1.00  0.00     0.029 A 
ATOM     59  N   UNL     1      -3.120  -2.128   7.768  1.00  0.00    -0.354 N 
ATOM     60  N   UNL     1      -0.745  -4.650   6.267  1.00  0.00    -0.248 NA
ATOM     61  C   UNL     1       1.048  -5.991   6.845  1.00  0.00     0.031 C 
ATOM     62  C   UNL     1      -3.756  -4.240   7.971  1.00  0.00     0.029 A 
ATOM     63  C   UNL     1      -2.649  -3.405   8.014  1.00  0.00     0.049 A 
ATOM     64  H   UNL     1      -2.583  -1.307   7.845  1.00  0.00     0.167 HD
ATOM     65  C   UNL     1      -0.502  -4.426   7.597  1.00  0.00     0.074 A 
ATOM     66  C   UNL     1       0.645  -5.268   7.901  1.00  0.00     0.031 C 
ATOM     67  C   UNL     1      -1.263  -3.621   8.397  1.00  0.00     0.037 A 
BRANCH  54  68
ATOM     68  C   UNL     1      -6.277  -0.339   6.955  1.00  0.00     0.064 A 
ATOM     69  C   UNL     1      -6.992  -0.726   8.117  1.00  0.00     0.173 A 
ATOM     70  C   UNL     1      -6.890   0.694   6.221  1.00  0.00     0.173 A 
ATOM     71  F   UNL     1      -6.514  -1.657   8.954  1.00  0.00    -0.203 F 
ATOM     72  C   UNL     1      -8.230  -0.178   8.468  1.00  0.00     0.198 A 
ATOM     73  C   UNL     1      -8.133   1.241   6.572  1.00  0.00     0.198 A 
ATOM     74  F   UNL     1      -6.314   1.240   5.148  1.00  0.00    -0.203 F 
ATOM     75  F   UNL     1      -8.863  -0.615   9.567  1.00  0.00    -0.200 F 
ATOM     76  C   UNL     1      -8.808   0.799   7.689  1.00  0.00     0.200 A 
ATOM     77  F   UNL     1      -8.672   2.205   5.811  1.00  0.00    -0.200 F 
ATOM     78  F   UNL     1      -9.997   1.321   8.019  1.00  0.00    -0.200 F 
ENDBRANCH  54  68
BRANCH  55  79
ATOM     79  C   UNL     1       0.845  -6.052   3.307  1.00  0.00     0.064 A 
ATOM     80  C   UNL     1       0.778  -6.992   2.248  1.00  0.00     0.173 A 
ATOM     81  C   UNL     1       1.518  -4.856   3.032  1.00  0.00     0.173 A 
ATOM     82  F   UNL     1       0.161  -8.170   2.438  1.00  0.00    -0.203 F 
ATOM     83  C   UNL     1       1.247  -6.706   0.965  1.00  0.00     0.198 A 
ATOM     84  C   UNL     1       2.016  -4.582   1.748  1.00  0.00     0.198 A 
ATOM     85  F   UNL     1       1.634  -3.907   3.971  1.00  0.00    -0.203 F 
ATOM     86  F   UNL     1       1.046  -7.580  -0.032  1.00  0.00    -0.200 F 
ATOM     87  C   UNL     1       1.856  -5.493   0.712  1.00  0.00     0.200 A 
ATOM     88  F   UNL     1       2.574  -3.389   1.486  1.00  0.00    -0.200 F 
ATOM     89  F   UNL     1       2.242  -5.176  -0.532  1.00  0.00    -0.200 F 
ENDBRANCH  55  79
BRANCH  67  90
ATOM     90  C   UNL     1      -0.777  -3.037   9.698  1.00  0.00     0.064 A 
ATOM     91  C   UNL     1       0.583  -2.830   9.982  1.00  0.00     0.173 A 
ATOM     92  C   UNL     1      -1.687  -2.492  10.636  1.00  0.00     0.173 A 
ATOM     93  F   UNL     1       1.540  -3.151   9.102  1.00  0.00    -0.203 F 
ATOM     94  C   UNL     1       1.005  -2.223  11.162  1.00  0.00     0.198 A 
ATOM     95  C   UNL     1      -1.261  -1.806  11.769  1.00  0.00     0.198 A 
ATOM     96  F   UNL     1      -3.014  -2.572  10.466  1.00  0.00    -0.203 F 
ATOM     97  F   UNL     1       2.316  -2.119  11.416  1.00  0.00    -0.200 F 
ATOM     98  C   UNL     1       0.085  -1.698  12.048  1.00  0.00     0.200 A 
ATOM     99  F   UNL     1      -2.164  -1.229  12.574  1.00  0.00    -0.200 F 
ATOM    100  F   UNL     1       0.496  -1.065  13.153  1.00  0.00    -0.200 F 
ENDBRANCH  67  90
ENDBRANCH  41  42
ENDBRANCH  34  36
ENDBRANCH  33  34
ENDBRANCH  32  33
ENDBRANCH  31  32
ENDBRANCH   1  31
TORSDOF 16
