REMARK SMILES O=C(OCCOC(=O)[C@H]1[C@H]2CC[C@H](CC2)[C@@H]1C(=O)Nc1sc2c(c1C(=O)N1CCCCC1)CCCC2)c1ccc(-c2c3nc(c(-c4c(F)c(F)c(F)c(F)c4F)c4ccc([nH]4)c(-c4c(F)c(F)c(F)c(F)c4F)c4nc(c(-c5c(F)c(F)c(F)c(F)c5F)c5ccc2[nH]5)C=C4)C=C3)cc1
REMARK SMILES IDX 5 1 4 2 3 3 2 4 1 5 37 6 38 7 99 8 39 9 98 10 40 11 41 12
REMARK SMILES IDX 42 13 92 14 43 15 97 16 91 17 93 18 44 19 96 20 90 21 89 22
REMARK SMILES IDX 45 24 77 25 57 26 76 27 58 28 61 29 75 30 94 31 59 32 60 33
REMARK SMILES IDX 74 35 95 36 62 37 46 38 47 39 55 40 48 41 49 42 53 43 56 44
REMARK SMILES IDX 50 45 51 46 54 47 52 48 78 49 79 50 87 51 80 52 81 53 85 54
REMARK SMILES IDX 88 55 82 56 83 57 86 58 84 59 63 60 64 61 72 62 65 63 66 64
REMARK SMILES IDX 70 65 73 66 67 67 68 68 71 69 69 70 6 71 7 72 8 73 9 74
REMARK SMILES IDX 10 75 16 76 15 77 11 78 13 79 14 80 12 81 17 82 18 83 19 84
REMARK SMILES IDX 20 86 21 87 24 88 22 89 23 90 36 91 33 92 35 93 34 94 25 95
REMARK SMILES IDX 26 96 27 97 28 98 32 99 29 100 31 101 30 102
REMARK H PARENT 93 23 61 34 19 85
REMARK Flexibility Score: inf
ROOT
ATOM      1  C   UNL     1       4.268   0.398   1.839  1.00  0.00     0.274 C 
ENDROOT
BRANCH   1   2
ATOM      2  C   UNL     1       4.363   1.293   0.601  1.00  0.00     0.275 C 
BRANCH   2   3
ATOM      3  O   UNL     1       3.256   1.163  -0.316  1.00  0.00    -0.458 OA
BRANCH   3   4
ATOM      4  C   UNL     1       3.024   0.248  -1.290  1.00  0.00     0.338 C 
ATOM      5  O   UNL     1       2.085   0.435  -2.063  1.00  0.00    -0.246 OA
BRANCH   4   6
ATOM      6  C   UNL     1       3.768  -1.048  -1.412  1.00  0.00     0.060 A 
ATOM      7  C   UNL     1       5.099  -1.261  -1.041  1.00  0.00     0.016 A 
ATOM      8  C   UNL     1       3.048  -2.144  -1.925  1.00  0.00     0.016 A 
ATOM      9  C   UNL     1       5.664  -2.541  -1.058  1.00  0.00     0.010 A 
ATOM     10  C   UNL     1       3.617  -3.422  -1.969  1.00  0.00     0.010 A 
ATOM     11  C   UNL     1       4.925  -3.632  -1.510  1.00  0.00    -0.014 A 
BRANCH  11  12
ATOM     12  C   UNL     1       5.580  -4.949  -1.676  1.00  0.00     0.031 A 
ATOM     13  C   UNL     1       6.076  -5.299  -3.043  1.00  0.00     0.074 A 
ATOM     14  C   UNL     1       5.780  -5.793  -0.645  1.00  0.00     0.049 A 
ATOM     15  N   UNL     1       6.747  -6.351  -3.423  1.00  0.00    -0.248 NA
ATOM     16  C   UNL     1       5.863  -4.297  -4.102  1.00  0.00     0.031 C 
ATOM     17  C   UNL     1       5.538  -5.495   0.760  1.00  0.00     0.029 A 
ATOM     18  N   UNL     1       6.204  -7.098  -0.617  1.00  0.00    -0.354 N 
ATOM     19  C   UNL     1       7.108  -6.099  -4.736  1.00  0.00     0.074 A 
ATOM     20  C   UNL     1       6.510  -4.842  -5.120  1.00  0.00     0.031 C 
ATOM     21  C   UNL     1       5.626  -6.619   1.489  1.00  0.00     0.029 A 
ATOM     22  C   UNL     1       6.039  -7.700   0.611  1.00  0.00     0.049 A 
ATOM     23  H   UNL     1       6.587  -7.559  -1.398  1.00  0.00     0.167 HD
ATOM     24  C   UNL     1       7.917  -6.840  -5.524  1.00  0.00     0.037 A 
ATOM     25  C   UNL     1       6.229  -8.977   0.988  1.00  0.00     0.037 A 
ATOM     26  C   UNL     1       8.450  -8.114  -5.134  1.00  0.00     0.049 A 
ATOM     27  C   UNL     1       6.927  -9.880   0.012  1.00  0.00     0.074 A 
ATOM     28  C   UNL     1       9.258  -8.970  -5.857  1.00  0.00     0.029 A 
ATOM     29  N   UNL     1       8.194  -8.732  -3.916  1.00  0.00    -0.354 N 
ATOM     30  N   UNL     1       7.342  -9.606  -1.202  1.00  0.00    -0.248 NA
ATOM     31  C   UNL     1       7.269 -11.228   0.477  1.00  0.00     0.031 C 
ATOM     32  C   UNL     1       9.430 -10.137  -5.105  1.00  0.00     0.029 A 
ATOM     33  C   UNL     1       8.785  -9.982  -3.886  1.00  0.00     0.049 A 
ATOM     34  H   UNL     1       7.669  -8.337  -3.182  1.00  0.00     0.167 HD
ATOM     35  C   UNL     1       8.058 -10.714  -1.619  1.00  0.00     0.074 A 
ATOM     36  C   UNL     1       8.010 -11.670  -0.528  1.00  0.00     0.031 C 
ATOM     37  C   UNL     1       8.717 -10.912  -2.786  1.00  0.00     0.037 A 
BRANCH  24  38
ATOM     38  C   UNL     1       8.232  -6.287  -6.878  1.00  0.00     0.064 A 
ATOM     39  C   UNL     1       9.075  -5.175  -7.039  1.00  0.00     0.173 A 
ATOM     40  C   UNL     1       7.673  -6.861  -8.027  1.00  0.00     0.173 A 
ATOM     41  F   UNL     1       9.611  -4.572  -5.967  1.00  0.00    -0.203 F 
ATOM     42  C   UNL     1       9.329  -4.647  -8.302  1.00  0.00     0.198 A 
ATOM     43  C   UNL     1       7.949  -6.346  -9.290  1.00  0.00     0.198 A 
ATOM     44  F   UNL     1       6.851  -7.916  -7.923  1.00  0.00    -0.203 F 
ATOM     45  F   UNL     1      10.098  -3.556  -8.429  1.00  0.00    -0.200 F 
ATOM     46  C   UNL     1       8.771  -5.236  -9.426  1.00  0.00     0.200 A 
ATOM     47  F   UNL     1       7.410  -6.916 -10.376  1.00  0.00    -0.200 F 
ATOM     48  F   UNL     1       9.015  -4.728 -10.642  1.00  0.00    -0.200 F 
ENDBRANCH  24  38
BRANCH  25  49
ATOM     49  C   UNL     1       5.830  -9.447   2.342  1.00  0.00     0.064 A 
ATOM     50  C   UNL     1       6.780  -9.801   3.309  1.00  0.00     0.173 A 
ATOM     51  C   UNL     1       4.476  -9.599   2.680  1.00  0.00     0.173 A 
ATOM     52  F   UNL     1       8.088  -9.682   3.037  1.00  0.00    -0.203 F 
ATOM     53  C   UNL     1       6.396 -10.329   4.542  1.00  0.00     0.198 A 
ATOM     54  C   UNL     1       4.091 -10.107   3.921  1.00  0.00     0.198 A 
ATOM     55  F   UNL     1       3.522  -9.268   1.797  1.00  0.00    -0.203 F 
ATOM     56  F   UNL     1       7.329 -10.714   5.423  1.00  0.00    -0.200 F 
ATOM     57  C   UNL     1       5.052 -10.485   4.846  1.00  0.00     0.200 A 
ATOM     58  F   UNL     1       2.791 -10.249   4.214  1.00  0.00    -0.200 F 
ATOM     59  F   UNL     1       4.685 -11.010   6.023  1.00  0.00    -0.200 F 
ENDBRANCH  25  49
BRANCH  37  60
ATOM     60  C   UNL     1       9.466 -12.202  -2.927  1.00  0.00     0.064 A 
ATOM     61  C   UNL     1       8.800 -13.427  -3.060  1.00  0.00     0.173 A 
ATOM     62  C   UNL     1      10.869 -12.202  -2.971  1.00  0.00     0.173 A 
ATOM     63  F   UNL     1       7.460 -13.478  -3.005  1.00  0.00    -0.203 F 
ATOM     64  C   UNL     1       9.512 -14.612  -3.205  1.00  0.00     0.198 A 
ATOM     65  C   UNL     1      11.576 -13.384  -3.156  1.00  0.00     0.198 A 
ATOM     66  F   UNL     1      11.551 -11.052  -2.851  1.00  0.00    -0.203 F 
ATOM     67  F   UNL     1       8.858 -15.780  -3.273  1.00  0.00    -0.200 F 
ATOM     68  C   UNL     1      10.898 -14.588  -3.264  1.00  0.00     0.200 A 
ATOM     69  F   UNL     1      12.914 -13.357  -3.231  1.00  0.00    -0.200 F 
ATOM     70  F   UNL     1      11.582 -15.730  -3.418  1.00  0.00    -0.200 F 
ENDBRANCH  37  60
ENDBRANCH  11  12
ENDBRANCH   4   6
ENDBRANCH   3   4
ENDBRANCH   2   3
ENDBRANCH   1   2
BRANCH   1  71
ATOM     71  O   UNL     1       3.723  -0.876   1.481  1.00  0.00    -0.462 OA
BRANCH  71  72
ATOM     72  C   UNL     1       2.728  -1.369   2.265  1.00  0.00     0.310 C 
ATOM     73  O   UNL     1       2.493  -0.994   3.407  1.00  0.00    -0.252 OA
BRANCH  72  74
ATOM     74  C   UNL     1       1.974  -2.453   1.502  1.00  0.00     0.115 C 
ATOM     75  C   UNL     1       2.773  -3.762   1.560  1.00  0.00     0.004 C 
ATOM     76  C   UNL     1       0.542  -2.693   2.006  1.00  0.00     0.096 C 
ATOM     77  C   UNL     1       2.947  -4.206   3.022  1.00  0.00     0.005 C 
ATOM     78  C   UNL     1       2.012  -4.876   0.817  1.00  0.00     0.005 C 
ATOM     79  C   UNL     1       0.456  -4.123   2.628  1.00  0.00     0.002 C 
ATOM     80  C   UNL     1       1.569  -4.237   3.702  1.00  0.00     0.005 C 
ATOM     81  C   UNL     1       0.741  -5.228   1.593  1.00  0.00     0.005 C 
BRANCH  76  82
ATOM     82  C   UNL     1      -0.454  -2.480   0.840  1.00  0.00     0.229 C 
ATOM     83  O   UNL     1      -0.551  -3.284  -0.090  1.00  0.00    -0.274 OA
ATOM     84  N   UNL     1      -1.292  -1.397   0.838  1.00  0.00    -0.317 N 
ATOM     85  H   UNL     1      -2.025  -1.396   0.181  1.00  0.00     0.170 HD
BRANCH  84  86
ATOM     86  C   UNL     1      -1.194  -0.315   1.675  1.00  0.00     0.108 A 
ATOM     87  S   UNL     1       0.226   0.602   1.571  1.00  0.00    -0.122 S 
ATOM     88  C   UNL     1      -2.148   0.221   2.526  1.00  0.00     0.078 A 
ATOM     89  C   UNL     1      -0.163   1.405   3.004  1.00  0.00     0.011 A 
ATOM     90  C   UNL     1      -1.494   1.233   3.354  1.00  0.00    -0.019 A 
ATOM     91  C   UNL     1       0.854   2.224   3.736  1.00  0.00     0.047 C 
ATOM     92  C   UNL     1      -2.044   1.978   4.529  1.00  0.00     0.037 C 
ATOM     93  C   UNL     1       0.342   2.594   5.132  1.00  0.00     0.006 C 
ATOM     94  C   UNL     1      -1.107   3.067   5.065  1.00  0.00     0.005 C 
BRANCH  88  95
ATOM     95  C   UNL     1      -3.488  -0.400   2.599  1.00  0.00     0.257 C 
ATOM     96  O   UNL     1      -3.817  -1.311   1.835  1.00  0.00    -0.269 OA
ATOM     97  N   UNL     1      -4.318  -0.039   3.650  1.00  0.00    -0.339 N 
ATOM     98  C   UNL     1      -4.997  -1.118   4.349  1.00  0.00     0.120 C 
ATOM     99  C   UNL     1      -5.086   1.195   3.586  1.00  0.00     0.120 C 
ATOM    100  C   UNL     1      -5.221  -0.710   5.796  1.00  0.00     0.022 C 
ATOM    101  C   UNL     1      -5.437   1.692   4.991  1.00  0.00     0.022 C 
ATOM    102  C   UNL     1      -6.021   0.591   5.880  1.00  0.00     0.004 C 
ENDBRANCH  88  95
ENDBRANCH  84  86
ENDBRANCH  76  82
ENDBRANCH  72  74
ENDBRANCH  71  72
ENDBRANCH   1  71
TORSDOF 14
