REMARK SMILES O=C(OCCOC(=O)c1ccc(S(=O)(=O)NCCCn2cccn2)cc1)c1ccc(-c2c3nc(c(-c4c(F)c(F)c(F)c(F)c4F)c4ccc([nH]4)c(-c4c(F)c(F)c(F)c(F)c4F)c4nc(c(-c5c(F)c(F)c(F)c(F)c5F)c5ccc2[nH]5)C=C4)C=C3)cc1
REMARK SMILES IDX 7 1 8 2 6 3 5 4 4 5 3 6 2 7 1 8 27 9 28 10 89 11 29 12 88 13
REMARK SMILES IDX 30 14 31 15 32 16 82 17 33 18 87 19 81 20 83 21 34 22 86 23
REMARK SMILES IDX 80 24 79 25 35 27 67 28 47 29 66 30 48 31 51 32 65 33 84 34
REMARK SMILES IDX 49 35 50 36 64 38 85 39 52 40 36 41 37 42 45 43 38 44 39 45
REMARK SMILES IDX 43 46 46 47 40 48 41 49 44 50 42 51 68 52 69 53 77 54 70 55
REMARK SMILES IDX 71 56 75 57 78 58 72 59 73 60 76 61 74 62 53 63 54 64 62 65
REMARK SMILES IDX 55 66 56 67 60 68 63 69 57 70 58 71 61 72 59 73 9 74 10 75
REMARK SMILES IDX 26 76 11 77 25 78 12 79 13 80 14 81 15 82 16 83 17 85 18 86
REMARK SMILES IDX 19 87 20 88 21 89 24 90 22 91 23 92
REMARK H PARENT 83 26 51 37 16 84
REMARK Flexibility Score: inf
ROOT
ATOM      1  C   UNL     1       3.051   2.580   0.323  1.00  0.00     0.338 C 
ATOM      2  O   UNL     1       2.484   3.179  -0.574  1.00  0.00    -0.246 OA
ENDROOT
BRANCH   1   3
ATOM      3  O   UNL     1       4.120   1.752   0.221  1.00  0.00    -0.458 OA
BRANCH   3   4
ATOM      4  C   UNL     1       4.612   1.551  -1.119  1.00  0.00     0.275 C 
BRANCH   4   5
ATOM      5  C   UNL     1       4.864   0.067  -1.393  1.00  0.00     0.275 C 
BRANCH   5   6
ATOM      6  O   UNL     1       3.714  -0.803  -1.465  1.00  0.00    -0.458 OA
BRANCH   6   7
ATOM      7  C   UNL     1       2.562  -0.422  -0.872  1.00  0.00     0.338 C 
ATOM      8  O   UNL     1       1.655   0.155  -1.448  1.00  0.00    -0.246 OA
BRANCH   7   9
ATOM      9  C   UNL     1       2.430  -0.962   0.504  1.00  0.00     0.060 A 
ATOM     10  C   UNL     1       3.531  -1.431   1.233  1.00  0.00     0.016 A 
ATOM     11  C   UNL     1       1.150  -1.003   1.070  1.00  0.00     0.016 A 
ATOM     12  C   UNL     1       3.350  -2.005   2.481  1.00  0.00     0.010 A 
ATOM     13  C   UNL     1       0.969  -1.561   2.328  1.00  0.00     0.010 A 
ATOM     14  C   UNL     1       2.062  -2.117   3.001  1.00  0.00    -0.014 A 
BRANCH  14  15
ATOM     15  C   UNL     1       1.888  -2.918   4.209  1.00  0.00     0.031 A 
ATOM     16  C   UNL     1       2.449  -2.405   5.493  1.00  0.00     0.074 A 
ATOM     17  C   UNL     1       1.135  -4.036   4.175  1.00  0.00     0.049 A 
ATOM     18  N   UNL     1       3.195  -3.023   6.358  1.00  0.00    -0.248 NA
ATOM     19  C   UNL     1       2.140  -1.016   5.857  1.00  0.00     0.031 C 
ATOM     20  C   UNL     1       0.314  -4.532   3.065  1.00  0.00     0.029 A 
ATOM     21  N   UNL     1       0.846  -4.901   5.186  1.00  0.00    -0.354 N 
ATOM     22  C   UNL     1       3.325  -2.159   7.446  1.00  0.00     0.074 A 
ATOM     23  C   UNL     1       2.720  -0.911   7.054  1.00  0.00     0.031 C 
ATOM     24  C   UNL     1      -0.556  -5.450   3.535  1.00  0.00     0.029 A 
ATOM     25  C   UNL     1      -0.255  -5.699   4.933  1.00  0.00     0.049 A 
ATOM     26  H   UNL     1       1.371  -4.953   6.018  1.00  0.00     0.167 HD
ATOM     27  C   UNL     1       3.769  -2.566   8.668  1.00  0.00     0.037 A 
ATOM     28  C   UNL     1      -0.936  -6.443   5.832  1.00  0.00     0.037 A 
ATOM     29  C   UNL     1       4.518  -3.788   8.608  1.00  0.00     0.049 A 
ATOM     30  C   UNL     1      -0.051  -6.680   6.996  1.00  0.00     0.074 A 
ATOM     31  C   UNL     1       5.695  -4.183   8.002  1.00  0.00     0.029 A 
ATOM     32  N   UNL     1       3.932  -4.949   9.040  1.00  0.00    -0.354 N 
ATOM     33  N   UNL     1       1.027  -7.414   6.959  1.00  0.00    -0.248 NA
ATOM     34  C   UNL     1      -0.147  -5.769   8.126  1.00  0.00     0.031 C 
ATOM     35  C   UNL     1       5.497  -5.553   7.662  1.00  0.00     0.029 A 
ATOM     36  C   UNL     1       4.217  -5.900   8.095  1.00  0.00     0.049 A 
ATOM     37  H   UNL     1       3.410  -5.075   9.866  1.00  0.00     0.167 HD
ATOM     38  C   UNL     1       1.916  -6.783   7.816  1.00  0.00     0.074 A 
ATOM     39  C   UNL     1       1.103  -5.848   8.586  1.00  0.00     0.031 C 
ATOM     40  C   UNL     1       3.265  -6.878   7.629  1.00  0.00     0.037 A 
BRANCH  27  41
ATOM     41  C   UNL     1       3.283  -1.988   9.971  1.00  0.00     0.064 A 
ATOM     42  C   UNL     1       3.987  -2.233  11.165  1.00  0.00     0.173 A 
ATOM     43  C   UNL     1       1.988  -1.446  10.122  1.00  0.00     0.173 A 
ATOM     44  F   UNL     1       5.207  -2.792  11.137  1.00  0.00    -0.203 F 
ATOM     45  C   UNL     1       3.419  -1.988  12.419  1.00  0.00     0.198 A 
ATOM     46  C   UNL     1       1.445  -1.153  11.371  1.00  0.00     0.198 A 
ATOM     47  F   UNL     1       1.168  -1.292   9.074  1.00  0.00    -0.203 F 
ATOM     48  F   UNL     1       4.081  -2.337  13.531  1.00  0.00    -0.200 F 
ATOM     49  C   UNL     1       2.150  -1.447  12.521  1.00  0.00     0.200 A 
ATOM     50  F   UNL     1       0.202  -0.659  11.453  1.00  0.00    -0.200 F 
ATOM     51  F   UNL     1       1.584  -1.262  13.721  1.00  0.00    -0.200 F 
ENDBRANCH  27  41
BRANCH  28  52
ATOM     52  C   UNL     1      -2.399  -6.659   5.854  1.00  0.00     0.064 A 
ATOM     53  C   UNL     1      -2.970  -7.733   6.549  1.00  0.00     0.173 A 
ATOM     54  C   UNL     1      -3.288  -5.675   5.373  1.00  0.00     0.173 A 
ATOM     55  F   UNL     1      -2.187  -8.680   7.086  1.00  0.00    -0.203 F 
ATOM     56  C   UNL     1      -4.351  -7.819   6.748  1.00  0.00     0.198 A 
ATOM     57  C   UNL     1      -4.665  -5.768   5.559  1.00  0.00     0.198 A 
ATOM     58  F   UNL     1      -2.829  -4.559   4.787  1.00  0.00    -0.203 F 
ATOM     59  F   UNL     1      -4.862  -8.835   7.458  1.00  0.00    -0.200 F 
ATOM     60  C   UNL     1      -5.197  -6.836   6.255  1.00  0.00     0.200 A 
ATOM     61  F   UNL     1      -5.465  -4.792   5.107  1.00  0.00    -0.200 F 
ATOM     62  F   UNL     1      -6.516  -6.898   6.483  1.00  0.00    -0.200 F 
ENDBRANCH  28  52
BRANCH  40  63
ATOM     63  C   UNL     1       3.759  -7.876   6.623  1.00  0.00     0.064 A 
ATOM     64  C   UNL     1       3.507  -7.762   5.245  1.00  0.00     0.173 A 
ATOM     65  C   UNL     1       4.638  -8.884   7.035  1.00  0.00     0.173 A 
ATOM     66  F   UNL     1       2.775  -6.751   4.763  1.00  0.00    -0.203 F 
ATOM     67  C   UNL     1       4.064  -8.651   4.329  1.00  0.00     0.198 A 
ATOM     68  C   UNL     1       5.223  -9.751   6.114  1.00  0.00     0.198 A 
ATOM     69  F   UNL     1       4.974  -8.996   8.330  1.00  0.00    -0.203 F 
ATOM     70  F   UNL     1       3.798  -8.523   3.020  1.00  0.00    -0.200 F 
ATOM     71  C   UNL     1       4.926  -9.642   4.764  1.00  0.00     0.200 A 
ATOM     72  F   UNL     1       6.101 -10.673   6.531  1.00  0.00    -0.200 F 
ATOM     73  F   UNL     1       5.499 -10.470   3.879  1.00  0.00    -0.200 F 
ENDBRANCH  40  63
ENDBRANCH  14  15
ENDBRANCH   7   9
ENDBRANCH   6   7
ENDBRANCH   5   6
ENDBRANCH   4   5
ENDBRANCH   3   4
ENDBRANCH   1   3
BRANCH   1  74
ATOM     74  C   UNL     1       2.602   2.642   1.724  1.00  0.00     0.060 A 
ATOM     75  C   UNL     1       1.266   2.344   2.016  1.00  0.00     0.017 A 
ATOM     76  C   UNL     1       3.468   3.096   2.724  1.00  0.00     0.017 A 
ATOM     77  C   UNL     1       0.787   2.508   3.316  1.00  0.00     0.022 A 
ATOM     78  C   UNL     1       2.987   3.274   4.024  1.00  0.00     0.022 A 
ATOM     79  C   UNL     1       1.644   2.995   4.308  1.00  0.00     0.082 A 
BRANCH  79  80
ATOM     80  S   UNL     1       0.976   3.396   5.906  1.00  0.00     0.240 S 
ATOM     81  O   UNL     1      -0.456   3.614   5.747  1.00  0.00    -0.207 OA
ATOM     82  O   UNL     1       1.490   2.434   6.836  1.00  0.00    -0.207 OA
BRANCH  80  83
ATOM     83  N   UNL     1       1.665   4.868   6.277  1.00  0.00    -0.211 NA
ATOM     84  H   UNL     1       2.668   4.693   6.343  1.00  0.00     0.141 HD
BRANCH  83  85
ATOM     85  C   UNL     1       1.527   6.070   5.459  1.00  0.00     0.101 C 
BRANCH  85  86
ATOM     86  C   UNL     1       0.134   6.683   5.487  1.00  0.00     0.040 C 
BRANCH  86  87
ATOM     87  C   UNL     1      -0.356   7.072   6.878  1.00  0.00     0.145 C 
BRANCH  87  88
ATOM     88  N   UNL     1       0.417   8.158   7.451  1.00  0.00    -0.273 N 
ATOM     89  C   UNL     1       0.185   9.494   7.291  1.00  0.00     0.108 A 
ATOM     90  N   UNL     1       1.521   7.890   8.176  1.00  0.00    -0.182 NA
ATOM     91  C   UNL     1       1.196  10.137   7.965  1.00  0.00     0.042 A 
ATOM     92  C   UNL     1       1.985   9.101   8.497  1.00  0.00     0.135 A 
ENDBRANCH  87  88
ENDBRANCH  86  87
ENDBRANCH  85  86
ENDBRANCH  83  85
ENDBRANCH  80  83
ENDBRANCH  79  80
ENDBRANCH   1  74
TORSDOF 17
