REMARK SMILES C=CCn1c(=S)[nH]c2cc(C(=O)OCCOC(=O)c3ccc(-c4c5nc(c(-c6c(F)c(F)c(F)c(F)c6F)c6ccc([nH]6)c(-c6c(F)c(F)c(F)c(F)c6F)c6nc(c(-c7c(F)c(F)c(F)c(F)c7F)c7ccc4[nH]7)C=C6)C=C5)cc3)ccc2c1=O
REMARK SMILES IDX 14 1 13 2 11 3 12 4 10 5 4 6 5 7 85 8 6 9 7 10 84 11 86 12
REMARK SMILES IDX 8 13 83 15 9 16 82 17 3 18 2 19 1 20 15 21 16 22 17 23 18 24
REMARK SMILES IDX 19 25 20 26 81 27 21 28 80 29 22 30 23 31 24 32 74 33 25 34
REMARK SMILES IDX 79 35 73 36 75 37 26 38 78 39 72 40 71 41 27 43 59 44 39 45
REMARK SMILES IDX 58 46 40 47 43 48 57 49 76 50 41 51 42 52 56 54 77 55 44 56
REMARK SMILES IDX 28 57 29 58 37 59 30 60 31 61 35 62 38 63 32 64 33 65 36 66
REMARK SMILES IDX 34 67 60 68 61 69 69 70 62 71 63 72 67 73 70 74 64 75 65 76
REMARK SMILES IDX 68 77 66 78 45 79 46 80 54 81 47 82 48 83 52 84 55 85 49 86
REMARK SMILES IDX 50 87 53 88 51 89
REMARK H PARENT 7 14 75 42 43 53
REMARK Flexibility Score: inf
ROOT
ATOM      1  C   UNL     1      -3.835  -6.382  -7.410  1.00  0.00     0.275 C 
ENDROOT
BRANCH   1   2
ATOM      2  O   UNL     1      -3.413  -5.293  -6.558  1.00  0.00    -0.458 OA
BRANCH   2   3
ATOM      3  C   UNL     1      -3.878  -5.338  -5.289  1.00  0.00     0.338 C 
ATOM      4  O   UNL     1      -4.592  -6.204  -4.804  1.00  0.00    -0.246 OA
BRANCH   3   5
ATOM      5  C   UNL     1      -3.329  -4.243  -4.460  1.00  0.00     0.062 A 
ATOM      6  N   UNL     1      -1.592  -1.811  -0.386  1.00  0.00    -0.281 N 
ATOM      7  C   UNL     1      -1.523  -3.172  -0.090  1.00  0.00     0.180 A 
ATOM      8  C   UNL     1      -2.080  -1.305  -1.608  1.00  0.00     0.262 A 
ATOM      9  S   UNL     1      -1.034  -3.898   1.343  1.00  0.00    -0.040 S 
ATOM     10  N   UNL     1      -1.901  -4.031  -1.078  1.00  0.00    -0.332 N 
ATOM     11  C   UNL     1      -2.496  -2.288  -2.631  1.00  0.00     0.064 A 
ATOM     12  O   UNL     1      -2.204  -0.111  -1.871  1.00  0.00    -0.269 OA
ATOM     13  C   UNL     1      -2.387  -3.626  -2.313  1.00  0.00     0.054 A 
ATOM     14  H   UNL     1      -1.825  -4.998  -0.905  1.00  0.00     0.169 HD
ATOM     15  C   UNL     1      -3.018  -1.915  -3.882  1.00  0.00     0.017 A 
ATOM     16  C   UNL     1      -2.805  -4.592  -3.213  1.00  0.00     0.042 A 
ATOM     17  C   UNL     1      -3.432  -2.895  -4.804  1.00  0.00     0.016 A 
BRANCH   6  18
ATOM     18  C   UNL     1      -1.153  -0.810   0.587  1.00  0.00     0.155 C 
BRANCH  18  19
ATOM     19  C   UNL     1       0.344  -0.672   0.502  1.00  0.00    -0.013 C 
ATOM     20  C   UNL     1       0.983   0.382  -0.019  1.00  0.00     0.006 C 
ENDBRANCH  18  19
ENDBRANCH   6  18
ENDBRANCH   3   5
ENDBRANCH   2   3
ENDBRANCH   1   2
BRANCH   1  21
ATOM     21  C   UNL     1      -2.743  -7.442  -7.580  1.00  0.00     0.275 C 
BRANCH  21  22
ATOM     22  O   UNL     1      -2.567  -8.208  -6.372  1.00  0.00    -0.458 OA
BRANCH  22  23
ATOM     23  C   UNL     1      -1.446  -7.927  -5.674  1.00  0.00     0.338 C 
ATOM     24  O   UNL     1      -0.580  -7.114  -5.949  1.00  0.00    -0.246 OA
BRANCH  23  25
ATOM     25  C   UNL     1      -1.433  -8.671  -4.406  1.00  0.00     0.060 A 
ATOM     26  C   UNL     1      -0.565  -9.733  -4.185  1.00  0.00     0.016 A 
ATOM     27  C   UNL     1      -2.149  -8.135  -3.346  1.00  0.00     0.016 A 
ATOM     28  C   UNL     1      -0.432 -10.242  -2.885  1.00  0.00     0.010 A 
ATOM     29  C   UNL     1      -1.871  -8.513  -2.037  1.00  0.00     0.010 A 
ATOM     30  C   UNL     1      -1.039  -9.606  -1.780  1.00  0.00    -0.014 A 
BRANCH  30  31
ATOM     31  C   UNL     1      -0.818 -10.087  -0.380  1.00  0.00     0.031 A 
ATOM     32  C   UNL     1      -1.980 -10.391   0.545  1.00  0.00     0.074 A 
ATOM     33  C   UNL     1       0.441 -10.234   0.087  1.00  0.00     0.049 A 
ATOM     34  N   UNL     1      -1.960 -10.879   1.764  1.00  0.00    -0.248 NA
ATOM     35  C   UNL     1      -3.335 -10.061   0.074  1.00  0.00     0.031 C 
ATOM     36  C   UNL     1       1.659  -9.854  -0.630  1.00  0.00     0.029 A 
ATOM     37  N   UNL     1       0.910 -10.768   1.265  1.00  0.00    -0.354 N 
ATOM     38  C   UNL     1      -3.281 -10.886   2.195  1.00  0.00     0.074 A 
ATOM     39  C   UNL     1      -4.068 -10.267   1.157  1.00  0.00     0.031 C 
ATOM     40  C   UNL     1       2.730 -10.259   0.069  1.00  0.00     0.029 A 
ATOM     41  C   UNL     1       2.280 -10.892   1.305  1.00  0.00     0.049 A 
ATOM     42  H   UNL     1       0.322 -11.036   2.008  1.00  0.00     0.167 HD
ATOM     43  C   UNL     1      -3.811 -11.417   3.323  1.00  0.00     0.037 A 
ATOM     44  C   UNL     1       3.083 -11.478   2.214  1.00  0.00     0.037 A 
ATOM     45  C   UNL     1      -3.045 -12.109   4.322  1.00  0.00     0.049 A 
ATOM     46  C   UNL     1       2.473 -12.127   3.427  1.00  0.00     0.074 A 
ATOM     47  C   UNL     1      -3.499 -12.777   5.446  1.00  0.00     0.029 A 
ATOM     48  N   UNL     1      -1.665 -12.233   4.309  1.00  0.00    -0.354 N 
ATOM     49  N   UNL     1       1.210 -12.231   3.760  1.00  0.00    -0.248 NA
ATOM     50  C   UNL     1       3.399 -12.744   4.389  1.00  0.00     0.031 C 
ATOM     51  C   UNL     1      -2.390 -13.277   6.132  1.00  0.00     0.029 A 
ATOM     52  C   UNL     1      -1.249 -12.955   5.414  1.00  0.00     0.049 A 
ATOM     53  H   UNL     1      -1.070 -11.864   3.617  1.00  0.00     0.167 HD
ATOM     54  C   UNL     1       1.187 -12.934   4.956  1.00  0.00     0.074 A 
ATOM     55  C   UNL     1       2.561 -13.252   5.283  1.00  0.00     0.031 C 
ATOM     56  C   UNL     1       0.121 -13.276   5.718  1.00  0.00     0.037 A 
BRANCH  43  57
ATOM     57  C   UNL     1      -5.300 -11.334   3.511  1.00  0.00     0.064 A 
ATOM     58  C   UNL     1      -6.179 -12.070   2.700  1.00  0.00     0.173 A 
ATOM     59  C   UNL     1      -5.853 -10.570   4.549  1.00  0.00     0.173 A 
ATOM     60  F   UNL     1      -5.703 -12.813   1.690  1.00  0.00    -0.203 F 
ATOM     61  C   UNL     1      -7.555 -12.021   2.902  1.00  0.00     0.198 A 
ATOM     62  C   UNL     1      -7.229 -10.549   4.770  1.00  0.00     0.198 A 
ATOM     63  F   UNL     1      -5.060  -9.858   5.363  1.00  0.00    -0.203 F 
ATOM     64  F   UNL     1      -8.375 -12.697   2.085  1.00  0.00    -0.200 F 
ATOM     65  C   UNL     1      -8.079 -11.269   3.942  1.00  0.00     0.200 A 
ATOM     66  F   UNL     1      -7.733  -9.837   5.787  1.00  0.00    -0.200 F 
ATOM     67  F   UNL     1      -9.403 -11.236   4.146  1.00  0.00    -0.200 F 
ENDBRANCH  43  57
BRANCH  44  68
ATOM     68  C   UNL     1       4.547 -11.556   1.961  1.00  0.00     0.064 A 
ATOM     69  C   UNL     1       5.149 -12.780   1.631  1.00  0.00     0.173 A 
ATOM     70  C   UNL     1       5.365 -10.419   2.005  1.00  0.00     0.173 A 
ATOM     71  F   UNL     1       4.412 -13.899   1.593  1.00  0.00    -0.203 F 
ATOM     72  C   UNL     1       6.513 -12.863   1.362  1.00  0.00     0.198 A 
ATOM     73  C   UNL     1       6.725 -10.499   1.710  1.00  0.00     0.198 A 
ATOM     74  F   UNL     1       4.838  -9.224   2.308  1.00  0.00    -0.203 F 
ATOM     75  F   UNL     1       7.067 -14.050   1.077  1.00  0.00    -0.200 F 
ATOM     76  C   UNL     1       7.299 -11.721   1.393  1.00  0.00     0.200 A 
ATOM     77  F   UNL     1       7.478  -9.391   1.724  1.00  0.00    -0.200 F 
ATOM     78  F   UNL     1       8.608 -11.799   1.119  1.00  0.00    -0.200 F 
ENDBRANCH  44  68
BRANCH  56  79
ATOM     79  C   UNL     1       0.375 -14.041   6.981  1.00  0.00     0.064 A 
ATOM     80  C   UNL     1       0.894 -13.410   8.120  1.00  0.00     0.173 A 
ATOM     81  C   UNL     1      -0.016 -15.385   7.090  1.00  0.00     0.173 A 
ATOM     82  F   UNL     1       1.290 -12.130   8.060  1.00  0.00    -0.203 F 
ATOM     83  C   UNL     1       1.013 -14.097   9.324  1.00  0.00     0.198 A 
ATOM     84  C   UNL     1       0.081 -16.061   8.302  1.00  0.00     0.198 A 
ATOM     85  F   UNL     1      -0.528 -16.028   6.030  1.00  0.00    -0.203 F 
ATOM     86  F   UNL     1       1.526 -13.480  10.397  1.00  0.00    -0.200 F 
ATOM     87  C   UNL     1       0.595 -15.417   9.418  1.00  0.00     0.200 A 
ATOM     88  F   UNL     1      -0.340 -17.330   8.396  1.00  0.00    -0.200 F 
ATOM     89  F   UNL     1       0.684 -16.067  10.586  1.00  0.00    -0.200 F 
ENDBRANCH  56  79
ENDBRANCH  30  31
ENDBRANCH  23  25
ENDBRANCH  22  23
ENDBRANCH  21  22
ENDBRANCH   1  21
TORSDOF 13
