REMARK SMILES COc1ccc2cc([C@@H](C)C(=O)OCCOC(=O)c3ccc(-c4c5nc(c(-c6c(F)c(F)c(F)c(F)c6F)c6ccc([nH]6)c(-c6c(F)c(F)c(F)c(F)c6F)c6nc(c(-c7c(F)c(F)c(F)c(F)c7F)c7ccc4[nH]7)C=C6)C=C5)cc3)ccc2c1
REMARK SMILES IDX 14 1 13 2 11 3 12 4 9 5 10 6 8 7 3 8 4 9 85 10 5 11 84 12
REMARK SMILES IDX 6 13 83 14 7 15 82 16 2 17 1 18 15 19 16 20 17 21 18 22
REMARK SMILES IDX 19 23 20 24 81 25 21 26 80 27 22 28 23 29 24 30 74 31 25 32
REMARK SMILES IDX 79 33 73 34 75 35 26 36 78 37 72 38 71 39 27 41 59 42 39 43
REMARK SMILES IDX 58 44 40 45 43 46 57 47 76 48 41 49 42 50 56 52 77 53 44 54
REMARK SMILES IDX 28 55 29 56 37 57 30 58 31 59 35 60 38 61 32 62 33 63 36 64
REMARK SMILES IDX 34 65 60 66 61 67 69 68 62 69 63 70 67 71 70 72 64 73 65 74
REMARK SMILES IDX 68 75 66 76 45 77 46 78 54 79 47 80 48 81 52 82 55 83 49 84
REMARK SMILES IDX 50 85 53 86 51 87
REMARK H PARENT 75 40 43 51
REMARK Flexibility Score: inf
ROOT
ATOM      1  C   UNL     1       4.703  -5.375   7.453  1.00  0.00     0.274 C 
ENDROOT
BRANCH   1   2
ATOM      2  O   UNL     1       3.798  -5.568   6.349  1.00  0.00    -0.462 OA
BRANCH   2   3
ATOM      3  C   UNL     1       2.998  -6.664   6.393  1.00  0.00     0.313 C 
ATOM      4  O   UNL     1       3.045  -7.519   7.274  1.00  0.00    -0.252 OA
BRANCH   3   5
ATOM      5  C   UNL     1       2.049  -6.783   5.206  1.00  0.00     0.126 C 
ATOM      6  C   UNL     1       2.640  -7.726   4.160  1.00  0.00     0.025 C 
BRANCH   5   7
ATOM      7  C   UNL     1       1.569  -5.473   4.600  1.00  0.00    -0.033 A 
ATOM      8  C   UNL     1       1.013  -1.110   2.055  1.00  0.00     0.119 A 
ATOM      9  C   UNL     1       2.358  -1.454   1.940  1.00  0.00     0.047 A 
ATOM     10  C   UNL     1       0.155  -1.896   2.824  1.00  0.00     0.055 A 
ATOM     11  C   UNL     1       2.832  -2.619   2.549  1.00  0.00     0.012 A 
ATOM     12  C   UNL     1       0.616  -3.074   3.433  1.00  0.00    -0.015 A 
ATOM     13  C   UNL     1       1.969  -3.447   3.282  1.00  0.00    -0.018 A 
ATOM     14  C   UNL     1      -0.239  -3.896   4.179  1.00  0.00     0.009 A 
ATOM     15  C   UNL     1       2.426  -4.640   3.865  1.00  0.00     0.013 A 
ATOM     16  C   UNL     1       0.231  -5.080   4.752  1.00  0.00     0.005 A 
BRANCH   8  17
ATOM     17  O   UNL     1       0.463   0.004   1.481  1.00  0.00    -0.497 OA
ATOM     18  C   UNL     1       0.880   0.212   0.133  1.00  0.00     0.278 C 
ENDBRANCH   8  17
ENDBRANCH   5   7
ENDBRANCH   3   5
ENDBRANCH   2   3
ENDBRANCH   1   2
BRANCH   1  19
ATOM     19  C   UNL     1       4.151  -4.367   8.463  1.00  0.00     0.275 C 
BRANCH  19  20
ATOM     20  O   UNL     1       3.024  -4.908   9.178  1.00  0.00    -0.458 OA
BRANCH  20  21
ATOM     21  C   UNL     1       1.815  -4.569   8.677  1.00  0.00     0.338 C 
ATOM     22  O   UNL     1       1.578  -3.824   7.744  1.00  0.00    -0.246 OA
BRANCH  21  23
ATOM     23  C   UNL     1       0.766  -5.339   9.358  1.00  0.00     0.060 A 
ATOM     24  C   UNL     1       0.035  -6.258   8.601  1.00  0.00     0.016 A 
ATOM     25  C   UNL     1       0.436  -5.091  10.691  1.00  0.00     0.016 A 
ATOM     26  C   UNL     1      -1.046  -6.925   9.166  1.00  0.00     0.010 A 
ATOM     27  C   UNL     1      -0.649  -5.764  11.260  1.00  0.00     0.010 A 
ATOM     28  C   UNL     1      -1.406  -6.670  10.495  1.00  0.00    -0.014 A 
BRANCH  28  29
ATOM     29  C   UNL     1      -2.623  -7.303  11.055  1.00  0.00     0.031 A 
ATOM     30  C   UNL     1      -3.877  -6.494  11.204  1.00  0.00     0.074 A 
ATOM     31  C   UNL     1      -2.608  -8.604  11.392  1.00  0.00     0.049 A 
ATOM     32  N   UNL     1      -5.028  -6.837  11.725  1.00  0.00    -0.248 NA
ATOM     33  C   UNL     1      -3.832  -5.113  10.700  1.00  0.00     0.031 C 
ATOM     34  C   UNL     1      -1.462  -9.500  11.246  1.00  0.00     0.029 A 
ATOM     35  N   UNL     1      -3.591  -9.397  11.928  1.00  0.00    -0.354 N 
ATOM     36  C   UNL     1      -5.836  -5.712  11.629  1.00  0.00     0.074 A 
ATOM     37  C   UNL     1      -5.042  -4.671  11.012  1.00  0.00     0.031 C 
ATOM     38  C   UNL     1      -1.806 -10.723  11.683  1.00  0.00     0.029 A 
ATOM     39  C   UNL     1      -3.182 -10.684  12.174  1.00  0.00     0.049 A 
ATOM     40  H   UNL     1      -4.501  -9.075  12.118  1.00  0.00     0.167 HD
ATOM     41  C   UNL     1      -7.124  -5.566  12.020  1.00  0.00     0.037 A 
ATOM     42  C   UNL     1      -3.838 -11.707  12.753  1.00  0.00     0.037 A 
ATOM     43  C   UNL     1      -7.915  -6.609  12.619  1.00  0.00     0.049 A 
ATOM     44  C   UNL     1      -5.254 -11.505  13.218  1.00  0.00     0.074 A 
ATOM     45  C   UNL     1      -9.230  -6.560  13.045  1.00  0.00     0.029 A 
ATOM     46  N   UNL     1      -7.459  -7.894  12.873  1.00  0.00    -0.354 N 
ATOM     47  N   UNL     1      -6.007 -10.435  13.134  1.00  0.00    -0.248 NA
ATOM     48  C   UNL     1      -5.910 -12.651  13.862  1.00  0.00     0.031 C 
ATOM     49  C   UNL     1      -9.561  -7.806  13.588  1.00  0.00     0.029 A 
ATOM     50  C   UNL     1      -8.464  -8.643  13.464  1.00  0.00     0.049 A 
ATOM     51  H   UNL     1      -6.556  -8.225  12.665  1.00  0.00     0.167 HD
ATOM     52  C   UNL     1      -7.228 -10.783  13.694  1.00  0.00     0.074 A 
ATOM     53  C   UNL     1      -7.121 -12.168  14.103  1.00  0.00     0.031 C 
ATOM     54  C   UNL     1      -8.338 -10.023  13.857  1.00  0.00     0.037 A 
BRANCH  41  55
ATOM     55  C   UNL     1      -7.750  -4.217  11.836  1.00  0.00     0.064 A 
ATOM     56  C   UNL     1      -8.137  -3.750  10.571  1.00  0.00     0.173 A 
ATOM     57  C   UNL     1      -7.993  -3.392  12.945  1.00  0.00     0.173 A 
ATOM     58  F   UNL     1      -7.913  -4.496   9.479  1.00  0.00    -0.203 F 
ATOM     59  C   UNL     1      -8.726  -2.497  10.421  1.00  0.00     0.198 A 
ATOM     60  C   UNL     1      -8.602  -2.150  12.794  1.00  0.00     0.198 A 
ATOM     61  F   UNL     1      -7.643  -3.794  14.176  1.00  0.00    -0.203 F 
ATOM     62  F   UNL     1      -9.053  -2.054   9.199  1.00  0.00    -0.200 F 
ATOM     63  C   UNL     1      -8.963  -1.701  11.532  1.00  0.00     0.200 A 
ATOM     64  F   UNL     1      -8.838  -1.385  13.869  1.00  0.00    -0.200 F 
ATOM     65  F   UNL     1      -9.534  -0.497  11.386  1.00  0.00    -0.200 F 
ENDBRANCH  41  55
BRANCH  42  66
ATOM     66  C   UNL     1      -3.154 -13.011  12.938  1.00  0.00     0.064 A 
ATOM     67  C   UNL     1      -3.529 -14.135  12.190  1.00  0.00     0.173 A 
ATOM     68  C   UNL     1      -2.112 -13.159  13.866  1.00  0.00     0.173 A 
ATOM     69  F   UNL     1      -4.537 -14.048  11.310  1.00  0.00    -0.203 F 
ATOM     70  C   UNL     1      -2.895 -15.363  12.372  1.00  0.00     0.198 A 
ATOM     71  C   UNL     1      -1.463 -14.381  14.029  1.00  0.00     0.198 A 
ATOM     72  F   UNL     1      -1.720 -12.113  14.607  1.00  0.00    -0.203 F 
ATOM     73  F   UNL     1      -3.298 -16.432  11.673  1.00  0.00    -0.200 F 
ATOM     74  C   UNL     1      -1.859 -15.483  13.286  1.00  0.00     0.200 A 
ATOM     75  F   UNL     1      -0.457 -14.490  14.907  1.00  0.00    -0.200 F 
ATOM     76  F   UNL     1      -1.247 -16.663  13.458  1.00  0.00    -0.200 F 
ENDBRANCH  42  66
BRANCH  54  77
ATOM     77  C   UNL     1      -9.533 -10.682  14.478  1.00  0.00     0.064 A 
ATOM     78  C   UNL     1      -9.588 -10.954  15.853  1.00  0.00     0.173 A 
ATOM     79  C   UNL     1     -10.649 -11.011  13.695  1.00  0.00     0.173 A 
ATOM     80  F   UNL     1      -8.539 -10.672  16.639  1.00  0.00    -0.203 F 
ATOM     81  C   UNL     1     -10.711 -11.552  16.417  1.00  0.00     0.198 A 
ATOM     82  C   UNL     1     -11.780 -11.587  14.267  1.00  0.00     0.198 A 
ATOM     83  F   UNL     1     -10.646 -10.765  12.376  1.00  0.00    -0.203 F 
ATOM     84  F   UNL     1     -10.728 -11.841  17.726  1.00  0.00    -0.200 F 
ATOM     85  C   UNL     1     -11.808 -11.862  15.626  1.00  0.00     0.200 A 
ATOM     86  F   UNL     1     -12.841 -11.878  13.503  1.00  0.00    -0.200 F 
ATOM     87  F   UNL     1     -12.889 -12.434  16.172  1.00  0.00    -0.200 F 
ENDBRANCH  54  77
ENDBRANCH  28  29
ENDBRANCH  21  23
ENDBRANCH  20  21
ENDBRANCH  19  20
ENDBRANCH   1  19
TORSDOF 13
