REMARK SMILES N#Cc1ccc(C[N@H+]2CCCC[C@H]2C(=O)OCCOC(=O)c2ccc(-c3c4nc(c(-c5c(F)c(F)c(F)c(F)c5F)c5ccc([nH]5)c(-c5c(F)c(F)c(F)c(F)c5F)c5nc(c(-c6c(F)c(F)c(F)c(F)c6F)c6ccc3[nH]6)C=C5)C=C4)cc2)c(F)c1
REMARK SMILES IDX 17 1 16 2 14 3 15 4 13 5 8 6 9 7 10 9 12 10 11 11 7 12 6 13
REMARK SMILES IDX 3 14 4 15 87 16 5 17 85 18 86 19 2 20 1 21 18 22 19 23 20 24
REMARK SMILES IDX 21 25 22 26 23 27 84 28 24 29 83 30 25 31 26 32 27 33 77 34
REMARK SMILES IDX 28 35 82 36 76 37 78 38 29 39 81 40 75 41 74 42 30 44 62 45
REMARK SMILES IDX 42 46 61 47 43 48 46 49 60 50 79 51 44 52 45 53 59 55 80 56
REMARK SMILES IDX 47 57 31 58 32 59 40 60 33 61 34 62 38 63 41 64 35 65 36 66
REMARK SMILES IDX 39 67 37 68 63 69 64 70 72 71 65 72 66 73 70 74 73 75 67 76
REMARK SMILES IDX 68 77 71 78 69 79 48 80 49 81 57 82 50 83 51 84 55 85 58 86
REMARK SMILES IDX 52 87 53 88 56 89 54 90
REMARK H PARENT 8 8 78 43 46 54
REMARK Flexibility Score: inf
ROOT
ATOM      1  C   UNL     1       0.692  -2.871   2.060  1.00  0.00     0.274 C 
ENDROOT
BRANCH   1   2
ATOM      2  O   UNL     1       2.138  -2.720   1.996  1.00  0.00    -0.458 OA
BRANCH   2   3
ATOM      3  C   UNL     1       2.483  -1.512   1.500  1.00  0.00     0.365 C 
ATOM      4  O   UNL     1       1.625  -0.663   1.334  1.00  0.00    -0.245 OA
BRANCH   3   5
ATOM      5  C   UNL     1       3.943  -1.286   1.085  1.00  0.00     0.295 C 
ATOM      6  N   UNL     1       4.217   0.161   0.809  1.00  0.00    -0.319 N 
ATOM      7  C   UNL     1       4.151   0.981   2.025  1.00  0.00     0.263 C 
ATOM      8  H   UNL     1       5.196   0.165   0.521  1.00  0.00     0.349 HD
ATOM      9  C   UNL     1       4.968   0.471   3.222  1.00  0.00     0.062 C 
ATOM     10  C   UNL     1       4.910  -1.789   2.170  1.00  0.00     0.078 C 
ATOM     11  C   UNL     1       4.754  -1.015   3.475  1.00  0.00     0.013 C 
BRANCH   6  12
ATOM     12  C   UNL     1       3.669   0.770  -0.454  1.00  0.00     0.302 C 
BRANCH  12  13
ATOM     13  C   UNL     1       2.205   0.633  -0.894  1.00  0.00     0.042 A 
ATOM     14  C   UNL     1      -0.588   0.175  -0.990  1.00  0.00     0.055 A 
ATOM     15  C   UNL     1      -0.099   1.466  -0.792  1.00  0.00     0.020 A 
ATOM     16  C   UNL     1       0.301  -0.831  -1.364  1.00  0.00     0.059 A 
ATOM     17  C   UNL     1       1.291   1.698  -0.788  1.00  0.00     0.014 A 
ATOM     18  C   UNL     1       1.680  -0.588  -1.336  1.00  0.00     0.133 A 
ATOM     19  F   UNL     1       2.504  -1.616  -1.579  1.00  0.00    -0.206 F 
BRANCH  14  20
ATOM     20  C   UNL     1      -1.964  -0.139  -0.712  1.00  0.00     0.099 C 
ATOM     21  N   UNL     1      -3.055  -0.413  -0.440  1.00  0.00    -0.192 NA
ENDBRANCH  14  20
ENDBRANCH  12  13
ENDBRANCH   6  12
ENDBRANCH   3   5
ENDBRANCH   2   3
ENDBRANCH   1   2
BRANCH   1  22
ATOM     22  C   UNL     1      -0.043  -2.078   3.183  1.00  0.00     0.275 C 
BRANCH  22  23
ATOM     23  O   UNL     1      -0.166  -0.635   2.980  1.00  0.00    -0.458 OA
BRANCH  23  24
ATOM     24  C   UNL     1       0.330   0.178   3.956  1.00  0.00     0.338 C 
ATOM     25  O   UNL     1       0.789  -0.199   5.025  1.00  0.00    -0.246 OA
BRANCH  24  26
ATOM     26  C   UNL     1       0.383   1.634   3.591  1.00  0.00     0.060 A 
ATOM     27  C   UNL     1       1.031   2.012   2.433  1.00  0.00     0.016 A 
ATOM     28  C   UNL     1       0.117   2.649   4.508  1.00  0.00     0.016 A 
ATOM     29  C   UNL     1       1.606   3.274   2.266  1.00  0.00     0.010 A 
ATOM     30  C   UNL     1       0.524   3.985   4.247  1.00  0.00     0.010 A 
ATOM     31  C   UNL     1       1.330   4.312   3.138  1.00  0.00    -0.014 A 
BRANCH  31  32
ATOM     32  C   UNL     1       1.958   5.661   2.917  1.00  0.00     0.031 A 
ATOM     33  C   UNL     1       2.671   6.342   4.055  1.00  0.00     0.074 A 
ATOM     34  C   UNL     1       1.978   6.275   1.710  1.00  0.00     0.049 A 
ATOM     35  N   UNL     1       3.002   7.600   4.202  1.00  0.00    -0.248 NA
ATOM     36  C   UNL     1       3.054   5.486   5.186  1.00  0.00     0.031 C 
ATOM     37  C   UNL     1       1.501   5.708   0.448  1.00  0.00     0.029 A 
ATOM     38  N   UNL     1       2.428   7.526   1.340  1.00  0.00    -0.354 N 
ATOM     39  C   UNL     1       3.536   7.704   5.481  1.00  0.00     0.074 A 
ATOM     40  C   UNL     1       3.499   6.377   6.058  1.00  0.00     0.031 C 
ATOM     41  C   UNL     1       1.728   6.570  -0.552  1.00  0.00     0.029 A 
ATOM     42  C   UNL     1       2.203   7.822   0.014  1.00  0.00     0.049 A 
ATOM     43  H   UNL     1       2.867   8.147   1.964  1.00  0.00     0.167 HD
ATOM     44  C   UNL     1       3.991   8.814   6.115  1.00  0.00     0.037 A 
ATOM     45  C   UNL     1       2.272   8.986  -0.664  1.00  0.00     0.037 A 
ATOM     46  C   UNL     1       4.071  10.115   5.499  1.00  0.00     0.049 A 
ATOM     47  C   UNL     1       2.635  10.236   0.086  1.00  0.00     0.074 A 
ATOM     48  C   UNL     1       4.497  11.311   6.051  1.00  0.00     0.029 A 
ATOM     49  N   UNL     1       3.723  10.389   4.182  1.00  0.00    -0.354 N 
ATOM     50  N   UNL     1       3.003  10.371   1.336  1.00  0.00    -0.248 NA
ATOM     51  C   UNL     1       2.561  11.499  -0.660  1.00  0.00     0.031 C 
ATOM     52  C   UNL     1       4.334  12.319   5.094  1.00  0.00     0.029 A 
ATOM     53  C   UNL     1       3.890  11.741   3.916  1.00  0.00     0.049 A 
ATOM     54  H   UNL     1       3.405   9.722   3.532  1.00  0.00     0.167 HD
ATOM     55  C   UNL     1       3.237  11.726   1.521  1.00  0.00     0.074 A 
ATOM     56  C   UNL     1       2.978  12.370   0.248  1.00  0.00     0.031 C 
ATOM     57  C   UNL     1       3.635  12.373   2.644  1.00  0.00     0.037 A 
BRANCH  44  58
ATOM     58  C   UNL     1       4.327   8.680   7.577  1.00  0.00     0.064 A 
ATOM     59  C   UNL     1       5.394   7.901   8.047  1.00  0.00     0.173 A 
ATOM     60  C   UNL     1       3.523   9.323   8.535  1.00  0.00     0.173 A 
ATOM     61  F   UNL     1       6.192   7.255   7.182  1.00  0.00    -0.203 F 
ATOM     62  C   UNL     1       5.601   7.714   9.413  1.00  0.00     0.198 A 
ATOM     63  C   UNL     1       3.762   9.173   9.898  1.00  0.00     0.198 A 
ATOM     64  F   UNL     1       2.494  10.093   8.149  1.00  0.00    -0.203 F 
ATOM     65  F   UNL     1       6.568   6.886   9.835  1.00  0.00    -0.200 F 
ATOM     66  C   UNL     1       4.787   8.352  10.337  1.00  0.00     0.200 A 
ATOM     67  F   UNL     1       2.985   9.809  10.787  1.00  0.00    -0.200 F 
ATOM     68  F   UNL     1       4.980   8.161  11.649  1.00  0.00    -0.200 F 
ENDBRANCH  44  58
BRANCH  45  69
ATOM     69  C   UNL     1       1.917   9.038  -2.112  1.00  0.00     0.064 A 
ATOM     70  C   UNL     1       2.881   9.363  -3.076  1.00  0.00     0.173 A 
ATOM     71  C   UNL     1       0.617   8.757  -2.566  1.00  0.00     0.173 A 
ATOM     72  F   UNL     1       4.129   9.673  -2.696  1.00  0.00    -0.203 F 
ATOM     73  C   UNL     1       2.562   9.402  -4.433  1.00  0.00     0.198 A 
ATOM     74  C   UNL     1       0.309   8.760  -3.926  1.00  0.00     0.198 A 
ATOM     75  F   UNL     1      -0.350   8.449  -1.690  1.00  0.00    -0.203 F 
ATOM     76  F   UNL     1       3.496   9.750  -5.329  1.00  0.00    -0.200 F 
ATOM     77  C   UNL     1       1.280   9.088  -4.858  1.00  0.00     0.200 A 
ATOM     78  F   UNL     1      -0.927   8.437  -4.331  1.00  0.00    -0.200 F 
ATOM     79  F   UNL     1       0.980   9.104  -6.164  1.00  0.00    -0.200 F 
ENDBRANCH  45  69
BRANCH  57  80
ATOM     80  C   UNL     1       3.881  13.852   2.532  1.00  0.00     0.064 A 
ATOM     81  C   UNL     1       2.838  14.770   2.340  1.00  0.00     0.173 A 
ATOM     82  C   UNL     1       5.186  14.357   2.642  1.00  0.00     0.173 A 
ATOM     83  F   UNL     1       1.574  14.339   2.208  1.00  0.00    -0.203 F 
ATOM     84  C   UNL     1       3.097  16.134   2.231  1.00  0.00     0.198 A 
ATOM     85  C   UNL     1       5.436  15.724   2.573  1.00  0.00     0.198 A 
ATOM     86  F   UNL     1       6.221  13.524   2.828  1.00  0.00    -0.203 F 
ATOM     87  F   UNL     1       2.092  16.986   1.984  1.00  0.00    -0.200 F 
ATOM     88  C   UNL     1       4.393  16.611   2.357  1.00  0.00     0.200 A 
ATOM     89  F   UNL     1       6.688  16.182   2.713  1.00  0.00    -0.200 F 
ATOM     90  F   UNL     1       4.639  17.924   2.260  1.00  0.00    -0.200 F 
ENDBRANCH  57  80
ENDBRANCH  31  32
ENDBRANCH  24  26
ENDBRANCH  23  24
ENDBRANCH  22  23
ENDBRANCH   1  22
TORSDOF 14
