REMARK SMILES CC(=O)Cc1cccc(C(=O)OCCOC(=O)c2ccc(-c3c4nc(c(-c5c(F)c(F)c(F)c(F)c5F)c5ccc([nH]5)c(-c5c(F)c(F)c(F)c(F)c5F)c5nc(c(-c6c(F)c(F)c(F)c(F)c6F)c6ccc3[nH]6)C=C5)C=C4)cc2)c1
REMARK SMILES IDX 13 1 12 2 10 3 11 4 9 5 5 6 6 7 81 8 7 9 8 10 4 11 2 12 1 13
REMARK SMILES IDX 3 14 14 15 15 16 16 17 17 18 18 19 19 20 80 21 20 22 79 23
REMARK SMILES IDX 21 24 22 25 23 26 73 27 24 28 78 29 72 30 74 31 25 32 77 33
REMARK SMILES IDX 71 34 70 35 26 37 58 38 38 39 57 40 39 41 42 42 56 43 75 44
REMARK SMILES IDX 40 45 41 46 55 48 76 49 43 50 27 51 28 52 36 53 29 54 30 55
REMARK SMILES IDX 34 56 37 57 31 58 32 59 35 60 33 61 59 62 60 63 68 64 61 65
REMARK SMILES IDX 62 66 66 67 69 68 63 69 64 70 67 71 65 72 44 73 45 74 53 75
REMARK SMILES IDX 46 76 47 77 51 78 54 79 48 80 49 81 52 82 50 83
REMARK H PARENT 74 36 42 47
REMARK Flexibility Score: inf
ROOT
ATOM      1  C   UNL     1      -3.080  -1.633  -6.734  1.00  0.00     0.275 C 
ENDROOT
BRANCH   1   2
ATOM      2  O   UNL     1      -2.081  -1.425  -5.713  1.00  0.00    -0.458 OA
BRANCH   2   3
ATOM      3  C   UNL     1      -1.058  -0.605  -6.059  1.00  0.00     0.338 C 
ATOM      4  O   UNL     1      -0.888  -0.076  -7.146  1.00  0.00    -0.246 OA
BRANCH   3   5
ATOM      5  C   UNL     1      -0.172  -0.333  -4.897  1.00  0.00     0.060 A 
ATOM      6  C   UNL     1       0.827  -0.920  -2.756  1.00  0.00    -0.040 A 
ATOM      7  C   UNL     1       1.581   0.263  -2.803  1.00  0.00     0.004 A 
ATOM      8  C   UNL     1      -0.073  -1.199  -3.800  1.00  0.00     0.019 A 
ATOM      9  C   UNL     1       1.466   1.139  -3.880  1.00  0.00     0.001 A 
ATOM     10  C   UNL     1       0.613   0.828  -4.935  1.00  0.00     0.016 A 
BRANCH   6  11
ATOM     11  C   UNL     1       1.022  -1.903  -1.628  1.00  0.00     0.110 C 
BRANCH  11  12
ATOM     12  C   UNL     1       0.309  -1.538  -0.344  1.00  0.00     0.134 C 
ATOM     13  C   UNL     1       0.810  -0.341   0.424  1.00  0.00     0.088 C 
ATOM     14  O   UNL     1      -0.648  -2.197   0.067  1.00  0.00    -0.300 OA
ENDBRANCH  11  12
ENDBRANCH   6  11
ENDBRANCH   3   5
ENDBRANCH   2   3
ENDBRANCH   1   2
BRANCH   1  15
ATOM     15  C   UNL     1      -4.269  -0.699  -6.513  1.00  0.00     0.275 C 
BRANCH  15  16
ATOM     16  O   UNL     1      -3.826   0.662  -6.640  1.00  0.00    -0.458 OA
BRANCH  16  17
ATOM     17  C   UNL     1      -4.380   1.550  -5.786  1.00  0.00     0.338 C 
ATOM     18  O   UNL     1      -5.275   1.344  -4.976  1.00  0.00    -0.246 OA
BRANCH  17  19
ATOM     19  C   UNL     1      -3.750   2.866  -5.980  1.00  0.00     0.060 A 
ATOM     20  C   UNL     1      -2.362   2.995  -5.936  1.00  0.00     0.016 A 
ATOM     21  C   UNL     1      -4.553   3.997  -6.131  1.00  0.00     0.016 A 
ATOM     22  C   UNL     1      -1.770   4.257  -5.997  1.00  0.00     0.010 A 
ATOM     23  C   UNL     1      -3.957   5.256  -6.256  1.00  0.00     0.010 A 
ATOM     24  C   UNL     1      -2.561   5.403  -6.161  1.00  0.00    -0.014 A 
BRANCH  24  25
ATOM     25  C   UNL     1      -1.944   6.759  -6.162  1.00  0.00     0.031 A 
ATOM     26  C   UNL     1      -2.295   7.741  -5.077  1.00  0.00     0.074 A 
ATOM     27  C   UNL     1      -1.063   7.117  -7.116  1.00  0.00     0.049 A 
ATOM     28  N   UNL     1      -2.006   9.015  -4.982  1.00  0.00    -0.248 NA
ATOM     29  C   UNL     1      -3.087   7.221  -3.951  1.00  0.00     0.031 C 
ATOM     30  C   UNL     1      -0.592   6.258  -8.202  1.00  0.00     0.029 A 
ATOM     31  N   UNL     1      -0.401   8.304  -7.320  1.00  0.00    -0.354 N 
ATOM     32  C   UNL     1      -2.629   9.459  -3.824  1.00  0.00     0.074 A 
ATOM     33  C   UNL     1      -3.307   8.319  -3.244  1.00  0.00     0.031 C 
ATOM     34  C   UNL     1       0.307   6.932  -8.936  1.00  0.00     0.029 A 
ATOM     35  C   UNL     1       0.423   8.293  -8.418  1.00  0.00     0.049 A 
ATOM     36  H   UNL     1      -0.507   9.088  -6.734  1.00  0.00     0.167 HD
ATOM     37  C   UNL     1      -2.637  10.706  -3.293  1.00  0.00     0.037 A 
ATOM     38  C   UNL     1       1.165   9.275  -8.966  1.00  0.00     0.037 A 
ATOM     39  C   UNL     1      -1.914  11.827  -3.831  1.00  0.00     0.049 A 
ATOM     40  C   UNL     1       1.133  10.653  -8.365  1.00  0.00     0.074 A 
ATOM     41  C   UNL     1      -1.848  13.124  -3.351  1.00  0.00     0.029 A 
ATOM     42  N   UNL     1      -1.112  11.778  -4.961  1.00  0.00    -0.354 N 
ATOM     43  N   UNL     1       0.490  11.078  -7.306  1.00  0.00    -0.248 NA
ATOM     44  C   UNL     1       1.913  11.693  -9.052  1.00  0.00     0.031 C 
ATOM     45  C   UNL     1      -1.024  13.867  -4.205  1.00  0.00     0.029 A 
ATOM     46  C   UNL     1      -0.553  13.024  -5.198  1.00  0.00     0.049 A 
ATOM     47  H   UNL     1      -0.963  10.977  -5.514  1.00  0.00     0.167 HD
ATOM     48  C   UNL     1       0.785  12.430  -7.198  1.00  0.00     0.074 A 
ATOM     49  C   UNL     1       1.686  12.751  -8.285  1.00  0.00     0.031 C 
ATOM     50  C   UNL     1       0.339  13.328  -6.285  1.00  0.00     0.037 A 
BRANCH  37  51
ATOM     51  C   UNL     1      -3.486  10.932  -2.078  1.00  0.00     0.064 A 
ATOM     52  C   UNL     1      -3.105  10.470  -0.811  1.00  0.00     0.173 A 
ATOM     53  C   UNL     1      -4.686  11.651  -2.183  1.00  0.00     0.173 A 
ATOM     54  F   UNL     1      -1.974   9.764  -0.662  1.00  0.00    -0.203 F 
ATOM     55  C   UNL     1      -3.907  10.700   0.304  1.00  0.00     0.198 A 
ATOM     56  C   UNL     1      -5.474  11.900  -1.063  1.00  0.00     0.198 A 
ATOM     57  F   UNL     1      -5.092  12.118  -3.374  1.00  0.00    -0.203 F 
ATOM     58  F   UNL     1      -3.545  10.214   1.500  1.00  0.00    -0.200 F 
ATOM     59  C   UNL     1      -5.087  11.419   0.178  1.00  0.00     0.200 A 
ATOM     60  F   UNL     1      -6.608  12.603  -1.185  1.00  0.00    -0.200 F 
ATOM     61  F   UNL     1      -5.854  11.643   1.254  1.00  0.00    -0.200 F 
ENDBRANCH  37  51
BRANCH  38  62
ATOM     62  C   UNL     1       1.982   8.995 -10.174  1.00  0.00     0.064 A 
ATOM     63  C   UNL     1       3.381   8.951 -10.099  1.00  0.00     0.173 A 
ATOM     64  C   UNL     1       1.385   8.760 -11.420  1.00  0.00     0.173 A 
ATOM     65  F   UNL     1       3.997   9.199  -8.934  1.00  0.00    -0.203 F 
ATOM     66  C   UNL     1       4.152   8.686 -11.229  1.00  0.00     0.198 A 
ATOM     67  C   UNL     1       2.156   8.470 -12.543  1.00  0.00     0.198 A 
ATOM     68  F   UNL     1       0.050   8.797 -11.543  1.00  0.00    -0.203 F 
ATOM     69  F   UNL     1       5.489   8.682 -11.138  1.00  0.00    -0.200 F 
ATOM     70  C   UNL     1       3.539   8.437 -12.448  1.00  0.00     0.200 A 
ATOM     71  F   UNL     1       1.559   8.220 -13.717  1.00  0.00    -0.200 F 
ATOM     72  F   UNL     1       4.281   8.173 -13.531  1.00  0.00    -0.200 F 
ENDBRANCH  38  62
BRANCH  50  73
ATOM     73  C   UNL     1       0.829  14.738  -6.418  1.00  0.00     0.064 A 
ATOM     74  C   UNL     1       0.319  15.596  -7.403  1.00  0.00     0.173 A 
ATOM     75  C   UNL     1       1.791  15.245  -5.534  1.00  0.00     0.173 A 
ATOM     76  F   UNL     1      -0.591  15.150  -8.281  1.00  0.00    -0.203 F 
ATOM     77  C   UNL     1       0.769  16.909  -7.508  1.00  0.00     0.198 A 
ATOM     78  C   UNL     1       2.224  16.565  -5.629  1.00  0.00     0.198 A 
ATOM     79  F   UNL     1       2.306  14.463  -4.573  1.00  0.00    -0.203 F 
ATOM     80  F   UNL     1       0.296  17.702  -8.479  1.00  0.00    -0.200 F 
ATOM     81  C   UNL     1       1.717  17.394  -6.619  1.00  0.00     0.200 A 
ATOM     82  F   UNL     1       3.136  17.034  -4.766  1.00  0.00    -0.200 F 
ATOM     83  F   UNL     1       2.148  18.658  -6.721  1.00  0.00    -0.200 F 
ENDBRANCH  50  73
ENDBRANCH  24  25
ENDBRANCH  17  19
ENDBRANCH  16  17
ENDBRANCH  15  16
ENDBRANCH   1  15
TORSDOF 13
