REMARK SMILES CC(=O)Nc1cc(NC(C)=O)cc(C(=O)Nc2ccc(Br)cc2C(=O)OCCOC(=O)c2ccc(-c3c4nc(c(-c5c(F)c(F)c(F)c(F)c5F)c5ccc([nH]5)c(-c5c(F)c(F)c(F)c(F)c5F)c5nc(c(-c6c(F)c(F)c(F)c(F)c6F)c6ccc3[nH]6)C=C5)C=C4)cc2)c1
REMARK SMILES IDX 27 1 26 2 24 3 25 4 23 5 17 6 18 7 19 8 22 9 20 10 21 11
REMARK SMILES IDX 16 12 14 13 15 14 13 16 5 17 6 18 95 19 7 20 12 21 4 22 1 23
REMARK SMILES IDX 2 24 3 25 8 27 9 28 10 30 11 31 28 32 29 33 30 34 31 35
REMARK SMILES IDX 32 36 33 37 94 38 34 39 93 40 35 41 36 42 37 43 87 44 38 45
REMARK SMILES IDX 92 46 86 47 88 48 39 49 91 50 85 51 84 52 40 54 72 55 52 56
REMARK SMILES IDX 71 57 53 58 56 59 70 60 89 61 54 62 55 63 69 65 90 66 57 67
REMARK SMILES IDX 41 68 42 69 50 70 43 71 44 72 48 73 51 74 45 75 46 76 49 77
REMARK SMILES IDX 47 78 73 79 74 80 82 81 75 82 76 83 80 84 83 85 77 86 78 87
REMARK SMILES IDX 81 88 79 89 58 90 59 91 67 92 60 93 61 94 65 95 68 96 62 97
REMARK SMILES IDX 63 98 66 99 64 100
REMARK H PARENT 16 15 4 26 8 29 88 53 56 64
REMARK Flexibility Score: inf
ROOT
ATOM      1  C   UNL     1       5.747   2.015   3.579  1.00  0.00     0.275 C 
ENDROOT
BRANCH   1   2
ATOM      2  O   UNL     1       5.704   1.366   2.289  1.00  0.00    -0.458 OA
BRANCH   2   3
ATOM      3  C   UNL     1       4.471   1.357   1.737  1.00  0.00     0.340 C 
ATOM      4  O   UNL     1       3.486   1.897   2.206  1.00  0.00    -0.246 OA
BRANCH   3   5
ATOM      5  C   UNL     1       4.396   0.599   0.475  1.00  0.00     0.084 A 
ATOM      6  C   UNL     1       4.648  -0.777   0.383  1.00  0.00     0.056 A 
ATOM      7  C   UNL     1       4.560  -1.392  -0.880  1.00  0.00     0.028 A 
ATOM      8  C   UNL     1       4.077  -0.695  -1.993  1.00  0.00     0.018 A 
ATOM      9  C   UNL     1       3.947   1.300  -0.658  1.00  0.00     0.033 A 
ATOM     10  C   UNL     1       3.748   0.646  -1.869  1.00  0.00     0.018 A 
ATOM     11  Br  UNL     1       2.971   1.575  -3.319  1.00  0.00    -0.051 Br
BRANCH   6  12
ATOM     12  N   UNL     1       4.938  -1.646   1.454  1.00  0.00    -0.321 N 
ATOM     13  C   UNL     1       4.502  -1.694   2.764  1.00  0.00     0.255 C 
ATOM     14  O   UNL     1       5.136  -2.375   3.570  1.00  0.00    -0.269 OA
ATOM     15  H   UNL     1       5.577  -2.359   1.224  1.00  0.00     0.170 HD
BRANCH  13  16
ATOM     16  C   UNL     1       3.250  -1.026   3.230  1.00  0.00     0.044 A 
ATOM     17  C   UNL     1       1.169   0.121   2.788  1.00  0.00     0.044 A 
ATOM     18  C   UNL     1       1.139   0.532   4.130  1.00  0.00     0.052 A 
ATOM     19  C   UNL     1       2.177  -0.745   2.370  1.00  0.00     0.040 A 
ATOM     20  C   UNL     1       2.122   0.142   5.041  1.00  0.00     0.044 A 
ATOM     21  C   UNL     1       3.191  -0.627   4.576  1.00  0.00     0.040 A 
BRANCH  17  22
ATOM     22  N   UNL     1       0.277   0.795   1.930  1.00  0.00    -0.326 N 
ATOM     23  C   UNL     1       0.308  -0.531  -0.177  1.00  0.00     0.114 C 
ATOM     24  C   UNL     1       0.008   0.715   0.599  1.00  0.00     0.221 C 
ATOM     25  O   UNL     1      -0.528   1.681   0.049  1.00  0.00    -0.275 OA
ATOM     26  H   UNL     1      -0.269   1.469   2.394  1.00  0.00     0.169 HD
ENDBRANCH  17  22
BRANCH  20  27
ATOM     27  N   UNL     1       2.120   0.522   6.403  1.00  0.00    -0.326 N 
ATOM     28  C   UNL     1       1.182   1.312   7.046  1.00  0.00     0.221 C 
ATOM     29  H   UNL     1       2.866   0.190   6.953  1.00  0.00     0.169 HD
ATOM     30  C   UNL     1       1.445   1.476   8.522  1.00  0.00     0.114 C 
ATOM     31  O   UNL     1       0.202   1.849   6.539  1.00  0.00    -0.275 OA
ENDBRANCH  20  27
ENDBRANCH  13  16
ENDBRANCH   6  12
ENDBRANCH   3   5
ENDBRANCH   2   3
ENDBRANCH   1   2
BRANCH   1  32
ATOM     32  C   UNL     1       6.031   3.520   3.500  1.00  0.00     0.275 C 
BRANCH  32  33
ATOM     33  O   UNL     1       4.932   4.265   2.937  1.00  0.00    -0.458 OA
BRANCH  33  34
ATOM     34  C   UNL     1       5.038   4.522   1.615  1.00  0.00     0.338 C 
ATOM     35  O   UNL     1       5.959   4.213   0.874  1.00  0.00    -0.246 OA
BRANCH  34  36
ATOM     36  C   UNL     1       3.834   5.192   1.100  1.00  0.00     0.060 A 
ATOM     37  C   UNL     1       2.768   4.408   0.666  1.00  0.00     0.016 A 
ATOM     38  C   UNL     1       3.847   6.556   0.822  1.00  0.00     0.016 A 
ATOM     39  C   UNL     1       1.784   4.935  -0.150  1.00  0.00     0.010 A 
ATOM     40  C   UNL     1       2.779   7.118   0.112  1.00  0.00     0.010 A 
ATOM     41  C   UNL     1       1.753   6.304  -0.404  1.00  0.00    -0.014 A 
BRANCH  41  42
ATOM     42  C   UNL     1       0.643   6.862  -1.213  1.00  0.00     0.031 A 
ATOM     43  C   UNL     1       0.941   7.601  -2.483  1.00  0.00     0.074 A 
ATOM     44  C   UNL     1      -0.630   6.679  -0.810  1.00  0.00     0.049 A 
ATOM     45  N   UNL     1       0.152   8.348  -3.210  1.00  0.00    -0.248 NA
ATOM     46  C   UNL     1       2.315   7.495  -3.002  1.00  0.00     0.031 C 
ATOM     47  C   UNL     1      -1.049   5.898   0.358  1.00  0.00     0.029 A 
ATOM     48  N   UNL     1      -1.811   7.136  -1.338  1.00  0.00    -0.354 N 
ATOM     49  C   UNL     1       0.944   8.847  -4.235  1.00  0.00     0.074 A 
ATOM     50  C   UNL     1       2.276   8.318  -4.041  1.00  0.00     0.031 C 
ATOM     51  C   UNL     1      -2.385   5.913   0.446  1.00  0.00     0.029 A 
ATOM     52  C   UNL     1      -2.909   6.795  -0.585  1.00  0.00     0.049 A 
ATOM     53  H   UNL     1      -1.867   7.657  -2.172  1.00  0.00     0.167 HD
ATOM     54  C   UNL     1       0.578   9.681  -5.237  1.00  0.00     0.037 A 
ATOM     55  C   UNL     1      -4.187   7.205  -0.671  1.00  0.00     0.037 A 
ATOM     56  C   UNL     1      -0.769  10.153  -5.432  1.00  0.00     0.049 A 
ATOM     57  C   UNL     1      -4.548   8.187  -1.747  1.00  0.00     0.074 A 
ATOM     58  C   UNL     1      -1.257  10.988  -6.421  1.00  0.00     0.029 A 
ATOM     59  N   UNL     1      -1.846   9.819  -4.621  1.00  0.00    -0.354 N 
ATOM     60  N   UNL     1      -3.789   8.707  -2.681  1.00  0.00    -0.248 NA
ATOM     61  C   UNL     1      -5.938   8.657  -1.770  1.00  0.00     0.031 C 
ATOM     62  C   UNL     1      -2.617  11.204  -6.176  1.00  0.00     0.029 A 
ATOM     63  C   UNL     1      -2.991  10.457  -5.071  1.00  0.00     0.049 A 
ATOM     64  H   UNL     1      -1.802   9.219  -3.842  1.00  0.00     0.167 HD
ATOM     65  C   UNL     1      -4.609   9.551  -3.413  1.00  0.00     0.074 A 
ATOM     66  C   UNL     1      -5.931   9.455  -2.828  1.00  0.00     0.031 C 
ATOM     67  C   UNL     1      -4.296  10.340  -4.469  1.00  0.00     0.037 A 
BRANCH  54  68
ATOM     68  C   UNL     1       1.649  10.179  -6.164  1.00  0.00     0.064 A 
ATOM     69  C   UNL     1       2.265   9.351  -7.113  1.00  0.00     0.173 A 
ATOM     70  C   UNL     1       2.032  11.530  -6.128  1.00  0.00     0.173 A 
ATOM     71  F   UNL     1       1.948   8.049  -7.181  1.00  0.00    -0.203 F 
ATOM     72  C   UNL     1       3.239   9.851  -7.976  1.00  0.00     0.198 A 
ATOM     73  C   UNL     1       2.982  12.033  -7.011  1.00  0.00     0.198 A 
ATOM     74  F   UNL     1       1.473  12.368  -5.241  1.00  0.00    -0.203 F 
ATOM     75  F   UNL     1       3.845   9.032  -8.847  1.00  0.00    -0.200 F 
ATOM     76  C   UNL     1       3.589  11.192  -7.931  1.00  0.00     0.200 A 
ATOM     77  F   UNL     1       3.309  13.332  -6.974  1.00  0.00    -0.200 F 
ATOM     78  F   UNL     1       4.516  11.674  -8.771  1.00  0.00    -0.200 F 
ENDBRANCH  54  68
BRANCH  55  79
ATOM     79  C   UNL     1      -5.184   6.751   0.335  1.00  0.00     0.064 A 
ATOM     80  C   UNL     1      -6.273   5.952  -0.033  1.00  0.00     0.173 A 
ATOM     81  C   UNL     1      -5.069   7.111   1.688  1.00  0.00     0.173 A 
ATOM     82  F   UNL     1      -6.444   5.602  -1.317  1.00  0.00    -0.203 F 
ATOM     83  C   UNL     1      -7.219   5.547   0.907  1.00  0.00     0.198 A 
ATOM     84  C   UNL     1      -5.994   6.674   2.633  1.00  0.00     0.198 A 
ATOM     85  F   UNL     1      -4.047   7.878   2.097  1.00  0.00    -0.203 F 
ATOM     86  F   UNL     1      -8.282   4.830   0.518  1.00  0.00    -0.200 F 
ATOM     87  C   UNL     1      -7.074   5.901   2.240  1.00  0.00     0.200 A 
ATOM     88  F   UNL     1      -5.840   7.008   3.922  1.00  0.00    -0.200 F 
ATOM     89  F   UNL     1      -7.983   5.509   3.143  1.00  0.00    -0.200 F 
ENDBRANCH  55  79
BRANCH  67  90
ATOM     90  C   UNL     1      -5.415  11.135  -5.074  1.00  0.00     0.064 A 
ATOM     91  C   UNL     1      -5.973  12.239  -4.413  1.00  0.00     0.173 A 
ATOM     92  C   UNL     1      -5.912  10.805  -6.344  1.00  0.00     0.173 A 
ATOM     93  F   UNL     1      -5.544  12.581  -3.189  1.00  0.00    -0.203 F 
ATOM     94  C   UNL     1      -7.007  12.968  -4.992  1.00  0.00     0.198 A 
ATOM     95  C   UNL     1      -6.922  11.557  -6.933  1.00  0.00     0.198 A 
ATOM     96  F   UNL     1      -5.407   9.761  -7.018  1.00  0.00    -0.203 F 
ATOM     97  F   UNL     1      -7.562  13.986  -4.321  1.00  0.00    -0.200 F 
ATOM     98  C   UNL     1      -7.475  12.632  -6.254  1.00  0.00     0.200 A 
ATOM     99  F   UNL     1      -7.362  11.241  -8.159  1.00  0.00    -0.200 F 
ATOM    100  F   UNL     1      -8.465  13.341  -6.813  1.00  0.00    -0.200 F 
ENDBRANCH  67  90
ENDBRANCH  41  42
ENDBRANCH  34  36
ENDBRANCH  33  34
ENDBRANCH  32  33
ENDBRANCH   1  32
TORSDOF 15
