REMARK SMILES Cc1ccc(F)cc1-c1ccc(F)cc1C(=O)OCCOC(=O)c1ccc(-c2c3nc(c(-c4c(F)c(F)c(F)c(F)c4F)c4ccc([nH]4)c(-c4c(F)c(F)c(F)c(F)c4F)c4nc(c(-c5c(F)c(F)c(F)c(F)c5F)c5ccc2[nH]5)C=C4)C=C3)cc1
REMARK SMILES IDX 20 1 19 2 18 3 16 4 17 5 15 6 9 7 10 8 11 9 14 10 12 11
REMARK SMILES IDX 13 12 8 13 1 14 2 15 3 16 4 17 7 18 5 19 6 20 21 21 22 22
REMARK SMILES IDX 23 23 24 24 25 25 86 26 26 27 85 28 27 29 28 30 29 31 79 32
REMARK SMILES IDX 30 33 84 34 78 35 80 36 31 37 83 38 77 39 76 40 32 42 64 43
REMARK SMILES IDX 44 44 63 45 45 46 48 47 62 48 81 49 46 50 47 51 61 53 82 54
REMARK SMILES IDX 49 55 33 56 34 57 42 58 35 59 36 60 40 61 43 62 37 63 38 64
REMARK SMILES IDX 41 65 39 66 65 67 66 68 74 69 67 70 68 71 72 72 75 73 69 74
REMARK SMILES IDX 70 75 73 76 71 77 50 78 51 79 59 80 52 81 53 82 57 83 60 84
REMARK SMILES IDX 54 85 55 86 58 87 56 88
REMARK H PARENT 80 41 48 52
REMARK Flexibility Score: inf
ROOT
ATOM      1  C   UNL     1      -1.037  -1.810  -4.042  1.00  0.00     0.275 C 
ENDROOT
BRANCH   1   2
ATOM      2  C   UNL     1      -1.626  -1.776  -2.635  1.00  0.00     0.275 C 
BRANCH   2   3
ATOM      3  O   UNL     1      -0.604  -1.985  -1.642  1.00  0.00    -0.458 OA
BRANCH   3   4
ATOM      4  C   UNL     1      -0.506  -3.210  -1.073  1.00  0.00     0.338 C 
ATOM      5  O   UNL     1      -1.252  -4.159  -1.288  1.00  0.00    -0.246 OA
BRANCH   4   6
ATOM      6  C   UNL     1       0.713  -3.331  -0.214  1.00  0.00     0.070 A 
ATOM      7  C   UNL     1       1.232  -2.293   0.603  1.00  0.00    -0.003 A 
ATOM      8  C   UNL     1       2.355  -2.593   1.407  1.00  0.00     0.012 A 
ATOM      9  C   UNL     1       2.990  -3.837   1.345  1.00  0.00     0.040 A 
ATOM     10  C   UNL     1       1.350  -4.586  -0.253  1.00  0.00     0.055 A 
ATOM     11  C   UNL     1       2.490  -4.815   0.502  1.00  0.00     0.124 A 
ATOM     12  F   UNL     1       3.113  -5.998   0.419  1.00  0.00    -0.207 F 
BRANCH   7  13
ATOM     13  C   UNL     1       0.666  -0.924   0.620  1.00  0.00    -0.012 A 
ATOM     14  C   UNL     1       2.901   0.201  -0.005  1.00  0.00     0.045 C 
ATOM     15  C   UNL     1       1.414   0.222   0.239  1.00  0.00    -0.043 A 
ATOM     16  C   UNL     1       0.765   1.463   0.096  1.00  0.00     0.007 A 
ATOM     17  C   UNL     1      -0.605   1.581   0.307  1.00  0.00     0.039 A 
ATOM     18  C   UNL     1      -0.703  -0.755   0.909  1.00  0.00     0.048 A 
ATOM     19  C   UNL     1      -1.324   0.473   0.719  1.00  0.00     0.123 A 
ATOM     20  F   UNL     1      -2.648   0.573   0.898  1.00  0.00    -0.207 F 
ENDBRANCH   7  13
ENDBRANCH   4   6
ENDBRANCH   3   4
ENDBRANCH   2   3
ENDBRANCH   1   2
BRANCH   1  21
ATOM     21  O   UNL     1      -0.832  -3.157  -4.492  1.00  0.00    -0.458 OA
BRANCH  21  22
ATOM     22  C   UNL     1       0.323  -3.681  -4.033  1.00  0.00     0.338 C 
ATOM     23  O   UNL     1       1.085  -3.188  -3.215  1.00  0.00    -0.246 OA
BRANCH  22  24
ATOM     24  C   UNL     1       0.807  -4.788  -4.858  1.00  0.00     0.060 A 
ATOM     25  C   UNL     1       1.845  -5.500  -4.234  1.00  0.00     0.016 A 
ATOM     26  C   UNL     1       0.845  -4.458  -6.214  1.00  0.00     0.016 A 
ATOM     27  C   UNL     1       3.073  -5.548  -4.862  1.00  0.00     0.010 A 
ATOM     28  C   UNL     1       2.065  -4.519  -6.841  1.00  0.00     0.010 A 
ATOM     29  C   UNL     1       3.182  -4.979  -6.131  1.00  0.00    -0.014 A 
BRANCH  29  30
ATOM     30  C   UNL     1       4.422  -4.994  -6.871  1.00  0.00     0.031 A 
ATOM     31  C   UNL     1       4.849  -6.292  -7.413  1.00  0.00     0.074 A 
ATOM     32  C   UNL     1       5.090  -3.849  -7.117  1.00  0.00     0.049 A 
ATOM     33  N   UNL     1       6.040  -6.565  -7.810  1.00  0.00    -0.248 NA
ATOM     34  C   UNL     1       3.938  -7.433  -7.475  1.00  0.00     0.031 C 
ATOM     35  C   UNL     1       6.130  -3.641  -8.113  1.00  0.00     0.029 A 
ATOM     36  N   UNL     1       5.073  -2.660  -6.369  1.00  0.00    -0.354 N 
ATOM     37  C   UNL     1       5.997  -7.798  -8.417  1.00  0.00     0.074 A 
ATOM     38  C   UNL     1       4.698  -8.337  -8.095  1.00  0.00     0.031 C 
ATOM     39  C   UNL     1       6.837  -2.550  -7.780  1.00  0.00     0.029 A 
ATOM     40  C   UNL     1       6.386  -2.131  -6.466  1.00  0.00     0.049 A 
ATOM     41  H   UNL     1       4.310  -2.275  -5.880  1.00  0.00     0.167 HD
ATOM     42  C   UNL     1       7.022  -8.154  -9.239  1.00  0.00     0.037 A 
ATOM     43  C   UNL     1       7.187  -2.057  -5.358  1.00  0.00     0.037 A 
ATOM     44  C   UNL     1       8.072  -7.137  -9.223  1.00  0.00     0.049 A 
ATOM     45  C   UNL     1       8.411  -2.936  -5.403  1.00  0.00     0.074 A 
ATOM     46  C   UNL     1       8.340  -6.022 -10.002  1.00  0.00     0.029 A 
ATOM     47  N   UNL     1       8.815  -6.984  -8.070  1.00  0.00    -0.354 N 
ATOM     48  N   UNL     1       8.642  -3.805  -6.347  1.00  0.00    -0.248 NA
ATOM     49  C   UNL     1       9.435  -2.961  -4.359  1.00  0.00     0.031 C 
ATOM     50  C   UNL     1       9.233  -5.181  -9.276  1.00  0.00     0.029 A 
ATOM     51  C   UNL     1       9.518  -5.796  -8.070  1.00  0.00     0.049 A 
ATOM     52  H   UNL     1       8.840  -7.641  -7.337  1.00  0.00     0.167 HD
ATOM     53  C   UNL     1       9.795  -4.478  -6.073  1.00  0.00     0.074 A 
ATOM     54  C   UNL     1      10.254  -3.928  -4.811  1.00  0.00     0.031 C 
ATOM     55  C   UNL     1      10.290  -5.447  -6.891  1.00  0.00     0.037 A 
BRANCH  42  56
ATOM     56  C   UNL     1       6.955  -9.276 -10.244  1.00  0.00     0.064 A 
ATOM     57  C   UNL     1       7.714  -9.206 -11.431  1.00  0.00     0.173 A 
ATOM     58  C   UNL     1       6.136 -10.416 -10.134  1.00  0.00     0.173 A 
ATOM     59  F   UNL     1       8.611  -8.231 -11.631  1.00  0.00    -0.203 F 
ATOM     60  C   UNL     1       7.578 -10.136 -12.464  1.00  0.00     0.198 A 
ATOM     61  C   UNL     1       5.955 -11.314 -11.190  1.00  0.00     0.198 A 
ATOM     62  F   UNL     1       5.533 -10.737  -8.984  1.00  0.00    -0.203 F 
ATOM     63  F   UNL     1       8.327 -10.014 -13.568  1.00  0.00    -0.200 F 
ATOM     64  C   UNL     1       6.670 -11.169 -12.360  1.00  0.00     0.200 A 
ATOM     65  F   UNL     1       5.085 -12.326 -11.060  1.00  0.00    -0.200 F 
ATOM     66  F   UNL     1       6.508 -12.036 -13.368  1.00  0.00    -0.200 F 
ENDBRANCH  42  56
BRANCH  43  67
ATOM     67  C   UNL     1       6.410  -1.706  -4.141  1.00  0.00     0.064 A 
ATOM     68  C   UNL     1       5.824  -0.427  -4.130  1.00  0.00     0.173 A 
ATOM     69  C   UNL     1       5.807  -2.719  -3.383  1.00  0.00     0.173 A 
ATOM     70  F   UNL     1       6.401   0.581  -4.803  1.00  0.00    -0.203 F 
ATOM     71  C   UNL     1       4.563  -0.235  -3.586  1.00  0.00     0.198 A 
ATOM     72  C   UNL     1       4.547  -2.515  -2.825  1.00  0.00     0.198 A 
ATOM     73  F   UNL     1       6.365  -3.936  -3.314  1.00  0.00    -0.203 F 
ATOM     74  F   UNL     1       3.946   0.948  -3.727  1.00  0.00    -0.200 F 
ATOM     75  C   UNL     1       3.904  -1.295  -2.988  1.00  0.00     0.200 A 
ATOM     76  F   UNL     1       3.928  -3.526  -2.200  1.00  0.00    -0.200 F 
ATOM     77  F   UNL     1       2.640  -1.126  -2.580  1.00  0.00    -0.200 F 
ENDBRANCH  43  67
BRANCH  55  78
ATOM     78  C   UNL     1      11.583  -6.144  -6.623  1.00  0.00     0.064 A 
ATOM     79  C   UNL     1      12.756  -5.432  -6.332  1.00  0.00     0.173 A 
ATOM     80  C   UNL     1      11.708  -7.539  -6.770  1.00  0.00     0.173 A 
ATOM     81  F   UNL     1      12.737  -4.094  -6.231  1.00  0.00    -0.203 F 
ATOM     82  C   UNL     1      13.974  -6.085  -6.150  1.00  0.00     0.198 A 
ATOM     83  C   UNL     1      12.935  -8.181  -6.644  1.00  0.00     0.198 A 
ATOM     84  F   UNL     1      10.641  -8.314  -7.013  1.00  0.00    -0.203 F 
ATOM     85  F   UNL     1      15.062  -5.379  -5.814  1.00  0.00    -0.200 F 
ATOM     86  C   UNL     1      14.065  -7.456  -6.318  1.00  0.00     0.200 A 
ATOM     87  F   UNL     1      13.013  -9.506  -6.832  1.00  0.00    -0.200 F 
ATOM     88  F   UNL     1      15.240  -8.080  -6.160  1.00  0.00    -0.200 F 
ENDBRANCH  55  78
ENDBRANCH  29  30
ENDBRANCH  22  24
ENDBRANCH  21  22
ENDBRANCH   1  21
TORSDOF 12
