REMARK SMILES [NH3+][C@@H](Cc1cn(-c2nc(Cl)nc(N3CCOCC3)n2)c2ccccc12)C(=O)OCCOC(=O)c1ccc(-c2c3nc(c(-c4c(F)c(F)c(F)c(F)c4F)c4ccc([nH]4)c(-c4c(F)c(F)c(F)c(F)c4F)c4nc(c(-c5c(F)c(F)c(F)c(F)c5F)c5ccc2[nH]5)C=C4)C=C3)cc1
REMARK SMILES IDX 29 1 28 2 26 3 27 4 2 5 1 6 3 10 4 11 5 12 25 13 6 14 20 15
REMARK SMILES IDX 24 16 21 17 23 18 22 19 7 20 8 21 19 22 9 23 12 24 10 25
REMARK SMILES IDX 11 26 13 27 14 28 18 29 15 30 17 31 16 32 30 33 31 34 32 35
REMARK SMILES IDX 33 36 34 37 35 38 96 39 36 40 95 41 37 42 38 43 39 44 89 45
REMARK SMILES IDX 40 46 94 47 88 48 90 49 41 50 93 51 87 52 86 53 42 55 74 56
REMARK SMILES IDX 54 57 73 58 55 59 58 60 72 61 91 62 56 63 57 64 71 66 92 67
REMARK SMILES IDX 59 68 43 69 44 70 52 71 45 72 46 73 50 74 53 75 47 76 48 77
REMARK SMILES IDX 51 78 49 79 75 80 76 81 84 82 77 83 78 84 82 85 85 86 79 87
REMARK SMILES IDX 80 88 83 89 81 90 60 91 61 92 69 93 62 94 63 95 67 96 70 97
REMARK SMILES IDX 64 98 65 99 68 100 66 101
REMARK H PARENT 1 7 1 8 1 9 90 54 58 65
REMARK Flexibility Score: inf
ROOT
ATOM      1  C   UNL     1      -3.096   0.031   0.971  1.00  0.00     0.274 C 
ENDROOT
BRANCH   1   2
ATOM      2  O   UNL     1      -1.657   0.141   0.926  1.00  0.00    -0.458 OA
BRANCH   2   3
ATOM      3  C   UNL     1      -0.946  -0.839   1.555  1.00  0.00     0.365 C 
ATOM      4  O   UNL     1      -1.463  -1.704   2.251  1.00  0.00    -0.245 OA
BRANCH   3   5
ATOM      5  C   UNL     1       0.577  -0.748   1.268  1.00  0.00     0.296 C 
BRANCH   5   6
ATOM      6  N   UNL     1       0.868   0.142   0.119  1.00  0.00    -0.346 N 
ATOM      7  H   UNL     1       1.875   0.176  -0.038  1.00  0.00     0.345 HD
ATOM      8  H   UNL     1       0.522   1.080   0.320  1.00  0.00     0.345 HD
ATOM      9  H   UNL     1       0.405  -0.219  -0.716  1.00  0.00     0.345 HD
ENDBRANCH   5   6
BRANCH   5  10
ATOM     10  C   UNL     1       1.473  -0.545   2.492  1.00  0.00     0.115 C 
BRANCH  10  11
ATOM     11  C   UNL     1       1.036   0.588   3.315  1.00  0.00    -0.015 A 
ATOM     12  C   UNL     1       0.273   0.547   4.457  1.00  0.00     0.099 A 
ATOM     13  C   UNL     1       1.257   1.942   2.994  1.00  0.00     0.004 A 
ATOM     14  N   UNL     1      -0.123   1.836   4.752  1.00  0.00    -0.285 N 
ATOM     15  C   UNL     1       0.432   2.705   3.821  1.00  0.00     0.056 A 
ATOM     16  C   UNL     1       2.045   2.559   2.007  1.00  0.00     0.010 A 
ATOM     17  C   UNL     1       0.352   4.095   3.658  1.00  0.00     0.027 A 
ATOM     18  C   UNL     1       1.967   3.933   1.837  1.00  0.00     0.001 A 
ATOM     19  C   UNL     1       1.125   4.686   2.647  1.00  0.00     0.002 A 
BRANCH  14  20
ATOM     20  C   UNL     1      -0.960   2.149   5.852  1.00  0.00     0.240 A 
ATOM     21  N   UNL     1      -1.932   3.035   5.699  1.00  0.00    -0.181 NA
ATOM     22  N   UNL     1      -0.726   1.456   6.968  1.00  0.00    -0.176 NA
ATOM     23  C   UNL     1      -2.738   3.072   6.751  1.00  0.00     0.228 A 
ATOM     24  C   UNL     1      -1.540   1.673   7.990  1.00  0.00     0.231 A 
ATOM     25  Cl  UNL     1      -4.111   4.078   6.592  1.00  0.00    -0.041 Cl
ATOM     26  N   UNL     1      -2.623   2.423   7.906  1.00  0.00    -0.182 NA
BRANCH  24  27
ATOM     27  N   UNL     1      -1.198   1.084   9.166  1.00  0.00    -0.336 N 
ATOM     28  C   UNL     1       0.132   1.301   9.724  1.00  0.00     0.148 C 
ATOM     29  C   UNL     1      -2.165   0.425  10.024  1.00  0.00     0.148 C 
ATOM     30  C   UNL     1       0.670  -0.021  10.283  1.00  0.00     0.181 C 
ATOM     31  C   UNL     1      -1.523  -0.881  10.533  1.00  0.00     0.181 C 
ATOM     32  O   UNL     1      -0.264  -0.632  11.191  1.00  0.00    -0.378 OA
ENDBRANCH  24  27
ENDBRANCH  14  20
ENDBRANCH  10  11
ENDBRANCH   5  10
ENDBRANCH   3   5
ENDBRANCH   2   3
ENDBRANCH   1   2
BRANCH   1  33
ATOM     33  C   UNL     1      -3.639  -0.158  -0.451  1.00  0.00     0.275 C 
BRANCH  33  34
ATOM     34  O   UNL     1      -3.349  -1.497  -0.882  1.00  0.00    -0.458 OA
BRANCH  34  35
ATOM     35  C   UNL     1      -2.298  -1.651  -1.735  1.00  0.00     0.338 C 
ATOM     36  O   UNL     1      -1.879  -0.848  -2.532  1.00  0.00    -0.246 OA
BRANCH  35  37
ATOM     37  C   UNL     1      -1.557  -2.845  -1.242  1.00  0.00     0.060 A 
ATOM     38  C   UNL     1      -2.195  -3.818  -0.464  1.00  0.00     0.016 A 
ATOM     39  C   UNL     1      -0.167  -2.782  -1.278  1.00  0.00     0.016 A 
ATOM     40  C   UNL     1      -1.465  -4.522   0.491  1.00  0.00     0.010 A 
ATOM     41  C   UNL     1       0.557  -3.521  -0.346  1.00  0.00     0.010 A 
ATOM     42  C   UNL     1      -0.101  -4.269   0.644  1.00  0.00    -0.014 A 
BRANCH  42  43
ATOM     43  C   UNL     1       0.677  -5.001   1.658  1.00  0.00     0.031 A 
ATOM     44  C   UNL     1       1.188  -6.246   1.057  1.00  0.00     0.074 A 
ATOM     45  C   UNL     1       0.965  -4.720   2.954  1.00  0.00     0.049 A 
ATOM     46  N   UNL     1       0.633  -7.402   1.202  1.00  0.00    -0.248 NA
ATOM     47  C   UNL     1       2.220  -6.188   0.015  1.00  0.00     0.031 C 
ATOM     48  C   UNL     1       0.653  -3.547   3.757  1.00  0.00     0.029 A 
ATOM     49  N   UNL     1       1.688  -5.470   3.855  1.00  0.00    -0.354 N 
ATOM     50  C   UNL     1       1.370  -8.258   0.408  1.00  0.00     0.074 A 
ATOM     51  C   UNL     1       2.155  -7.429  -0.467  1.00  0.00     0.031 C 
ATOM     52  C   UNL     1       1.401  -3.516   4.889  1.00  0.00     0.029 A 
ATOM     53  C   UNL     1       2.082  -4.787   5.012  1.00  0.00     0.049 A 
ATOM     54  H   UNL     1       1.910  -6.416   3.697  1.00  0.00     0.167 HD
ATOM     55  C   UNL     1       1.497  -9.563   0.755  1.00  0.00     0.037 A 
ATOM     56  C   UNL     1       2.799  -5.258   6.069  1.00  0.00     0.037 A 
ATOM     57  C   UNL     1       0.501  -9.944   1.727  1.00  0.00     0.049 A 
ATOM     58  C   UNL     1       2.601  -6.719   6.082  1.00  0.00     0.074 A 
ATOM     59  C   UNL     1      -0.878 -10.009   1.750  1.00  0.00     0.029 A 
ATOM     60  N   UNL     1       0.903  -9.961   3.038  1.00  0.00    -0.354 N 
ATOM     61  N   UNL     1       1.473  -7.289   6.391  1.00  0.00    -0.248 NA
ATOM     62  C   UNL     1       3.547  -7.536   5.345  1.00  0.00     0.031 C 
ATOM     63  C   UNL     1      -1.257  -9.661   3.081  1.00  0.00     0.029 A 
ATOM     64  C   UNL     1      -0.095  -9.451   3.824  1.00  0.00     0.049 A 
ATOM     65  H   UNL     1       1.772 -10.290   3.362  1.00  0.00     0.167 HD
ATOM     66  C   UNL     1       1.374  -8.341   5.499  1.00  0.00     0.074 A 
ATOM     67  C   UNL     1       2.725  -8.516   4.968  1.00  0.00     0.031 C 
ATOM     68  C   UNL     1       0.151  -8.764   5.071  1.00  0.00     0.037 A 
BRANCH  55  69
ATOM     69  C   UNL     1       2.774 -10.335   0.551  1.00  0.00     0.064 A 
ATOM     70  C   UNL     1       2.772 -11.720   0.793  1.00  0.00     0.173 A 
ATOM     71  C   UNL     1       4.050  -9.743   0.404  1.00  0.00     0.173 A 
ATOM     72  F   UNL     1       1.619 -12.374   0.998  1.00  0.00    -0.203 F 
ATOM     73  C   UNL     1       3.959 -12.444   0.924  1.00  0.00     0.198 A 
ATOM     74  C   UNL     1       5.228 -10.479   0.471  1.00  0.00     0.198 A 
ATOM     75  F   UNL     1       4.226  -8.420   0.315  1.00  0.00    -0.203 F 
ATOM     76  F   UNL     1       3.912 -13.735   1.277  1.00  0.00    -0.200 F 
ATOM     77  C   UNL     1       5.185 -11.824   0.759  1.00  0.00     0.200 A 
ATOM     78  F   UNL     1       6.404  -9.849   0.338  1.00  0.00    -0.200 F 
ATOM     79  F   UNL     1       6.324 -12.506   0.932  1.00  0.00    -0.200 F 
ENDBRANCH  55  69
BRANCH  56  80
ATOM     80  C   UNL     1       3.885  -4.631   6.872  1.00  0.00     0.064 A 
ATOM     81  C   UNL     1       4.376  -5.262   8.036  1.00  0.00     0.173 A 
ATOM     82  C   UNL     1       4.692  -3.613   6.335  1.00  0.00     0.173 A 
ATOM     83  F   UNL     1       3.689  -6.266   8.600  1.00  0.00    -0.203 F 
ATOM     84  C   UNL     1       5.623  -4.939   8.586  1.00  0.00     0.198 A 
ATOM     85  C   UNL     1       5.938  -3.290   6.888  1.00  0.00     0.198 A 
ATOM     86  F   UNL     1       4.335  -2.986   5.205  1.00  0.00    -0.203 F 
ATOM     87  F   UNL     1       6.088  -5.623   9.641  1.00  0.00    -0.200 F 
ATOM     88  C   UNL     1       6.412  -3.966   7.999  1.00  0.00     0.200 A 
ATOM     89  F   UNL     1       6.711  -2.370   6.293  1.00  0.00    -0.200 F 
ATOM     90  F   UNL     1       7.639  -3.712   8.474  1.00  0.00    -0.200 F 
ENDBRANCH  56  80
BRANCH  68  91
ATOM     91  C   UNL     1      -1.055  -8.316   5.855  1.00  0.00     0.064 A 
ATOM     92  C   UNL     1      -1.494  -6.984   5.959  1.00  0.00     0.173 A 
ATOM     93  C   UNL     1      -1.868  -9.308   6.419  1.00  0.00     0.173 A 
ATOM     94  F   UNL     1      -0.811  -5.984   5.389  1.00  0.00    -0.203 F 
ATOM     95  C   UNL     1      -2.684  -6.666   6.617  1.00  0.00     0.198 A 
ATOM     96  C   UNL     1      -3.071  -8.992   7.043  1.00  0.00     0.198 A 
ATOM     97  F   UNL     1      -1.515 -10.600   6.323  1.00  0.00    -0.203 F 
ATOM     98  F   UNL     1      -3.082  -5.388   6.713  1.00  0.00    -0.200 F 
ATOM     99  C   UNL     1      -3.477  -7.672   7.147  1.00  0.00     0.200 A 
ATOM    100  F   UNL     1      -3.852  -9.972   7.517  1.00  0.00    -0.200 F 
ATOM    101  F   UNL     1      -4.643  -7.372   7.736  1.00  0.00    -0.200 F 
ENDBRANCH  68  91
ENDBRANCH  42  43
ENDBRANCH  35  37
ENDBRANCH  34  35
ENDBRANCH  33  34
ENDBRANCH   1  33
TORSDOF 16
