REMARK SMILES NC(=O)COc1ccc(/C=C2\SC(=S)N(CCC(=O)OCCOC(=O)c3ccc(-c4c5nc(c(-c6c(F)c(F)c(F)c(F)c6F)c6ccc([nH]6)c(-c6c(F)c(F)c(F)c(F)c6F)c6nc(c(-c7c(F)c(F)c(F)c(F)c7F)c7ccc4[nH]7)C=C6)C=C5)cc3)C2=O)cc1
REMARK SMILES IDX 18 1 19 2 17 3 16 4 15 5 10 6 11 7 12 8 89 9 13 10 90 11
REMARK SMILES IDX 14 12 9 13 6 14 7 15 92 16 8 17 91 18 5 19 4 20 2 21 1 22
REMARK SMILES IDX 3 25 20 26 21 27 22 28 23 29 24 30 25 31 26 32 27 33 88 34
REMARK SMILES IDX 28 35 87 36 29 37 30 38 31 39 81 40 32 41 86 42 80 43 82 44
REMARK SMILES IDX 33 45 85 46 79 47 78 48 34 50 66 51 46 52 65 53 47 54 50 55
REMARK SMILES IDX 64 56 83 57 48 58 49 59 63 61 84 62 51 63 35 64 36 65 44 66
REMARK SMILES IDX 37 67 38 68 42 69 45 70 39 71 40 72 43 73 41 74 67 75 68 76
REMARK SMILES IDX 76 77 69 78 70 79 74 80 77 81 71 82 72 83 75 84 73 85 52 86
REMARK SMILES IDX 53 87 61 88 54 89 55 90 59 91 62 92 56 93 57 94 60 95 58 96
REMARK H PARENT 1 23 1 24 82 49 50 60
REMARK Flexibility Score: inf
ROOT
ATOM      1  C   UNL     1      -0.246  -7.104   8.696  1.00  0.00     0.307 C 
ATOM      2  O   UNL     1      -0.358  -7.561   9.826  1.00  0.00    -0.252 OA
ENDROOT
BRANCH   1   3
ATOM      3  C   UNL     1       0.089  -7.962   7.496  1.00  0.00     0.144 C 
BRANCH   3   4
ATOM      4  C   UNL     1      -0.802  -7.727   6.271  1.00  0.00     0.139 C 
BRANCH   4   5
ATOM      5  N   UNL     1      -0.330  -6.598   5.466  1.00  0.00    -0.292 N 
ATOM      6  C   UNL     1      -0.261  -3.039   5.412  1.00  0.00     0.029 C 
ATOM      7  C   UNL     1      -0.081  -4.314   5.052  1.00  0.00     0.081 C 
ATOM      8  S   UNL     1       1.017  -5.011   3.941  1.00  0.00    -0.054 SA
ATOM      9  C   UNL     1      -0.906  -5.364   5.668  1.00  0.00     0.266 C 
ATOM     10  C   UNL     1       0.669  -6.644   4.517  1.00  0.00     0.148 C 
ATOM     11  O   UNL     1      -1.955  -5.126   6.243  1.00  0.00    -0.268 OA
ATOM     12  S   UNL     1       1.496  -7.983   3.965  1.00  0.00    -0.052 S 
BRANCH   6  13
ATOM     13  C   UNL     1       0.327  -1.906   4.720  1.00  0.00    -0.024 A 
ATOM     14  C   UNL     1       1.329   0.245   3.251  1.00  0.00     0.120 A 
ATOM     15  C   UNL     1       1.961  -0.158   4.433  1.00  0.00     0.047 A 
ATOM     16  C   UNL     1       0.191  -0.431   2.816  1.00  0.00     0.047 A 
ATOM     17  C   UNL     1       1.456  -1.228   5.178  1.00  0.00     0.012 A 
ATOM     18  C   UNL     1      -0.304  -1.503   3.544  1.00  0.00     0.012 A 
BRANCH  14  19
ATOM     19  O   UNL     1       1.933   1.263   2.564  1.00  0.00    -0.484 OA
BRANCH  19  20
ATOM     20  C   UNL     1       1.070   2.084   1.782  1.00  0.00     0.329 C 
BRANCH  20  21
ATOM     21  C   UNL     1       0.641   1.533   0.417  1.00  0.00     0.255 C 
ATOM     22  N   UNL     1       1.469   0.602  -0.138  1.00  0.00    -0.367 N 
ATOM     23  H   UNL     1       1.250   0.208  -1.013  1.00  0.00     0.159 HD
ATOM     24  H   UNL     1       2.285   0.324   0.337  1.00  0.00     0.159 HD
ATOM     25  O   UNL     1      -0.383   1.891  -0.158  1.00  0.00    -0.271 OA
ENDBRANCH  20  21
ENDBRANCH  19  20
ENDBRANCH  14  19
ENDBRANCH   6  13
ENDBRANCH   4   5
ENDBRANCH   3   4
ENDBRANCH   1   3
BRANCH   1  26
ATOM     26  O   UNL     1      -0.342  -5.793   8.376  1.00  0.00    -0.462 OA
BRANCH  26  27
ATOM     27  C   UNL     1      -0.779  -4.882   9.406  1.00  0.00     0.274 C 
BRANCH  27  28
ATOM     28  C   UNL     1      -2.302  -4.720   9.423  1.00  0.00     0.275 C 
BRANCH  28  29
ATOM     29  O   UNL     1      -2.918  -5.927   9.896  1.00  0.00    -0.458 OA
BRANCH  29  30
ATOM     30  C   UNL     1      -3.679  -6.609   9.014  1.00  0.00     0.338 C 
ATOM     31  O   UNL     1      -3.987  -6.327   7.873  1.00  0.00    -0.246 OA
BRANCH  30  32
ATOM     32  C   UNL     1      -4.087  -7.858   9.653  1.00  0.00     0.060 A 
ATOM     33  C   UNL     1      -3.307  -9.003   9.476  1.00  0.00     0.016 A 
ATOM     34  C   UNL     1      -5.264  -7.887  10.399  1.00  0.00     0.016 A 
ATOM     35  C   UNL     1      -3.692 -10.194  10.078  1.00  0.00     0.010 A 
ATOM     36  C   UNL     1      -5.642  -9.078  11.010  1.00  0.00     0.010 A 
ATOM     37  C   UNL     1      -4.854 -10.231  10.857  1.00  0.00    -0.014 A 
BRANCH  37  38
ATOM     38  C   UNL     1      -5.257 -11.476  11.538  1.00  0.00     0.031 A 
ATOM     39  C   UNL     1      -6.416 -12.265  11.017  1.00  0.00     0.074 A 
ATOM     40  C   UNL     1      -4.600 -11.854  12.648  1.00  0.00     0.049 A 
ATOM     41  N   UNL     1      -7.025 -13.290  11.552  1.00  0.00    -0.248 NA
ATOM     42  C   UNL     1      -6.967 -11.838   9.722  1.00  0.00     0.031 C 
ATOM     43  C   UNL     1      -3.434 -11.171  13.210  1.00  0.00     0.029 A 
ATOM     44  N   UNL     1      -4.832 -12.891  13.512  1.00  0.00    -0.354 N 
ATOM     45  C   UNL     1      -8.041 -13.623  10.669  1.00  0.00     0.074 A 
ATOM     46  C   UNL     1      -7.978 -12.682   9.571  1.00  0.00     0.031 C 
ATOM     47  C   UNL     1      -3.058 -11.802  14.333  1.00  0.00     0.029 A 
ATOM     48  C   UNL     1      -3.988 -12.896  14.594  1.00  0.00     0.049 A 
ATOM     49  H   UNL     1      -5.535 -13.566  13.370  1.00  0.00     0.167 HD
ATOM     50  C   UNL     1      -8.941 -14.629  10.774  1.00  0.00     0.037 A 
ATOM     51  C   UNL     1      -3.996 -13.674  15.691  1.00  0.00     0.037 A 
ATOM     52  C   UNL     1      -8.989 -15.551  11.878  1.00  0.00     0.049 A 
ATOM     53  C   UNL     1      -5.060 -14.727  15.825  1.00  0.00     0.074 A 
ATOM     54  C   UNL     1      -9.847 -16.616  12.080  1.00  0.00     0.029 A 
ATOM     55  N   UNL     1      -8.140 -15.507  12.976  1.00  0.00    -0.354 N 
ATOM     56  N   UNL     1      -6.019 -15.043  14.988  1.00  0.00    -0.248 NA
ATOM     57  C   UNL     1      -5.053 -15.521  17.060  1.00  0.00     0.031 C 
ATOM     58  C   UNL     1      -9.546 -17.190  13.320  1.00  0.00     0.029 A 
ATOM     59  C   UNL     1      -8.471 -16.510  13.872  1.00  0.00     0.049 A 
ATOM     60  H   UNL     1      -7.409 -14.859  13.100  1.00  0.00     0.167 HD
ATOM     61  C   UNL     1      -6.719 -16.081  15.584  1.00  0.00     0.074 A 
ATOM     62  C   UNL     1      -6.066 -16.351  16.850  1.00  0.00     0.031 C 
ATOM     63  C   UNL     1      -7.805 -16.752  15.127  1.00  0.00     0.037 A 
BRANCH  50  64
ATOM     64  C   UNL     1      -9.961 -14.758   9.683  1.00  0.00     0.064 A 
ATOM     65  C   UNL     1      -9.616 -15.219   8.403  1.00  0.00     0.173 A 
ATOM     66  C   UNL     1     -11.303 -14.432   9.924  1.00  0.00     0.173 A 
ATOM     67  F   UNL     1      -8.342 -15.528   8.117  1.00  0.00    -0.203 F 
ATOM     68  C   UNL     1     -10.575 -15.323   7.398  1.00  0.00     0.198 A 
ATOM     69  C   UNL     1     -12.264 -14.561   8.924  1.00  0.00     0.198 A 
ATOM     70  F   UNL     1     -11.685 -13.988  11.131  1.00  0.00    -0.203 F 
ATOM     71  F   UNL     1     -10.214 -15.721   6.170  1.00  0.00    -0.200 F 
ATOM     72  C   UNL     1     -11.897 -15.000   7.660  1.00  0.00     0.200 A 
ATOM     73  F   UNL     1     -13.543 -14.256   9.181  1.00  0.00    -0.200 F 
ATOM     74  F   UNL     1     -12.819 -15.102   6.692  1.00  0.00    -0.200 F 
ENDBRANCH  50  64
BRANCH  51  75
ATOM     75  C   UNL     1      -2.976 -13.466  16.749  1.00  0.00     0.064 A 
ATOM     76  C   UNL     1      -1.960 -14.407  16.961  1.00  0.00     0.173 A 
ATOM     77  C   UNL     1      -2.981 -12.316  17.552  1.00  0.00     0.173 A 
ATOM     78  F   UNL     1      -1.928 -15.532  16.232  1.00  0.00    -0.203 F 
ATOM     79  C   UNL     1      -0.990 -14.208  17.941  1.00  0.00     0.198 A 
ATOM     80  C   UNL     1      -1.996 -12.106  18.515  1.00  0.00     0.198 A 
ATOM     81  F   UNL     1      -3.933 -11.385  17.388  1.00  0.00    -0.203 F 
ATOM     82  F   UNL     1      -0.047 -15.138  18.145  1.00  0.00    -0.200 F 
ATOM     83  C   UNL     1      -1.004 -13.055  18.711  1.00  0.00     0.200 A 
ATOM     84  F   UNL     1      -2.006 -10.985  19.248  1.00  0.00    -0.200 F 
ATOM     85  F   UNL     1      -0.065 -12.860  19.647  1.00  0.00    -0.200 F 
ENDBRANCH  51  75
BRANCH  63  86
ATOM     86  C   UNL     1      -8.338 -17.853  15.994  1.00  0.00     0.064 A 
ATOM     87  C   UNL     1      -9.066 -17.578  17.160  1.00  0.00     0.173 A 
ATOM     88  C   UNL     1      -8.155 -19.195  15.630  1.00  0.00     0.173 A 
ATOM     89  F   UNL     1      -9.250 -16.310  17.558  1.00  0.00    -0.203 F 
ATOM     90  C   UNL     1      -9.578 -18.610  17.941  1.00  0.00     0.198 A 
ATOM     91  C   UNL     1      -8.690 -20.223  16.399  1.00  0.00     0.198 A 
ATOM     92  F   UNL     1      -7.468 -19.507  14.520  1.00  0.00    -0.203 F 
ATOM     93  F   UNL     1     -10.238 -18.327  19.073  1.00  0.00    -0.200 F 
ATOM     94  C   UNL     1      -9.397 -19.930  17.556  1.00  0.00     0.200 A 
ATOM     95  F   UNL     1      -8.523 -21.498  16.021  1.00  0.00    -0.200 F 
ATOM     96  F   UNL     1      -9.898 -20.922  18.305  1.00  0.00    -0.200 F 
ENDBRANCH  63  86
ENDBRANCH  37  38
ENDBRANCH  30  32
ENDBRANCH  29  30
ENDBRANCH  28  29
ENDBRANCH  27  28
ENDBRANCH  26  27
ENDBRANCH   1  26
TORSDOF 17
