REMARK SMILES O=C(OCCOC(=O)C1(Oc2cccc(F)c2)CCN(c2cc(NCCO)ncn2)CC1)c1ccc(-c2c3nc(c(-c4c(F)c(F)c(F)c(F)c4F)c4ccc([nH]4)c(-c4c(F)c(F)c(F)c(F)c4F)c4nc(c(-c5c(F)c(F)c(F)c(F)c5F)c5ccc2[nH]5)C=C4)C=C3)cc1
REMARK SMILES IDX 6 1 5 2 4 3 3 4 2 5 1 6 33 7 34 8 95 9 35 10 94 11 36 12
REMARK SMILES IDX 37 13 38 14 88 15 39 16 93 17 87 18 89 19 40 20 92 21 86 22
REMARK SMILES IDX 85 23 41 25 73 26 53 27 72 28 54 29 57 30 71 31 90 32 55 33
REMARK SMILES IDX 56 34 70 36 91 37 58 38 42 39 43 40 51 41 44 42 45 43 49 44
REMARK SMILES IDX 52 45 46 46 47 47 50 48 48 49 74 50 75 51 83 52 76 53 77 54
REMARK SMILES IDX 81 55 84 56 78 57 79 58 82 59 80 60 59 61 60 62 68 63 61 64
REMARK SMILES IDX 62 65 66 66 69 67 63 68 64 69 67 70 65 71 7 72 8 73 9 74
REMARK SMILES IDX 18 75 32 76 19 77 31 78 20 79 10 80 11 81 12 82 17 83 13 84
REMARK SMILES IDX 15 85 14 86 16 87 21 88 22 89 30 90 23 91 29 92 28 93 24 94
REMARK SMILES IDX 25 96 26 97 27 98
REMARK H PARENT 89 24 57 35 24 95 27 99
REMARK Flexibility Score: inf
ROOT
ATOM      1  O   UNL     1       3.280  -1.273   1.227  1.00  0.00    -0.459 OA
ENDROOT
BRANCH   1   2
ATOM      2  C   UNL     1       3.776  -0.160   1.996  1.00  0.00     0.274 C 
BRANCH   2   3
ATOM      3  C   UNL     1       4.243   1.007   1.126  1.00  0.00     0.275 C 
BRANCH   3   4
ATOM      4  O   UNL     1       3.356   1.281   0.036  1.00  0.00    -0.458 OA
BRANCH   4   5
ATOM      5  C   UNL     1       3.308   0.742  -1.201  1.00  0.00     0.338 C 
ATOM      6  O   UNL     1       2.482   1.210  -1.987  1.00  0.00    -0.246 OA
BRANCH   5   7
ATOM      7  C   UNL     1       4.113  -0.444  -1.678  1.00  0.00     0.060 A 
ATOM      8  C   UNL     1       5.164  -1.103  -1.031  1.00  0.00     0.016 A 
ATOM      9  C   UNL     1       3.696  -0.991  -2.904  1.00  0.00     0.016 A 
ATOM     10  C   UNL     1       5.667  -2.331  -1.510  1.00  0.00     0.010 A 
ATOM     11  C   UNL     1       4.165  -2.227  -3.369  1.00  0.00     0.010 A 
ATOM     12  C   UNL     1       5.130  -2.933  -2.653  1.00  0.00    -0.014 A 
BRANCH  12  13
ATOM     13  C   UNL     1       5.681  -4.216  -3.166  1.00  0.00     0.031 A 
ATOM     14  C   UNL     1       6.576  -4.158  -4.348  1.00  0.00     0.074 A 
ATOM     15  C   UNL     1       5.301  -5.423  -2.699  1.00  0.00     0.049 A 
ATOM     16  N   UNL     1       7.107  -5.149  -5.003  1.00  0.00    -0.248 NA
ATOM     17  C   UNL     1       6.784  -2.833  -4.953  1.00  0.00     0.031 C 
ATOM     18  C   UNL     1       4.118  -5.613  -1.897  1.00  0.00     0.029 A 
ATOM     19  N   UNL     1       5.771  -6.705  -2.846  1.00  0.00    -0.354 N 
ATOM     20  C   UNL     1       7.629  -4.580  -6.145  1.00  0.00     0.074 A 
ATOM     21  C   UNL     1       7.343  -3.165  -6.105  1.00  0.00     0.031 C 
ATOM     22  C   UNL     1       4.027  -6.875  -1.457  1.00  0.00     0.029 A 
ATOM     23  C   UNL     1       5.082  -7.648  -2.095  1.00  0.00     0.049 A 
ATOM     24  H   UNL     1       6.528  -6.936  -3.431  1.00  0.00     0.167 HD
ATOM     25  C   UNL     1       8.282  -5.207  -7.142  1.00  0.00     0.037 A 
ATOM     26  C   UNL     1       5.248  -8.986  -1.998  1.00  0.00     0.037 A 
ATOM     27  C   UNL     1       8.578  -6.609  -7.135  1.00  0.00     0.049 A 
ATOM     28  C   UNL     1       6.289  -9.592  -2.913  1.00  0.00     0.074 A 
ATOM     29  C   UNL     1       9.326  -7.330  -8.044  1.00  0.00     0.029 A 
ATOM     30  N   UNL     1       8.145  -7.500  -6.162  1.00  0.00    -0.354 N 
ATOM     31  N   UNL     1       6.973  -8.996  -3.863  1.00  0.00    -0.248 NA
ATOM     32  C   UNL     1       6.571 -11.030  -2.797  1.00  0.00     0.031 C 
ATOM     33  C   UNL     1       9.336  -8.663  -7.630  1.00  0.00     0.029 A 
ATOM     34  C   UNL     1       8.626  -8.765  -6.445  1.00  0.00     0.049 A 
ATOM     35  H   UNL     1       7.582  -7.266  -5.389  1.00  0.00     0.167 HD
ATOM     36  C   UNL     1       7.700  -9.992  -4.489  1.00  0.00     0.074 A 
ATOM     37  C   UNL     1       7.491 -11.205  -3.732  1.00  0.00     0.031 C 
ATOM     38  C   UNL     1       8.406  -9.937  -5.641  1.00  0.00     0.037 A 
BRANCH  25  39
ATOM     39  C   UNL     1       8.729  -4.370  -8.291  1.00  0.00     0.064 A 
ATOM     40  C   UNL     1       8.142  -4.526  -9.554  1.00  0.00     0.173 A 
ATOM     41  C   UNL     1       9.753  -3.424  -8.143  1.00  0.00     0.173 A 
ATOM     42  F   UNL     1       7.146  -5.406  -9.735  1.00  0.00    -0.203 F 
ATOM     43  C   UNL     1       8.582  -3.773 -10.637  1.00  0.00     0.198 A 
ATOM     44  C   UNL     1      10.167  -2.652  -9.220  1.00  0.00     0.198 A 
ATOM     45  F   UNL     1      10.315  -3.219  -6.942  1.00  0.00    -0.203 F 
ATOM     46  F   UNL     1       8.030  -3.954 -11.844  1.00  0.00    -0.200 F 
ATOM     47  C   UNL     1       9.592  -2.836 -10.468  1.00  0.00     0.200 A 
ATOM     48  F   UNL     1      11.115  -1.720  -9.046  1.00  0.00    -0.200 F 
ATOM     49  F   UNL     1      10.008  -2.105 -11.511  1.00  0.00    -0.200 F 
ENDBRANCH  25  39
BRANCH  26  50
ATOM     50  C   UNL     1       4.407  -9.862  -1.114  1.00  0.00     0.064 A 
ATOM     51  C   UNL     1       3.009  -9.938  -1.225  1.00  0.00     0.173 A 
ATOM     52  C   UNL     1       5.001 -10.732  -0.186  1.00  0.00     0.173 A 
ATOM     53  F   UNL     1       2.357  -9.165  -2.106  1.00  0.00    -0.203 F 
ATOM     54  C   UNL     1       2.255 -10.825  -0.451  1.00  0.00     0.198 A 
ATOM     55  C   UNL     1       4.256 -11.684   0.516  1.00  0.00     0.198 A 
ATOM     56  F   UNL     1       6.334 -10.713  -0.011  1.00  0.00    -0.203 F 
ATOM     57  F   UNL     1       0.918 -10.832  -0.553  1.00  0.00    -0.200 F 
ATOM     58  C   UNL     1       2.881 -11.716   0.402  1.00  0.00     0.200 A 
ATOM     59  F   UNL     1       4.877 -12.590   1.286  1.00  0.00    -0.200 F 
ATOM     60  F   UNL     1       2.166 -12.611   1.097  1.00  0.00    -0.200 F 
ENDBRANCH  26  50
BRANCH  38  61
ATOM     61  C   UNL     1       8.952 -11.229  -6.159  1.00  0.00     0.064 A 
ATOM     62  C   UNL     1      10.331 -11.468  -6.176  1.00  0.00     0.173 A 
ATOM     63  C   UNL     1       8.100 -12.189  -6.726  1.00  0.00     0.173 A 
ATOM     64  F   UNL     1      11.179 -10.573  -5.647  1.00  0.00    -0.203 F 
ATOM     65  C   UNL     1      10.843 -12.616  -6.768  1.00  0.00     0.198 A 
ATOM     66  C   UNL     1       8.614 -13.350  -7.288  1.00  0.00     0.198 A 
ATOM     67  F   UNL     1       6.771 -12.006  -6.712  1.00  0.00    -0.203 F 
ATOM     68  F   UNL     1      12.168 -12.809  -6.815  1.00  0.00    -0.200 F 
ATOM     69  C   UNL     1       9.985 -13.556  -7.322  1.00  0.00     0.200 A 
ATOM     70  F   UNL     1       7.782 -14.269  -7.798  1.00  0.00    -0.200 F 
ATOM     71  F   UNL     1      10.481 -14.663  -7.890  1.00  0.00    -0.200 F 
ENDBRANCH  38  61
ENDBRANCH  12  13
ENDBRANCH   5   7
ENDBRANCH   4   5
ENDBRANCH   3   4
ENDBRANCH   2   3
ENDBRANCH   1   2
BRANCH   1  72
ATOM     72  C   UNL     1       1.942  -1.550   1.298  1.00  0.00     0.350 C 
ATOM     73  O   UNL     1       1.138  -0.837   1.896  1.00  0.00    -0.247 OA
BRANCH  72  74
ATOM     74  C   UNL     1       1.556  -2.888   0.607  1.00  0.00     0.209 C 
ATOM     75  C   UNL     1       0.764  -3.745   1.610  1.00  0.00     0.082 C 
ATOM     76  C   UNL     1       2.779  -3.696   0.197  1.00  0.00     0.082 C 
ATOM     77  C   UNL     1       1.639  -4.247   2.763  1.00  0.00     0.123 C 
ATOM     78  C   UNL     1       3.675  -4.163   1.340  1.00  0.00     0.123 C 
ATOM     79  N   UNL     1       2.855  -4.912   2.277  1.00  0.00    -0.356 N 
BRANCH  74  80
ATOM     80  O   UNL     1       0.743  -2.463  -0.538  1.00  0.00    -0.475 OA
BRANCH  80  81
ATOM     81  C   UNL     1       0.484  -3.338  -1.562  1.00  0.00     0.123 A 
ATOM     82  C   UNL     1      -0.347  -4.445  -1.430  1.00  0.00     0.047 A 
ATOM     83  C   UNL     1       0.962  -3.034  -2.834  1.00  0.00     0.085 A 
ATOM     84  C   UNL     1      -0.566  -5.314  -2.511  1.00  0.00     0.007 A 
ATOM     85  C   UNL     1       0.775  -3.911  -3.902  1.00  0.00     0.126 A 
ATOM     86  C   UNL     1       0.028  -5.066  -3.746  1.00  0.00     0.039 A 
ATOM     87  F   UNL     1       1.319  -3.630  -5.095  1.00  0.00    -0.207 F 
ENDBRANCH  80  81
ENDBRANCH  74  80
BRANCH  79  88
ATOM     88  C   UNL     1       2.940  -6.299   2.281  1.00  0.00     0.134 A 
ATOM     89  C   UNL     1       4.173  -6.942   2.366  1.00  0.00     0.093 A 
ATOM     90  N   UNL     1       1.809  -7.014   2.236  1.00  0.00    -0.219 NA
ATOM     91  C   UNL     1       4.205  -8.324   2.459  1.00  0.00     0.131 A 
ATOM     92  C   UNL     1       1.936  -8.347   2.280  1.00  0.00     0.226 A 
ATOM     93  N   UNL     1       3.079  -9.042   2.384  1.00  0.00    -0.219 NA
BRANCH  91  94
ATOM     94  N   UNL     1       5.424  -8.984   2.588  1.00  0.00    -0.368 N 
ATOM     95  H   UNL     1       6.233  -8.636   2.148  1.00  0.00     0.162 HD
BRANCH  94  96
ATOM     96  C   UNL     1       5.478 -10.208   3.392  1.00  0.00     0.142 C 
BRANCH  96  97
ATOM     97  C   UNL     1       6.771 -10.995   3.122  1.00  0.00     0.177 C 
BRANCH  97  98
ATOM     98  O   UNL     1       7.907 -10.132   3.084  1.00  0.00    -0.395 OA
ATOM     99  H   UNL     1       7.800  -9.486   2.369  1.00  0.00     0.210 HD
ENDBRANCH  97  98
ENDBRANCH  96  97
ENDBRANCH  94  96
ENDBRANCH  91  94
ENDBRANCH  79  88
ENDBRANCH  72  74
ENDBRANCH   1  72
TORSDOF 18
