REMARK SMILES CO[C@@H]1C[C@H](C(=O)OCCOC(=O)c2ccc(-c3c4nc(c(-c5c(F)c(F)c(F)c(F)c5F)c5ccc([nH]5)c(-c5c(F)c(F)c(F)c(F)c5F)c5nc(c(-c6c(F)c(F)c(F)c(F)c6F)c6ccc3[nH]6)C=C5)C=C4)cc2)N(C(=O)N2CCC(C)(C)C2)C1
REMARK SMILES IDX 9 1 8 2 6 3 7 4 5 5 3 6 4 7 87 8 77 9 2 10 1 11 78 12 79 13
REMARK SMILES IDX 80 14 81 15 86 16 82 17 83 18 84 19 85 20 10 21 11 22 12 23
REMARK SMILES IDX 13 24 14 25 15 26 76 27 16 28 75 29 17 30 18 31 19 32 69 33
REMARK SMILES IDX 20 34 74 35 68 36 70 37 21 38 73 39 67 40 66 41 22 43 54 44
REMARK SMILES IDX 34 45 53 46 35 47 38 48 52 49 71 50 36 51 37 52 51 54 72 55
REMARK SMILES IDX 39 56 23 57 24 58 32 59 25 60 26 61 30 62 33 63 27 64 28 65
REMARK SMILES IDX 31 66 29 67 55 68 56 69 64 70 57 71 58 72 62 73 65 74 59 75
REMARK SMILES IDX 60 76 63 77 61 78 40 79 41 80 49 81 42 82 43 83 47 84 50 85
REMARK SMILES IDX 44 86 45 87 48 88 46 89
REMARK H PARENT 70 42 38 53
REMARK Flexibility Score: inf
ROOT
ATOM      1  C   UNL     1      -1.203  -0.440  -2.105  1.00  0.00     0.274 C 
ENDROOT
BRANCH   1   2
ATOM      2  O   UNL     1      -0.109  -0.888  -1.286  1.00  0.00    -0.461 OA
BRANCH   2   3
ATOM      3  C   UNL     1       0.830  -1.656  -1.887  1.00  0.00     0.329 C 
ATOM      4  O   UNL     1       0.801  -1.977  -3.072  1.00  0.00    -0.250 OA
BRANCH   3   5
ATOM      5  C   UNL     1       1.942  -2.121  -0.928  1.00  0.00     0.199 C 
ATOM      6  C   UNL     1       1.131  -2.159   1.344  1.00  0.00     0.140 C 
ATOM      7  C   UNL     1       2.082  -1.408   0.406  1.00  0.00     0.071 C 
ATOM      8  C   UNL     1       1.022  -3.570   0.720  1.00  0.00     0.154 C 
ATOM      9  N   UNL     1       1.744  -3.506  -0.547  1.00  0.00    -0.308 N 
BRANCH   6  10
ATOM     10  O   UNL     1      -0.159  -1.550   1.435  1.00  0.00    -0.380 OA
ATOM     11  C   UNL     1      -0.130  -0.207   1.912  1.00  0.00     0.195 C 
ENDBRANCH   6  10
BRANCH   9  12
ATOM     12  C   UNL     1       1.871  -4.592  -1.377  1.00  0.00     0.320 C 
ATOM     13  O   UNL     1       1.208  -5.613  -1.203  1.00  0.00    -0.248 OA
BRANCH  12  14
ATOM     14  N   UNL     1       2.700  -4.448  -2.456  1.00  0.00    -0.324 N 
ATOM     15  C   UNL     1       4.058  -3.947  -2.475  1.00  0.00     0.122 C 
ATOM     16  C   UNL     1       2.358  -4.991  -3.757  1.00  0.00     0.127 C 
ATOM     17  C   UNL     1       4.137  -3.316  -3.853  1.00  0.00     0.030 C 
ATOM     18  C   UNL     1       3.340  -4.304  -4.743  1.00  0.00    -0.016 C 
ATOM     19  C   UNL     1       2.586  -3.560  -5.850  1.00  0.00     0.013 C 
ATOM     20  C   UNL     1       4.293  -5.325  -5.378  1.00  0.00     0.013 C 
ENDBRANCH  12  14
ENDBRANCH   9  12
ENDBRANCH   3   5
ENDBRANCH   2   3
ENDBRANCH   1   2
BRANCH   1  21
ATOM     21  C   UNL     1      -1.087   1.061  -2.370  1.00  0.00     0.275 C 
BRANCH  21  22
ATOM     22  O   UNL     1       0.123   1.367  -3.090  1.00  0.00    -0.458 OA
BRANCH  22  23
ATOM     23  C   UNL     1       1.185   1.687  -2.316  1.00  0.00     0.338 C 
ATOM     24  O   UNL     1       1.206   1.840  -1.102  1.00  0.00    -0.246 OA
BRANCH  23  25
ATOM     25  C   UNL     1       2.413   1.625  -3.122  1.00  0.00     0.060 A 
ATOM     26  C   UNL     1       3.418   0.754  -2.690  1.00  0.00     0.016 A 
ATOM     27  C   UNL     1       2.601   2.421  -4.252  1.00  0.00     0.016 A 
ATOM     28  C   UNL     1       4.601   0.635  -3.408  1.00  0.00     0.010 A 
ATOM     29  C   UNL     1       3.808   2.333  -4.952  1.00  0.00     0.010 A 
ATOM     30  C   UNL     1       4.807   1.437  -4.534  1.00  0.00    -0.014 A 
BRANCH  30  31
ATOM     31  C   UNL     1       6.113   1.379  -5.220  1.00  0.00     0.031 A 
ATOM     32  C   UNL     1       7.195   2.333  -4.823  1.00  0.00     0.074 A 
ATOM     33  C   UNL     1       6.331   0.447  -6.163  1.00  0.00     0.049 A 
ATOM     34  N   UNL     1       8.389   2.491  -5.331  1.00  0.00    -0.248 NA
ATOM     35  C   UNL     1       6.892   3.224  -3.693  1.00  0.00     0.031 C 
ATOM     36  C   UNL     1       5.368  -0.571  -6.574  1.00  0.00     0.029 A 
ATOM     37  N   UNL     1       7.430   0.214  -6.949  1.00  0.00    -0.354 N 
ATOM     38  C   UNL     1       8.977   3.509  -4.595  1.00  0.00     0.074 A 
ATOM     39  C   UNL     1       8.008   3.933  -3.606  1.00  0.00     0.031 C 
ATOM     40  C   UNL     1       5.908  -1.307  -7.559  1.00  0.00     0.029 A 
ATOM     41  C   UNL     1       7.236  -0.783  -7.870  1.00  0.00     0.049 A 
ATOM     42  H   UNL     1       8.274   0.713  -6.861  1.00  0.00     0.167 HD
ATOM     43  C   UNL     1      10.211   4.045  -4.742  1.00  0.00     0.037 A 
ATOM     44  C   UNL     1       8.029  -1.195  -8.878  1.00  0.00     0.037 A 
ATOM     45  C   UNL     1      11.157   3.626  -5.743  1.00  0.00     0.049 A 
ATOM     46  C   UNL     1       9.368  -0.536  -9.071  1.00  0.00     0.074 A 
ATOM     47  C   UNL     1      12.434   4.103  -5.981  1.00  0.00     0.029 A 
ATOM     48  N   UNL     1      10.918   2.635  -6.686  1.00  0.00    -0.354 N 
ATOM     49  N   UNL     1       9.922   0.427  -8.375  1.00  0.00    -0.248 NA
ATOM     50  C   UNL     1      10.189  -1.017 -10.190  1.00  0.00     0.031 C 
ATOM     51  C   UNL     1      12.948   3.434  -7.098  1.00  0.00     0.029 A 
ATOM     52  C   UNL     1      12.011   2.506  -7.527  1.00  0.00     0.049 A 
ATOM     53  H   UNL     1      10.092   2.103  -6.747  1.00  0.00     0.167 HD
ATOM     54  C   UNL     1      11.157   0.664  -8.963  1.00  0.00     0.074 A 
ATOM     55  C   UNL     1      11.278  -0.271 -10.063  1.00  0.00     0.031 C 
ATOM     56  C   UNL     1      12.104   1.575  -8.624  1.00  0.00     0.037 A 
BRANCH  43  57
ATOM     57  C   UNL     1      10.569   5.185  -3.837  1.00  0.00     0.064 A 
ATOM     58  C   UNL     1      10.831   4.995  -2.472  1.00  0.00     0.173 A 
ATOM     59  C   UNL     1      10.628   6.493  -4.342  1.00  0.00     0.173 A 
ATOM     60  F   UNL     1      10.766   3.767  -1.937  1.00  0.00    -0.203 F 
ATOM     61  C   UNL     1      11.102   6.078  -1.638  1.00  0.00     0.198 A 
ATOM     62  C   UNL     1      10.924   7.570  -3.511  1.00  0.00     0.198 A 
ATOM     63  F   UNL     1      10.384   6.728  -5.640  1.00  0.00    -0.203 F 
ATOM     64  F   UNL     1      11.289   5.881  -0.326  1.00  0.00    -0.200 F 
ATOM     65  C   UNL     1      11.151   7.363  -2.159  1.00  0.00     0.200 A 
ATOM     66  F   UNL     1      10.975   8.810  -4.016  1.00  0.00    -0.200 F 
ATOM     67  F   UNL     1      11.401   8.405  -1.353  1.00  0.00    -0.200 F 
ENDBRANCH  43  57
BRANCH  44  68
ATOM     68  C   UNL     1       7.546  -2.255  -9.799  1.00  0.00     0.064 A 
ATOM     69  C   UNL     1       8.104  -3.539  -9.789  1.00  0.00     0.173 A 
ATOM     70  C   UNL     1       6.491  -2.006 -10.691  1.00  0.00     0.173 A 
ATOM     71  F   UNL     1       9.129  -3.816  -8.971  1.00  0.00    -0.203 F 
ATOM     72  C   UNL     1       7.625  -4.536 -10.637  1.00  0.00     0.198 A 
ATOM     73  C   UNL     1       5.997  -3.010 -11.520  1.00  0.00     0.198 A 
ATOM     74  F   UNL     1       5.925  -0.791 -10.739  1.00  0.00    -0.203 F 
ATOM     75  F   UNL     1       8.193  -5.749 -10.627  1.00  0.00    -0.200 F 
ATOM     76  C   UNL     1       6.566  -4.274 -11.494  1.00  0.00     0.200 A 
ATOM     77  F   UNL     1       4.966  -2.755 -12.337  1.00  0.00    -0.200 F 
ATOM     78  F   UNL     1       6.098  -5.237 -12.299  1.00  0.00    -0.200 F 
ENDBRANCH  44  68
BRANCH  56  79
ATOM     79  C   UNL     1      13.357   1.596  -9.448  1.00  0.00     0.064 A 
ATOM     80  C   UNL     1      13.371   2.126 -10.747  1.00  0.00     0.173 A 
ATOM     81  C   UNL     1      14.566   1.123  -8.917  1.00  0.00     0.173 A 
ATOM     82  F   UNL     1      12.236   2.576 -11.304  1.00  0.00    -0.203 F 
ATOM     83  C   UNL     1      14.547   2.165 -11.490  1.00  0.00     0.198 A 
ATOM     84  C   UNL     1      15.745   1.187  -9.654  1.00  0.00     0.198 A 
ATOM     85  F   UNL     1      14.605   0.611  -7.678  1.00  0.00    -0.203 F 
ATOM     86  F   UNL     1      14.530   2.640 -12.743  1.00  0.00    -0.200 F 
ATOM     87  C   UNL     1      15.734   1.702 -10.941  1.00  0.00     0.200 A 
ATOM     88  F   UNL     1      16.893   0.750  -9.117  1.00  0.00    -0.200 F 
ATOM     89  F   UNL     1      16.867   1.748 -11.655  1.00  0.00    -0.200 F 
ENDBRANCH  56  79
ENDBRANCH  30  31
ENDBRANCH  23  25
ENDBRANCH  22  23
ENDBRANCH  21  22
ENDBRANCH   1  21
TORSDOF 14
