REMARK SMILES C[C@H]1CC[C@@](C[C@@H]2CCCc3ccccc32)(C(=O)OCCOC(=O)c2ccc(-c3c4nc(c(-c5c(F)c(F)c(F)c(F)c5F)c5ccc([nH]5)c(-c5c(F)c(F)c(F)c(F)c5F)c5nc(c(-c6c(F)c(F)c(F)c(F)c6F)c6ccc3[nH]6)C=C5)C=C4)cc2)C1
REMARK SMILES IDX 20 1 19 2 17 3 18 4 5 5 1 6 2 7 3 8 88 9 4 10 6 11 7 12 8 13
REMARK SMILES IDX 16 14 9 15 11 16 15 17 10 18 12 19 14 20 13 21 21 22 22 23
REMARK SMILES IDX 23 24 24 25 25 26 26 27 87 28 27 29 86 30 28 31 29 32 30 33
REMARK SMILES IDX 80 34 31 35 85 36 79 37 81 38 32 39 84 40 78 41 77 42 33 44
REMARK SMILES IDX 65 45 45 46 64 47 46 48 49 49 63 50 82 51 47 52 48 53 62 55
REMARK SMILES IDX 83 56 50 57 34 58 35 59 43 60 36 61 37 62 41 63 44 64 38 65
REMARK SMILES IDX 39 66 42 67 40 68 66 69 67 70 75 71 68 72 69 73 73 74 76 75
REMARK SMILES IDX 70 76 71 77 74 78 72 79 51 80 52 81 60 82 53 83 54 84 58 85
REMARK SMILES IDX 61 86 55 87 56 88 59 89 57 90
REMARK H PARENT 81 43 49 54
REMARK Flexibility Score: inf
ROOT
ATOM      1  C   UNL     1      -4.296   2.450   0.595  1.00  0.00     0.274 C 
ENDROOT
BRANCH   1   2
ATOM      2  O   UNL     1      -3.235   1.532   0.264  1.00  0.00    -0.462 OA
BRANCH   2   3
ATOM      3  C   UNL     1      -2.101   2.046  -0.269  1.00  0.00     0.312 C 
ATOM      4  O   UNL     1      -1.886   3.248  -0.382  1.00  0.00    -0.252 OA
BRANCH   3   5
ATOM      5  C   UNL     1      -1.131   0.962  -0.771  1.00  0.00     0.069 C 
ATOM      6  C   UNL     1       2.135   0.121   1.083  1.00  0.00     0.007 C 
ATOM      7  C   UNL     1       0.958  -0.003   0.129  1.00  0.00    -0.013 C 
ATOM      8  C   UNL     1      -0.195  -0.783   0.728  1.00  0.00     0.004 C 
ATOM      9  C   UNL     1       0.297   1.329  -0.234  1.00  0.00     0.022 C 
ATOM     10  C   UNL     1      -1.358  -0.464  -0.203  1.00  0.00     0.019 C 
BRANCH   5  11
ATOM     11  C   UNL     1      -1.117   1.056  -2.327  1.00  0.00     0.027 C 
BRANCH  11  12
ATOM     12  C   UNL     1      -2.212   0.401  -3.226  1.00  0.00     0.020 C 
ATOM     13  C   UNL     1      -3.669   0.760  -2.892  1.00  0.00     0.009 C 
ATOM     14  C   UNL     1      -1.989  -1.083  -3.457  1.00  0.00    -0.042 A 
ATOM     15  C   UNL     1      -4.377  -0.260  -2.009  1.00  0.00     0.005 C 
ATOM     16  C   UNL     1      -2.940  -2.047  -3.079  1.00  0.00    -0.045 A 
ATOM     17  C   UNL     1      -0.782  -1.511  -4.041  1.00  0.00     0.004 A 
ATOM     18  C   UNL     1      -4.309  -1.666  -2.582  1.00  0.00     0.036 C 
ATOM     19  C   UNL     1      -2.635  -3.410  -3.227  1.00  0.00     0.004 A 
ATOM     20  C   UNL     1      -0.493  -2.865  -4.187  1.00  0.00     0.000 A 
ATOM     21  C   UNL     1      -1.413  -3.816  -3.762  1.00  0.00     0.000 A 
ENDBRANCH  11  12
ENDBRANCH   5  11
ENDBRANCH   3   5
ENDBRANCH   2   3
ENDBRANCH   1   2
BRANCH   1  22
ATOM     22  C   UNL     1      -5.106   1.867   1.752  1.00  0.00     0.275 C 
BRANCH  22  23
ATOM     23  O   UNL     1      -4.307   1.976   2.942  1.00  0.00    -0.458 OA
BRANCH  23  24
ATOM     24  C   UNL     1      -3.622   0.863   3.285  1.00  0.00     0.338 C 
ATOM     25  O   UNL     1      -3.800  -0.283   2.920  1.00  0.00    -0.246 OA
BRANCH  24  26
ATOM     26  C   UNL     1      -2.439   1.310   4.028  1.00  0.00     0.060 A 
ATOM     27  C   UNL     1      -1.344   1.743   3.281  1.00  0.00     0.016 A 
ATOM     28  C   UNL     1      -2.380   1.263   5.415  1.00  0.00     0.016 A 
ATOM     29  C   UNL     1      -0.155   2.083   3.910  1.00  0.00     0.010 A 
ATOM     30  C   UNL     1      -1.202   1.665   6.052  1.00  0.00     0.010 A 
ATOM     31  C   UNL     1      -0.072   2.056   5.304  1.00  0.00    -0.014 A 
BRANCH  31  32
ATOM     32  C   UNL     1       1.216   2.360   5.978  1.00  0.00     0.031 A 
ATOM     33  C   UNL     1       1.877   1.296   6.805  1.00  0.00     0.074 A 
ATOM     34  C   UNL     1       1.805   3.563   5.838  1.00  0.00     0.049 A 
ATOM     35  N   UNL     1       2.846   1.402   7.676  1.00  0.00    -0.248 NA
ATOM     36  C   UNL     1       1.362  -0.073   6.640  1.00  0.00     0.031 C 
ATOM     37  C   UNL     1       1.317   4.655   4.995  1.00  0.00     0.029 A 
ATOM     38  N   UNL     1       2.948   4.067   6.406  1.00  0.00    -0.354 N 
ATOM     39  C   UNL     1       3.006   0.133   8.216  1.00  0.00     0.074 A 
ATOM     40  C   UNL     1       2.043  -0.730   7.566  1.00  0.00     0.031 C 
ATOM     41  C   UNL     1       2.166   5.691   5.083  1.00  0.00     0.029 A 
ATOM     42  C   UNL     1       3.204   5.371   6.057  1.00  0.00     0.049 A 
ATOM     43  H   UNL     1       3.529   3.545   7.005  1.00  0.00     0.167 HD
ATOM     44  C   UNL     1       3.871  -0.264   9.179  1.00  0.00     0.037 A 
ATOM     45  C   UNL     1       4.136   6.229   6.513  1.00  0.00     0.037 A 
ATOM     46  C   UNL     1       4.864   0.595   9.770  1.00  0.00     0.049 A 
ATOM     47  C   UNL     1       5.080   5.771   7.590  1.00  0.00     0.074 A 
ATOM     48  C   UNL     1       5.781   0.305  10.764  1.00  0.00     0.029 A 
ATOM     49  N   UNL     1       5.083   1.914   9.396  1.00  0.00    -0.354 N 
ATOM     50  N   UNL     1       5.157   4.603   8.180  1.00  0.00    -0.248 NA
ATOM     51  C   UNL     1       6.050   6.758   8.083  1.00  0.00     0.031 C 
ATOM     52  C   UNL     1       6.541   1.455  11.008  1.00  0.00     0.029 A 
ATOM     53  C   UNL     1       6.123   2.450  10.138  1.00  0.00     0.049 A 
ATOM     54  H   UNL     1       4.575   2.397   8.705  1.00  0.00     0.167 HD
ATOM     55  C   UNL     1       6.183   4.710   9.109  1.00  0.00     0.074 A 
ATOM     56  C   UNL     1       6.717   6.052   8.986  1.00  0.00     0.031 C 
ATOM     57  C   UNL     1       6.636   3.787   9.992  1.00  0.00     0.037 A 
BRANCH  44  58
ATOM     58  C   UNL     1       3.745  -1.670   9.685  1.00  0.00     0.064 A 
ATOM     59  C   UNL     1       4.137  -2.777   8.918  1.00  0.00     0.173 A 
ATOM     60  C   UNL     1       3.229  -1.911  10.968  1.00  0.00     0.173 A 
ATOM     61  F   UNL     1       4.617  -2.603   7.678  1.00  0.00    -0.203 F 
ATOM     62  C   UNL     1       3.991  -4.074   9.407  1.00  0.00     0.198 A 
ATOM     63  C   UNL     1       3.112  -3.206  11.464  1.00  0.00     0.198 A 
ATOM     64  F   UNL     1       2.840  -0.887  11.743  1.00  0.00    -0.203 F 
ATOM     65  F   UNL     1       4.323  -5.119   8.637  1.00  0.00    -0.200 F 
ATOM     66  C   UNL     1       3.484  -4.286  10.681  1.00  0.00     0.200 A 
ATOM     67  F   UNL     1       2.631  -3.408  12.699  1.00  0.00    -0.200 F 
ATOM     68  F   UNL     1       3.347  -5.534  11.149  1.00  0.00    -0.200 F 
ENDBRANCH  44  58
BRANCH  45  69
ATOM     69  C   UNL     1       4.182   7.619   5.989  1.00  0.00     0.064 A 
ATOM     70  C   UNL     1       5.252   8.058   5.199  1.00  0.00     0.173 A 
ATOM     71  C   UNL     1       3.151   8.533   6.255  1.00  0.00     0.173 A 
ATOM     72  F   UNL     1       6.277   7.232   4.940  1.00  0.00    -0.203 F 
ATOM     73  C   UNL     1       5.292   9.359   4.699  1.00  0.00     0.198 A 
ATOM     74  C   UNL     1       3.176   9.822   5.729  1.00  0.00     0.198 A 
ATOM     75  F   UNL     1       2.105   8.165   7.009  1.00  0.00    -0.203 F 
ATOM     76  F   UNL     1       6.346   9.765   3.977  1.00  0.00    -0.200 F 
ATOM     77  C   UNL     1       4.249  10.236   4.956  1.00  0.00     0.200 A 
ATOM     78  F   UNL     1       2.159  10.662   5.969  1.00  0.00    -0.200 F 
ATOM     79  F   UNL     1       4.282  11.482   4.464  1.00  0.00    -0.200 F 
ENDBRANCH  45  69
BRANCH  57  80
ATOM     80  C   UNL     1       7.780   4.193  10.871  1.00  0.00     0.064 A 
ATOM     81  C   UNL     1       7.598   5.065  11.953  1.00  0.00     0.173 A 
ATOM     82  C   UNL     1       9.065   3.677  10.646  1.00  0.00     0.173 A 
ATOM     83  F   UNL     1       6.390   5.596  12.197  1.00  0.00    -0.203 F 
ATOM     84  C   UNL     1       8.669   5.426  12.767  1.00  0.00     0.198 A 
ATOM     85  C   UNL     1      10.128   4.021  11.476  1.00  0.00     0.198 A 
ATOM     86  F   UNL     1       9.287   2.835   9.626  1.00  0.00    -0.203 F 
ATOM     87  F   UNL     1       8.483   6.295  13.770  1.00  0.00    -0.200 F 
ATOM     88  C   UNL     1       9.931   4.899  12.531  1.00  0.00     0.200 A 
ATOM     89  F   UNL     1      11.344   3.505  11.253  1.00  0.00    -0.200 F 
ATOM     90  F   UNL     1      10.959   5.246  13.316  1.00  0.00    -0.200 F 
ENDBRANCH  57  80
ENDBRANCH  31  32
ENDBRANCH  24  26
ENDBRANCH  23  24
ENDBRANCH  22  23
ENDBRANCH   1  22
TORSDOF 13
