REMARK SMILES O=C(CCC(=O)OCCOC(=O)c1ccc(-c2c3nc(c(-c4c(F)c(F)c(F)c(F)c4F)c4ccc([nH]4)c(-c4c(F)c(F)c(F)c(F)c4F)c4nc(c(-c5c(F)c(F)c(F)c(F)c5F)c5ccc2[nH]5)C=C4)C=C3)cc1)/[NH+]=C1\S[C@H]2CS(=O)(=O)C[C@@H]2N1c1ccc2c(c1)OCO2
REMARK SMILES IDX 8 1 7 2 5 3 6 4 4 5 3 6 2 7 1 8 76 9 77 10 78 12 86 13 79 14
REMARK SMILES IDX 85 15 80 16 84 17 81 18 82 19 83 20 87 21 88 22 92 23 89 24
REMARK SMILES IDX 91 25 90 26 93 27 95 28 94 29 9 30 10 31 11 32 12 33 13 34
REMARK SMILES IDX 14 35 75 36 15 37 74 38 16 39 17 40 18 41 68 42 19 43 73 44
REMARK SMILES IDX 67 45 69 46 20 47 72 48 66 49 65 50 21 52 53 53 33 54 52 55
REMARK SMILES IDX 34 56 37 57 51 58 70 59 35 60 36 61 50 63 71 64 38 65 22 66
REMARK SMILES IDX 23 67 31 68 24 69 25 70 29 71 32 72 26 73 27 74 30 75 28 76
REMARK SMILES IDX 54 77 55 78 63 79 56 80 57 81 61 82 64 83 58 84 59 85 62 86
REMARK SMILES IDX 60 87 39 88 40 89 48 90 41 91 42 92 46 93 49 94 43 95 44 96
REMARK SMILES IDX 47 97 45 98
REMARK H PARENT 76 11 69 51 37 62
REMARK Flexibility Score: inf
ROOT
ATOM      1  C   UNL     1       5.094   2.716  -1.369  1.00  0.00     0.274 C 
ENDROOT
BRANCH   1   2
ATOM      2  O   UNL     1       3.755   2.221  -1.261  1.00  0.00    -0.462 OA
BRANCH   2   3
ATOM      3  C   UNL     1       3.471   1.276  -2.175  1.00  0.00     0.306 C 
ATOM      4  O   UNL     1       3.934   1.247  -3.311  1.00  0.00    -0.252 OA
BRANCH   3   5
ATOM      5  C   UNL     1       2.539   0.230  -1.648  1.00  0.00     0.135 C 
BRANCH   5   6
ATOM      6  C   UNL     1       2.595  -0.293  -0.207  1.00  0.00     0.139 C 
BRANCH   6   7
ATOM      7  C   UNL     1       2.675   0.485   1.122  1.00  0.00     0.308 C 
ATOM      8  O   UNL     1       1.774   0.293   1.943  1.00  0.00    -0.247 OA
ATOM      9  N   UNL     1       3.688   1.364   1.421  1.00  0.00    -0.204 N 
ATOM     10  C   UNL     1       4.731   1.025   2.120  1.00  0.00     0.319 C 
ATOM     11  H   UNL     1       3.622   2.289   1.092  1.00  0.00     0.316 HD
ATOM     12  S   UNL     1       5.327  -0.633   2.426  1.00  0.00    -0.029 SA
ATOM     13  N   UNL     1       5.696   1.938   2.595  1.00  0.00    -0.216 N 
ATOM     14  C   UNL     1       7.049  -0.066   2.706  1.00  0.00     0.120 C 
ATOM     15  C   UNL     1       7.038   1.430   2.392  1.00  0.00     0.212 C 
ATOM     16  C   UNL     1       8.255  -0.513   1.892  1.00  0.00     0.156 C 
ATOM     17  C   UNL     1       8.298   1.971   3.018  1.00  0.00     0.188 C 
ATOM     18  S   UNL     1       9.474   0.782   2.303  1.00  0.00     0.155 S 
ATOM     19  O   UNL     1      10.348   0.289   3.343  1.00  0.00    -0.229 OA
ATOM     20  O   UNL     1       9.976   1.337   1.063  1.00  0.00    -0.229 OA
BRANCH  13  21
ATOM     21  C   UNL     1       5.438   2.577   3.816  1.00  0.00     0.132 A 
ATOM     22  C   UNL     1       5.182   3.965   3.825  1.00  0.00     0.056 A 
ATOM     23  C   UNL     1       5.269   1.824   4.986  1.00  0.00     0.102 A 
ATOM     24  C   UNL     1       4.648   4.583   4.960  1.00  0.00     0.055 A 
ATOM     25  C   UNL     1       4.688   2.443   6.057  1.00  0.00     0.170 A 
ATOM     26  C   UNL     1       4.358   3.777   6.038  1.00  0.00     0.166 A 
ATOM     27  O   UNL     1       4.245   1.808   7.175  1.00  0.00    -0.453 OA
ATOM     28  O   UNL     1       3.642   4.125   7.143  1.00  0.00    -0.454 OA
ATOM     29  C   UNL     1       3.321   2.808   7.644  1.00  0.00     0.468 C 
ENDBRANCH  13  21
ENDBRANCH   6   7
ENDBRANCH   5   6
ENDBRANCH   3   5
ENDBRANCH   2   3
ENDBRANCH   1   2
BRANCH   1  30
ATOM     30  C   UNL     1       6.056   1.621  -0.931  1.00  0.00     0.275 C 
BRANCH  30  31
ATOM     31  O   UNL     1       6.249   0.552  -1.860  1.00  0.00    -0.458 OA
BRANCH  31  32
ATOM     32  C   UNL     1       5.997  -0.675  -1.363  1.00  0.00     0.338 C 
ATOM     33  O   UNL     1       5.465  -0.993  -0.314  1.00  0.00    -0.246 OA
BRANCH  32  34
ATOM     34  C   UNL     1       6.707  -1.663  -2.109  1.00  0.00     0.060 A 
ATOM     35  C   UNL     1       6.347  -1.892  -3.427  1.00  0.00     0.016 A 
ATOM     36  C   UNL     1       7.771  -2.299  -1.458  1.00  0.00     0.016 A 
ATOM     37  C   UNL     1       7.143  -2.740  -4.150  1.00  0.00     0.010 A 
ATOM     38  C   UNL     1       8.627  -3.058  -2.207  1.00  0.00     0.010 A 
ATOM     39  C   UNL     1       8.312  -3.248  -3.554  1.00  0.00    -0.014 A 
BRANCH  39  40
ATOM     40  C   UNL     1       9.284  -3.902  -4.412  1.00  0.00     0.031 A 
ATOM     41  C   UNL     1       9.468  -5.364  -4.284  1.00  0.00     0.074 A 
ATOM     42  C   UNL     1       9.929  -3.099  -5.272  1.00  0.00     0.049 A 
ATOM     43  N   UNL     1      10.216  -6.151  -4.997  1.00  0.00    -0.248 NA
ATOM     44  C   UNL     1       8.737  -6.033  -3.193  1.00  0.00     0.031 C 
ATOM     45  C   UNL     1       9.779  -1.637  -5.331  1.00  0.00     0.029 A 
ATOM     46  N   UNL     1      10.801  -3.383  -6.274  1.00  0.00    -0.354 N 
ATOM     47  C   UNL     1      10.046  -7.409  -4.446  1.00  0.00     0.074 A 
ATOM     48  C   UNL     1       9.181  -7.275  -3.298  1.00  0.00     0.031 C 
ATOM     49  C   UNL     1      10.486  -1.163  -6.364  1.00  0.00     0.029 A 
ATOM     50  C   UNL     1      11.179  -2.277  -6.990  1.00  0.00     0.049 A 
ATOM     51  H   UNL     1      11.128  -4.292  -6.466  1.00  0.00     0.167 HD
ATOM     52  C   UNL     1      10.569  -8.566  -4.904  1.00  0.00     0.037 A 
ATOM     53  C   UNL     1      12.012  -2.200  -8.039  1.00  0.00     0.037 A 
ATOM     54  C   UNL     1      11.431  -8.599  -6.055  1.00  0.00     0.049 A 
ATOM     55  C   UNL     1      12.574  -3.501  -8.528  1.00  0.00     0.074 A 
ATOM     56  C   UNL     1      12.029  -9.681  -6.663  1.00  0.00     0.029 A 
ATOM     57  N   UNL     1      11.821  -7.464  -6.768  1.00  0.00    -0.354 N 
ATOM     58  N   UNL     1      12.370  -4.712  -8.054  1.00  0.00    -0.248 NA
ATOM     59  C   UNL     1      13.470  -3.443  -9.681  1.00  0.00     0.031 C 
ATOM     60  C   UNL     1      12.827  -9.195  -7.706  1.00  0.00     0.029 A 
ATOM     61  C   UNL     1      12.680  -7.815  -7.792  1.00  0.00     0.049 A 
ATOM     62  H   UNL     1      11.526  -6.546  -6.570  1.00  0.00     0.167 HD
ATOM     63  C   UNL     1      13.117  -5.566  -8.843  1.00  0.00     0.074 A 
ATOM     64  C   UNL     1      13.748  -4.729  -9.853  1.00  0.00     0.031 C 
ATOM     65  C   UNL     1      13.284  -6.910  -8.746  1.00  0.00     0.037 A 
BRANCH  52  66
ATOM     66  C   UNL     1      10.251  -9.812  -4.132  1.00  0.00     0.064 A 
ATOM     67  C   UNL     1       8.940 -10.312  -4.030  1.00  0.00     0.173 A 
ATOM     68  C   UNL     1      11.257 -10.479  -3.419  1.00  0.00     0.173 A 
ATOM     69  F   UNL     1       7.931  -9.696  -4.665  1.00  0.00    -0.203 F 
ATOM     70  C   UNL     1       8.645 -11.397  -3.208  1.00  0.00     0.198 A 
ATOM     71  C   UNL     1      10.963 -11.587  -2.627  1.00  0.00     0.198 A 
ATOM     72  F   UNL     1      12.523 -10.040  -3.466  1.00  0.00    -0.203 F 
ATOM     73  F   UNL     1       7.374 -11.799  -3.062  1.00  0.00    -0.200 F 
ATOM     74  C   UNL     1       9.657 -12.036  -2.510  1.00  0.00     0.200 A 
ATOM     75  F   UNL     1      11.944 -12.205  -1.954  1.00  0.00    -0.200 F 
ATOM     76  F   UNL     1       9.370 -13.072  -1.710  1.00  0.00    -0.200 F 
ENDBRANCH  52  66
BRANCH  53  77
ATOM     77  C   UNL     1      12.323  -0.877  -8.635  1.00  0.00     0.064 A 
ATOM     78  C   UNL     1      11.876  -0.525  -9.914  1.00  0.00     0.173 A 
ATOM     79  C   UNL     1      12.999   0.104  -7.890  1.00  0.00     0.173 A 
ATOM     80  F   UNL     1      11.220  -1.421 -10.665  1.00  0.00    -0.203 F 
ATOM     81  C   UNL     1      12.100   0.753 -10.428  1.00  0.00     0.198 A 
ATOM     82  C   UNL     1      13.196   1.389  -8.392  1.00  0.00     0.198 A 
ATOM     83  F   UNL     1      13.427  -0.171  -6.649  1.00  0.00    -0.203 F 
ATOM     84  F   UNL     1      11.680   1.058 -11.663  1.00  0.00    -0.200 F 
ATOM     85  C   UNL     1      12.751   1.710  -9.664  1.00  0.00     0.200 A 
ATOM     86  F   UNL     1      13.797   2.317  -7.636  1.00  0.00    -0.200 F 
ATOM     87  F   UNL     1      12.946   2.943 -10.151  1.00  0.00    -0.200 F 
ENDBRANCH  53  77
BRANCH  65  88
ATOM     88  C   UNL     1      14.197  -7.525  -9.759  1.00  0.00     0.064 A 
ATOM     89  C   UNL     1      15.585  -7.337  -9.695  1.00  0.00     0.173 A 
ATOM     90  C   UNL     1      13.680  -8.351 -10.766  1.00  0.00     0.173 A 
ATOM     91  F   UNL     1      16.116  -6.538  -8.757  1.00  0.00    -0.203 F 
ATOM     92  C   UNL     1      16.424  -7.941 -10.622  1.00  0.00     0.198 A 
ATOM     93  C   UNL     1      14.526  -8.984 -11.667  1.00  0.00     0.198 A 
ATOM     94  F   UNL     1      12.358  -8.562 -10.856  1.00  0.00    -0.203 F 
ATOM     95  F   UNL     1      17.743  -7.710 -10.577  1.00  0.00    -0.200 F 
ATOM     96  C   UNL     1      15.895  -8.772 -11.599  1.00  0.00     0.200 A 
ATOM     97  F   UNL     1      14.017  -9.802 -12.598  1.00  0.00    -0.200 F 
ATOM     98  F   UNL     1      16.708  -9.367 -12.483  1.00  0.00    -0.200 F 
ENDBRANCH  65  88
ENDBRANCH  39  40
ENDBRANCH  32  34
ENDBRANCH  31  32
ENDBRANCH  30  31
ENDBRANCH   1  30
TORSDOF 14
