REMARK SMILES C[C@@H](C(=O)OCCOC(=O)c1ccc(-c2c3nc(c(-c4c(F)c(F)c(F)c(F)c4F)c4ccc([nH]4)c(-c4c(F)c(F)c(F)c(F)c4F)c4nc(c(-c5c(F)c(F)c(F)c(F)c5F)c5ccc2[nH]5)C=C4)C=C3)cc1)c1ccc2c(c1)[nH]c1ccc(Cl)cc12
REMARK SMILES IDX 7 1 6 2 5 3 3 4 4 5 2 6 1 7 74 8 75 9 79 10 76 11 78 12
REMARK SMILES IDX 77 13 80 14 87 15 81 16 86 18 82 19 84 20 83 21 85 22 8 23
REMARK SMILES IDX 9 24 10 25 11 26 12 27 73 28 13 29 72 30 14 31 15 32 16 33
REMARK SMILES IDX 66 34 17 35 71 36 65 37 67 38 18 39 70 40 64 41 63 42 19 44
REMARK SMILES IDX 51 45 31 46 50 47 32 48 35 49 49 50 68 51 33 52 34 53 48 55
REMARK SMILES IDX 69 56 36 57 20 58 21 59 29 60 22 61 23 62 27 63 30 64 24 65
REMARK SMILES IDX 25 66 28 67 26 68 52 69 53 70 61 71 54 72 55 73 59 74 62 75
REMARK SMILES IDX 56 76 57 77 60 78 58 79 37 80 38 81 46 82 39 83 40 84 44 85
REMARK SMILES IDX 47 86 41 87 42 88 45 89 43 90
REMARK H PARENT 80 17 67 43 35 54
REMARK Flexibility Score: inf
ROOT
ATOM      1  C   UNL     1       2.275  -3.495  -2.780  1.00  0.00     0.275 C 
ENDROOT
BRANCH   1   2
ATOM      2  C   UNL     1       2.738  -2.083  -3.124  1.00  0.00     0.274 C 
BRANCH   2   3
ATOM      3  O   UNL     1       2.291  -1.151  -2.118  1.00  0.00    -0.462 OA
BRANCH   3   4
ATOM      4  C   UNL     1       1.214  -0.380  -2.433  1.00  0.00     0.313 C 
ATOM      5  O   UNL     1       0.631  -0.421  -3.511  1.00  0.00    -0.252 OA
BRANCH   4   6
ATOM      6  C   UNL     1       0.833   0.586  -1.303  1.00  0.00     0.126 C 
ATOM      7  C   UNL     1       1.686   0.431  -0.040  1.00  0.00     0.025 C 
BRANCH   6   8
ATOM      8  C   UNL     1      -0.669   0.537  -1.020  1.00  0.00    -0.032 A 
ATOM      9  C   UNL     1      -1.528   1.335  -1.793  1.00  0.00     0.005 A 
ATOM     10  C   UNL     1      -1.216  -0.326  -0.053  1.00  0.00     0.031 A 
ATOM     11  C   UNL     1      -2.920   1.281  -1.637  1.00  0.00     0.011 A 
ATOM     12  C   UNL     1      -2.611  -0.359   0.096  1.00  0.00     0.047 A 
ATOM     13  C   UNL     1      -3.474   0.409  -0.682  1.00  0.00     0.007 A 
ATOM     14  N   UNL     1      -3.394  -1.110   0.942  1.00  0.00    -0.355 N 
ATOM     15  C   UNL     1      -4.813   0.058  -0.317  1.00  0.00     0.009 A 
ATOM     16  C   UNL     1      -4.730  -0.870   0.720  1.00  0.00     0.047 A 
ATOM     17  H   UNL     1      -3.044  -1.736   1.617  1.00  0.00     0.167 HD
ATOM     18  C   UNL     1      -6.088   0.434  -0.788  1.00  0.00     0.031 A 
ATOM     19  C   UNL     1      -5.859  -1.409   1.345  1.00  0.00     0.028 A 
ATOM     20  C   UNL     1      -7.224  -0.126  -0.197  1.00  0.00     0.041 A 
ATOM     21  C   UNL     1      -7.113  -1.020   0.862  1.00  0.00     0.022 A 
ATOM     22  Cl  UNL     1      -8.784   0.297  -0.791  1.00  0.00    -0.084 Cl
ENDBRANCH   6   8
ENDBRANCH   4   6
ENDBRANCH   3   4
ENDBRANCH   2   3
ENDBRANCH   1   2
BRANCH   1  23
ATOM     23  O   UNL     1       0.847  -3.581  -2.931  1.00  0.00    -0.458 OA
BRANCH  23  24
ATOM     24  C   UNL     1       0.157  -3.999  -1.850  1.00  0.00     0.338 C 
ATOM     25  O   UNL     1       0.602  -4.351  -0.766  1.00  0.00    -0.246 OA
BRANCH  24  26
ATOM     26  C   UNL     1      -1.283  -3.980  -2.145  1.00  0.00     0.060 A 
ATOM     27  C   UNL     1      -1.906  -2.773  -2.443  1.00  0.00     0.016 A 
ATOM     28  C   UNL     1      -2.043  -5.141  -1.990  1.00  0.00     0.016 A 
ATOM     29  C   UNL     1      -3.297  -2.708  -2.475  1.00  0.00     0.010 A 
ATOM     30  C   UNL     1      -3.438  -5.085  -2.117  1.00  0.00     0.010 A 
ATOM     31  C   UNL     1      -4.090  -3.855  -2.301  1.00  0.00    -0.014 A 
BRANCH  31  32
ATOM     32  C   UNL     1      -5.580  -3.724  -2.251  1.00  0.00     0.031 A 
ATOM     33  C   UNL     1      -6.358  -4.146  -1.026  1.00  0.00     0.074 A 
ATOM     34  C   UNL     1      -6.240  -3.136  -3.270  1.00  0.00     0.049 A 
ATOM     35  N   UNL     1      -7.651  -4.090  -0.804  1.00  0.00    -0.248 NA
ATOM     36  C   UNL     1      -5.593  -4.704   0.101  1.00  0.00     0.031 C 
ATOM     37  C   UNL     1      -5.626  -2.657  -4.509  1.00  0.00     0.029 A 
ATOM     38  N   UNL     1      -7.569  -2.811  -3.415  1.00  0.00    -0.354 N 
ATOM     39  C   UNL     1      -7.841  -4.565   0.487  1.00  0.00     0.074 A 
ATOM     40  C   UNL     1      -6.548  -4.991   0.975  1.00  0.00     0.031 C 
ATOM     41  C   UNL     1      -6.556  -2.046  -5.256  1.00  0.00     0.029 A 
ATOM     42  C   UNL     1      -7.850  -2.156  -4.590  1.00  0.00     0.049 A 
ATOM     43  H   UNL     1      -8.253  -3.026  -2.741  1.00  0.00     0.167 HD
ATOM     44  C   UNL     1      -8.975  -4.587   1.229  1.00  0.00     0.037 A 
ATOM     45  C   UNL     1      -9.017  -1.712  -5.096  1.00  0.00     0.037 A 
ATOM     46  C   UNL     1     -10.266  -4.145   0.775  1.00  0.00     0.049 A 
ATOM     47  C   UNL     1     -10.288  -1.927  -4.326  1.00  0.00     0.074 A 
ATOM     48  C   UNL     1     -11.465  -4.129   1.468  1.00  0.00     0.029 A 
ATOM     49  N   UNL     1     -10.529  -3.638  -0.487  1.00  0.00    -0.354 N 
ATOM     50  N   UNL     1     -10.453  -2.418  -3.124  1.00  0.00    -0.248 NA
ATOM     51  C   UNL     1     -11.541  -1.556  -5.001  1.00  0.00     0.031 C 
ATOM     52  C   UNL     1     -12.461  -3.646   0.613  1.00  0.00     0.029 A 
ATOM     53  C   UNL     1     -11.878  -3.339  -0.604  1.00  0.00     0.049 A 
ATOM     54  H   UNL     1      -9.857  -3.509  -1.196  1.00  0.00     0.167 HD
ATOM     55  C   UNL     1     -11.820  -2.407  -2.893  1.00  0.00     0.074 A 
ATOM     56  C   UNL     1     -12.444  -1.851  -4.075  1.00  0.00     0.031 C 
ATOM     57  C   UNL     1     -12.496  -2.823  -1.795  1.00  0.00     0.037 A 
BRANCH  44  58
ATOM     58  C   UNL     1      -8.867  -5.064   2.646  1.00  0.00     0.064 A 
ATOM     59  C   UNL     1      -8.359  -4.226   3.650  1.00  0.00     0.173 A 
ATOM     60  C   UNL     1      -9.337  -6.329   3.021  1.00  0.00     0.173 A 
ATOM     61  F   UNL     1      -7.894  -3.007   3.341  1.00  0.00    -0.203 F 
ATOM     62  C   UNL     1      -8.316  -4.641   4.978  1.00  0.00     0.198 A 
ATOM     63  C   UNL     1      -9.308  -6.736   4.354  1.00  0.00     0.198 A 
ATOM     64  F   UNL     1      -9.839  -7.164   2.099  1.00  0.00    -0.203 F 
ATOM     65  F   UNL     1      -7.805  -3.830   5.914  1.00  0.00    -0.200 F 
ATOM     66  C   UNL     1      -8.797  -5.892   5.329  1.00  0.00     0.200 A 
ATOM     67  F   UNL     1      -9.780  -7.942   4.695  1.00  0.00    -0.200 F 
ATOM     68  F   UNL     1      -8.764  -6.287   6.610  1.00  0.00    -0.200 F 
ENDBRANCH  44  58
BRANCH  45  69
ATOM     69  C   UNL     1      -9.041  -1.060  -6.430  1.00  0.00     0.064 A 
ATOM     70  C   UNL     1      -9.338   0.303  -6.566  1.00  0.00     0.173 A 
ATOM     71  C   UNL     1      -8.762  -1.788  -7.597  1.00  0.00     0.173 A 
ATOM     72  F   UNL     1      -9.643   1.033  -5.484  1.00  0.00    -0.203 F 
ATOM     73  C   UNL     1      -9.352   0.913  -7.819  1.00  0.00     0.198 A 
ATOM     74  C   UNL     1      -8.749  -1.171  -8.845  1.00  0.00     0.198 A 
ATOM     75  F   UNL     1      -8.484  -3.098  -7.521  1.00  0.00    -0.203 F 
ATOM     76  F   UNL     1      -9.671   2.210  -7.927  1.00  0.00    -0.200 F 
ATOM     77  C   UNL     1      -9.047   0.178  -8.955  1.00  0.00     0.200 A 
ATOM     78  F   UNL     1      -8.444  -1.883  -9.938  1.00  0.00    -0.200 F 
ATOM     79  F   UNL     1      -9.050   0.768 -10.158  1.00  0.00    -0.200 F 
ENDBRANCH  45  69
BRANCH  57  80
ATOM     80  C   UNL     1     -13.990  -2.716  -1.832  1.00  0.00     0.064 A 
ATOM     81  C   UNL     1     -14.761  -3.621  -2.577  1.00  0.00     0.173 A 
ATOM     82  C   UNL     1     -14.660  -1.721  -1.107  1.00  0.00     0.173 A 
ATOM     83  F   UNL     1     -14.164  -4.579  -3.301  1.00  0.00    -0.203 F 
ATOM     84  C   UNL     1     -16.149  -3.521  -2.607  1.00  0.00     0.198 A 
ATOM     85  C   UNL     1     -16.049  -1.637  -1.123  1.00  0.00     0.198 A 
ATOM     86  F   UNL     1     -13.967  -0.834  -0.376  1.00  0.00    -0.203 F 
ATOM     87  F   UNL     1     -16.865  -4.373  -3.355  1.00  0.00    -0.200 F 
ATOM     88  C   UNL     1     -16.792  -2.533  -1.877  1.00  0.00     0.200 A 
ATOM     89  F   UNL     1     -16.671  -0.686  -0.411  1.00  0.00    -0.200 F 
ATOM     90  F   UNL     1     -18.129  -2.439  -1.907  1.00  0.00    -0.200 F 
ENDBRANCH  57  80
ENDBRANCH  31  32
ENDBRANCH  24  26
ENDBRANCH  23  24
ENDBRANCH   1  23
TORSDOF 12
