REMARK SMILES CC(C)Cc1ccc([C@H](C)C(=O)OCCOC(=O)c2ccc(-c3c4nc(c(-c5c(F)c(F)c(F)c(F)c5F)c5ccc([nH]5)c(-c5c(F)c(F)c(F)c(F)c5F)c5nc(c(-c6c(F)c(F)c(F)c(F)c6F)c6ccc3[nH]6)C=C5)C=C4)cc2)cc1
REMARK SMILES IDX 14 1 13 2 11 3 12 4 9 5 10 6 8 7 5 8 6 9 83 10 7 11 82 12
REMARK SMILES IDX 4 13 2 14 1 15 3 16 15 17 16 18 17 19 18 20 19 21 20 22
REMARK SMILES IDX 81 23 21 24 80 25 22 26 23 27 24 28 74 29 25 30 79 31 73 32
REMARK SMILES IDX 75 33 26 34 78 35 72 36 71 37 27 39 59 40 39 41 58 42 40 43
REMARK SMILES IDX 43 44 57 45 76 46 41 47 42 48 56 50 77 51 44 52 28 53 29 54
REMARK SMILES IDX 37 55 30 56 31 57 35 58 38 59 32 60 33 61 36 62 34 63 60 64
REMARK SMILES IDX 61 65 69 66 62 67 63 68 67 69 70 70 64 71 65 72 68 73 66 74
REMARK SMILES IDX 45 75 46 76 54 77 47 78 48 79 52 80 55 81 49 82 50 83 53 84
REMARK SMILES IDX 51 85
REMARK H PARENT 75 38 43 49
REMARK Flexibility Score: inf
ROOT
ATOM      1  C   UNL     1      -4.393   6.219   2.124  1.00  0.00     0.274 C 
ENDROOT
BRANCH   1   2
ATOM      2  O   UNL     1      -3.334   5.242   2.119  1.00  0.00    -0.462 OA
BRANCH   2   3
ATOM      3  C   UNL     1      -2.954   4.768   3.336  1.00  0.00     0.313 C 
ATOM      4  O   UNL     1      -3.452   5.121   4.401  1.00  0.00    -0.252 OA
BRANCH   3   5
ATOM      5  C   UNL     1      -1.824   3.738   3.253  1.00  0.00     0.126 C 
ATOM      6  C   UNL     1      -1.834   2.962   1.933  1.00  0.00     0.025 C 
BRANCH   5   7
ATOM      7  C   UNL     1      -0.494   4.342   3.669  1.00  0.00    -0.034 A 
ATOM      8  C   UNL     1       1.887   5.594   4.520  1.00  0.00    -0.048 A 
ATOM      9  C   UNL     1       1.768   5.097   3.217  1.00  0.00     0.004 A 
ATOM     10  C   UNL     1       0.831   5.412   5.415  1.00  0.00     0.004 A 
ATOM     11  C   UNL     1       0.589   4.482   2.793  1.00  0.00     0.005 A 
ATOM     12  C   UNL     1      -0.343   4.790   4.994  1.00  0.00     0.005 A 
BRANCH   8  13
ATOM     13  C   UNL     1       3.103   6.391   4.924  1.00  0.00     0.038 C 
BRANCH  13  14
ATOM     14  C   UNL     1       3.115   7.795   4.284  1.00  0.00    -0.013 C 
ATOM     15  C   UNL     1       1.955   8.666   4.777  1.00  0.00     0.008 C 
ATOM     16  C   UNL     1       4.444   8.491   4.572  1.00  0.00     0.008 C 
ENDBRANCH  13  14
ENDBRANCH   8  13
ENDBRANCH   5   7
ENDBRANCH   3   5
ENDBRANCH   2   3
ENDBRANCH   1   2
BRANCH   1  17
ATOM     17  C   UNL     1      -5.759   5.582   1.859  1.00  0.00     0.275 C 
BRANCH  17  18
ATOM     18  O   UNL     1      -6.144   4.690   2.922  1.00  0.00    -0.458 OA
BRANCH  18  19
ATOM     19  C   UNL     1      -5.962   3.376   2.661  1.00  0.00     0.338 C 
ATOM     20  O   UNL     1      -5.563   2.870   1.626  1.00  0.00    -0.246 OA
BRANCH  19  21
ATOM     21  C   UNL     1      -6.198   2.581   3.875  1.00  0.00     0.060 A 
ATOM     22  C   UNL     1      -5.082   2.087   4.551  1.00  0.00     0.016 A 
ATOM     23  C   UNL     1      -7.483   2.190   4.250  1.00  0.00     0.016 A 
ATOM     24  C   UNL     1      -5.234   1.172   5.586  1.00  0.00     0.010 A 
ATOM     25  C   UNL     1      -7.639   1.272   5.297  1.00  0.00     0.010 A 
ATOM     26  C   UNL     1      -6.513   0.735   5.948  1.00  0.00    -0.014 A 
BRANCH  26  27
ATOM     27  C   UNL     1      -6.636  -0.376   6.922  1.00  0.00     0.031 A 
ATOM     28  C   UNL     1      -6.957  -1.759   6.427  1.00  0.00     0.074 A 
ATOM     29  C   UNL     1      -6.386  -0.167   8.227  1.00  0.00     0.049 A 
ATOM     30  N   UNL     1      -7.134  -2.863   7.108  1.00  0.00    -0.248 NA
ATOM     31  C   UNL     1      -7.096  -1.923   4.971  1.00  0.00     0.031 C 
ATOM     32  C   UNL     1      -6.014   1.116   8.821  1.00  0.00     0.029 A 
ATOM     33  N   UNL     1      -6.397  -1.038   9.287  1.00  0.00    -0.354 N 
ATOM     34  C   UNL     1      -7.437  -3.841   6.170  1.00  0.00     0.074 A 
ATOM     35  C   UNL     1      -7.422  -3.204   4.871  1.00  0.00     0.031 C 
ATOM     36  C   UNL     1      -5.824   0.948  10.140  1.00  0.00     0.029 A 
ATOM     37  C   UNL     1      -6.093  -0.446  10.487  1.00  0.00     0.049 A 
ATOM     38  H   UNL     1      -6.603  -1.997   9.196  1.00  0.00     0.167 HD
ATOM     39  C   UNL     1      -7.702  -5.152   6.376  1.00  0.00     0.037 A 
ATOM     40  C   UNL     1      -6.053  -0.968  11.728  1.00  0.00     0.037 A 
ATOM     41  C   UNL     1      -7.672  -5.799   7.660  1.00  0.00     0.049 A 
ATOM     42  C   UNL     1      -6.359  -2.428  11.926  1.00  0.00     0.074 A 
ATOM     43  C   UNL     1      -7.905  -7.130   7.963  1.00  0.00     0.029 A 
ATOM     44  N   UNL     1      -7.377  -5.162   8.854  1.00  0.00    -0.354 N 
ATOM     45  N   UNL     1      -6.658  -3.339  11.034  1.00  0.00    -0.248 NA
ATOM     46  C   UNL     1      -6.326  -2.929  13.308  1.00  0.00     0.031 C 
ATOM     47  C   UNL     1      -7.776  -7.292   9.347  1.00  0.00     0.029 A 
ATOM     48  C   UNL     1      -7.434  -6.069   9.899  1.00  0.00     0.049 A 
ATOM     49  H   UNL     1      -7.160  -4.206   8.947  1.00  0.00     0.167 HD
ATOM     50  C   UNL     1      -6.837  -4.520  11.741  1.00  0.00     0.074 A 
ATOM     51  C   UNL     1      -6.593  -4.216  13.135  1.00  0.00     0.031 C 
ATOM     52  C   UNL     1      -7.181  -5.746  11.278  1.00  0.00     0.037 A 
BRANCH  39  53
ATOM     53  C   UNL     1      -8.076  -5.977   5.184  1.00  0.00     0.064 A 
ATOM     54  C   UNL     1      -7.114  -6.437   4.275  1.00  0.00     0.173 A 
ATOM     55  C   UNL     1      -9.412  -6.351   4.978  1.00  0.00     0.173 A 
ATOM     56  F   UNL     1      -5.826  -6.092   4.423  1.00  0.00    -0.203 F 
ATOM     57  C   UNL     1      -7.479  -7.235   3.193  1.00  0.00     0.198 A 
ATOM     58  C   UNL     1      -9.771  -7.163   3.907  1.00  0.00     0.198 A 
ATOM     59  F   UNL     1     -10.368  -5.934   5.823  1.00  0.00    -0.203 F 
ATOM     60  F   UNL     1      -6.548  -7.644   2.320  1.00  0.00    -0.200 F 
ATOM     61  C   UNL     1      -8.805  -7.603   3.014  1.00  0.00     0.200 A 
ATOM     62  F   UNL     1     -11.051  -7.522   3.739  1.00  0.00    -0.200 F 
ATOM     63  F   UNL     1      -9.153  -8.378   1.978  1.00  0.00    -0.200 F 
ENDBRANCH  39  53
BRANCH  40  64
ATOM     64  C   UNL     1      -5.732  -0.101  12.889  1.00  0.00     0.064 A 
ATOM     65  C   UNL     1      -4.520  -0.237  13.580  1.00  0.00     0.173 A 
ATOM     66  C   UNL     1      -6.643   0.861  13.348  1.00  0.00     0.173 A 
ATOM     67  F   UNL     1      -3.630  -1.163  13.194  1.00  0.00    -0.203 F 
ATOM     68  C   UNL     1      -4.240   0.544  14.699  1.00  0.00     0.198 A 
ATOM     69  C   UNL     1      -6.352   1.657  14.452  1.00  0.00     0.198 A 
ATOM     70  F   UNL     1      -7.819   1.024  12.723  1.00  0.00    -0.203 F 
ATOM     71  F   UNL     1      -3.095   0.362  15.370  1.00  0.00    -0.200 F 
ATOM     72  C   UNL     1      -5.155   1.493  15.131  1.00  0.00     0.200 A 
ATOM     73  F   UNL     1      -7.236   2.577  14.864  1.00  0.00    -0.200 F 
ATOM     74  F   UNL     1      -4.887   2.241  16.211  1.00  0.00    -0.200 F 
ENDBRANCH  40  64
BRANCH  52  75
ATOM     75  C   UNL     1      -7.296  -6.848  12.287  1.00  0.00     0.064 A 
ATOM     76  C   UNL     1      -8.403  -6.939  13.142  1.00  0.00     0.173 A 
ATOM     77  C   UNL     1      -6.306  -7.836  12.379  1.00  0.00     0.173 A 
ATOM     78  F   UNL     1      -9.367  -6.006  13.100  1.00  0.00    -0.203 F 
ATOM     79  C   UNL     1      -8.504  -7.971  14.071  1.00  0.00     0.198 A 
ATOM     80  C   UNL     1      -6.420  -8.878  13.294  1.00  0.00     0.198 A 
ATOM     81  F   UNL     1      -5.231  -7.793  11.578  1.00  0.00    -0.203 F 
ATOM     82  F   UNL     1      -9.551  -8.018  14.906  1.00  0.00    -0.200 F 
ATOM     83  C   UNL     1      -7.516  -8.941  14.143  1.00  0.00     0.200 A 
ATOM     84  F   UNL     1      -5.468  -9.819  13.360  1.00  0.00    -0.200 F 
ATOM     85  F   UNL     1      -7.615  -9.934  15.038  1.00  0.00    -0.200 F 
ENDBRANCH  52  75
ENDBRANCH  26  27
ENDBRANCH  19  21
ENDBRANCH  18  19
ENDBRANCH  17  18
ENDBRANCH   1  17
TORSDOF 14
