REMARK SMILES COc1ccccc1C(=O)N/C(=C/c1ccc2c(c1)OCO2)C(=O)Nc1ccc(C(=O)OCCOC(=O)c2ccc(-c3c4nc(c(-c5c(F)c(F)c(F)c(F)c5F)c5ccc([nH]5)c(-c5c(F)c(F)c(F)c(F)c5F)c5nc(c(-c6c(F)c(F)c(F)c(F)c6F)c6ccc3[nH]6)C=C5)C=C4)cc2)cc1
REMARK SMILES IDX 32 1 30 2 31 3 29 4 26 5 27 6 102 7 28 8 101 9 25 10 23 11
REMARK SMILES IDX 24 12 12 14 13 15 11 16 9 17 10 18 8 20 3 21 4 22 5 23 7 24
REMARK SMILES IDX 6 25 2 26 1 27 14 28 15 29 19 30 16 31 18 32 17 33 20 34
REMARK SMILES IDX 22 35 21 36 33 37 34 38 35 39 36 40 37 41 38 42 39 43 100 44
REMARK SMILES IDX 40 45 99 46 41 47 42 48 43 49 93 50 44 51 98 52 92 53 94 54
REMARK SMILES IDX 45 55 97 56 91 57 90 58 46 60 78 61 58 62 77 63 59 64 62 65
REMARK SMILES IDX 76 66 95 67 60 68 61 69 75 71 96 72 63 73 47 74 48 75 56 76
REMARK SMILES IDX 49 77 50 78 54 79 57 80 51 81 52 82 55 83 53 84 79 85 80 86
REMARK SMILES IDX 88 87 81 88 82 89 86 90 89 91 83 92 84 93 87 94 85 95 64 96
REMARK SMILES IDX 65 97 73 98 66 99 67 100 71 101 74 102 68 103 69 104 72 105
REMARK SMILES IDX 70 106
REMARK H PARENT 25 13 11 19 94 59 62 70
REMARK Flexibility Score: inf
ROOT
ATOM      1  O   UNL     1      -2.665   5.734  -1.400  1.00  0.00    -0.458 OA
ENDROOT
BRANCH   1   2
ATOM      2  C   UNL     1      -2.466   5.780  -0.063  1.00  0.00     0.338 C 
ATOM      3  O   UNL     1      -2.399   6.759   0.654  1.00  0.00    -0.246 OA
BRANCH   2   4
ATOM      4  C   UNL     1      -2.321   4.404   0.389  1.00  0.00     0.060 A 
ATOM      5  C   UNL     1      -1.561   0.716   1.296  1.00  0.00     0.041 A 
ATOM      6  C   UNL     1      -2.659   1.579   2.015  1.00  0.00     0.027 A 
ATOM      7  C   UNL     1      -1.049   1.510   0.132  1.00  0.00     0.027 A 
ATOM      8  C   UNL     1      -3.103   3.541   1.598  1.00  0.00     0.018 A 
ATOM      9  C   UNL     1      -1.299   3.422  -0.356  1.00  0.00     0.018 A 
BRANCH   5  10
ATOM     10  N   UNL     1      -0.518  -0.076   1.857  1.00  0.00    -0.321 N 
ATOM     11  C   UNL     1       0.339  -0.601   0.897  1.00  0.00     0.272 C 
ATOM     12  O   UNL     1      -0.221  -1.408   0.147  1.00  0.00    -0.267 OA
ATOM     13  H   UNL     1      -0.415  -0.235   2.823  1.00  0.00     0.170 HD
BRANCH  11  14
ATOM     14  C   UNL     1       1.656   0.138   0.380  1.00  0.00     0.108 C 
ATOM     15  C   UNL     1       1.749   1.326  -0.328  1.00  0.00     0.040 C 
BRANCH  14  16
ATOM     16  N   UNL     1       2.878  -0.528   0.473  1.00  0.00    -0.317 N 
ATOM     17  C   UNL     1       3.353  -1.778   0.800  1.00  0.00     0.259 C 
ATOM     18  O   UNL     1       4.581  -1.894   0.868  1.00  0.00    -0.269 OA
ATOM     19  H   UNL     1       3.620   0.073   0.234  1.00  0.00     0.170 HD
BRANCH  17  20
ATOM     20  C   UNL     1       2.528  -2.949   1.152  1.00  0.00     0.082 A 
ATOM     21  C   UNL     1       1.387  -3.406   0.510  1.00  0.00     0.131 A 
ATOM     22  C   UNL     1       0.465  -4.138   1.280  1.00  0.00     0.047 A 
ATOM     23  C   UNL     1       0.811  -4.677   2.515  1.00  0.00     0.004 A 
ATOM     24  C   UNL     1       2.957  -3.643   2.303  1.00  0.00     0.018 A 
ATOM     25  C   UNL     1       2.115  -4.538   2.961  1.00  0.00     0.001 A 
BRANCH  21  26
ATOM     26  O   UNL     1       0.993  -3.303  -0.793  1.00  0.00    -0.496 OA
ATOM     27  C   UNL     1       1.625  -2.450  -1.733  1.00  0.00     0.278 C 
ENDBRANCH  21  26
ENDBRANCH  17  20
ENDBRANCH  14  16
BRANCH  15  28
ATOM     28  C   UNL     1       0.683   2.405  -0.587  1.00  0.00    -0.019 A 
ATOM     29  C   UNL     1      -0.613   2.027  -1.876  1.00  0.00     0.012 A 
ATOM     30  C   UNL     1       0.313   2.931   1.108  1.00  0.00     0.058 A 
ATOM     31  C   UNL     1      -2.406   1.919  -1.464  1.00  0.00     0.051 A 
ATOM     32  C   UNL     1      -1.358   2.868   1.558  1.00  0.00     0.166 A 
ATOM     33  C   UNL     1      -2.826   2.282   0.239  1.00  0.00     0.165 A 
ATOM     34  O   UNL     1      -2.137   3.009   3.214  1.00  0.00    -0.454 OA
ATOM     35  O   UNL     1      -4.364   2.099   1.218  1.00  0.00    -0.454 OA
ATOM     36  C   UNL     1      -3.999   2.549   3.060  1.00  0.00     0.468 C 
ENDBRANCH  15  28
ENDBRANCH  11  14
ENDBRANCH   5  10
ENDBRANCH   2   4
ENDBRANCH   1   2
BRANCH   1  37
ATOM     37  C   UNL     1      -2.978   6.976  -2.047  1.00  0.00     0.275 C 
BRANCH  37  38
ATOM     38  C   UNL     1      -4.489   7.085  -2.250  1.00  0.00     0.275 C 
BRANCH  38  39
ATOM     39  O   UNL     1      -5.169   7.160  -0.979  1.00  0.00    -0.458 OA
BRANCH  39  40
ATOM     40  C   UNL     1      -5.763   6.012  -0.581  1.00  0.00     0.338 C 
ATOM     41  O   UNL     1      -5.822   4.959  -1.195  1.00  0.00    -0.246 OA
BRANCH  40  42
ATOM     42  C   UNL     1      -6.262   6.115   0.803  1.00  0.00     0.060 A 
ATOM     43  C   UNL     1      -5.333   6.194   1.816  1.00  0.00     0.016 A 
ATOM     44  C   UNL     1      -7.573   5.783   1.125  1.00  0.00     0.016 A 
ATOM     45  C   UNL     1      -5.643   5.667   3.065  1.00  0.00     0.010 A 
ATOM     46  C   UNL     1      -7.914   5.447   2.453  1.00  0.00     0.010 A 
ATOM     47  C   UNL     1      -6.929   5.258   3.437  1.00  0.00    -0.014 A 
BRANCH  47  48
ATOM     48  C   UNL     1      -7.189   4.571   4.769  1.00  0.00     0.031 A 
ATOM     49  C   UNL     1      -8.246   3.475   4.896  1.00  0.00     0.074 A 
ATOM     50  C   UNL     1      -6.462   4.837   5.884  1.00  0.00     0.049 A 
ATOM     51  N   UNL     1      -8.846   3.020   5.973  1.00  0.00    -0.248 NA
ATOM     52  C   UNL     1      -8.704   2.817   3.660  1.00  0.00     0.031 C 
ATOM     53  C   UNL     1      -5.336   5.769   5.988  1.00  0.00     0.029 A 
ATOM     54  N   UNL     1      -6.550   4.330   7.168  1.00  0.00    -0.354 N 
ATOM     55  C   UNL     1      -9.826   2.132   5.532  1.00  0.00     0.074 A 
ATOM     56  C   UNL     1      -9.726   2.089   4.090  1.00  0.00     0.031 C 
ATOM     57  C   UNL     1      -4.769   5.678   7.193  1.00  0.00     0.029 A 
ATOM     58  C   UNL     1      -5.648   4.899   8.042  1.00  0.00     0.049 A 
ATOM     59  H   UNL     1      -7.193   3.632   7.432  1.00  0.00     0.167 HD
ATOM     60  C   UNL     1     -10.733   1.433   6.262  1.00  0.00     0.037 A 
ATOM     61  C   UNL     1      -5.587   4.943   9.386  1.00  0.00     0.037 A 
ATOM     62  C   UNL     1     -10.759   1.402   7.706  1.00  0.00     0.049 A 
ATOM     63  C   UNL     1      -6.652   4.252  10.178  1.00  0.00     0.074 A 
ATOM     64  C   UNL     1     -11.625   0.714   8.540  1.00  0.00     0.029 A 
ATOM     65  N   UNL     1      -9.866   2.071   8.530  1.00  0.00    -0.354 N 
ATOM     66  N   UNL     1      -7.659   3.532   9.753  1.00  0.00    -0.248 NA
ATOM     67  C   UNL     1      -6.588   4.403  11.636  1.00  0.00     0.031 C 
ATOM     68  C   UNL     1     -11.307   1.032   9.864  1.00  0.00     0.029 A 
ATOM     69  C   UNL     1     -10.183   1.839   9.860  1.00  0.00     0.049 A 
ATOM     70  H   UNL     1      -9.118   2.629   8.216  1.00  0.00     0.167 HD
ATOM     71  C   UNL     1      -8.331   3.116  10.892  1.00  0.00     0.074 A 
ATOM     72  C   UNL     1      -7.603   3.648  12.025  1.00  0.00     0.031 C 
ATOM     73  C   UNL     1      -9.451   2.360  10.986  1.00  0.00     0.037 A 
BRANCH  60  74
ATOM     74  C   UNL     1     -11.831   0.694   5.535  1.00  0.00     0.064 A 
ATOM     75  C   UNL     1     -11.602  -0.454   4.764  1.00  0.00     0.173 A 
ATOM     76  C   UNL     1     -13.164   1.122   5.679  1.00  0.00     0.173 A 
ATOM     77  F   UNL     1     -10.353  -0.912   4.588  1.00  0.00    -0.203 F 
ATOM     78  C   UNL     1     -12.656  -1.124   4.141  1.00  0.00     0.198 A 
ATOM     79  C   UNL     1     -14.217   0.427   5.089  1.00  0.00     0.198 A 
ATOM     80  F   UNL     1     -13.451   2.205   6.417  1.00  0.00    -0.203 F 
ATOM     81  F   UNL     1     -12.405  -2.190   3.367  1.00  0.00    -0.200 F 
ATOM     82  C   UNL     1     -13.962  -0.690   4.311  1.00  0.00     0.200 A 
ATOM     83  F   UNL     1     -15.479   0.838   5.279  1.00  0.00    -0.200 F 
ATOM     84  F   UNL     1     -14.973  -1.345   3.724  1.00  0.00    -0.200 F 
ENDBRANCH  60  74
BRANCH  61  85
ATOM     85  C   UNL     1      -4.557   5.787  10.063  1.00  0.00     0.064 A 
ATOM     86  C   UNL     1      -3.586   5.218  10.898  1.00  0.00     0.173 A 
ATOM     87  C   UNL     1      -4.527   7.183   9.894  1.00  0.00     0.173 A 
ATOM     88  F   UNL     1      -3.586   3.895  11.119  1.00  0.00    -0.203 F 
ATOM     89  C   UNL     1      -2.641   6.011  11.548  1.00  0.00     0.198 A 
ATOM     90  C   UNL     1      -3.549   7.967  10.500  1.00  0.00     0.198 A 
ATOM     91  F   UNL     1      -5.431   7.787   9.109  1.00  0.00    -0.203 F 
ATOM     92  F   UNL     1      -1.766   5.446  12.391  1.00  0.00    -0.200 F 
ATOM     93  C   UNL     1      -2.615   7.381  11.339  1.00  0.00     0.200 A 
ATOM     94  F   UNL     1      -3.512   9.286  10.269  1.00  0.00    -0.200 F 
ATOM     95  F   UNL     1      -1.696   8.139  11.953  1.00  0.00    -0.200 F 
ENDBRANCH  61  85
BRANCH  73  96
ATOM     96  C   UNL     1      -9.908   1.993  12.368  1.00  0.00     0.064 A 
ATOM     97  C   UNL     1     -10.407   2.946  13.269  1.00  0.00     0.173 A 
ATOM     98  C   UNL     1      -9.832   0.659  12.800  1.00  0.00     0.173 A 
ATOM     99  F   UNL     1     -10.482   4.237  12.914  1.00  0.00    -0.203 F 
ATOM    100  C   UNL     1     -10.764   2.585  14.566  1.00  0.00     0.198 A 
ATOM    101  C   UNL     1     -10.235   0.295  14.080  1.00  0.00     0.198 A 
ATOM    102  F   UNL     1      -9.366  -0.293  11.978  1.00  0.00    -0.203 F 
ATOM    103  F   UNL     1     -11.158   3.526  15.435  1.00  0.00    -0.200 F 
ATOM    104  C   UNL     1     -10.685   1.260  14.967  1.00  0.00     0.200 A 
ATOM    105  F   UNL     1     -10.174  -0.989  14.459  1.00  0.00    -0.200 F 
ATOM    106  F   UNL     1     -11.030   0.915  16.215  1.00  0.00    -0.200 F 
ENDBRANCH  73  96
ENDBRANCH  47  48
ENDBRANCH  40  42
ENDBRANCH  39  40
ENDBRANCH  38  39
ENDBRANCH  37  38
ENDBRANCH   1  37
TORSDOF 17
