REMARK SMILES O=C(N[C@@H](C(=O)OCCOC(=O)c1ccc(-c2c3nc(c(-c4c(F)c(F)c(F)c(F)c4F)c4ccc([nH]4)c(-c4c(F)c(F)c(F)c(F)c4F)c4nc(c(-c5c(F)c(F)c(F)c(F)c5F)c5ccc2[nH]5)C=C4)C=C3)cc1)c1ccccc1)c1ccc(Br)nc1
REMARK SMILES IDX 8 1 7 2 5 3 6 4 4 5 3 6 1 7 2 8 82 10 83 11 88 12 84 13
REMARK SMILES IDX 87 14 85 15 86 16 76 17 77 18 81 19 78 20 80 21 79 22 9 23
REMARK SMILES IDX 10 24 11 25 12 26 13 27 14 28 75 29 15 30 74 31 16 32 17 33
REMARK SMILES IDX 18 34 68 35 19 36 73 37 67 38 69 39 20 40 72 41 66 42 65 43
REMARK SMILES IDX 21 45 53 46 33 47 52 48 34 49 37 50 51 51 70 52 35 53 36 54
REMARK SMILES IDX 50 56 71 57 38 58 22 59 23 60 31 61 24 62 25 63 29 64 32 65
REMARK SMILES IDX 26 66 27 67 30 68 28 69 54 70 55 71 63 72 56 73 57 74 61 75
REMARK SMILES IDX 64 76 58 77 59 78 62 79 60 80 39 81 40 82 48 83 41 84 42 85
REMARK SMILES IDX 46 86 49 87 43 88 44 89 47 90 45 91
REMARK H PARENT 3 9 69 44 37 55
REMARK Flexibility Score: inf
ROOT
ATOM      1  C   UNL     1       5.049   0.444  -3.961  1.00  0.00     0.274 C 
ENDROOT
BRANCH   1   2
ATOM      2  O   UNL     1       4.325   0.514  -2.715  1.00  0.00    -0.460 OA
BRANCH   2   3
ATOM      3  C   UNL     1       5.069   0.770  -1.601  1.00  0.00     0.333 C 
ATOM      4  O   UNL     1       6.278   0.984  -1.613  1.00  0.00    -0.249 OA
BRANCH   3   5
ATOM      5  C   UNL     1       4.240   0.677  -0.304  1.00  0.00     0.223 C 
BRANCH   5   6
ATOM      6  N   UNL     1       2.814   0.389  -0.497  1.00  0.00    -0.335 N 
ATOM      7  O   UNL     1       0.900  -0.799  -0.360  1.00  0.00    -0.269 OA
ATOM      8  C   UNL     1       2.078  -0.672  -0.048  1.00  0.00     0.253 C 
ATOM      9  H   UNL     1       2.317   1.055  -1.026  1.00  0.00     0.165 HD
BRANCH   8  10
ATOM     10  C   UNL     1       2.729  -1.725   0.743  1.00  0.00     0.058 A 
ATOM     11  C   UNL     1       2.769  -3.021   0.233  1.00  0.00     0.018 A 
ATOM     12  C   UNL     1       3.351  -1.466   1.955  1.00  0.00     0.126 A 
ATOM     13  C   UNL     1       3.485  -3.996   0.922  1.00  0.00     0.037 A 
ATOM     14  N   UNL     1       4.071  -2.391   2.633  1.00  0.00    -0.249 NA
ATOM     15  C   UNL     1       4.129  -3.634   2.099  1.00  0.00     0.106 A 
ATOM     16  Br  UNL     1       5.177  -4.932   3.000  1.00  0.00    -0.029 Br
ENDBRANCH   8  10
ENDBRANCH   5   6
BRANCH   5  17
ATOM     17  C   UNL     1       4.409   1.881   0.615  1.00  0.00    -0.014 A 
ATOM     18  C   UNL     1       5.396   1.867   1.615  1.00  0.00     0.006 A 
ATOM     19  C   UNL     1       3.589   3.019   0.505  1.00  0.00     0.006 A 
ATOM     20  C   UNL     1       5.540   2.943   2.495  1.00  0.00     0.000 A 
ATOM     21  C   UNL     1       3.732   4.092   1.390  1.00  0.00     0.000 A 
ATOM     22  C   UNL     1       4.704   4.052   2.386  1.00  0.00     0.000 A 
ENDBRANCH   5  17
ENDBRANCH   3   5
ENDBRANCH   2   3
ENDBRANCH   1   2
BRANCH   1  23
ATOM     23  C   UNL     1       4.863   1.715  -4.786  1.00  0.00     0.275 C 
BRANCH  23  24
ATOM     24  O   UNL     1       5.467   2.841  -4.123  1.00  0.00    -0.458 OA
BRANCH  24  25
ATOM     25  C   UNL     1       4.598   3.686  -3.526  1.00  0.00     0.338 C 
ATOM     26  O   UNL     1       3.381   3.615  -3.511  1.00  0.00    -0.246 OA
BRANCH  25  27
ATOM     27  C   UNL     1       5.324   4.723  -2.780  1.00  0.00     0.060 A 
ATOM     28  C   UNL     1       5.928   4.372  -1.579  1.00  0.00     0.016 A 
ATOM     29  C   UNL     1       5.193   6.065  -3.134  1.00  0.00     0.016 A 
ATOM     30  C   UNL     1       6.264   5.360  -0.660  1.00  0.00     0.010 A 
ATOM     31  C   UNL     1       5.626   7.058  -2.244  1.00  0.00     0.010 A 
ATOM     32  C   UNL     1       6.093   6.718  -0.962  1.00  0.00    -0.014 A 
BRANCH  32  33
ATOM     33  C   UNL     1       6.267   7.747   0.107  1.00  0.00     0.031 A 
ATOM     34  C   UNL     1       5.125   8.673   0.457  1.00  0.00     0.074 A 
ATOM     35  C   UNL     1       7.399   7.817   0.837  1.00  0.00     0.049 A 
ATOM     36  N   UNL     1       5.125   9.742   1.215  1.00  0.00    -0.248 NA
ATOM     37  C   UNL     1       3.813   8.366  -0.135  1.00  0.00     0.031 C 
ATOM     38  C   UNL     1       8.567   6.950   0.681  1.00  0.00     0.029 A 
ATOM     39  N   UNL     1       7.738   8.640   1.884  1.00  0.00    -0.354 N 
ATOM     40  C   UNL     1       3.849  10.283   1.111  1.00  0.00     0.074 A 
ATOM     41  C   UNL     1       3.091   9.412   0.239  1.00  0.00     0.031 C 
ATOM     42  C   UNL     1       9.458   7.234   1.643  1.00  0.00     0.029 A 
ATOM     43  C   UNL     1       8.972   8.368   2.422  1.00  0.00     0.049 A 
ATOM     44  H   UNL     1       7.151   9.357   2.217  1.00  0.00     0.167 HD
ATOM     45  C   UNL     1       3.357  11.408   1.684  1.00  0.00     0.037 A 
ATOM     46  C   UNL     1       9.654   8.980   3.409  1.00  0.00     0.037 A 
ATOM     47  C   UNL     1       4.071  12.217   2.638  1.00  0.00     0.049 A 
ATOM     48  C   UNL     1       9.073  10.201   4.064  1.00  0.00     0.074 A 
ATOM     49  C   UNL     1       3.658  13.378   3.270  1.00  0.00     0.029 A 
ATOM     50  N   UNL     1       5.331  11.920   3.133  1.00  0.00    -0.354 N 
ATOM     51  N   UNL     1       7.920  10.783   3.853  1.00  0.00    -0.248 NA
ATOM     52  C   UNL     1       9.909  10.868   5.073  1.00  0.00     0.031 C 
ATOM     53  C   UNL     1       4.674  13.790   4.141  1.00  0.00     0.029 A 
ATOM     54  C   UNL     1       5.706  12.869   4.071  1.00  0.00     0.049 A 
ATOM     55  H   UNL     1       5.878  11.150   2.859  1.00  0.00     0.167 HD
ATOM     56  C   UNL     1       7.895  11.891   4.688  1.00  0.00     0.074 A 
ATOM     57  C   UNL     1       9.132  11.878   5.441  1.00  0.00     0.031 C 
ATOM     58  C   UNL     1       6.942  12.847   4.805  1.00  0.00     0.037 A 
BRANCH  45  59
ATOM     59  C   UNL     1       1.990  11.862   1.267  1.00  0.00     0.064 A 
ATOM     60  C   UNL     1       0.823  11.234   1.721  1.00  0.00     0.173 A 
ATOM     61  C   UNL     1       1.852  12.979   0.427  1.00  0.00     0.173 A 
ATOM     62  F   UNL     1       0.903  10.153   2.511  1.00  0.00    -0.203 F 
ATOM     63  C   UNL     1      -0.433  11.697   1.336  1.00  0.00     0.198 A 
ATOM     64  C   UNL     1       0.595  13.454   0.064  1.00  0.00     0.198 A 
ATOM     65  F   UNL     1       2.939  13.618  -0.031  1.00  0.00    -0.203 F 
ATOM     66  F   UNL     1      -1.537  11.059   1.751  1.00  0.00    -0.200 F 
ATOM     67  C   UNL     1      -0.546  12.809   0.514  1.00  0.00     0.200 A 
ATOM     68  F   UNL     1       0.489  14.535  -0.721  1.00  0.00    -0.200 F 
ATOM     69  F   UNL     1      -1.756  13.258   0.152  1.00  0.00    -0.200 F 
ENDBRANCH  45  59
BRANCH  46  70
ATOM     70  C   UNL     1      10.989   8.468   3.811  1.00  0.00     0.064 A 
ATOM     71  C   UNL     1      11.176   7.854   5.057  1.00  0.00     0.173 A 
ATOM     72  C   UNL     1      12.099   8.580   2.963  1.00  0.00     0.173 A 
ATOM     73  F   UNL     1      10.149   7.751   5.913  1.00  0.00    -0.203 F 
ATOM     74  C   UNL     1      12.427   7.375   5.441  1.00  0.00     0.198 A 
ATOM     75  C   UNL     1      13.342   8.076   3.336  1.00  0.00     0.198 A 
ATOM     76  F   UNL     1      11.971   9.165   1.763  1.00  0.00    -0.203 F 
ATOM     77  F   UNL     1      12.588   6.825   6.652  1.00  0.00    -0.200 F 
ATOM     78  C   UNL     1      13.507   7.479   4.576  1.00  0.00     0.200 A 
ATOM     79  F   UNL     1      14.380   8.168   2.493  1.00  0.00    -0.200 F 
ATOM     80  F   UNL     1      14.707   7.010   4.942  1.00  0.00    -0.200 F 
ENDBRANCH  46  70
BRANCH  58  81
ATOM     81  C   UNL     1       7.204  13.952   5.782  1.00  0.00     0.064 A 
ATOM     82  C   UNL     1       8.115  14.978   5.489  1.00  0.00     0.173 A 
ATOM     83  C   UNL     1       6.533  13.995   7.011  1.00  0.00     0.173 A 
ATOM     84  F   UNL     1       8.793  14.969   4.332  1.00  0.00    -0.203 F 
ATOM     85  C   UNL     1       8.362  15.995   6.406  1.00  0.00     0.198 A 
ATOM     86  C   UNL     1       6.768  15.025   7.918  1.00  0.00     0.198 A 
ATOM     87  F   UNL     1       5.651  13.037   7.334  1.00  0.00    -0.203 F 
ATOM     88  F   UNL     1       9.268  16.942   6.125  1.00  0.00    -0.200 F 
ATOM     89  C   UNL     1       7.687  16.020   7.617  1.00  0.00     0.200 A 
ATOM     90  F   UNL     1       6.112  15.051   9.086  1.00  0.00    -0.200 F 
ATOM     91  F   UNL     1       7.930  16.998   8.501  1.00  0.00    -0.200 F 
ENDBRANCH  58  81
ENDBRANCH  32  33
ENDBRANCH  25  27
ENDBRANCH  24  25
ENDBRANCH  23  24
ENDBRANCH   1  23
TORSDOF 14
