REMARK SMILES O=C(OCCOC(=O)c1ccc(C[N@@H+]2CCN3C(=O)NC[C@@H]3C2)nc1)c1ccc(-c2c3nc(c(-c4c(F)c(F)c(F)c(F)c4F)c4ccc([nH]4)c(-c4c(F)c(F)c(F)c(F)c4F)c4nc(c(-c5c(F)c(F)c(F)c(F)c5F)c5ccc2[nH]5)C=C4)C=C3)cc1
REMARK SMILES IDX 4 1 3 2 2 3 1 4 26 5 27 6 88 7 28 8 87 9 29 10 30 11 31 12
REMARK SMILES IDX 81 13 32 14 86 15 80 16 82 17 33 18 85 19 79 20 78 21 34 23
REMARK SMILES IDX 66 24 46 25 65 26 47 27 50 28 64 29 83 30 48 31 49 32 63 34
REMARK SMILES IDX 84 35 51 36 35 37 36 38 44 39 37 40 38 41 42 42 45 43 39 44
REMARK SMILES IDX 40 45 43 46 41 47 67 48 68 49 76 50 69 51 70 52 74 53 77 54
REMARK SMILES IDX 71 55 72 56 75 57 73 58 52 59 53 60 61 61 54 62 55 63 59 64
REMARK SMILES IDX 62 65 56 66 57 67 60 68 58 69 5 70 6 71 7 72 8 73 9 74 10 75
REMARK SMILES IDX 25 76 11 77 24 78 12 79 13 80 14 81 15 82 23 83 16 85 22 86
REMARK SMILES IDX 17 87 21 88 18 89 20 90 19 91
REMARK H PARENT 82 22 50 33 14 84 20 92
REMARK Flexibility Score: inf
ROOT
ATOM      1  C   UNL     1       4.089  -1.319  -0.957  1.00  0.00     0.275 C 
ENDROOT
BRANCH   1   2
ATOM      2  O   UNL     1       2.977  -1.171  -0.056  1.00  0.00    -0.458 OA
BRANCH   2   3
ATOM      3  C   UNL     1       2.874  -0.398   1.051  1.00  0.00     0.338 C 
ATOM      4  O   UNL     1       2.050  -0.694   1.914  1.00  0.00    -0.246 OA
BRANCH   3   5
ATOM      5  C   UNL     1       3.577   0.914   1.196  1.00  0.00     0.060 A 
ATOM      6  C   UNL     1       4.885   1.196   0.796  1.00  0.00     0.016 A 
ATOM      7  C   UNL     1       2.852   1.936   1.839  1.00  0.00     0.016 A 
ATOM      8  C   UNL     1       5.439   2.466   0.988  1.00  0.00     0.010 A 
ATOM      9  C   UNL     1       3.394   3.211   2.021  1.00  0.00     0.010 A 
ATOM     10  C   UNL     1       4.702   3.478   1.608  1.00  0.00    -0.014 A 
BRANCH  10  11
ATOM     11  C   UNL     1       5.364   4.752   1.965  1.00  0.00     0.031 A 
ATOM     12  C   UNL     1       5.831   4.943   3.376  1.00  0.00     0.074 A 
ATOM     13  C   UNL     1       5.589   5.700   1.039  1.00  0.00     0.049 A 
ATOM     14  N   UNL     1       6.524   5.925   3.890  1.00  0.00    -0.248 NA
ATOM     15  C   UNL     1       5.502   3.869   4.327  1.00  0.00     0.031 C 
ATOM     16  C   UNL     1       5.249   5.590  -0.376  1.00  0.00     0.029 A 
ATOM     17  N   UNL     1       6.152   6.945   1.147  1.00  0.00    -0.354 N 
ATOM     18  C   UNL     1       6.757   5.562   5.208  1.00  0.00     0.074 A 
ATOM     19  C   UNL     1       6.065   4.313   5.439  1.00  0.00     0.031 C 
ATOM     20  C   UNL     1       5.548   6.743  -0.996  1.00  0.00     0.029 A 
ATOM     21  C   UNL     1       6.134   7.661  -0.025  1.00  0.00     0.049 A 
ATOM     22  H   UNL     1       6.533   7.293   1.986  1.00  0.00     0.167 HD
ATOM     23  C   UNL     1       7.518   6.194   6.131  1.00  0.00     0.037 A 
ATOM     24  C   UNL     1       6.558   8.913  -0.282  1.00  0.00     0.037 A 
ATOM     25  C   UNL     1       8.166   7.456   5.905  1.00  0.00     0.049 A 
ATOM     26  C   UNL     1       7.272   9.669   0.804  1.00  0.00     0.074 A 
ATOM     27  C   UNL     1       8.955   8.193   6.768  1.00  0.00     0.029 A 
ATOM     28  N   UNL     1       8.073   8.182   4.724  1.00  0.00    -0.354 N 
ATOM     29  N   UNL     1       7.558   9.283   2.024  1.00  0.00    -0.248 NA
ATOM     30  C   UNL     1       7.760  11.012   0.468  1.00  0.00     0.031 C 
ATOM     31  C   UNL     1       9.299   9.389   6.125  1.00  0.00     0.029 A 
ATOM     32  C   UNL     1       8.764   9.375   4.846  1.00  0.00     0.049 A 
ATOM     33  H   UNL     1       7.587   7.890   3.919  1.00  0.00     0.167 HD
ATOM     34  C   UNL     1       8.308  10.307   2.583  1.00  0.00     0.074 A 
ATOM     35  C   UNL     1       8.419  11.339   1.571  1.00  0.00     0.031 C 
ATOM     36  C   UNL     1       8.872  10.378   3.815  1.00  0.00     0.037 A 
BRANCH  23  37
ATOM     37  C   UNL     1       7.656   5.516   7.460  1.00  0.00     0.064 A 
ATOM     38  C   UNL     1       8.401   4.333   7.601  1.00  0.00     0.173 A 
ATOM     39  C   UNL     1       6.993   6.014   8.590  1.00  0.00     0.173 A 
ATOM     40  F   UNL     1       9.034   3.804   6.543  1.00  0.00    -0.203 F 
ATOM     41  C   UNL     1       8.440   3.652   8.814  1.00  0.00     0.198 A 
ATOM     42  C   UNL     1       7.055   5.343   9.808  1.00  0.00     0.198 A 
ATOM     43  F   UNL     1       6.266   7.138   8.506  1.00  0.00    -0.203 F 
ATOM     44  F   UNL     1       9.100   2.489   8.907  1.00  0.00    -0.200 F 
ATOM     45  C   UNL     1       7.767   4.157   9.916  1.00  0.00     0.200 A 
ATOM     46  F   UNL     1       6.407   5.832  10.874  1.00  0.00    -0.200 F 
ATOM     47  F   UNL     1       7.790   3.491  11.079  1.00  0.00    -0.200 F 
ENDBRANCH  23  37
BRANCH  24  48
ATOM     48  C   UNL     1       6.362   9.499  -1.633  1.00  0.00     0.064 A 
ATOM     49  C   UNL     1       7.441   9.693  -2.506  1.00  0.00     0.173 A 
ATOM     50  C   UNL     1       5.085   9.868  -2.083  1.00  0.00     0.173 A 
ATOM     51  F   UNL     1       8.682   9.365  -2.118  1.00  0.00    -0.203 F 
ATOM     52  C   UNL     1       7.254  10.250  -3.770  1.00  0.00     0.198 A 
ATOM     53  C   UNL     1       4.897  10.408  -3.354  1.00  0.00     0.198 A 
ATOM     54  F   UNL     1       4.017   9.691  -1.291  1.00  0.00    -0.203 F 
ATOM     55  F   UNL     1       8.307  10.450  -4.574  1.00  0.00    -0.200 F 
ATOM     56  C   UNL     1       5.982  10.604  -4.194  1.00  0.00     0.200 A 
ATOM     57  F   UNL     1       3.664  10.734  -3.765  1.00  0.00    -0.200 F 
ATOM     58  F   UNL     1       5.802  11.133  -5.412  1.00  0.00    -0.200 F 
ENDBRANCH  24  48
BRANCH  36  59
ATOM     59  C   UNL     1       9.707  11.586   4.115  1.00  0.00     0.064 A 
ATOM     60  C   UNL     1       9.132  12.842   4.351  1.00  0.00     0.173 A 
ATOM     61  C   UNL     1      11.103  11.470   4.212  1.00  0.00     0.173 A 
ATOM     62  F   UNL     1       7.804  13.005   4.251  1.00  0.00    -0.203 F 
ATOM     63  C   UNL     1       9.926  13.944   4.654  1.00  0.00     0.198 A 
ATOM     64  C   UNL     1      11.890  12.567   4.543  1.00  0.00     0.198 A 
ATOM     65  F   UNL     1      11.699  10.287   3.997  1.00  0.00    -0.203 F 
ATOM     66  F   UNL     1       9.359  15.145   4.834  1.00  0.00    -0.200 F 
ATOM     67  C   UNL     1      11.302  13.804   4.758  1.00  0.00     0.200 A 
ATOM     68  F   UNL     1      13.219  12.428   4.654  1.00  0.00    -0.200 F 
ATOM     69  F   UNL     1      12.063  14.865   5.059  1.00  0.00    -0.200 F 
ENDBRANCH  36  59
ENDBRANCH  10  11
ENDBRANCH   3   5
ENDBRANCH   2   3
ENDBRANCH   1   2
BRANCH   1  70
ATOM     70  C   UNL     1       3.963  -0.491  -2.238  1.00  0.00     0.275 C 
BRANCH  70  71
ATOM     71  O   UNL     1       3.507   0.846  -1.988  1.00  0.00    -0.458 OA
BRANCH  71  72
ATOM     72  C   UNL     1       2.164   1.015  -2.107  1.00  0.00     0.339 C 
ATOM     73  O   UNL     1       1.346   0.193  -2.478  1.00  0.00    -0.246 OA
BRANCH  72  74
ATOM     74  C   UNL     1       1.804   2.327  -1.565  1.00  0.00     0.078 A 
ATOM     75  C   UNL     1       2.464   3.498  -1.923  1.00  0.00     0.019 A 
ATOM     76  C   UNL     1       0.791   2.394  -0.623  1.00  0.00     0.127 A 
ATOM     77  C   UNL     1       2.088   4.692  -1.312  1.00  0.00     0.031 A 
ATOM     78  N   UNL     1       0.451   3.534   0.025  1.00  0.00    -0.254 NA
ATOM     79  C   UNL     1       1.097   4.674  -0.329  1.00  0.00     0.095 A 
BRANCH  79  80
ATOM     80  C   UNL     1       0.635   5.981   0.302  1.00  0.00     0.319 C 
BRANCH  80  81
ATOM     81  N   UNL     1      -0.764   6.357   0.026  1.00  0.00    -0.327 N 
ATOM     82  C   UNL     1      -1.737   5.642   0.886  1.00  0.00     0.284 C 
ATOM     83  C   UNL     1      -1.085   6.321  -1.417  1.00  0.00     0.289 C 
ATOM     84  H   UNL     1      -0.860   7.337   0.294  1.00  0.00     0.348 HD
ATOM     85  C   UNL     1      -2.678   4.623   0.213  1.00  0.00     0.183 C 
ATOM     86  C   UNL     1      -2.586   6.243  -1.713  1.00  0.00     0.161 C 
ATOM     87  N   UNL     1      -3.182   5.095  -1.058  1.00  0.00    -0.309 N 
ATOM     88  C   UNL     1      -2.908   5.996  -3.189  1.00  0.00     0.148 C 
ATOM     89  C   UNL     1      -3.999   4.377  -1.908  1.00  0.00     0.318 C 
ATOM     90  N   UNL     1      -3.923   4.975  -3.156  1.00  0.00    -0.336 N 
ATOM     91  O   UNL     1      -4.635   3.370  -1.654  1.00  0.00    -0.249 OA
ATOM     92  H   UNL     1      -4.492   4.733  -3.922  1.00  0.00     0.165 HD
ENDBRANCH  80  81
ENDBRANCH  79  80
ENDBRANCH  72  74
ENDBRANCH  71  72
ENDBRANCH  70  71
ENDBRANCH   1  70
TORSDOF 13
