REMARK SMILES O=C(CSc1nc(O)cc(=O)[nH]1)Nc1cccc(C(=O)OCCOC(=O)c2ccc(-c3c4nc(c(-c5c(F)c(F)c(F)c(F)c5F)c5ccc([nH]5)c(-c5c(F)c(F)c(F)c(F)c5F)c5nc(c(-c6c(F)c(F)c(F)c(F)c6F)c6ccc3[nH]6)C=C5)C=C4)cc2)c1
REMARK SMILES IDX 21 1 19 2 20 3 18 4 14 5 15 6 90 7 16 8 17 9 13 10 1 11 2 12
REMARK SMILES IDX 3 14 4 15 5 16 6 17 12 18 7 19 10 20 9 22 11 23 8 24 22 26
REMARK SMILES IDX 23 27 24 28 25 29 26 30 27 31 28 32 89 33 29 34 88 35 30 36
REMARK SMILES IDX 31 37 32 38 82 39 33 40 87 41 81 42 83 43 34 44 86 45 80 46
REMARK SMILES IDX 79 47 35 49 67 50 47 51 66 52 48 53 51 54 65 55 84 56 49 57
REMARK SMILES IDX 50 58 64 60 85 61 52 62 36 63 37 64 45 65 38 66 39 67 43 68
REMARK SMILES IDX 46 69 40 70 41 71 44 72 42 73 68 74 69 75 77 76 70 77 71 78
REMARK SMILES IDX 75 79 78 80 72 81 73 82 76 83 74 84 53 85 54 86 62 87 55 88
REMARK SMILES IDX 56 89 60 90 63 91 57 92 58 93 61 94 59 95
REMARK H PARENT 13 13 12 21 8 25 83 48 51 59
REMARK Flexibility Score: inf
ROOT
ATOM      1  O   UNL     1      -0.700   1.258   3.666  1.00  0.00    -0.458 OA
ENDROOT
BRANCH   1   2
ATOM      2  C   UNL     1      -0.658   2.468   3.055  1.00  0.00     0.338 C 
ATOM      3  O   UNL     1      -1.463   3.376   3.176  1.00  0.00    -0.246 OA
BRANCH   2   4
ATOM      4  C   UNL     1       0.611   2.612   2.299  1.00  0.00     0.062 A 
ATOM      5  C   UNL     1       2.421   1.696   0.980  1.00  0.00     0.042 A 
ATOM      6  C   UNL     1       3.062   2.940   1.009  1.00  0.00     0.026 A 
ATOM      7  C   UNL     1       1.214   1.523   1.663  1.00  0.00     0.041 A 
ATOM      8  C   UNL     1       2.447   4.035   1.612  1.00  0.00     0.003 A 
ATOM      9  C   UNL     1       1.204   3.879   2.220  1.00  0.00     0.016 A 
BRANCH   5  10
ATOM     10  N   UNL     1       3.033   0.681   0.221  1.00  0.00    -0.325 N 
ATOM     11  O   UNL     1       1.223  -0.732  -0.153  1.00  0.00    -0.274 OA
ATOM     12  C   UNL     1       2.409  -0.442  -0.291  1.00  0.00     0.234 C 
ATOM     13  H   UNL     1       3.995   0.779   0.036  1.00  0.00     0.169 HD
BRANCH  12  14
ATOM     14  C   UNL     1       3.330  -1.379  -1.050  1.00  0.00     0.178 C 
BRANCH  14  15
ATOM     15  S   UNL     1       4.467  -0.535  -2.180  1.00  0.00    -0.078 SA
BRANCH  15  16
ATOM     16  C   UNL     1       3.363   0.419  -3.123  1.00  0.00     0.172 A 
ATOM     17  N   UNL     1       3.423   1.708  -3.076  1.00  0.00    -0.189 NA
ATOM     18  N   UNL     1       2.514  -0.292  -3.907  1.00  0.00    -0.301 N 
ATOM     19  C   UNL     1       2.555   2.373  -3.895  1.00  0.00     0.218 A 
ATOM     20  C   UNL     1       1.627   0.329  -4.733  1.00  0.00     0.255 A 
ATOM     21  H   UNL     1       2.541  -1.276  -3.879  1.00  0.00     0.172 HD
ATOM     22  C   UNL     1       1.669   1.795  -4.708  1.00  0.00     0.139 A 
ATOM     23  O   UNL     1       0.858  -0.284  -5.462  1.00  0.00    -0.269 OA
BRANCH  19  24
ATOM     24  O   UNL     1       2.651   3.739  -3.870  1.00  0.00    -0.493 OA
ATOM     25  H   UNL     1       3.270   4.155  -3.303  1.00  0.00     0.295 HD
ENDBRANCH  19  24
ENDBRANCH  15  16
ENDBRANCH  14  15
ENDBRANCH  12  14
ENDBRANCH   5  10
ENDBRANCH   2   4
ENDBRANCH   1   2
BRANCH   1  26
ATOM     26  C   UNL     1      -1.815   1.023   4.551  1.00  0.00     0.275 C 
BRANCH  26  27
ATOM     27  C   UNL     1      -1.389   1.201   6.008  1.00  0.00     0.275 C 
BRANCH  27  28
ATOM     28  O   UNL     1      -1.087   2.587   6.243  1.00  0.00    -0.458 OA
BRANCH  28  29
ATOM     29  C   UNL     1       0.077   2.851   6.870  1.00  0.00     0.338 C 
ATOM     30  O   UNL     1       0.877   2.052   7.344  1.00  0.00    -0.246 OA
BRANCH  29  31
ATOM     31  C   UNL     1       0.285   4.305   6.893  1.00  0.00     0.060 A 
ATOM     32  C   UNL     1       0.431   4.986   5.686  1.00  0.00     0.016 A 
ATOM     33  C   UNL     1       0.436   4.981   8.101  1.00  0.00     0.016 A 
ATOM     34  C   UNL     1       0.791   6.331   5.673  1.00  0.00     0.010 A 
ATOM     35  C   UNL     1       0.727   6.349   8.091  1.00  0.00     0.010 A 
ATOM     36  C   UNL     1       0.943   7.031   6.877  1.00  0.00    -0.014 A 
BRANCH  36  37
ATOM     37  C   UNL     1       1.406   8.446   6.872  1.00  0.00     0.031 A 
ATOM     38  C   UNL     1       2.721   8.802   7.512  1.00  0.00     0.074 A 
ATOM     39  C   UNL     1       0.679   9.411   6.275  1.00  0.00     0.049 A 
ATOM     40  N   UNL     1       3.232   9.982   7.763  1.00  0.00    -0.248 NA
ATOM     41  C   UNL     1       3.571   7.679   7.936  1.00  0.00     0.031 C 
ATOM     42  C   UNL     1      -0.582   9.206   5.564  1.00  0.00     0.029 A 
ATOM     43  N   UNL     1       0.906  10.762   6.167  1.00  0.00    -0.354 N 
ATOM     44  C   UNL     1       4.429   9.742   8.426  1.00  0.00     0.074 A 
ATOM     45  C   UNL     1       4.573   8.306   8.534  1.00  0.00     0.031 C 
ATOM     46  C   UNL     1      -1.001  10.380   5.065  1.00  0.00     0.029 A 
ATOM     47  C   UNL     1      -0.079  11.432   5.484  1.00  0.00     0.049 A 
ATOM     48  H   UNL     1       1.699  11.207   6.544  1.00  0.00     0.167 HD
ATOM     49  C   UNL     1       5.326  10.639   8.902  1.00  0.00     0.037 A 
ATOM     50  C   UNL     1      -0.240  12.749   5.250  1.00  0.00     0.037 A 
ATOM     51  C   UNL     1       5.216  12.065   8.741  1.00  0.00     0.049 A 
ATOM     52  C   UNL     1       0.759  13.727   5.801  1.00  0.00     0.074 A 
ATOM     53  C   UNL     1       6.077  13.054   9.184  1.00  0.00     0.029 A 
ATOM     54  N   UNL     1       4.188  12.703   8.064  1.00  0.00    -0.354 N 
ATOM     55  N   UNL     1       1.852  13.495   6.487  1.00  0.00    -0.248 NA
ATOM     56  C   UNL     1       0.491  15.153   5.565  1.00  0.00     0.031 C 
ATOM     57  C   UNL     1       5.558  14.294   8.795  1.00  0.00     0.029 A 
ATOM     58  C   UNL     1       4.391  14.074   8.081  1.00  0.00     0.049 A 
ATOM     59  H   UNL     1       3.426  12.250   7.635  1.00  0.00     0.167 HD
ATOM     60  C   UNL     1       2.404  14.740   6.758  1.00  0.00     0.074 A 
ATOM     61  C   UNL     1       1.538  15.725   6.143  1.00  0.00     0.031 C 
ATOM     62  C   UNL     1       3.523  15.039   7.460  1.00  0.00     0.037 A 
BRANCH  49  63
ATOM     63  C   UNL     1       6.492  10.103   9.678  1.00  0.00     0.064 A 
ATOM     64  C   UNL     1       7.565   9.455   9.051  1.00  0.00     0.173 A 
ATOM     65  C   UNL     1       6.545  10.268  11.070  1.00  0.00     0.173 A 
ATOM     66  F   UNL     1       7.553   9.259   7.724  1.00  0.00    -0.203 F 
ATOM     67  C   UNL     1       8.638   8.969   9.794  1.00  0.00     0.198 A 
ATOM     68  C   UNL     1       7.630   9.803  11.807  1.00  0.00     0.198 A 
ATOM     69  F   UNL     1       5.544  10.885  11.717  1.00  0.00    -0.203 F 
ATOM     70  F   UNL     1       9.633   8.313   9.180  1.00  0.00    -0.200 F 
ATOM     71  C   UNL     1       8.673   9.148  11.169  1.00  0.00     0.200 A 
ATOM     72  F   UNL     1       7.666   9.985  13.134  1.00  0.00    -0.200 F 
ATOM     73  F   UNL     1       9.709   8.683  11.881  1.00  0.00    -0.200 F 
ENDBRANCH  49  63
BRANCH  50  74
ATOM     74  C   UNL     1      -1.417  13.223   4.476  1.00  0.00     0.064 A 
ATOM     75  C   UNL     1      -1.265  13.753   3.188  1.00  0.00     0.173 A 
ATOM     76  C   UNL     1      -2.714  13.155   5.007  1.00  0.00     0.173 A 
ATOM     77  F   UNL     1      -0.042  13.866   2.651  1.00  0.00    -0.203 F 
ATOM     78  C   UNL     1      -2.366  14.203   2.462  1.00  0.00     0.198 A 
ATOM     79  C   UNL     1      -3.816  13.580   4.270  1.00  0.00     0.198 A 
ATOM     80  F   UNL     1      -2.910  12.661   6.239  1.00  0.00    -0.203 F 
ATOM     81  F   UNL     1      -2.190  14.740   1.247  1.00  0.00    -0.200 F 
ATOM     82  C   UNL     1      -3.641  14.108   3.000  1.00  0.00     0.200 A 
ATOM     83  F   UNL     1      -5.047  13.478   4.790  1.00  0.00    -0.200 F 
ATOM     84  F   UNL     1      -4.700  14.534   2.298  1.00  0.00    -0.200 F 
ENDBRANCH  50  74
BRANCH  62  85
ATOM     85  C   UNL     1       3.888  16.488   7.581  1.00  0.00     0.064 A 
ATOM     86  C   UNL     1       3.196  17.346   8.449  1.00  0.00     0.173 A 
ATOM     87  C   UNL     1       4.961  17.015   6.848  1.00  0.00     0.173 A 
ATOM     88  F   UNL     1       2.153  16.890   9.158  1.00  0.00    -0.203 F 
ATOM     89  C   UNL     1       3.556  18.686   8.565  1.00  0.00     0.198 A 
ATOM     90  C   UNL     1       5.331  18.350   6.982  1.00  0.00     0.198 A 
ATOM     91  F   UNL     1       5.655  16.232   6.008  1.00  0.00    -0.203 F 
ATOM     92  F   UNL     1       2.859  19.497   9.371  1.00  0.00    -0.200 F 
ATOM     93  C   UNL     1       4.625  19.185   7.836  1.00  0.00     0.200 A 
ATOM     94  F   UNL     1       6.369  18.830   6.284  1.00  0.00    -0.200 F 
ATOM     95  F   UNL     1       4.972  20.475   7.951  1.00  0.00    -0.200 F 
ENDBRANCH  62  85
ENDBRANCH  36  37
ENDBRANCH  29  31
ENDBRANCH  28  29
ENDBRANCH  27  28
ENDBRANCH  26  27
ENDBRANCH   1  26
TORSDOF 16
