REMARK SMILES [NH3+][C@@H](CCc1cccc(O)c1)C(=O)OCCOC(=O)c1ccc(-c2c3nc(c(-c4c(F)c(F)c(F)c(F)c4F)c4ccc([nH]4)c(-c4c(F)c(F)c(F)c(F)c4F)c4nc(c(-c5c(F)c(F)c(F)c(F)c5F)c5ccc2[nH]5)C=C4)C=C3)cc1
REMARK SMILES IDX 15 1 14 2 12 3 13 4 2 5 1 6 3 10 4 11 5 12 6 13 11 14 7 15
REMARK SMILES IDX 9 16 8 17 10 18 16 20 17 21 18 22 19 23 20 24 21 25 82 26
REMARK SMILES IDX 22 27 81 28 23 29 24 30 25 31 75 32 26 33 80 34 74 35 76 36
REMARK SMILES IDX 27 37 79 38 73 39 72 40 28 42 60 43 40 44 59 45 41 46 44 47
REMARK SMILES IDX 58 48 77 49 42 50 43 51 57 53 78 54 45 55 29 56 30 57 38 58
REMARK SMILES IDX 31 59 32 60 36 61 39 62 33 63 34 64 37 65 35 66 61 67 62 68
REMARK SMILES IDX 70 69 63 70 64 71 68 72 71 73 65 74 66 75 69 76 67 77 46 78
REMARK SMILES IDX 47 79 55 80 48 81 49 82 53 83 56 84 50 85 51 86 54 87 52 88
REMARK H PARENT 1 7 1 8 1 9 10 19 76 41 44 52
REMARK Flexibility Score: inf
ROOT
ATOM      1  C   UNL     1      -3.185   0.223  -0.661  1.00  0.00     0.274 C 
ENDROOT
BRANCH   1   2
ATOM      2  O   UNL     1      -1.752   0.082  -0.723  1.00  0.00    -0.458 OA
BRANCH   2   3
ATOM      3  C   UNL     1      -1.039   1.210  -1.016  1.00  0.00     0.364 C 
ATOM      4  O   UNL     1      -1.521   2.329  -1.161  1.00  0.00    -0.245 OA
BRANCH   3   5
ATOM      5  C   UNL     1       0.467   0.924  -1.189  1.00  0.00     0.292 C 
BRANCH   5   6
ATOM      6  N   UNL     1       0.906  -0.273  -0.449  1.00  0.00    -0.346 N 
ATOM      7  H   UNL     1       1.905  -0.417  -0.597  1.00  0.00     0.345 HD
ATOM      8  H   UNL     1       0.392  -1.088  -0.784  1.00  0.00     0.345 HD
ATOM      9  H   UNL     1       0.725  -0.143   0.546  1.00  0.00     0.345 HD
ENDBRANCH   5   6
BRANCH   5  10
ATOM     10  C   UNL     1       0.914   0.929  -2.659  1.00  0.00     0.082 C 
BRANCH  10  11
ATOM     11  C   UNL     1       0.429  -0.234  -3.540  1.00  0.00     0.042 C 
BRANCH  11  12
ATOM     12  C   UNL     1      -1.055  -0.283  -3.808  1.00  0.00    -0.044 A 
ATOM     13  C   UNL     1      -1.752  -1.493  -3.676  1.00  0.00     0.004 A 
ATOM     14  C   UNL     1      -1.766   0.861  -4.195  1.00  0.00     0.049 A 
ATOM     15  C   UNL     1      -3.134  -1.544  -3.876  1.00  0.00     0.004 A 
ATOM     16  C   UNL     1      -3.146   0.808  -4.358  1.00  0.00     0.115 A 
ATOM     17  C   UNL     1      -3.839  -0.386  -4.202  1.00  0.00     0.046 A 
BRANCH  16  18
ATOM     18  O   UNL     1      -3.793   1.973  -4.645  1.00  0.00    -0.508 OA
ATOM     19  H   UNL     1      -4.722   1.977  -4.762  1.00  0.00     0.293 HD
ENDBRANCH  16  18
ENDBRANCH  11  12
ENDBRANCH  10  11
ENDBRANCH   5  10
ENDBRANCH   3   5
ENDBRANCH   2   3
ENDBRANCH   1   2
BRANCH   1  20
ATOM     20  C   UNL     1      -3.704   0.217   0.775  1.00  0.00     0.275 C 
BRANCH  20  21
ATOM     21  O   UNL     1      -3.279   1.398   1.466  1.00  0.00    -0.458 OA
BRANCH  21  22
ATOM     22  C   UNL     1      -2.100   1.262   2.113  1.00  0.00     0.338 C 
ATOM     23  O   UNL     1      -1.466   0.237   2.296  1.00  0.00    -0.246 OA
BRANCH  22  24
ATOM     24  C   UNL     1      -1.595   2.591   2.478  1.00  0.00     0.060 A 
ATOM     25  C   UNL     1      -0.279   2.902   2.124  1.00  0.00     0.016 A 
ATOM     26  C   UNL     1      -2.367   3.475   3.235  1.00  0.00     0.016 A 
ATOM     27  C   UNL     1       0.294   4.087   2.567  1.00  0.00     0.010 A 
ATOM     28  C   UNL     1      -1.787   4.656   3.697  1.00  0.00     0.010 A 
ATOM     29  C   UNL     1      -0.442   4.939   3.399  1.00  0.00    -0.014 A 
BRANCH  29  30
ATOM     30  C   UNL     1       0.272   6.003   4.133  1.00  0.00     0.031 A 
ATOM     31  C   UNL     1       0.736   5.708   5.531  1.00  0.00     0.074 A 
ATOM     32  C   UNL     1       0.544   7.178   3.544  1.00  0.00     0.049 A 
ATOM     33  N   UNL     1       1.362   6.479   6.381  1.00  0.00    -0.248 NA
ATOM     34  C   UNL     1       0.453   4.356   6.041  1.00  0.00     0.031 C 
ATOM     35  C   UNL     1       0.182   7.539   2.176  1.00  0.00     0.029 A 
ATOM     36  N   UNL     1       1.195   8.282   4.028  1.00  0.00    -0.354 N 
ATOM     37  C   UNL     1       1.528   5.714   7.528  1.00  0.00     0.074 A 
ATOM     38  C   UNL     1       0.924   4.425   7.276  1.00  0.00     0.031 C 
ATOM     39  C   UNL     1       0.620   8.785   1.926  1.00  0.00     0.029 A 
ATOM     40  C   UNL     1       1.266   9.313   3.125  1.00  0.00     0.049 A 
ATOM     41  H   UNL     1       1.575   8.331   4.934  1.00  0.00     0.167 HD
ATOM     42  C   UNL     1       2.135   6.059   8.688  1.00  0.00     0.037 A 
ATOM     43  C   UNL     1       1.790  10.545   3.268  1.00  0.00     0.037 A 
ATOM     44  C   UNL     1       2.745   7.340   8.920  1.00  0.00     0.049 A 
ATOM     45  C   UNL     1       2.437  10.913   4.577  1.00  0.00     0.074 A 
ATOM     46  C   UNL     1       3.387   7.802  10.054  1.00  0.00     0.029 A 
ATOM     47  N   UNL     1       2.789   8.367   7.986  1.00  0.00    -0.354 N 
ATOM     48  N   UNL     1       2.589  10.189   5.659  1.00  0.00    -0.248 NA
ATOM     49  C   UNL     1       2.990  12.270   4.681  1.00  0.00     0.031 C 
ATOM     50  C   UNL     1       3.791   9.121   9.818  1.00  0.00     0.029 A 
ATOM     51  C   UNL     1       3.439   9.465   8.521  1.00  0.00     0.049 A 
ATOM     52  H   UNL     1       2.413   8.320   7.077  1.00  0.00     0.167 HD
ATOM     53  C   UNL     1       3.283  10.985   6.560  1.00  0.00     0.074 A 
ATOM     54  C   UNL     1       3.528  12.248   5.892  1.00  0.00     0.031 C 
ATOM     55  C   UNL     1       3.684  10.701   7.824  1.00  0.00     0.037 A 
BRANCH  42  56
ATOM     56  C   UNL     1       2.127   5.049   9.796  1.00  0.00     0.064 A 
ATOM     57  C   UNL     1       2.915   3.889   9.747  1.00  0.00     0.173 A 
ATOM     58  C   UNL     1       1.314   5.242  10.923  1.00  0.00     0.173 A 
ATOM     59  F   UNL     1       3.694   3.647   8.681  1.00  0.00    -0.203 F 
ATOM     60  C   UNL     1       2.868   2.947  10.772  1.00  0.00     0.198 A 
ATOM     61  C   UNL     1       1.290   4.312  11.958  1.00  0.00     0.198 A 
ATOM     62  F   UNL     1       0.539   6.333  11.018  1.00  0.00    -0.203 F 
ATOM     63  F   UNL     1       3.591   1.822  10.681  1.00  0.00    -0.200 F 
ATOM     64  C   UNL     1       2.060   3.162  11.879  1.00  0.00     0.200 A 
ATOM     65  F   UNL     1       0.514   4.525  13.030  1.00  0.00    -0.200 F 
ATOM     66  F   UNL     1       2.016   2.255  12.864  1.00  0.00    -0.200 F 
ENDBRANCH  42  56
BRANCH  43  67
ATOM     67  C   UNL     1       1.738  11.507   2.138  1.00  0.00     0.064 A 
ATOM     68  C   UNL     1       2.902  11.881   1.454  1.00  0.00     0.173 A 
ATOM     69  C   UNL     1       0.524  12.074   1.720  1.00  0.00     0.173 A 
ATOM     70  F   UNL     1       4.089  11.384   1.832  1.00  0.00    -0.203 F 
ATOM     71  C   UNL     1       2.858  12.796   0.404  1.00  0.00     0.198 A 
ATOM     72  C   UNL     1       0.478  12.969   0.653  1.00  0.00     0.198 A 
ATOM     73  F   UNL     1      -0.618  11.751   2.344  1.00  0.00    -0.203 F 
ATOM     74  F   UNL     1       3.991  13.166  -0.207  1.00  0.00    -0.200 F 
ATOM     75  C   UNL     1       1.645  13.334   0.000  1.00  0.00     0.200 A 
ATOM     76  F   UNL     1      -0.697  13.480   0.261  1.00  0.00    -0.200 F 
ATOM     77  F   UNL     1       1.603  14.211  -1.012  1.00  0.00    -0.200 F 
ENDBRANCH  43  67
BRANCH  55  78
ATOM     78  C   UNL     1       4.474  11.755   8.541  1.00  0.00     0.064 A 
ATOM     79  C   UNL     1       3.870  12.919   9.037  1.00  0.00     0.173 A 
ATOM     80  C   UNL     1       5.848  11.577   8.762  1.00  0.00     0.173 A 
ATOM     81  F   UNL     1       2.562  13.138   8.838  1.00  0.00    -0.203 F 
ATOM     82  C   UNL     1       4.621  13.882   9.703  1.00  0.00     0.198 A 
ATOM     83  C   UNL     1       6.590  12.530   9.453  1.00  0.00     0.198 A 
ATOM     84  F   UNL     1       6.468  10.475   8.314  1.00  0.00    -0.203 F 
ATOM     85  F   UNL     1       4.035  15.011  10.127  1.00  0.00    -0.200 F 
ATOM     86  C   UNL     1       5.978  13.685   9.915  1.00  0.00     0.200 A 
ATOM     87  F   UNL     1       7.898  12.332   9.667  1.00  0.00    -0.200 F 
ATOM     88  F   UNL     1       6.699  14.613  10.559  1.00  0.00    -0.200 F 
ENDBRANCH  55  78
ENDBRANCH  29  30
ENDBRANCH  22  24
ENDBRANCH  21  22
ENDBRANCH  20  21
ENDBRANCH   1  20
TORSDOF 16
