REMARK SMILES Cc1cc(C)c2c(C(=O)OCCOC(=O)c3ccc(-c4c5nc(c(-c6c(F)c(F)c(F)c(F)c6F)c6ccc([nH]6)c(-c6c(F)c(F)c(F)c(F)c6F)c6nc(c(-c7c(F)c(F)c(F)c(F)c7F)c7ccc4[nH]7)C=C6)C=C5)cc3)cc(-c3ccco3)nc2c1
REMARK SMILES IDX 12 1 11 2 10 3 8 4 9 5 7 6 1 7 2 8 3 9 88 10 4 11 87 12 5 13
REMARK SMILES IDX 6 14 86 15 80 16 79 17 81 18 82 19 85 20 83 21 84 22 13 23
REMARK SMILES IDX 14 24 15 25 16 26 17 27 78 28 18 29 77 30 19 31 20 32 21 33
REMARK SMILES IDX 71 34 22 35 76 36 70 37 72 38 23 39 75 40 69 41 68 42 24 44
REMARK SMILES IDX 56 45 36 46 55 47 37 48 40 49 54 50 73 51 38 52 39 53 53 55
REMARK SMILES IDX 74 56 41 57 25 58 26 59 34 60 27 61 28 62 32 63 35 64 29 65
REMARK SMILES IDX 30 66 33 67 31 68 57 69 58 70 66 71 59 72 60 73 64 74 67 75
REMARK SMILES IDX 61 76 62 77 65 78 63 79 42 80 43 81 51 82 44 83 45 84 49 85
REMARK SMILES IDX 52 86 46 87 47 88 50 89 48 90
REMARK H PARENT 72 43 40 54
REMARK Flexibility Score: inf
ROOT
ATOM      1  C   UNL     1      -1.390  -2.908  -7.766  1.00  0.00     0.275 C 
ENDROOT
BRANCH   1   2
ATOM      2  C   UNL     1      -2.200  -2.778  -6.479  1.00  0.00     0.275 C 
BRANCH   2   3
ATOM      3  O   UNL     1      -1.332  -3.004  -5.348  1.00  0.00    -0.458 OA
BRANCH   3   4
ATOM      4  C   UNL     1      -1.882  -3.640  -4.288  1.00  0.00     0.339 C 
ATOM      5  O   UNL     1      -2.983  -4.150  -4.234  1.00  0.00    -0.246 OA
BRANCH   4   6
ATOM      6  C   UNL     1      -0.876  -3.779  -3.217  1.00  0.00     0.072 A 
ATOM      7  C   UNL     1       1.279   0.154   0.388  1.00  0.00     0.044 C 
ATOM      8  C   UNL     1       0.748  -0.805  -0.633  1.00  0.00    -0.049 A 
ATOM      9  C   UNL     1      -0.062  -0.371  -1.674  1.00  0.00     0.007 A 
ATOM     10  C   UNL     1       1.051  -2.164  -0.546  1.00  0.00     0.032 A 
ATOM     11  C   UNL     1      -0.616  -1.282  -2.590  1.00  0.00    -0.041 A 
ATOM     12  C   UNL     1       0.540  -3.101  -1.429  1.00  0.00     0.072 A 
ATOM     13  C   UNL     1      -1.441  -0.673  -3.693  1.00  0.00     0.045 C 
ATOM     14  C   UNL     1      -0.345  -2.693  -2.461  1.00  0.00     0.018 A 
ATOM     15  N   UNL     1       0.930  -4.369  -1.214  1.00  0.00    -0.244 NA
ATOM     16  C   UNL     1       0.406  -5.348  -1.967  1.00  0.00     0.107 A 
ATOM     17  C   UNL     1      -0.533  -5.106  -2.938  1.00  0.00     0.048 A 
BRANCH  16  18
ATOM     18  C   UNL     1       0.939  -6.682  -1.766  1.00  0.00     0.152 A 
ATOM     19  C   UNL     1       1.748  -7.504  -2.527  1.00  0.00     0.052 A 
ATOM     20  O   UNL     1       0.549  -7.336  -0.634  1.00  0.00    -0.463 OA
ATOM     21  C   UNL     1       1.864  -8.724  -1.818  1.00  0.00     0.043 A 
ATOM     22  C   UNL     1       1.118  -8.570  -0.673  1.00  0.00     0.196 A 
ENDBRANCH  16  18
ENDBRANCH   4   6
ENDBRANCH   3   4
ENDBRANCH   2   3
ENDBRANCH   1   2
BRANCH   1  23
ATOM     23  O   UNL     1      -1.064  -4.295  -7.949  1.00  0.00    -0.458 OA
BRANCH  23  24
ATOM     24  C   UNL     1       0.149  -4.662  -7.485  1.00  0.00     0.338 C 
ATOM     25  O   UNL     1       1.075  -3.953  -7.130  1.00  0.00    -0.246 OA
BRANCH  24  26
ATOM     26  C   UNL     1       0.145  -6.116  -7.319  1.00  0.00     0.060 A 
ATOM     27  C   UNL     1      -0.505  -6.647  -6.206  1.00  0.00     0.016 A 
ATOM     28  C   UNL     1       0.865  -6.933  -8.184  1.00  0.00     0.016 A 
ATOM     29  C   UNL     1      -0.349  -7.991  -5.885  1.00  0.00     0.010 A 
ATOM     30  C   UNL     1       0.941  -8.300  -7.913  1.00  0.00     0.010 A 
ATOM     31  C   UNL     1       0.374  -8.834  -6.739  1.00  0.00    -0.014 A 
BRANCH  31  32
ATOM     32  C   UNL     1       0.590 -10.262  -6.390  1.00  0.00     0.031 A 
ATOM     33  C   UNL     1       1.989 -10.769  -6.172  1.00  0.00     0.074 A 
ATOM     34  C   UNL     1      -0.456 -11.101  -6.270  1.00  0.00     0.049 A 
ATOM     35  N   UNL     1       2.415 -11.999  -6.040  1.00  0.00    -0.248 NA
ATOM     36  C   UNL     1       3.054  -9.755  -6.102  1.00  0.00     0.031 C 
ATOM     37  C   UNL     1      -1.864 -10.723  -6.391  1.00  0.00     0.029 A 
ATOM     38  N   UNL     1      -0.496 -12.451  -6.019  1.00  0.00    -0.354 N 
ATOM     39  C   UNL     1       3.795 -11.910  -5.914  1.00  0.00     0.074 A 
ATOM     40  C   UNL     1       4.140 -10.508  -6.000  1.00  0.00     0.031 C 
ATOM     41  C   UNL     1      -2.630 -11.806  -6.191  1.00  0.00     0.029 A 
ATOM     42  C   UNL     1      -1.768 -12.969  -6.008  1.00  0.00     0.049 A 
ATOM     43  H   UNL     1       0.310 -12.994  -5.861  1.00  0.00     0.167 HD
ATOM     44  C   UNL     1       4.689 -12.911  -5.737  1.00  0.00     0.037 A 
ATOM     45  C   UNL     1      -2.191 -14.244  -5.904  1.00  0.00     0.037 A 
ATOM     46  C   UNL     1       4.333 -14.300  -5.618  1.00  0.00     0.049 A 
ATOM     47  C   UNL     1      -1.174 -15.345  -5.781  1.00  0.00     0.074 A 
ATOM     48  C   UNL     1       5.164 -15.391  -5.433  1.00  0.00     0.029 A 
ATOM     49  N   UNL     1       3.035 -14.789  -5.660  1.00  0.00    -0.354 N 
ATOM     50  N   UNL     1       0.132 -15.258  -5.711  1.00  0.00    -0.248 NA
ATOM     51  C   UNL     1      -1.688 -16.721  -5.741  1.00  0.00     0.031 C 
ATOM     52  C   UNL     1       4.373 -16.543  -5.405  1.00  0.00     0.029 A 
ATOM     53  C   UNL     1       3.045 -16.167  -5.521  1.00  0.00     0.049 A 
ATOM     54  H   UNL     1       2.227 -14.238  -5.773  1.00  0.00     0.167 HD
ATOM     55  C   UNL     1       0.596 -16.561  -5.600  1.00  0.00     0.074 A 
ATOM     56  C   UNL     1      -0.570 -17.421  -5.598  1.00  0.00     0.031 C 
ATOM     57  C   UNL     1       1.873 -17.005  -5.512  1.00  0.00     0.037 A 
BRANCH  44  58
ATOM     58  C   UNL     1       6.145 -12.549  -5.678  1.00  0.00     0.064 A 
ATOM     59  C   UNL     1       6.698 -11.895  -4.568  1.00  0.00     0.173 A 
ATOM     60  C   UNL     1       7.010 -12.917  -6.721  1.00  0.00     0.173 A 
ATOM     61  F   UNL     1       5.911 -11.509  -3.552  1.00  0.00    -0.203 F 
ATOM     62  C   UNL     1       8.060 -11.609  -4.510  1.00  0.00     0.198 A 
ATOM     63  C   UNL     1       8.375 -12.655  -6.647  1.00  0.00     0.198 A 
ATOM     64  F   UNL     1       6.533 -13.549  -7.804  1.00  0.00    -0.203 F 
ATOM     65  F   UNL     1       8.560 -10.952  -3.455  1.00  0.00    -0.200 F 
ATOM     66  C   UNL     1       8.898 -11.998  -5.544  1.00  0.00     0.200 A 
ATOM     67  F   UNL     1       9.185 -13.043  -7.642  1.00  0.00    -0.200 F 
ATOM     68  F   UNL     1      10.211 -11.736  -5.479  1.00  0.00    -0.200 F 
ENDBRANCH  44  58
BRANCH  45  69
ATOM     69  C   UNL     1      -3.647 -14.541  -5.931  1.00  0.00     0.064 A 
ATOM     70  C   UNL     1      -4.305 -15.005  -4.784  1.00  0.00     0.173 A 
ATOM     71  C   UNL     1      -4.415 -14.343  -7.088  1.00  0.00     0.173 A 
ATOM     72  F   UNL     1      -3.610 -15.234  -3.660  1.00  0.00    -0.203 F 
ATOM     73  C   UNL     1      -5.675 -15.261  -4.794  1.00  0.00     0.198 A 
ATOM     74  C   UNL     1      -5.789 -14.571  -7.089  1.00  0.00     0.198 A 
ATOM     75  F   UNL     1      -3.833 -13.902  -8.213  1.00  0.00    -0.203 F 
ATOM     76  F   UNL     1      -6.274 -15.734  -3.693  1.00  0.00    -0.200 F 
ATOM     77  C   UNL     1      -6.418 -15.033  -5.943  1.00  0.00     0.200 A 
ATOM     78  F   UNL     1      -6.505 -14.335  -8.197  1.00  0.00    -0.200 F 
ATOM     79  F   UNL     1      -7.737 -15.264  -5.947  1.00  0.00    -0.200 F 
ENDBRANCH  45  69
BRANCH  57  80
ATOM     80  C   UNL     1       2.086 -18.484  -5.379  1.00  0.00     0.064 A 
ATOM     81  C   UNL     1       1.914 -19.350  -6.468  1.00  0.00     0.173 A 
ATOM     82  C   UNL     1       2.544 -19.028  -4.169  1.00  0.00     0.173 A 
ATOM     83  F   UNL     1       1.464 -18.878  -7.641  1.00  0.00    -0.203 F 
ATOM     84  C   UNL     1       2.183 -20.710  -6.348  1.00  0.00     0.198 A 
ATOM     85  C   UNL     1       2.839 -20.384  -4.061  1.00  0.00     0.198 A 
ATOM     86  F   UNL     1       2.732 -18.239  -3.101  1.00  0.00    -0.203 F 
ATOM     87  F   UNL     1       1.982 -21.526  -7.392  1.00  0.00    -0.200 F 
ATOM     88  C   UNL     1       2.655 -21.224  -5.149  1.00  0.00     0.200 A 
ATOM     89  F   UNL     1       3.310 -20.876  -2.906  1.00  0.00    -0.200 F 
ATOM     90  F   UNL     1       2.931 -22.531  -5.041  1.00  0.00    -0.200 F 
ENDBRANCH  57  80
ENDBRANCH  31  32
ENDBRANCH  24  26
ENDBRANCH  23  24
ENDBRANCH   1  23
TORSDOF 12
