REMARK SMILES Cc1ccc(Br)cc1C(=O)N1CCO[C@H](CC(=O)OCCOC(=O)c2ccc(-c3c4nc(c(-c5c(F)c(F)c(F)c(F)c5F)c5ccc([nH]5)c(-c5c(F)c(F)c(F)c(F)c5F)c5nc(c(-c6c(F)c(F)c(F)c(F)c6F)c6ccc3[nH]6)C=C5)C=C4)cc2)C1
REMARK SMILES IDX 20 1 19 2 17 3 18 4 16 5 15 6 11 7 12 8 88 9 13 10 14 11
REMARK SMILES IDX 9 12 10 13 8 14 1 15 2 16 3 17 4 18 7 19 5 20 6 21 21 22
REMARK SMILES IDX 22 23 23 24 24 25 25 26 26 27 87 28 27 29 86 30 28 31 29 32
REMARK SMILES IDX 30 33 80 34 31 35 85 36 79 37 81 38 32 39 84 40 78 41 77 42
REMARK SMILES IDX 33 44 65 45 45 46 64 47 46 48 49 49 63 50 82 51 47 52 48 53
REMARK SMILES IDX 62 55 83 56 50 57 34 58 35 59 43 60 36 61 37 62 41 63 44 64
REMARK SMILES IDX 38 65 39 66 42 67 40 68 66 69 67 70 75 71 68 72 69 73 73 74
REMARK SMILES IDX 76 75 70 76 71 77 74 78 72 79 51 80 52 81 60 82 53 83 54 84
REMARK SMILES IDX 58 85 61 86 55 87 56 88 59 89 57 90
REMARK H PARENT 81 43 49 54
REMARK Flexibility Score: inf
ROOT
ATOM      1  C   UNL     1       7.829  -0.343   4.882  1.00  0.00     0.274 C 
ENDROOT
BRANCH   1   2
ATOM      2  O   UNL     1       7.588   0.160   3.553  1.00  0.00    -0.462 OA
BRANCH   2   3
ATOM      3  C   UNL     1       6.293   0.140   3.155  1.00  0.00     0.308 C 
ATOM      4  O   UNL     1       5.347  -0.195   3.862  1.00  0.00    -0.252 OA
BRANCH   3   5
ATOM      5  C   UNL     1       6.132   0.432   1.692  1.00  0.00     0.156 C 
BRANCH   5   6
ATOM      6  C   UNL     1       6.480   1.850   1.214  1.00  0.00     0.148 C 
ATOM      7  N   UNL     1       4.393   2.082  -0.046  1.00  0.00    -0.334 N 
ATOM      8  C   UNL     1       5.073   1.922  -1.329  1.00  0.00     0.148 C 
ATOM      9  C   UNL     1       5.237   2.721   0.965  1.00  0.00     0.152 C 
ATOM     10  C   UNL     1       6.491   1.326  -1.160  1.00  0.00     0.182 C 
ATOM     11  O   UNL     1       7.232   1.820  -0.027  1.00  0.00    -0.374 OA
BRANCH   7  12
ATOM     12  C   UNL     1       3.021   2.100   0.156  1.00  0.00     0.254 C 
ATOM     13  O   UNL     1       2.526   3.003   0.840  1.00  0.00    -0.269 OA
BRANCH  12  14
ATOM     14  C   UNL     1       2.096   0.983  -0.269  1.00  0.00     0.044 A 
ATOM     15  C   UNL     1       3.748  -1.031  -0.474  1.00  0.00     0.045 C 
ATOM     16  C   UNL     1       2.398  -0.388  -0.439  1.00  0.00    -0.038 A 
ATOM     17  C   UNL     1       1.337  -1.322  -0.537  1.00  0.00     0.005 A 
ATOM     18  C   UNL     1       0.004  -0.933  -0.471  1.00  0.00     0.016 A 
ATOM     19  C   UNL     1       0.729   1.356  -0.250  1.00  0.00     0.029 A 
ATOM     20  C   UNL     1      -0.295   0.412  -0.339  1.00  0.00     0.018 A 
ATOM     21  Br  UNL     1      -2.101   0.955  -0.211  1.00  0.00    -0.051 Br
ENDBRANCH  12  14
ENDBRANCH   7  12
ENDBRANCH   5   6
ENDBRANCH   3   5
ENDBRANCH   2   3
ENDBRANCH   1   2
BRANCH   1  22
ATOM     22  C   UNL     1       7.860   0.762   5.942  1.00  0.00     0.275 C 
BRANCH  22  23
ATOM     23  O   UNL     1       6.558   1.320   6.206  1.00  0.00    -0.458 OA
BRANCH  23  24
ATOM     24  C   UNL     1       6.220   2.365   5.416  1.00  0.00     0.338 C 
ATOM     25  O   UNL     1       6.897   2.876   4.539  1.00  0.00    -0.246 OA
BRANCH  24  26
ATOM     26  C   UNL     1       4.827   2.768   5.656  1.00  0.00     0.060 A 
ATOM     27  C   UNL     1       3.936   2.665   4.588  1.00  0.00     0.016 A 
ATOM     28  C   UNL     1       4.429   3.366   6.850  1.00  0.00     0.016 A 
ATOM     29  C   UNL     1       2.667   3.224   4.667  1.00  0.00     0.010 A 
ATOM     30  C   UNL     1       3.133   3.888   6.950  1.00  0.00     0.010 A 
ATOM     31  C   UNL     1       2.256   3.845   5.850  1.00  0.00    -0.014 A 
BRANCH  31  32
ATOM     32  C   UNL     1       0.909   4.459   5.920  1.00  0.00     0.031 A 
ATOM     33  C   UNL     1       0.759   5.952   5.945  1.00  0.00     0.074 A 
ATOM     34  C   UNL     1      -0.179   3.668   5.941  1.00  0.00     0.049 A 
ATOM     35  N   UNL     1      -0.325   6.673   6.086  1.00  0.00    -0.248 NA
ATOM     36  C   UNL     1       1.992   6.741   5.798  1.00  0.00     0.031 C 
ATOM     37  C   UNL     1      -0.160   2.207   5.883  1.00  0.00     0.029 A 
ATOM     38  N   UNL     1      -1.512   3.984   6.022  1.00  0.00    -0.354 N 
ATOM     39  C   UNL     1       0.096   7.996   6.068  1.00  0.00     0.074 A 
ATOM     40  C   UNL     1       1.536   7.980   5.918  1.00  0.00     0.031 C 
ATOM     41  C   UNL     1      -1.421   1.751   5.931  1.00  0.00     0.029 A 
ATOM     42  C   UNL     1      -2.331   2.885   6.067  1.00  0.00     0.049 A 
ATOM     43  H   UNL     1      -1.847   4.909   6.045  1.00  0.00     0.167 HD
ATOM     44  C   UNL     1      -0.656   9.119   6.165  1.00  0.00     0.037 A 
ATOM     45  C   UNL     1      -3.665   2.800   6.228  1.00  0.00     0.037 A 
ATOM     46  C   UNL     1      -2.091   9.130   6.281  1.00  0.00     0.049 A 
ATOM     47  C   UNL     1      -4.470   4.062   6.365  1.00  0.00     0.074 A 
ATOM     48  C   UNL     1      -2.944  10.218   6.348  1.00  0.00     0.029 A 
ATOM     49  N   UNL     1      -2.886   7.995   6.343  1.00  0.00    -0.354 N 
ATOM     50  N   UNL     1      -4.065   5.308   6.348  1.00  0.00    -0.248 NA
ATOM     51  C   UNL     1      -5.919   3.904   6.549  1.00  0.00     0.031 C 
ATOM     52  C   UNL     1      -4.252   9.742   6.492  1.00  0.00     0.029 A 
ATOM     53  C   UNL     1      -4.218   8.357   6.473  1.00  0.00     0.049 A 
ATOM     54  H   UNL     1      -2.554   7.069   6.301  1.00  0.00     0.167 HD
ATOM     55  C   UNL     1      -5.205   6.082   6.504  1.00  0.00     0.074 A 
ATOM     56  C   UNL     1      -6.323   5.165   6.595  1.00  0.00     0.031 C 
ATOM     57  C   UNL     1      -5.317   7.431   6.569  1.00  0.00     0.037 A 
BRANCH  44  58
ATOM     58  C   UNL     1       0.061  10.435   6.176  1.00  0.00     0.064 A 
ATOM     59  C   UNL     1       0.620  10.983   5.012  1.00  0.00     0.173 A 
ATOM     60  C   UNL     1       0.147  11.181   7.361  1.00  0.00     0.173 A 
ATOM     61  F   UNL     1       0.574  10.304   3.857  1.00  0.00    -0.203 F 
ATOM     62  C   UNL     1       1.255  12.223   5.040  1.00  0.00     0.198 A 
ATOM     63  C   UNL     1       0.762  12.430   7.380  1.00  0.00     0.198 A 
ATOM     64  F   UNL     1      -0.377  10.703   8.500  1.00  0.00    -0.203 F 
ATOM     65  F   UNL     1       1.813  12.713   3.924  1.00  0.00    -0.200 F 
ATOM     66  C   UNL     1       1.320  12.947   6.221  1.00  0.00     0.200 A 
ATOM     67  F   UNL     1       0.814  13.133   8.519  1.00  0.00    -0.200 F 
ATOM     68  F   UNL     1       1.923  14.144   6.243  1.00  0.00    -0.200 F 
ENDBRANCH  44  58
BRANCH  45  69
ATOM     69  C   UNL     1      -4.314   1.467   6.292  1.00  0.00     0.064 A 
ATOM     70  C   UNL     1      -5.138   1.013   5.254  1.00  0.00     0.173 A 
ATOM     71  C   UNL     1      -4.121   0.621   7.394  1.00  0.00     0.173 A 
ATOM     72  F   UNL     1      -5.373   1.799   4.194  1.00  0.00    -0.203 F 
ATOM     73  C   UNL     1      -5.755  -0.234   5.322  1.00  0.00     0.198 A 
ATOM     74  C   UNL     1      -4.717  -0.636   7.448  1.00  0.00     0.198 A 
ATOM     75  F   UNL     1      -3.342   1.012   8.414  1.00  0.00    -0.203 F 
ATOM     76  F   UNL     1      -6.571  -0.629   4.336  1.00  0.00    -0.200 F 
ATOM     77  C   UNL     1      -5.538  -1.060   6.415  1.00  0.00     0.200 A 
ATOM     78  F   UNL     1      -4.497  -1.435   8.501  1.00  0.00    -0.200 F 
ATOM     79  F   UNL     1      -6.129  -2.261   6.477  1.00  0.00    -0.200 F 
ENDBRANCH  45  69
BRANCH  57  80
ATOM     80  C   UNL     1      -6.697   7.993   6.736  1.00  0.00     0.064 A 
ATOM     81  C   UNL     1      -7.375   7.914   7.961  1.00  0.00     0.173 A 
ATOM     82  C   UNL     1      -7.337   8.639   5.668  1.00  0.00     0.173 A 
ATOM     83  F   UNL     1      -6.810   7.291   9.006  1.00  0.00    -0.203 F 
ATOM     84  C   UNL     1      -8.655   8.441   8.104  1.00  0.00     0.198 A 
ATOM     85  C   UNL     1      -8.608   9.186   5.821  1.00  0.00     0.198 A 
ATOM     86  F   UNL     1      -6.728   8.744   4.477  1.00  0.00    -0.203 F 
ATOM     87  F   UNL     1      -9.303   8.315   9.270  1.00  0.00    -0.200 F 
ATOM     88  C   UNL     1      -9.268   9.081   7.036  1.00  0.00     0.200 A 
ATOM     89  F   UNL     1      -9.195   9.812   4.792  1.00  0.00    -0.200 F 
ATOM     90  F   UNL     1     -10.500   9.588   7.176  1.00  0.00    -0.200 F 
ENDBRANCH  57  80
ENDBRANCH  31  32
ENDBRANCH  24  26
ENDBRANCH  23  24
ENDBRANCH  22  23
ENDBRANCH   1  22
TORSDOF 14
