REMARK SMILES CC[C@@H](C)NC(=O)c1cccc(NC(=O)[C@H]2CCCC[C@@H]2C(=O)OCCOC(=O)c2ccc(-c3c4nc(c(-c5c(F)c(F)c(F)c(F)c5F)c5ccc([nH]5)c(-c5c(F)c(F)c(F)c(F)c5F)c5nc(c(-c6c(F)c(F)c(F)c(F)c6F)c6ccc3[nH]6)C=C5)C=C4)cc2)c1
REMARK SMILES IDX 24 1 22 2 23 3 21 4 16 5 17 6 18 7 20 8 19 9 14 10 13 11
REMARK SMILES IDX 15 13 12 14 8 15 9 16 93 17 10 18 11 19 6 20 5 21 7 23 3 24
REMARK SMILES IDX 4 25 2 26 1 27 25 28 26 29 27 30 28 31 29 32 30 33 31 34
REMARK SMILES IDX 92 35 32 36 91 37 33 38 34 39 35 40 85 41 36 42 90 43 84 44
REMARK SMILES IDX 86 45 37 46 89 47 83 48 82 49 38 51 70 52 50 53 69 54 51 55
REMARK SMILES IDX 54 56 68 57 87 58 52 59 53 60 67 62 88 63 55 64 39 65 40 66
REMARK SMILES IDX 48 67 41 68 42 69 46 70 49 71 43 72 44 73 47 74 45 75 71 76
REMARK SMILES IDX 72 77 80 78 73 79 74 80 78 81 81 82 75 83 76 84 79 85 77 86
REMARK SMILES IDX 56 87 57 88 65 89 58 90 59 91 63 92 66 93 60 94 61 95 64 96
REMARK SMILES IDX 62 97
REMARK H PARENT 13 12 5 22 86 50 54 61
REMARK Flexibility Score: inf
ROOT
ATOM      1  O   UNL     1      10.156  -1.532   1.745  1.00  0.00    -0.462 OA
ENDROOT
BRANCH   1   2
ATOM      2  C   UNL     1       9.357  -2.596   1.452  1.00  0.00     0.309 C 
ATOM      3  O   UNL     1       8.923  -3.371   2.295  1.00  0.00    -0.252 OA
BRANCH   2   4
ATOM      4  C   UNL     1       9.180  -2.785  -0.060  1.00  0.00     0.111 C 
ATOM      5  C   UNL     1       8.271  -3.996  -0.369  1.00  0.00     0.093 C 
ATOM      6  C   UNL     1       8.818  -5.322   0.147  1.00  0.00     0.014 C 
ATOM      7  C   UNL     1      10.331  -5.380   0.432  1.00  0.00     0.001 C 
ATOM      8  C   UNL     1      10.554  -3.015  -0.666  1.00  0.00     0.016 C 
ATOM      9  C   UNL     1      11.237  -4.235  -0.055  1.00  0.00     0.001 C 
BRANCH   5  10
ATOM     10  C   UNL     1       7.605  -3.970  -1.764  1.00  0.00     0.228 C 
ATOM     11  N   UNL     1       8.136  -4.288  -2.977  1.00  0.00    -0.326 N 
ATOM     12  H   UNL     1       7.516  -4.073  -3.711  1.00  0.00     0.169 HD
ATOM     13  O   UNL     1       6.459  -3.489  -1.827  1.00  0.00    -0.274 OA
BRANCH  11  14
ATOM     14  C   UNL     1       9.334  -4.841  -3.457  1.00  0.00     0.041 A 
ATOM     15  C   UNL     1      11.051  -4.790  -5.192  1.00  0.00     0.041 A 
ATOM     16  C   UNL     1      11.887  -5.556  -4.370  1.00  0.00     0.014 A 
ATOM     17  C   UNL     1       9.756  -4.480  -4.745  1.00  0.00     0.040 A 
ATOM     18  C   UNL     1      11.407  -6.066  -3.176  1.00  0.00     0.003 A 
ATOM     19  C   UNL     1      10.122  -5.732  -2.755  1.00  0.00     0.026 A 
BRANCH  15  20
ATOM     20  C   UNL     1      11.621  -4.421  -6.515  1.00  0.00     0.251 C 
ATOM     21  N   UNL     1      11.294  -3.282  -7.195  1.00  0.00    -0.350 N 
ATOM     22  H   UNL     1      11.789  -3.170  -8.039  1.00  0.00     0.164 HD
ATOM     23  O   UNL     1      12.468  -5.160  -7.019  1.00  0.00    -0.269 OA
BRANCH  21  24
ATOM     24  C   UNL     1      10.359  -2.200  -6.920  1.00  0.00     0.079 C 
ATOM     25  C   UNL     1       9.127  -2.395  -7.803  1.00  0.00     0.031 C 
BRANCH  24  26
ATOM     26  C   UNL     1      11.041  -0.845  -7.146  1.00  0.00     0.021 C 
ATOM     27  C   UNL     1      10.161   0.326  -6.734  1.00  0.00     0.006 C 
ENDBRANCH  24  26
ENDBRANCH  21  24
ENDBRANCH  15  20
ENDBRANCH  11  14
ENDBRANCH   5  10
ENDBRANCH   2   4
ENDBRANCH   1   2
BRANCH   1  28
ATOM     28  C   UNL     1      10.725  -1.552   3.071  1.00  0.00     0.274 C 
BRANCH  28  29
ATOM     29  C   UNL     1       9.923  -0.767   4.113  1.00  0.00     0.275 C 
BRANCH  29  30
ATOM     30  O   UNL     1       8.627  -1.341   4.355  1.00  0.00    -0.458 OA
BRANCH  30  31
ATOM     31  C   UNL     1       7.636  -0.840   3.579  1.00  0.00     0.338 C 
ATOM     32  O   UNL     1       7.710   0.090   2.795  1.00  0.00    -0.246 OA
BRANCH  31  33
ATOM     33  C   UNL     1       6.456  -1.716   3.661  1.00  0.00     0.060 A 
ATOM     34  C   UNL     1       6.066  -2.365   2.486  1.00  0.00     0.016 A 
ATOM     35  C   UNL     1       5.708  -1.856   4.829  1.00  0.00     0.016 A 
ATOM     36  C   UNL     1       4.954  -3.195   2.471  1.00  0.00     0.010 A 
ATOM     37  C   UNL     1       4.558  -2.654   4.805  1.00  0.00     0.010 A 
ATOM     38  C   UNL     1       4.177  -3.322   3.624  1.00  0.00    -0.014 A 
BRANCH  38  39
ATOM     39  C   UNL     1       2.877  -4.023   3.535  1.00  0.00     0.031 A 
ATOM     40  C   UNL     1       1.629  -3.202   3.420  1.00  0.00     0.074 A 
ATOM     41  C   UNL     1       2.817  -5.365   3.496  1.00  0.00     0.049 A 
ATOM     42  N   UNL     1       0.378  -3.575   3.480  1.00  0.00    -0.248 NA
ATOM     43  C   UNL     1       1.821  -1.758   3.211  1.00  0.00     0.031 C 
ATOM     44  C   UNL     1       3.970  -6.262   3.492  1.00  0.00     0.029 A 
ATOM     45  N   UNL     1       1.733  -6.205   3.457  1.00  0.00    -0.354 N 
ATOM     46  C   UNL     1      -0.365  -2.408   3.360  1.00  0.00     0.074 A 
ATOM     47  C   UNL     1       0.573  -1.316   3.219  1.00  0.00     0.031 C 
ATOM     48  C   UNL     1       3.532  -7.532   3.466  1.00  0.00     0.029 A 
ATOM     49  C   UNL     1       2.071  -7.534   3.513  1.00  0.00     0.049 A 
ATOM     50  H   UNL     1       0.804  -5.886   3.394  1.00  0.00     0.167 HD
ATOM     51  C   UNL     1      -1.711  -2.269   3.379  1.00  0.00     0.037 A 
ATOM     52  C   UNL     1       1.286  -8.622   3.637  1.00  0.00     0.037 A 
ATOM     53  C   UNL     1      -2.631  -3.370   3.487  1.00  0.00     0.049 A 
ATOM     54  C   UNL     1      -0.207  -8.438   3.718  1.00  0.00     0.074 A 
ATOM     55  C   UNL     1      -4.013  -3.344   3.514  1.00  0.00     0.029 A 
ATOM     56  N   UNL     1      -2.252  -4.703   3.580  1.00  0.00    -0.354 N 
ATOM     57  N   UNL     1      -0.911  -7.333   3.662  1.00  0.00    -0.248 NA
ATOM     58  C   UNL     1      -1.016  -9.653   3.893  1.00  0.00     0.031 C 
ATOM     59  C   UNL     1      -4.470  -4.657   3.669  1.00  0.00     0.029 A 
ATOM     60  C   UNL     1      -3.375  -5.507   3.686  1.00  0.00     0.049 A 
ATOM     61  H   UNL     1      -1.323  -5.028   3.572  1.00  0.00     0.167 HD
ATOM     62  C   UNL     1      -2.240  -7.716   3.778  1.00  0.00     0.074 A 
ATOM     63  C   UNL     1      -2.247  -9.160   3.890  1.00  0.00     0.031 C 
ATOM     64  C   UNL     1      -3.355  -6.944   3.793  1.00  0.00     0.037 A 
BRANCH  51  65
ATOM     65  C   UNL     1      -2.259  -0.873   3.347  1.00  0.00     0.064 A 
ATOM     66  C   UNL     1      -2.210  -0.075   2.195  1.00  0.00     0.173 A 
ATOM     67  C   UNL     1      -2.845  -0.326   4.500  1.00  0.00     0.173 A 
ATOM     68  F   UNL     1      -1.643  -0.543   1.073  1.00  0.00    -0.203 F 
ATOM     69  C   UNL     1      -2.700   1.229   2.207  1.00  0.00     0.198 A 
ATOM     70  C   UNL     1      -3.360   0.967   4.499  1.00  0.00     0.198 A 
ATOM     71  F   UNL     1      -2.916  -1.046   5.629  1.00  0.00    -0.203 F 
ATOM     72  F   UNL     1      -2.594   1.993   1.111  1.00  0.00    -0.200 F 
ATOM     73  C   UNL     1      -3.279   1.746   3.356  1.00  0.00     0.200 A 
ATOM     74  F   UNL     1      -3.927   1.461   5.608  1.00  0.00    -0.200 F 
ATOM     75  F   UNL     1      -3.750   3.001   3.365  1.00  0.00    -0.200 F 
ENDBRANCH  51  65
BRANCH  52  76
ATOM     76  C   UNL     1       1.901  -9.970   3.749  1.00  0.00     0.064 A 
ATOM     77  C   UNL     1       1.742 -10.930   2.740  1.00  0.00     0.173 A 
ATOM     78  C   UNL     1       2.660 -10.329   4.874  1.00  0.00     0.173 A 
ATOM     79  F   UNL     1       1.001 -10.647   1.659  1.00  0.00    -0.203 F 
ATOM     80  C   UNL     1       2.309 -12.197   2.856  1.00  0.00     0.198 A 
ATOM     81  C   UNL     1       3.252 -11.585   4.976  1.00  0.00     0.198 A 
ATOM     82  F   UNL     1       2.837  -9.451   5.873  1.00  0.00    -0.203 F 
ATOM     83  F   UNL     1       2.107 -13.110   1.897  1.00  0.00    -0.200 F 
ATOM     84  C   UNL     1       3.071 -12.521   3.970  1.00  0.00     0.200 A 
ATOM     85  F   UNL     1       3.996 -11.889   6.048  1.00  0.00    -0.200 F 
ATOM     86  F   UNL     1       3.623 -13.738   4.076  1.00  0.00    -0.200 F 
ENDBRANCH  52  76
BRANCH  64  87
ATOM     87  C   UNL     1      -4.676  -7.648   3.904  1.00  0.00     0.064 A 
ATOM     88  C   UNL     1      -5.099  -8.232   5.107  1.00  0.00     0.173 A 
ATOM     89  C   UNL     1      -5.547  -7.697   2.805  1.00  0.00     0.173 A 
ATOM     90  F   UNL     1      -4.295  -8.224   6.181  1.00  0.00    -0.203 F 
ATOM     91  C   UNL     1      -6.338  -8.860   5.198  1.00  0.00     0.198 A 
ATOM     92  C   UNL     1      -6.797  -8.300   2.909  1.00  0.00     0.198 A 
ATOM     93  F   UNL     1      -5.191  -7.146   1.635  1.00  0.00    -0.203 F 
ATOM     94  F   UNL     1      -6.705  -9.450   6.344  1.00  0.00    -0.200 F 
ATOM     95  C   UNL     1      -7.189  -8.886   4.103  1.00  0.00     0.200 A 
ATOM     96  F   UNL     1      -7.623  -8.312   1.854  1.00  0.00    -0.200 F 
ATOM     97  F   UNL     1      -8.385  -9.483   4.196  1.00  0.00    -0.200 F 
ENDBRANCH  64  87
ENDBRANCH  38  39
ENDBRANCH  31  33
ENDBRANCH  30  31
ENDBRANCH  29  30
ENDBRANCH  28  29
ENDBRANCH   1  28
TORSDOF 16
