REMARK SMILES CC(C)(C)OC(=O)N[C@H](Cc1ccc(N=[N+]=[N-])cc1)C(=O)OCCOC(=O)c1ccc(-c2c3nc(c(-c4c(F)c(F)c(F)c(F)c4F)c4ccc([nH]4)c(-c4c(F)c(F)c(F)c(F)c4F)c4nc(c(-c5c(F)c(F)c(F)c(F)c5F)c5ccc2[nH]5)C=C4)C=C3)cc1
REMARK SMILES IDX 23 1 22 2 20 3 21 4 9 5 8 6 6 7 7 8 5 10 2 11 1 12 3 13 4 14
REMARK SMILES IDX 10 15 11 16 12 17 19 18 13 19 18 20 14 21 15 22 16 23 17 24
REMARK SMILES IDX 24 25 25 26 26 27 27 28 28 29 29 30 90 31 30 32 89 33 31 34
REMARK SMILES IDX 32 35 33 36 83 37 34 38 88 39 82 40 84 41 35 42 87 43 81 44
REMARK SMILES IDX 80 45 36 47 68 48 48 49 67 50 49 51 52 52 66 53 85 54 50 55
REMARK SMILES IDX 51 56 65 58 86 59 53 60 37 61 38 62 46 63 39 64 40 65 44 66
REMARK SMILES IDX 47 67 41 68 42 69 45 70 43 71 69 72 70 73 78 74 71 75 72 76
REMARK SMILES IDX 76 77 79 78 73 79 74 80 77 81 75 82 54 83 55 84 63 85 56 86
REMARK SMILES IDX 57 87 61 88 64 89 58 90 59 91 62 92 60 93
REMARK H PARENT 8 9 84 46 52 57
REMARK Flexibility Score: inf
ROOT
ATOM      1  C   UNL     1       0.282  -6.463  -4.668  1.00  0.00     0.274 C 
ENDROOT
BRANCH   1   2
ATOM      2  O   UNL     1       0.717  -6.061  -3.351  1.00  0.00    -0.461 OA
BRANCH   2   3
ATOM      3  C   UNL     1       1.789  -5.234  -3.314  1.00  0.00     0.329 C 
ATOM      4  O   UNL     1       2.429  -4.890  -4.307  1.00  0.00    -0.250 OA
BRANCH   3   5
ATOM      5  C   UNL     1       2.192  -4.753  -1.912  1.00  0.00     0.199 C 
BRANCH   5   6
ATOM      6  N   UNL     1       3.550  -5.243  -1.674  1.00  0.00    -0.308 N 
ATOM      7  C   UNL     1       3.934  -6.421  -1.123  1.00  0.00     0.408 C 
ATOM      8  O   UNL     1       5.107  -6.760  -1.120  1.00  0.00    -0.225 OA
ATOM      9  H   UNL     1       4.279  -4.641  -1.951  1.00  0.00     0.168 HD
BRANCH   7  10
ATOM     10  O   UNL     1       2.906  -7.087  -0.561  1.00  0.00    -0.444 OA
BRANCH  10  11
ATOM     11  C   UNL     1       3.155  -8.179   0.355  1.00  0.00     0.106 C 
ATOM     12  C   UNL     1       1.773  -8.523   0.930  1.00  0.00     0.056 C 
ATOM     13  C   UNL     1       4.060  -7.738   1.514  1.00  0.00     0.056 C 
ATOM     14  C   UNL     1       3.709  -9.393  -0.389  1.00  0.00     0.056 C 
ENDBRANCH  10  11
ENDBRANCH   7  10
ENDBRANCH   5   6
BRANCH   5  15
ATOM     15  C   UNL     1       1.176  -4.896  -0.756  1.00  0.00     0.072 C 
BRANCH  15  16
ATOM     16  C   UNL     1       0.481  -3.616  -0.308  1.00  0.00    -0.045 A 
ATOM     17  C   UNL     1       1.183  -2.425  -0.090  1.00  0.00     0.004 A 
ATOM     18  C   UNL     1      -0.881  -3.643   0.019  1.00  0.00     0.004 A 
ATOM     19  C   UNL     1       0.526  -1.284   0.386  1.00  0.00     0.010 A 
ATOM     20  C   UNL     1      -1.532  -2.503   0.512  1.00  0.00     0.010 A 
ATOM     21  C   UNL     1      -0.838  -1.300   0.696  1.00  0.00     0.038 A 
BRANCH  21  22
ATOM     22  N   UNL     1      -1.391  -0.096   1.171  1.00  0.00    -0.061 NA
ATOM     23  N   UNL     1      -2.589  -0.129   1.510  1.00  0.00     0.005 N 
ATOM     24  N   UNL     1      -3.686  -0.135   1.812  1.00  0.00    -0.003 NA
ENDBRANCH  21  22
ENDBRANCH  15  16
ENDBRANCH   5  15
ENDBRANCH   3   5
ENDBRANCH   2   3
ENDBRANCH   1   2
BRANCH   1  25
ATOM     25  C   UNL     1      -0.962  -5.682  -5.097  1.00  0.00     0.275 C 
BRANCH  25  26
ATOM     26  O   UNL     1      -0.690  -4.269  -5.171  1.00  0.00    -0.458 OA
BRANCH  26  27
ATOM     27  C   UNL     1      -1.025  -3.576  -4.059  1.00  0.00     0.338 C 
ATOM     28  O   UNL     1      -1.544  -4.012  -3.046  1.00  0.00    -0.246 OA
BRANCH  27  29
ATOM     29  C   UNL     1      -0.595  -2.178  -4.185  1.00  0.00     0.060 A 
ATOM     30  C   UNL     1       0.658  -1.815  -3.695  1.00  0.00     0.016 A 
ATOM     31  C   UNL     1      -1.476  -1.206  -4.649  1.00  0.00     0.016 A 
ATOM     32  C   UNL     1       1.016  -0.477  -3.594  1.00  0.00     0.010 A 
ATOM     33  C   UNL     1      -1.087   0.137  -4.620  1.00  0.00     0.010 A 
ATOM     34  C   UNL     1       0.152   0.515  -4.069  1.00  0.00    -0.014 A 
BRANCH  34  35
ATOM     35  C   UNL     1       0.547   1.943  -3.978  1.00  0.00     0.031 A 
ATOM     36  C   UNL     1      -0.243   2.892  -3.124  1.00  0.00     0.074 A 
ATOM     37  C   UNL     1       1.619   2.384  -4.664  1.00  0.00     0.049 A 
ATOM     38  N   UNL     1      -0.145   4.194  -3.023  1.00  0.00    -0.248 NA
ATOM     39  C   UNL     1      -1.290   2.300  -2.277  1.00  0.00     0.031 C 
ATOM     40  C   UNL     1       2.494   1.551  -5.492  1.00  0.00     0.029 A 
ATOM     41  N   UNL     1       2.154   3.643  -4.780  1.00  0.00    -0.354 N 
ATOM     42  C   UNL     1      -1.138   4.581  -2.134  1.00  0.00     0.074 A 
ATOM     43  C   UNL     1      -1.842   3.378  -1.738  1.00  0.00     0.031 C 
ATOM     44  C   UNL     1       3.461   2.316  -6.019  1.00  0.00     0.029 A 
ATOM     45  C   UNL     1       3.232   3.703  -5.629  1.00  0.00     0.049 A 
ATOM     46  H   UNL     1       1.799   4.426  -4.301  1.00  0.00     0.167 HD
ATOM     47  C   UNL     1      -1.430   5.827  -1.687  1.00  0.00     0.037 A 
ATOM     48  C   UNL     1       3.932   4.761  -6.078  1.00  0.00     0.037 A 
ATOM     49  C   UNL     1      -0.703   7.012  -2.066  1.00  0.00     0.049 A 
ATOM     50  C   UNL     1       3.546   6.140  -5.617  1.00  0.00     0.074 A 
ATOM     51  C   UNL     1      -0.901   8.317  -1.647  1.00  0.00     0.029 A 
ATOM     52  N   UNL     1       0.364   7.037  -2.954  1.00  0.00    -0.354 N 
ATOM     53  N   UNL     1       2.603   6.499  -4.781  1.00  0.00    -0.248 NA
ATOM     54  C   UNL     1       4.319   7.261  -6.169  1.00  0.00     0.031 C 
ATOM     55  C   UNL     1       0.008   9.137  -2.324  1.00  0.00     0.029 A 
ATOM     56  C   UNL     1       0.815   8.338  -3.118  1.00  0.00     0.049 A 
ATOM     57  H   UNL     1       0.745   6.247  -3.401  1.00  0.00     0.167 HD
ATOM     58  C   UNL     1       2.681   7.882  -4.688  1.00  0.00     0.074 A 
ATOM     59  C   UNL     1       3.779   8.294  -5.538  1.00  0.00     0.031 C 
ATOM     60  C   UNL     1       1.911   8.733  -3.967  1.00  0.00     0.037 A 
BRANCH  47  61
ATOM     61  C   UNL     1      -2.606   5.979  -0.765  1.00  0.00     0.064 A 
ATOM     62  C   UNL     1      -2.588   5.497   0.552  1.00  0.00     0.173 A 
ATOM     63  C   UNL     1      -3.761   6.650  -1.199  1.00  0.00     0.173 A 
ATOM     64  F   UNL     1      -1.514   4.840   1.016  1.00  0.00    -0.203 F 
ATOM     65  C   UNL     1      -3.691   5.653   1.389  1.00  0.00     0.198 A 
ATOM     66  C   UNL     1      -4.849   6.833  -0.350  1.00  0.00     0.198 A 
ATOM     67  F   UNL     1      -3.831   7.139  -2.447  1.00  0.00    -0.203 F 
ATOM     68  F   UNL     1      -3.670   5.138   2.626  1.00  0.00    -0.200 F 
ATOM     69  C   UNL     1      -4.817   6.327   0.940  1.00  0.00     0.200 A 
ATOM     70  F   UNL     1      -5.929   7.500  -0.781  1.00  0.00    -0.200 F 
ATOM     71  F   UNL     1      -5.874   6.483   1.748  1.00  0.00    -0.200 F 
ENDBRANCH  47  61
BRANCH  48  72
ATOM     72  C   UNL     1       5.048   4.560  -7.039  1.00  0.00     0.064 A 
ATOM     73  C   UNL     1       6.374   4.823  -6.671  1.00  0.00     0.173 A 
ATOM     74  C   UNL     1       4.813   4.103  -8.346  1.00  0.00     0.173 A 
ATOM     75  F   UNL     1       6.648   5.284  -5.441  1.00  0.00    -0.203 F 
ATOM     76  C   UNL     1       7.420   4.656  -7.577  1.00  0.00     0.198 A 
ATOM     77  C   UNL     1       5.863   3.904  -9.240  1.00  0.00     0.198 A 
ATOM     78  F   UNL     1       3.563   3.835  -8.750  1.00  0.00    -0.203 F 
ATOM     79  F   UNL     1       8.673   4.963  -7.214  1.00  0.00    -0.200 F 
ATOM     80  C   UNL     1       7.164   4.189  -8.857  1.00  0.00     0.200 A 
ATOM     81  F   UNL     1       5.612   3.437 -10.470  1.00  0.00    -0.200 F 
ATOM     82  F   UNL     1       8.171   4.023  -9.726  1.00  0.00    -0.200 F 
ENDBRANCH  48  72
BRANCH  60  83
ATOM     83  C   UNL     1       2.253  10.194  -4.039  1.00  0.00     0.064 A 
ATOM     84  C   UNL     1       2.019  10.950  -5.197  1.00  0.00     0.173 A 
ATOM     85  C   UNL     1       2.792  10.853  -2.923  1.00  0.00     0.173 A 
ATOM     86  F   UNL     1       1.522  10.364  -6.297  1.00  0.00    -0.203 F 
ATOM     87  C   UNL     1       2.339  12.305  -5.245  1.00  0.00     0.198 A 
ATOM     88  C   UNL     1       3.079  12.214  -2.963  1.00  0.00     0.198 A 
ATOM     89  F   UNL     1       3.031  10.177  -1.789  1.00  0.00    -0.203 F 
ATOM     90  F   UNL     1       2.158  12.994  -6.379  1.00  0.00    -0.200 F 
ATOM     91  C   UNL     1       2.861  12.937  -4.126  1.00  0.00     0.200 A 
ATOM     92  F   UNL     1       3.569  12.826  -1.876  1.00  0.00    -0.200 F 
ATOM     93  F   UNL     1       3.161  14.242  -4.171  1.00  0.00    -0.200 F 
ENDBRANCH  60  83
ENDBRANCH  34  35
ENDBRANCH  27  29
ENDBRANCH  26  27
ENDBRANCH  25  26
ENDBRANCH   1  25
TORSDOF 17
