REMARK SMILES CC(C)CSc1cc2c(cc1Cl)C=C(C(=O)OCCOC(=O)c1ccc(-c3c4nc(c(-c5c(F)c(F)c(F)c(F)c5F)c5ccc([nH]5)c(-c5c(F)c(F)c(F)c(F)c5F)c5nc(c(-c6c(F)c(F)c(F)c(F)c6F)c6ccc3[nH]6)C=C5)C=C4)cc1)[C@@H](C(F)(F)F)O2
REMARK SMILES IDX 18 1 17 2 15 3 16 4 14 5 6 6 7 7 11 8 8 9 10 10 12 11 9 12
REMARK SMILES IDX 91 13 13 14 86 15 5 16 4 17 2 18 1 19 3 20 87 21 88 22 89 23
REMARK SMILES IDX 90 24 19 25 20 26 21 27 22 28 23 29 24 30 85 31 25 32 84 33
REMARK SMILES IDX 26 34 27 35 28 36 78 37 29 38 83 39 77 40 79 41 30 42 82 43
REMARK SMILES IDX 76 44 75 45 31 47 63 48 43 49 62 50 44 51 47 52 61 53 80 54
REMARK SMILES IDX 45 55 46 56 60 58 81 59 48 60 32 61 33 62 41 63 34 64 35 65
REMARK SMILES IDX 39 66 42 67 36 68 37 69 40 70 38 71 64 72 65 73 73 74 66 75
REMARK SMILES IDX 67 76 71 77 74 78 68 79 69 80 72 81 70 82 49 83 50 84 58 85
REMARK SMILES IDX 51 86 52 87 56 88 59 89 53 90 54 91 57 92 55 93
REMARK H PARENT 79 46 47 57
REMARK Flexibility Score: inf
ROOT
ATOM      1  C   UNL     1       1.578  -0.268   9.704  1.00  0.00     0.275 C 
ENDROOT
BRANCH   1   2
ATOM      2  O   UNL     1       1.093   0.317   8.475  1.00  0.00    -0.459 OA
BRANCH   2   3
ATOM      3  C   UNL     1       1.455  -0.324   7.339  1.00  0.00     0.338 C 
ATOM      4  O   UNL     1       2.147  -1.323   7.253  1.00  0.00    -0.246 OA
BRANCH   3   5
ATOM      5  C   UNL     1       0.839   0.325   6.166  1.00  0.00     0.087 C 
ATOM      6  C   UNL     1      -1.208   1.146   1.642  1.00  0.00     0.030 A 
ATOM      7  C   UNL     1      -0.537   1.955   2.583  1.00  0.00     0.063 A 
ATOM      8  C   UNL     1      -1.548  -0.165   2.010  1.00  0.00     0.055 A 
ATOM      9  C   UNL     1      -0.122   1.443   3.813  1.00  0.00     0.129 A 
ATOM     10  C   UNL     1      -1.106  -0.685   3.228  1.00  0.00     0.033 A 
ATOM     11  Cl  UNL     1      -2.546  -1.203   1.054  1.00  0.00    -0.083 Cl
ATOM     12  C   UNL     1      -0.372   0.111   4.111  1.00  0.00     0.019 A 
ATOM     13  O   UNL     1       0.529   2.297   4.657  1.00  0.00    -0.475 OA
ATOM     14  C   UNL     1       0.160  -0.461   5.326  1.00  0.00     0.027 C 
ATOM     15  C   UNL     1       1.080   1.786   5.910  1.00  0.00     0.316 C 
BRANCH   6  16
ATOM     16  S   UNL     1      -1.554   1.915   0.063  1.00  0.00    -0.124 SA
BRANCH  16  17
ATOM     17  C   UNL     1      -0.824   0.749  -1.156  1.00  0.00     0.078 C 
BRANCH  17  18
ATOM     18  C   UNL     1       0.713   0.715  -1.262  1.00  0.00    -0.007 C 
ATOM     19  C   UNL     1       1.404   0.061  -0.065  1.00  0.00     0.008 C 
ATOM     20  C   UNL     1       1.100  -0.061  -2.529  1.00  0.00     0.008 C 
ENDBRANCH  17  18
ENDBRANCH  16  17
ENDBRANCH   6  16
BRANCH  15  21
ATOM     21  C   UNL     1       2.579   2.130   5.943  1.00  0.00     0.430 C 
ATOM     22  F   UNL     1       2.787   3.448   5.713  1.00  0.00    -0.167 F 
ATOM     23  F   UNL     1       3.130   1.857   7.150  1.00  0.00    -0.167 F 
ATOM     24  F   UNL     1       3.276   1.438   5.013  1.00  0.00    -0.167 F 
ENDBRANCH  15  21
ENDBRANCH   3   5
ENDBRANCH   2   3
ENDBRANCH   1   2
BRANCH   1  25
ATOM     25  C   UNL     1       0.472  -1.036  10.430  1.00  0.00     0.275 C 
BRANCH  25  26
ATOM     26  O   UNL     1       0.138  -2.240   9.714  1.00  0.00    -0.458 OA
BRANCH  26  27
ATOM     27  C   UNL     1      -1.010  -2.199   9.007  1.00  0.00     0.338 C 
ATOM     28  O   UNL     1      -1.805  -1.274   8.918  1.00  0.00    -0.246 OA
BRANCH  27  29
ATOM     29  C   UNL     1      -1.149  -3.442   8.240  1.00  0.00     0.060 A 
ATOM     30  C   UNL     1      -2.084  -4.410   8.590  1.00  0.00     0.016 A 
ATOM     31  C   UNL     1      -0.404  -3.579   7.074  1.00  0.00     0.016 A 
ATOM     32  C   UNL     1      -2.239  -5.533   7.767  1.00  0.00     0.010 A 
ATOM     33  C   UNL     1      -0.669  -4.610   6.183  1.00  0.00     0.010 A 
ATOM     34  C   UNL     1      -1.552  -5.634   6.540  1.00  0.00    -0.014 A 
BRANCH  34  35
ATOM     35  C   UNL     1      -1.698  -6.819   5.649  1.00  0.00     0.031 A 
ATOM     36  C   UNL     1      -0.485  -7.627   5.248  1.00  0.00     0.074 A 
ATOM     37  C   UNL     1      -2.910  -7.151   5.162  1.00  0.00     0.049 A 
ATOM     38  N   UNL     1      -0.404  -8.662   4.449  1.00  0.00    -0.248 NA
ATOM     39  C   UNL     1       0.818  -7.190   5.779  1.00  0.00     0.031 C 
ATOM     40  C   UNL     1      -4.150  -6.410   5.399  1.00  0.00     0.029 A 
ATOM     41  N   UNL     1      -3.301  -8.207   4.376  1.00  0.00    -0.354 N 
ATOM     42  C   UNL     1       0.950  -8.969   4.360  1.00  0.00     0.074 A 
ATOM     43  C   UNL     1       1.662  -7.971   5.123  1.00  0.00     0.031 C 
ATOM     44  C   UNL     1      -5.172  -7.071   4.833  1.00  0.00     0.029 A 
ATOM     45  C   UNL     1      -4.657  -8.259   4.160  1.00  0.00     0.049 A 
ATOM     46  H   UNL     1      -2.670  -8.864   4.003  1.00  0.00     0.167 HD
ATOM     47  C   UNL     1       1.547 -10.014   3.738  1.00  0.00     0.037 A 
ATOM     48  C   UNL     1      -5.402  -9.171   3.507  1.00  0.00     0.037 A 
ATOM     49  C   UNL     1       0.834 -11.049   3.042  1.00  0.00     0.049 A 
ATOM     50  C   UNL     1      -4.725 -10.356   2.876  1.00  0.00     0.074 A 
ATOM     51  C   UNL     1       1.337 -12.190   2.441  1.00  0.00     0.029 A 
ATOM     52  N   UNL     1      -0.542 -11.078   2.871  1.00  0.00    -0.354 N 
ATOM     53  N   UNL     1      -3.451 -10.662   2.847  1.00  0.00    -0.248 NA
ATOM     54  C   UNL     1      -5.591 -11.326   2.190  1.00  0.00     0.031 C 
ATOM     55  C   UNL     1       0.267 -12.897   1.885  1.00  0.00     0.029 A 
ATOM     56  C   UNL     1      -0.906 -12.217   2.171  1.00  0.00     0.049 A 
ATOM     57  H   UNL     1      -1.167 -10.392   3.199  1.00  0.00     0.167 HD
ATOM     58  C   UNL     1      -3.361 -11.861   2.155  1.00  0.00     0.074 A 
ATOM     59  C   UNL     1      -4.714 -12.242   1.802  1.00  0.00     0.031 C 
ATOM     60  C   UNL     1      -2.258 -12.579   1.834  1.00  0.00     0.037 A 
BRANCH  47  61
ATOM     61  C   UNL     1       3.044 -10.114   3.820  1.00  0.00     0.064 A 
ATOM     62  C   UNL     1       3.692 -10.421   5.027  1.00  0.00     0.173 A 
ATOM     63  C   UNL     1       3.837  -9.951   2.674  1.00  0.00     0.173 A 
ATOM     64  F   UNL     1       2.982 -10.577   6.154  1.00  0.00    -0.203 F 
ATOM     65  C   UNL     1       5.079 -10.533   5.089  1.00  0.00     0.198 A 
ATOM     66  C   UNL     1       5.222 -10.095   2.734  1.00  0.00     0.198 A 
ATOM     67  F   UNL     1       3.270  -9.665   1.493  1.00  0.00    -0.203 F 
ATOM     68  F   UNL     1       5.677 -10.779   6.263  1.00  0.00    -0.200 F 
ATOM     69  C   UNL     1       5.841 -10.378   3.942  1.00  0.00     0.200 A 
ATOM     70  F   UNL     1       5.957  -9.960   1.622  1.00  0.00    -0.200 F 
ATOM     71  F   UNL     1       7.175 -10.498   4.002  1.00  0.00    -0.200 F 
ENDBRANCH  47  61
BRANCH  48  72
ATOM     72  C   UNL     1      -6.881  -9.030   3.482  1.00  0.00     0.064 A 
ATOM     73  C   UNL     1      -7.692  -9.889   4.239  1.00  0.00     0.173 A 
ATOM     74  C   UNL     1      -7.513  -8.024   2.737  1.00  0.00     0.173 A 
ATOM     75  F   UNL     1      -7.135 -10.878   4.953  1.00  0.00    -0.203 F 
ATOM     76  C   UNL     1      -9.078  -9.752   4.245  1.00  0.00     0.198 A 
ATOM     77  C   UNL     1      -8.898  -7.872   2.764  1.00  0.00     0.198 A 
ATOM     78  F   UNL     1      -6.782  -7.174   2.003  1.00  0.00    -0.203 F 
ATOM     79  F   UNL     1      -9.830 -10.604   4.954  1.00  0.00    -0.200 F 
ATOM     80  C   UNL     1      -9.680  -8.738   3.514  1.00  0.00     0.200 A 
ATOM     81  F   UNL     1      -9.475  -6.882   2.069  1.00  0.00    -0.200 F 
ATOM     82  F   UNL     1     -11.012  -8.598   3.532  1.00  0.00    -0.200 F 
ENDBRANCH  48  72
BRANCH  60  83
ATOM     83  C   UNL     1      -2.461 -13.853   1.072  1.00  0.00     0.064 A 
ATOM     84  C   UNL     1      -2.804 -13.843  -0.288  1.00  0.00     0.173 A 
ATOM     85  C   UNL     1      -2.248 -15.094   1.690  1.00  0.00     0.173 A 
ATOM     86  F   UNL     1      -3.030 -12.681  -0.918  1.00  0.00    -0.203 F 
ATOM     87  C   UNL     1      -2.944 -15.032  -0.997  1.00  0.00     0.198 A 
ATOM     88  C   UNL     1      -2.362 -16.280   0.970  1.00  0.00     0.198 A 
ATOM     89  F   UNL     1      -1.908 -15.155   2.986  1.00  0.00    -0.203 F 
ATOM     90  F   UNL     1      -3.308 -15.001  -2.287  1.00  0.00    -0.200 F 
ATOM     91  C   UNL     1      -2.715 -16.248  -0.371  1.00  0.00     0.200 A 
ATOM     92  F   UNL     1      -2.126 -17.453   1.573  1.00  0.00    -0.200 F 
ATOM     93  F   UNL     1      -2.838 -17.391  -1.059  1.00  0.00    -0.200 F 
ENDBRANCH  60  83
ENDBRANCH  34  35
ENDBRANCH  27  29
ENDBRANCH  26  27
ENDBRANCH  25  26
ENDBRANCH   1  25
TORSDOF 15
