REMARK SMILES CC(C)c1ccc(NC(=O)C(=O)N/N=C/c2ccccc2C(=O)OCCOC(=O)c2ccc(-c3c4nc(c(-c5c(F)c(F)c(F)c(F)c5F)c5ccc([nH]5)c(-c5c(F)c(F)c(F)c(F)c5F)c5nc(c(-c6c(F)c(F)c(F)c(F)c6F)c6ccc3[nH]6)C=C5)C=C4)cc2)cc1
REMARK SMILES IDX 24 1 22 2 23 3 21 4 16 5 17 6 18 7 20 8 19 9 15 10 14 11
REMARK SMILES IDX 13 12 11 13 12 14 9 16 8 17 10 19 7 20 4 21 5 22 94 23 6 24
REMARK SMILES IDX 93 25 2 26 1 27 3 28 25 29 26 30 27 31 28 32 29 33 30 34
REMARK SMILES IDX 31 35 92 36 32 37 91 38 33 39 34 40 35 41 85 42 36 43 90 44
REMARK SMILES IDX 84 45 86 46 37 47 89 48 83 49 82 50 38 52 70 53 50 54 69 55
REMARK SMILES IDX 51 56 54 57 68 58 87 59 52 60 53 61 67 63 88 64 55 65 39 66
REMARK SMILES IDX 40 67 48 68 41 69 42 70 46 71 49 72 43 73 44 74 47 75 45 76
REMARK SMILES IDX 71 77 72 78 80 79 73 80 74 81 78 82 81 83 75 84 76 85 79 86
REMARK SMILES IDX 77 87 56 88 57 89 65 90 58 91 59 92 63 93 66 94 60 95 61 96
REMARK SMILES IDX 64 97 62 98
REMARK H PARENT 13 15 8 18 86 51 54 62
REMARK Flexibility Score: inf
ROOT
ATOM      1  O   UNL     1      -8.595   3.237  -1.441  1.00  0.00    -0.458 OA
ENDROOT
BRANCH   1   2
ATOM      2  C   UNL     1      -9.677   3.556  -0.687  1.00  0.00     0.338 C 
ATOM      3  O   UNL     1     -10.174   4.658  -0.572  1.00  0.00    -0.246 OA
BRANCH   2   4
ATOM      4  C   UNL     1     -10.273   2.331  -0.073  1.00  0.00     0.068 A 
ATOM      5  C   UNL     1      -9.491   1.358   0.550  1.00  0.00     0.009 A 
ATOM      6  C   UNL     1     -10.050   0.224   1.142  1.00  0.00     0.010 A 
ATOM      7  C   UNL     1     -11.427   0.034   1.072  1.00  0.00     0.001 A 
ATOM      8  C   UNL     1     -11.661   2.149  -0.091  1.00  0.00     0.016 A 
ATOM      9  C   UNL     1     -12.229   0.985   0.441  1.00  0.00     0.001 A 
BRANCH   5  10
ATOM     10  C   UNL     1      -8.059   1.387   0.338  1.00  0.00     0.142 C 
ATOM     11  N   UNL     1      -7.177   1.723   1.224  1.00  0.00    -0.180 NA
BRANCH  11  12
ATOM     12  N   UNL     1      -5.902   1.732   0.711  1.00  0.00    -0.239 N 
ATOM     13  C   UNL     1      -5.423   0.827  -0.227  1.00  0.00     0.329 C 
ATOM     14  O   UNL     1      -4.707   1.178  -1.158  1.00  0.00    -0.262 OA
ATOM     15  H   UNL     1      -5.285   2.429   1.031  1.00  0.00     0.194 HD
BRANCH  13  16
ATOM     16  C   UNL     1      -5.799  -0.659  -0.015  1.00  0.00     0.315 C 
ATOM     17  N   UNL     1      -4.813  -1.611   0.055  1.00  0.00    -0.318 N 
ATOM     18  H   UNL     1      -5.149  -2.534   0.127  1.00  0.00     0.170 HD
ATOM     19  O   UNL     1      -6.970  -1.028   0.013  1.00  0.00    -0.263 OA
BRANCH  17  20
ATOM     20  C   UNL     1      -3.419  -1.510   0.044  1.00  0.00     0.041 A 
ATOM     21  C   UNL     1      -0.599  -1.485  -0.129  1.00  0.00    -0.045 A 
ATOM     22  C   UNL     1      -1.311  -0.333   0.216  1.00  0.00     0.006 A 
ATOM     23  C   UNL     1      -1.328  -2.658  -0.376  1.00  0.00     0.006 A 
ATOM     24  C   UNL     1      -2.702  -0.352   0.322  1.00  0.00     0.026 A 
ATOM     25  C   UNL     1      -2.719  -2.675  -0.274  1.00  0.00     0.026 A 
BRANCH  21  26
ATOM     26  C   UNL     1       0.918  -1.514  -0.228  1.00  0.00     0.013 C 
ATOM     27  C   UNL     1       1.603  -0.154  -0.037  1.00  0.00     0.012 C 
ATOM     28  C   UNL     1       1.493  -2.511   0.785  1.00  0.00     0.012 C 
ENDBRANCH  21  26
ENDBRANCH  17  20
ENDBRANCH  13  16
ENDBRANCH  11  12
ENDBRANCH   5  10
ENDBRANCH   2   4
ENDBRANCH   1   2
BRANCH   1  29
ATOM     29  C   UNL     1      -7.810   4.303  -2.019  1.00  0.00     0.275 C 
BRANCH  29  30
ATOM     30  C   UNL     1      -7.731   4.158  -3.540  1.00  0.00     0.275 C 
BRANCH  30  31
ATOM     31  O   UNL     1      -9.035   4.366  -4.111  1.00  0.00    -0.458 OA
BRANCH  31  32
ATOM     32  C   UNL     1      -9.719   3.230  -4.370  1.00  0.00     0.338 C 
ATOM     33  O   UNL     1      -9.322   2.079  -4.304  1.00  0.00    -0.246 OA
BRANCH  32  34
ATOM     34  C   UNL     1     -11.134   3.557  -4.557  1.00  0.00     0.060 A 
ATOM     35  C   UNL     1     -11.925   3.560  -3.415  1.00  0.00     0.016 A 
ATOM     36  C   UNL     1     -11.713   3.683  -5.813  1.00  0.00     0.016 A 
ATOM     37  C   UNL     1     -13.306   3.587  -3.510  1.00  0.00     0.010 A 
ATOM     38  C   UNL     1     -13.105   3.816  -5.906  1.00  0.00     0.010 A 
ATOM     39  C   UNL     1     -13.918   3.733  -4.758  1.00  0.00    -0.014 A 
BRANCH  39  40
ATOM     40  C   UNL     1     -15.404   3.752  -4.843  1.00  0.00     0.031 A 
ATOM     41  C   UNL     1     -16.123   2.733  -5.683  1.00  0.00     0.074 A 
ATOM     42  C   UNL     1     -16.112   4.659  -4.139  1.00  0.00     0.049 A 
ATOM     43  N   UNL     1     -17.385   2.681  -6.026  1.00  0.00    -0.248 NA
ATOM     44  C   UNL     1     -15.311   1.632  -6.224  1.00  0.00     0.031 C 
ATOM     45  C   UNL     1     -15.543   5.663  -3.237  1.00  0.00     0.029 A 
ATOM     46  N   UNL     1     -17.465   4.881  -4.065  1.00  0.00    -0.354 N 
ATOM     47  C   UNL     1     -17.504   1.586  -6.873  1.00  0.00     0.074 A 
ATOM     48  C   UNL     1     -16.185   1.004  -6.996  1.00  0.00     0.031 C 
ATOM     49  C   UNL     1     -16.536   6.365  -2.674  1.00  0.00     0.029 A 
ATOM     50  C   UNL     1     -17.802   5.939  -3.257  1.00  0.00     0.049 A 
ATOM     51  H   UNL     1     -18.129   4.334  -4.545  1.00  0.00     0.167 HD
ATOM     52  C   UNL     1     -18.614   1.119  -7.492  1.00  0.00     0.037 A 
ATOM     53  C   UNL     1     -18.987   6.543  -3.050  1.00  0.00     0.037 A 
ATOM     54  C   UNL     1     -19.930   1.680  -7.317  1.00  0.00     0.049 A 
ATOM     55  C   UNL     1     -20.195   6.036  -3.784  1.00  0.00     0.074 A 
ATOM     56  C   UNL     1     -21.127   1.266  -7.874  1.00  0.00     0.029 A 
ATOM     57  N   UNL     1     -20.221   2.778  -6.517  1.00  0.00    -0.354 N 
ATOM     58  N   UNL     1     -20.293   5.030  -4.617  1.00  0.00    -0.248 NA
ATOM     59  C   UNL     1     -21.453   6.759  -3.561  1.00  0.00     0.031 C 
ATOM     60  C   UNL     1     -22.131   2.147  -7.459  1.00  0.00     0.029 A 
ATOM     61  C   UNL     1     -21.575   3.071  -6.589  1.00  0.00     0.049 A 
ATOM     62  H   UNL     1     -19.564   3.274  -5.979  1.00  0.00     0.167 HD
ATOM     63  C   UNL     1     -21.623   4.987  -5.009  1.00  0.00     0.074 A 
ATOM     64  C   UNL     1     -22.299   6.056  -4.302  1.00  0.00     0.031 C 
ATOM     65  C   UNL     1     -22.229   4.141  -5.879  1.00  0.00     0.037 A 
BRANCH  52  66
ATOM     66  C   UNL     1     -18.448  -0.022  -8.458  1.00  0.00     0.064 A 
ATOM     67  C   UNL     1     -18.116  -1.319  -8.040  1.00  0.00     0.173 A 
ATOM     68  C   UNL     1     -18.643   0.191  -9.832  1.00  0.00     0.173 A 
ATOM     69  F   UNL     1     -17.905  -1.578  -6.741  1.00  0.00    -0.203 F 
ATOM     70  C   UNL     1     -17.952  -2.350  -8.964  1.00  0.00     0.198 A 
ATOM     71  C   UNL     1     -18.513  -0.850 -10.749  1.00  0.00     0.198 A 
ATOM     72  F   UNL     1     -18.968   1.410 -10.289  1.00  0.00    -0.203 F 
ATOM     73  F   UNL     1     -17.577  -3.568  -8.547  1.00  0.00    -0.200 F 
ATOM     74  C   UNL     1     -18.157  -2.117 -10.316  1.00  0.00     0.200 A 
ATOM     75  F   UNL     1     -18.728  -0.623 -12.052  1.00  0.00    -0.200 F 
ATOM     76  F   UNL     1     -18.003  -3.111 -11.201  1.00  0.00    -0.200 F 
ENDBRANCH  52  66
BRANCH  53  77
ATOM     77  C   UNL     1     -19.064   7.727  -2.153  1.00  0.00     0.064 A 
ATOM     78  C   UNL     1     -19.761   7.672  -0.939  1.00  0.00     0.173 A 
ATOM     79  C   UNL     1     -18.421   8.932  -2.480  1.00  0.00     0.173 A 
ATOM     80  F   UNL     1     -20.413   6.553  -0.591  1.00  0.00    -0.203 F 
ATOM     81  C   UNL     1     -19.818   8.777  -0.091  1.00  0.00     0.198 A 
ATOM     82  C   UNL     1     -18.448  10.023  -1.616  1.00  0.00     0.198 A 
ATOM     83  F   UNL     1     -17.740   9.039  -3.631  1.00  0.00    -0.203 F 
ATOM     84  F   UNL     1     -20.525   8.710   1.045  1.00  0.00    -0.200 F 
ATOM     85  C   UNL     1     -19.152   9.947  -0.425  1.00  0.00     0.200 A 
ATOM     86  F   UNL     1     -17.786  11.144  -1.934  1.00  0.00    -0.200 F 
ATOM     87  F   UNL     1     -19.194  11.003   0.399  1.00  0.00    -0.200 F 
ENDBRANCH  53  77
BRANCH  65  88
ATOM     88  C   UNL     1     -23.706   4.318  -6.083  1.00  0.00     0.064 A 
ATOM     89  C   UNL     1     -24.229   5.421  -6.774  1.00  0.00     0.173 A 
ATOM     90  C   UNL     1     -24.607   3.357  -5.601  1.00  0.00     0.173 A 
ATOM     91  F   UNL     1     -23.411   6.377  -7.239  1.00  0.00    -0.203 F 
ATOM     92  C   UNL     1     -25.603   5.569  -6.949  1.00  0.00     0.198 A 
ATOM     93  C   UNL     1     -25.977   3.490  -5.808  1.00  0.00     0.198 A 
ATOM     94  F   UNL     1     -24.158   2.280  -4.938  1.00  0.00    -0.203 F 
ATOM     95  F   UNL     1     -26.084   6.660  -7.562  1.00  0.00    -0.200 F 
ATOM     96  C   UNL     1     -26.474   4.601  -6.473  1.00  0.00     0.200 A 
ATOM     97  F   UNL     1     -26.815   2.546  -5.360  1.00  0.00    -0.200 F 
ATOM     98  F   UNL     1     -27.795   4.743  -6.646  1.00  0.00    -0.200 F 
ENDBRANCH  65  88
ENDBRANCH  39  40
ENDBRANCH  32  34
ENDBRANCH  31  32
ENDBRANCH  30  31
ENDBRANCH  29  30
ENDBRANCH   1  29
TORSDOF 16
