REMARK SMILES O=C(CSc1ccc2ccccc2c1)OCCOC(=O)c1ccc(-c2c3nc(c(-c4c(F)c(F)c(F)c(F)c4F)c4ccc([nH]4)c(-c4c(F)c(F)c(F)c(F)c4F)c4nc(c(-c5c(F)c(F)c(F)c(F)c5F)c5ccc2[nH]5)C=C4)C=C3)cc1
REMARK SMILES IDX 16 1 15 2 2 3 1 4 3 5 4 6 5 7 6 8 14 9 7 10 13 11 8 12 12 13
REMARK SMILES IDX 9 14 11 15 10 16 17 17 18 18 19 19 20 20 21 21 22 22 83 23
REMARK SMILES IDX 23 24 82 25 24 26 25 27 26 28 76 29 27 30 81 31 75 32 77 33
REMARK SMILES IDX 28 34 80 35 74 36 73 37 29 39 61 40 41 41 60 42 42 43 45 44
REMARK SMILES IDX 59 45 78 46 43 47 44 48 58 50 79 51 46 52 30 53 31 54 39 55
REMARK SMILES IDX 32 56 33 57 37 58 40 59 34 60 35 61 38 62 36 63 62 64 63 65
REMARK SMILES IDX 71 66 64 67 65 68 69 69 72 70 66 71 67 72 70 73 68 74 47 75
REMARK SMILES IDX 48 76 56 77 49 78 50 79 54 80 57 81 51 82 52 83 55 84 53 85
REMARK H PARENT 77 38 45 49
REMARK Flexibility Score: inf
ROOT
ATOM      1  C   UNL     1       4.580  -0.928  -0.441  1.00  0.00     0.274 C 
ENDROOT
BRANCH   1   2
ATOM      2  O   UNL     1       3.283  -0.848   0.189  1.00  0.00    -0.461 OA
BRANCH   2   3
ATOM      3  C   UNL     1       2.696   0.301   0.605  1.00  0.00     0.316 C 
ATOM      4  O   UNL     1       1.498   0.309   0.883  1.00  0.00    -0.251 OA
BRANCH   3   5
ATOM      5  C   UNL     1       3.531   1.556   0.730  1.00  0.00     0.197 C 
BRANCH   5   6
ATOM      6  S   UNL     1       4.555   1.560   2.229  1.00  0.00    -0.114 SA
BRANCH   6   7
ATOM      7  C   UNL     1       3.262   1.729   3.440  1.00  0.00     0.008 A 
ATOM      8  C   UNL     1       2.826   2.994   3.835  1.00  0.00     0.016 A 
ATOM      9  C   UNL     1       2.676   0.587   3.991  1.00  0.00     0.023 A 
ATOM     10  C   UNL     1       1.799   3.117   4.773  1.00  0.00     0.010 A 
ATOM     11  C   UNL     1       1.637   0.696   4.926  1.00  0.00    -0.017 A 
ATOM     12  C   UNL     1       1.195   1.977   5.327  1.00  0.00    -0.018 A 
ATOM     13  C   UNL     1       1.027  -0.446   5.465  1.00  0.00     0.009 A 
ATOM     14  C   UNL     1       0.159   2.078   6.269  1.00  0.00     0.009 A 
ATOM     15  C   UNL     1      -0.002  -0.328   6.398  1.00  0.00     0.001 A 
ATOM     16  C   UNL     1      -0.433   0.932   6.802  1.00  0.00     0.001 A 
ENDBRANCH   6   7
ENDBRANCH   5   6
ENDBRANCH   3   5
ENDBRANCH   2   3
ENDBRANCH   1   2
BRANCH   1  17
ATOM     17  C   UNL     1       4.461  -0.797  -1.961  1.00  0.00     0.275 C 
BRANCH  17  18
ATOM     18  O   UNL     1       4.003   0.525  -2.303  1.00  0.00    -0.458 OA
BRANCH  18  19
ATOM     19  C   UNL     1       2.690   0.632  -2.628  1.00  0.00     0.338 C 
ATOM     20  O   UNL     1       1.901  -0.280  -2.795  1.00  0.00    -0.246 OA
BRANCH  19  21
ATOM     21  C   UNL     1       2.298   2.059  -2.567  1.00  0.00     0.060 A 
ATOM     22  C   UNL     1       1.051   2.379  -2.016  1.00  0.00     0.016 A 
ATOM     23  C   UNL     1       3.147   3.076  -3.018  1.00  0.00     0.016 A 
ATOM     24  C   UNL     1       0.639   3.712  -1.939  1.00  0.00     0.010 A 
ATOM     25  C   UNL     1       2.733   4.410  -2.940  1.00  0.00     0.010 A 
ATOM     26  C   UNL     1       1.468   4.734  -2.422  1.00  0.00    -0.014 A 
BRANCH  26  27
ATOM     27  C   UNL     1       0.972   6.131  -2.493  1.00  0.00     0.031 A 
ATOM     28  C   UNL     1       0.443   6.655  -3.800  1.00  0.00     0.074 A 
ATOM     29  C   UNL     1       0.996   6.931  -1.412  1.00  0.00     0.049 A 
ATOM     30  N   UNL     1      -0.016   7.846  -4.094  1.00  0.00    -0.248 NA
ATOM     31  C   UNL     1       0.435   5.711  -4.928  1.00  0.00     0.031 C 
ATOM     32  C   UNL     1       1.469   6.547  -0.084  1.00  0.00     0.029 A 
ATOM     33  N   UNL     1       0.620   8.245  -1.269  1.00  0.00    -0.354 N 
ATOM     34  C   UNL     1      -0.373   7.791  -5.434  1.00  0.00     0.074 A 
ATOM     35  C   UNL     1      -0.042   6.464  -5.908  1.00  0.00     0.031 C 
ATOM     36  C   UNL     1       1.368   7.607   0.738  1.00  0.00     0.029 A 
ATOM     37  C   UNL     1       0.842   8.748  -0.011  1.00  0.00     0.049 A 
ATOM     38  H   UNL     1       0.229   8.776  -2.000  1.00  0.00     0.167 HD
ATOM     39  C   UNL     1      -0.939   8.755  -6.198  1.00  0.00     0.037 A 
ATOM     40  C   UNL     1       0.654   9.991   0.475  1.00  0.00     0.037 A 
ATOM     41  C   UNL     1      -1.270  10.076  -5.736  1.00  0.00     0.049 A 
ATOM     42  C   UNL     1       0.083  11.065  -0.416  1.00  0.00     0.074 A 
ATOM     43  C   UNL     1      -1.877  11.107  -6.434  1.00  0.00     0.029 A 
ATOM     44  N   UNL     1      -1.014  10.553  -4.460  1.00  0.00    -0.354 N 
ATOM     45  N   UNL     1      -0.304  10.987  -1.666  1.00  0.00    -0.248 NA
ATOM     46  C   UNL     1      -0.081  12.402   0.176  1.00  0.00     0.031 C 
ATOM     47  C   UNL     1      -1.944  12.224  -5.594  1.00  0.00     0.029 A 
ATOM     48  C   UNL     1      -1.423  11.873  -4.359  1.00  0.00     0.049 A 
ATOM     49  H   UNL     1      -0.601  10.032  -3.734  1.00  0.00     0.167 HD
ATOM     50  C   UNL     1      -0.788  12.247  -1.996  1.00  0.00     0.074 A 
ATOM     51  C   UNL     1      -0.654  13.071  -0.814  1.00  0.00     0.031 C 
ATOM     52  C   UNL     1      -1.300  12.681  -3.174  1.00  0.00     0.037 A 
BRANCH  39  53
ATOM     53  C   UNL     1      -1.234   8.418  -7.629  1.00  0.00     0.064 A 
ATOM     54  C   UNL     1      -2.293   7.569  -7.978  1.00  0.00     0.173 A 
ATOM     55  C   UNL     1      -0.480   8.992  -8.664  1.00  0.00     0.173 A 
ATOM     56  F   UNL     1      -3.034   6.986  -7.023  1.00  0.00    -0.203 F 
ATOM     57  C   UNL     1      -2.578   7.292  -9.312  1.00  0.00     0.198 A 
ATOM     58  C   UNL     1      -0.783   8.732  -9.997  1.00  0.00     0.198 A 
ATOM     59  F   UNL     1       0.541   9.814  -8.381  1.00  0.00    -0.203 F 
ATOM     60  F   UNL     1      -3.573   6.449  -9.623  1.00  0.00    -0.200 F 
ATOM     61  C   UNL     1      -1.828   7.879 -10.320  1.00  0.00     0.200 A 
ATOM     62  F   UNL     1      -0.064   9.308 -10.970  1.00  0.00    -0.200 F 
ATOM     63  F   UNL     1      -2.109   7.619 -11.604  1.00  0.00    -0.200 F 
ENDBRANCH  39  53
BRANCH  40  64
ATOM     64  C   UNL     1       1.010  10.303   1.884  1.00  0.00     0.064 A 
ATOM     65  C   UNL     1       0.021  10.595   2.833  1.00  0.00     0.173 A 
ATOM     66  C   UNL     1       2.349  10.363   2.297  1.00  0.00     0.173 A 
ATOM     67  F   UNL     1      -1.272  10.579   2.477  1.00  0.00    -0.203 F 
ATOM     68  C   UNL     1       0.357  10.959   4.135  1.00  0.00     0.198 A 
ATOM     69  C   UNL     1       2.683  10.702   3.606  1.00  0.00     0.198 A 
ATOM     70  F   UNL     1       3.334  10.098   1.426  1.00  0.00    -0.203 F 
ATOM     71  F   UNL     1      -0.606  11.286   5.006  1.00  0.00    -0.200 F 
ATOM     72  C   UNL     1       1.688  11.009   4.521  1.00  0.00     0.200 A 
ATOM     73  F   UNL     1       3.970  10.742   3.978  1.00  0.00    -0.200 F 
ATOM     74  F   UNL     1       2.011  11.366   5.771  1.00  0.00    -0.200 F 
ENDBRANCH  40  64
BRANCH  52  75
ATOM     75  C   UNL     1      -1.793  14.098  -3.238  1.00  0.00     0.064 A 
ATOM     76  C   UNL     1      -0.908  15.186  -3.258  1.00  0.00     0.173 A 
ATOM     77  C   UNL     1      -3.167  14.368  -3.331  1.00  0.00     0.173 A 
ATOM     78  F   UNL     1       0.414  14.982  -3.157  1.00  0.00    -0.203 F 
ATOM     79  C   UNL     1      -1.382  16.492  -3.346  1.00  0.00     0.198 A 
ATOM     80  C   UNL     1      -3.636  15.673  -3.448  1.00  0.00     0.198 A 
ATOM     81  F   UNL     1      -4.056  13.362  -3.325  1.00  0.00    -0.203 F 
ATOM     82  F   UNL     1      -0.520  17.519  -3.321  1.00  0.00    -0.200 F 
ATOM     83  C   UNL     1      -2.744  16.735  -3.449  1.00  0.00     0.200 A 
ATOM     84  F   UNL     1      -4.951  15.905  -3.560  1.00  0.00    -0.200 F 
ATOM     85  F   UNL     1      -3.197  17.992  -3.542  1.00  0.00    -0.200 F 
ENDBRANCH  52  75
ENDBRANCH  26  27
ENDBRANCH  19  21
ENDBRANCH  18  19
ENDBRANCH  17  18
ENDBRANCH   1  17
TORSDOF 13
