REMARK SMILES Cc1cc2c(c(C)c1Cl)C=C(C(=O)OCCOC(=O)c1ccc(-c3c4nc(c(-c5c(F)c(F)c(F)c(F)c5F)c5ccc([nH]5)c(-c5c(F)c(F)c(F)c(F)c5F)c5nc(c(-c6c(F)c(F)c(F)c(F)c6F)c6ccc3[nH]6)C=C5)C=C4)cc1)[C@@H](C(F)(F)F)O2
REMARK SMILES IDX 16 1 15 2 14 3 12 4 13 5 11 6 1 7 2 8 3 9 8 10 4 11 6 12
REMARK SMILES IDX 9 13 5 14 88 15 7 16 10 17 83 18 84 19 85 20 86 21 87 22
REMARK SMILES IDX 17 23 18 24 19 25 20 26 21 27 82 28 22 29 81 30 23 31 24 32
REMARK SMILES IDX 25 33 75 34 26 35 80 36 74 37 76 38 27 39 79 40 73 41 72 42
REMARK SMILES IDX 28 44 60 45 40 46 59 47 41 48 44 49 58 50 77 51 42 52 43 53
REMARK SMILES IDX 57 55 78 56 45 57 29 58 30 59 38 60 31 61 32 62 36 63 39 64
REMARK SMILES IDX 33 65 34 66 37 67 35 68 61 69 62 70 70 71 63 72 64 73 68 74
REMARK SMILES IDX 71 75 65 76 66 77 69 78 67 79 46 80 47 81 55 82 48 83 49 84
REMARK SMILES IDX 53 85 56 86 50 87 51 88 54 89 52 90
REMARK H PARENT 76 43 44 54
REMARK Flexibility Score: inf
ROOT
ATOM      1  C   UNL     1      -0.808   3.623   9.813  1.00  0.00     0.275 C 
ENDROOT
BRANCH   1   2
ATOM      2  C   UNL     1      -1.908   2.806   9.136  1.00  0.00     0.275 C 
BRANCH   2   3
ATOM      3  O   UNL     1      -1.413   2.133   7.957  1.00  0.00    -0.459 OA
BRANCH   3   4
ATOM      4  C   UNL     1      -1.774   2.681   6.774  1.00  0.00     0.338 C 
ATOM      5  O   UNL     1      -2.462   3.677   6.609  1.00  0.00    -0.246 OA
BRANCH   4   6
ATOM      6  C   UNL     1      -1.202   1.911   5.652  1.00  0.00     0.087 C 
ATOM      7  C   UNL     1       0.998  -0.456   0.016  1.00  0.00     0.046 C 
ATOM      8  C   UNL     1       0.622   0.379   1.211  1.00  0.00    -0.028 A 
ATOM      9  C   UNL     1       0.060  -0.250   2.329  1.00  0.00     0.052 A 
ATOM     10  C   UNL     1       0.833   1.770   1.243  1.00  0.00     0.047 A 
ATOM     11  C   UNL     1      -0.319   0.486   3.450  1.00  0.00     0.128 A 
ATOM     12  C   UNL     1       0.452   2.536   2.369  1.00  0.00    -0.021 A 
ATOM     13  Cl  UNL     1       1.576   2.528  -0.134  1.00  0.00    -0.084 Cl
ATOM     14  C   UNL     1      -0.141   1.873   3.478  1.00  0.00     0.022 A 
ATOM     15  O   UNL     1      -0.839  -0.249   4.480  1.00  0.00    -0.475 OA
ATOM     16  C   UNL     1       0.683   4.028   2.416  1.00  0.00     0.047 C 
ATOM     17  C   UNL     1      -0.603   2.588   4.665  1.00  0.00     0.027 C 
ATOM     18  C   UNL     1      -1.444   0.433   5.608  1.00  0.00     0.316 C 
BRANCH  18  19
ATOM     19  C   UNL     1      -2.948   0.113   5.638  1.00  0.00     0.430 C 
ATOM     20  F   UNL     1      -3.172  -1.220   5.561  1.00  0.00    -0.167 F 
ATOM     21  F   UNL     1      -3.523   0.535   6.791  1.00  0.00    -0.167 F 
ATOM     22  F   UNL     1      -3.614   0.698   4.617  1.00  0.00    -0.167 F 
ENDBRANCH  18  19
ENDBRANCH   4   6
ENDBRANCH   3   4
ENDBRANCH   2   3
ENDBRANCH   1   2
BRANCH   1  23
ATOM     23  O   UNL     1      -0.395   4.700   8.952  1.00  0.00    -0.458 OA
BRANCH  23  24
ATOM     24  C   UNL     1       0.834   4.563   8.408  1.00  0.00     0.338 C 
ATOM     25  O   UNL     1       1.641   3.671   8.610  1.00  0.00    -0.246 OA
BRANCH  24  26
ATOM     26  C   UNL     1       1.079   5.619   7.412  1.00  0.00     0.060 A 
ATOM     27  C   UNL     1       0.243   5.705   6.307  1.00  0.00     0.016 A 
ATOM     28  C   UNL     1       2.265   6.349   7.442  1.00  0.00     0.016 A 
ATOM     29  C   UNL     1       0.683   6.356   5.158  1.00  0.00     0.010 A 
ATOM     30  C   UNL     1       2.632   7.120   6.332  1.00  0.00     0.010 A 
ATOM     31  C   UNL     1       1.890   7.067   5.136  1.00  0.00    -0.014 A 
BRANCH  31  32
ATOM     32  C   UNL     1       2.430   7.660   3.869  1.00  0.00     0.031 A 
ATOM     33  C   UNL     1       3.865   7.395   3.464  1.00  0.00     0.074 A 
ATOM     34  C   UNL     1       1.664   8.395   3.034  1.00  0.00     0.049 A 
ATOM     35  N   UNL     1       4.622   8.037   2.608  1.00  0.00    -0.248 NA
ATOM     36  C   UNL     1       4.541   6.265   4.121  1.00  0.00     0.031 C 
ATOM     37  C   UNL     1       0.235   8.664   3.193  1.00  0.00     0.029 A 
ATOM     38  N   UNL     1       1.988   9.048   1.866  1.00  0.00    -0.354 N 
ATOM     39  C   UNL     1       5.880   7.447   2.692  1.00  0.00     0.074 A 
ATOM     40  C   UNL     1       5.783   6.389   3.674  1.00  0.00     0.031 C 
ATOM     41  C   UNL     1      -0.206   9.364   2.139  1.00  0.00     0.029 A 
ATOM     42  C   UNL     1       0.933   9.730   1.308  1.00  0.00     0.049 A 
ATOM     43  H   UNL     1       2.888   9.028   1.468  1.00  0.00     0.167 HD
ATOM     44  C   UNL     1       7.010   7.765   2.014  1.00  0.00     0.037 A 
ATOM     45  C   UNL     1       0.886  10.619   0.297  1.00  0.00     0.037 A 
ATOM     46  C   UNL     1       7.078   8.758   0.971  1.00  0.00     0.049 A 
ATOM     47  C   UNL     1       2.161  11.020  -0.390  1.00  0.00     0.074 A 
ATOM     48  C   UNL     1       8.176   9.158   0.228  1.00  0.00     0.029 A 
ATOM     49  N   UNL     1       5.994   9.483   0.498  1.00  0.00    -0.354 N 
ATOM     50  N   UNL     1       3.377  10.570  -0.205  1.00  0.00    -0.248 NA
ATOM     51  C   UNL     1       2.059  12.082  -1.400  1.00  0.00     0.031 C 
ATOM     52  C   UNL     1       7.765  10.154  -0.664  1.00  0.00     0.029 A 
ATOM     53  C   UNL     1       6.401  10.337  -0.515  1.00  0.00     0.049 A 
ATOM     54  H   UNL     1       5.072   9.402   0.833  1.00  0.00     0.167 HD
ATOM     55  C   UNL     1       4.184  11.290  -1.075  1.00  0.00     0.074 A 
ATOM     56  C   UNL     1       3.314  12.181  -1.813  1.00  0.00     0.031 C 
ATOM     57  C   UNL     1       5.529  11.227  -1.237  1.00  0.00     0.037 A 
BRANCH  44  58
ATOM     58  C   UNL     1       8.287   7.067   2.393  1.00  0.00     0.064 A 
ATOM     59  C   UNL     1       8.531   5.724   2.074  1.00  0.00     0.173 A 
ATOM     60  C   UNL     1       9.316   7.786   3.024  1.00  0.00     0.173 A 
ATOM     61  F   UNL     1       7.579   4.986   1.484  1.00  0.00    -0.203 F 
ATOM     62  C   UNL     1       9.751   5.124   2.384  1.00  0.00     0.198 A 
ATOM     63  C   UNL     1      10.545   7.193   3.303  1.00  0.00     0.198 A 
ATOM     64  F   UNL     1       9.140   9.076   3.346  1.00  0.00    -0.203 F 
ATOM     65  F   UNL     1       9.949   3.829   2.101  1.00  0.00    -0.200 F 
ATOM     66  C   UNL     1      10.760   5.861   2.986  1.00  0.00     0.200 A 
ATOM     67  F   UNL     1      11.523   7.913   3.869  1.00  0.00    -0.200 F 
ATOM     68  F   UNL     1      11.939   5.287   3.264  1.00  0.00    -0.200 F 
ENDBRANCH  44  58
BRANCH  45  69
ATOM     69  C   UNL     1      -0.410  11.255  -0.068  1.00  0.00     0.064 A 
ATOM     70  C   UNL     1      -1.008  11.011  -1.311  1.00  0.00     0.173 A 
ATOM     71  C   UNL     1      -1.085  12.104   0.824  1.00  0.00     0.173 A 
ATOM     72  F   UNL     1      -0.386  10.237  -2.212  1.00  0.00    -0.203 F 
ATOM     73  C   UNL     1      -2.232  11.587  -1.646  1.00  0.00     0.198 A 
ATOM     74  C   UNL     1      -2.327  12.646   0.504  1.00  0.00     0.198 A 
ATOM     75  F   UNL     1      -0.553  12.380   2.024  1.00  0.00    -0.203 F 
ATOM     76  F   UNL     1      -2.764  11.367  -2.856  1.00  0.00    -0.200 F 
ATOM     77  C   UNL     1      -2.897  12.392  -0.733  1.00  0.00     0.200 A 
ATOM     78  F   UNL     1      -2.973  13.408   1.398  1.00  0.00    -0.200 F 
ATOM     79  F   UNL     1      -4.085  12.927  -1.047  1.00  0.00    -0.200 F 
ENDBRANCH  45  69
BRANCH  57  80
ATOM     80  C   UNL     1       6.138  12.138  -2.263  1.00  0.00     0.064 A 
ATOM     81  C   UNL     1       6.213  13.524  -2.060  1.00  0.00     0.173 A 
ATOM     82  C   UNL     1       6.671  11.620  -3.454  1.00  0.00     0.173 A 
ATOM     83  F   UNL     1       5.705  14.071  -0.945  1.00  0.00    -0.203 F 
ATOM     84  C   UNL     1       6.768  14.360  -3.024  1.00  0.00     0.198 A 
ATOM     85  C   UNL     1       7.255  12.456  -4.401  1.00  0.00     0.198 A 
ATOM     86  F   UNL     1       6.632  10.300  -3.695  1.00  0.00    -0.203 F 
ATOM     87  F   UNL     1       6.777  15.687  -2.833  1.00  0.00    -0.200 F 
ATOM     88  C   UNL     1       7.294  13.825  -4.191  1.00  0.00     0.200 A 
ATOM     89  F   UNL     1       7.775  11.935  -5.521  1.00  0.00    -0.200 F 
ATOM     90  F   UNL     1       7.830  14.632  -5.117  1.00  0.00    -0.200 F 
ENDBRANCH  57  80
ENDBRANCH  31  32
ENDBRANCH  24  26
ENDBRANCH  23  24
ENDBRANCH   1  23
TORSDOF 12
