REMARK SMILES CC[C@@H](C)[C@@H](C(=O)OCCOC(=O)c1ccc(-c2c3nc(c(-c4c(F)c(F)c(F)c(F)c4F)c4ccc([nH]4)c(-c4c(F)c(F)c(F)c(F)c4F)c4nc(c(-c5c(F)c(F)c(F)c(F)c5F)c5ccc2[nH]5)C=C4)C=C3)cc1)N1C(=O)/C(=C/c2ccc(O)cc2)SC1=S
REMARK SMILES IDX 9 1 8 2 6 3 7 4 5 5 3 6 4 7 2 8 1 9 77 10 78 11 90 12 79 13
REMARK SMILES IDX 80 14 89 15 91 16 81 17 82 18 83 19 88 20 84 21 87 22 85 23
REMARK SMILES IDX 86 24 10 26 11 27 12 28 13 29 14 30 15 31 76 32 16 33 75 34
REMARK SMILES IDX 17 35 18 36 19 37 69 38 20 39 74 40 68 41 70 42 21 43 73 44
REMARK SMILES IDX 67 45 66 46 22 48 54 49 34 50 53 51 35 52 38 53 52 54 71 55
REMARK SMILES IDX 36 56 37 57 51 59 72 60 39 61 23 62 24 63 32 64 25 65 26 66
REMARK SMILES IDX 30 67 33 68 27 69 28 70 31 71 29 72 55 73 56 74 64 75 57 76
REMARK SMILES IDX 58 77 62 78 65 79 59 80 60 81 63 82 61 83 40 84 41 85 49 86
REMARK SMILES IDX 42 87 43 88 47 89 50 90 44 91 45 92 48 93 46 94
REMARK H PARENT 86 25 70 47 38 58
REMARK Flexibility Score: inf
ROOT
ATOM      1  C   UNL     1       1.201   4.091   3.075  1.00  0.00     0.274 C 
ENDROOT
BRANCH   1   2
ATOM      2  O   UNL     1       0.912   3.504   1.788  1.00  0.00    -0.461 OA
BRANCH   2   3
ATOM      3  C   UNL     1       0.612   4.336   0.765  1.00  0.00     0.329 C 
ATOM      4  O   UNL     1       0.588   5.557   0.895  1.00  0.00    -0.250 OA
BRANCH   3   5
ATOM      5  C   UNL     1       0.183   3.617  -0.545  1.00  0.00     0.204 C 
BRANCH   5   6
ATOM      6  C   UNL     1       0.544   2.108  -0.747  1.00  0.00     0.020 C 
ATOM      7  C   UNL     1      -0.088   1.606  -2.064  1.00  0.00     0.010 C 
BRANCH   6   8
ATOM      8  C   UNL     1       0.136   1.130   0.384  1.00  0.00     0.002 C 
ATOM      9  C   UNL     1       0.654  -0.289   0.146  1.00  0.00     0.004 C 
ENDBRANCH   6   8
ENDBRANCH   5   6
BRANCH   5  10
ATOM     10  N   UNL     1       0.583   4.525  -1.697  1.00  0.00    -0.278 N 
ATOM     11  C   UNL     1      -0.236   5.635  -1.928  1.00  0.00     0.267 C 
ATOM     12  C   UNL     1       1.705   4.457  -2.514  1.00  0.00     0.149 C 
ATOM     13  O   UNL     1      -1.296   5.879  -1.367  1.00  0.00    -0.268 OA
ATOM     14  C   UNL     1       0.344   6.520  -2.978  1.00  0.00     0.081 C 
ATOM     15  S   UNL     1       1.632   5.706  -3.755  1.00  0.00    -0.054 SA
ATOM     16  S   UNL     1       3.032   3.447  -2.513  1.00  0.00    -0.052 S 
ATOM     17  C   UNL     1      -0.065   7.774  -3.224  1.00  0.00     0.029 C 
BRANCH  17  18
ATOM     18  C   UNL     1       0.497   8.620  -4.289  1.00  0.00    -0.024 A 
ATOM     19  C   UNL     1       1.506   9.553  -4.025  1.00  0.00     0.012 A 
ATOM     20  C   UNL     1       0.060   8.440  -5.609  1.00  0.00     0.012 A 
ATOM     21  C   UNL     1       2.083  10.280  -5.071  1.00  0.00     0.047 A 
ATOM     22  C   UNL     1       0.635   9.168  -6.654  1.00  0.00     0.047 A 
ATOM     23  C   UNL     1       1.647  10.079  -6.376  1.00  0.00     0.115 A 
BRANCH  23  24
ATOM     24  O   UNL     1       2.247  10.796  -7.367  1.00  0.00    -0.508 OA
ATOM     25  H   UNL     1       2.928  11.405  -7.159  1.00  0.00     0.293 HD
ENDBRANCH  23  24
ENDBRANCH  17  18
ENDBRANCH   5  10
ENDBRANCH   3   5
ENDBRANCH   2   3
ENDBRANCH   1   2
BRANCH   1  26
ATOM     26  C   UNL     1       2.702   4.069   3.365  1.00  0.00     0.275 C 
BRANCH  26  27
ATOM     27  O   UNL     1       3.387   5.054   2.571  1.00  0.00    -0.458 OA
BRANCH  27  28
ATOM     28  C   UNL     1       3.866   4.604   1.394  1.00  0.00     0.338 C 
ATOM     29  O   UNL     1       3.825   3.458   0.963  1.00  0.00    -0.246 OA
BRANCH  28  30
ATOM     30  C   UNL     1       4.348   5.741   0.605  1.00  0.00     0.060 A 
ATOM     31  C   UNL     1       3.448   6.378  -0.247  1.00  0.00     0.016 A 
ATOM     32  C   UNL     1       5.690   6.109   0.615  1.00  0.00     0.016 A 
ATOM     33  C   UNL     1       3.885   7.340  -1.141  1.00  0.00     0.010 A 
ATOM     34  C   UNL     1       6.123   7.124  -0.246  1.00  0.00     0.010 A 
ATOM     35  C   UNL     1       5.225   7.729  -1.144  1.00  0.00    -0.014 A 
BRANCH  35  36
ATOM     36  C   UNL     1       5.678   8.724  -2.141  1.00  0.00     0.031 A 
ATOM     37  C   UNL     1       6.604   8.294  -3.238  1.00  0.00     0.074 A 
ATOM     38  C   UNL     1       5.196   9.981  -2.110  1.00  0.00     0.049 A 
ATOM     39  N   UNL     1       7.280   9.027  -4.082  1.00  0.00    -0.248 NA
ATOM     40  C   UNL     1       6.800   6.845  -3.405  1.00  0.00     0.031 C 
ATOM     41  C   UNL     1       4.189  10.477  -1.171  1.00  0.00     0.029 A 
ATOM     42  N   UNL     1       5.460  11.059  -2.913  1.00  0.00    -0.354 N 
ATOM     43  C   UNL     1       8.043   8.137  -4.824  1.00  0.00     0.074 A 
ATOM     44  C   UNL     1       7.715   6.805  -4.363  1.00  0.00     0.031 C 
ATOM     45  C   UNL     1       3.871  11.740  -1.496  1.00  0.00     0.029 A 
ATOM     46  C   UNL     1       4.725  12.175  -2.596  1.00  0.00     0.049 A 
ATOM     47  H   UNL     1       6.115  11.037  -3.648  1.00  0.00     0.167 HD
ATOM     48  C   UNL     1       8.958   8.426  -5.778  1.00  0.00     0.037 A 
ATOM     49  C   UNL     1       4.765  13.415  -3.119  1.00  0.00     0.037 A 
ATOM     50  C   UNL     1       9.228   9.759  -6.246  1.00  0.00     0.049 A 
ATOM     51  C   UNL     1       5.802  13.714  -4.169  1.00  0.00     0.074 A 
ATOM     52  C   UNL     1      10.202  10.191  -7.128  1.00  0.00     0.029 A 
ATOM     53  N   UNL     1       8.488  10.877  -5.886  1.00  0.00    -0.354 N 
ATOM     54  N   UNL     1       6.649  12.899  -4.752  1.00  0.00    -0.248 NA
ATOM     55  C   UNL     1       5.924  15.114  -4.598  1.00  0.00     0.031 C 
ATOM     56  C   UNL     1      10.066  11.575  -7.283  1.00  0.00     0.029 A 
ATOM     57  C   UNL     1       8.982  11.998  -6.529  1.00  0.00     0.049 A 
ATOM     58  H   UNL     1       7.724  10.872  -5.265  1.00  0.00     0.167 HD
ATOM     59  C   UNL     1       7.399  13.683  -5.616  1.00  0.00     0.074 A 
ATOM     60  C   UNL     1       6.889  15.034  -5.504  1.00  0.00     0.031 C 
ATOM     61  C   UNL     1       8.435  13.324  -6.413  1.00  0.00     0.037 A 
BRANCH  48  62
ATOM     62  C   UNL     1       9.790   7.296  -6.304  1.00  0.00     0.064 A 
ATOM     63  C   UNL     1       9.284   6.348  -7.203  1.00  0.00     0.173 A 
ATOM     64  C   UNL     1      11.131   7.175  -5.905  1.00  0.00     0.173 A 
ATOM     65  F   UNL     1       8.004   6.407  -7.598  1.00  0.00    -0.203 F 
ATOM     66  C   UNL     1      10.087   5.309  -7.671  1.00  0.00     0.198 A 
ATOM     67  C   UNL     1      11.937   6.152  -6.394  1.00  0.00     0.198 A 
ATOM     68  F   UNL     1      11.662   8.057  -5.045  1.00  0.00    -0.203 F 
ATOM     69  F   UNL     1       9.575   4.390  -8.501  1.00  0.00    -0.200 F 
ATOM     70  C   UNL     1      11.413   5.216  -7.272  1.00  0.00     0.200 A 
ATOM     71  F   UNL     1      13.219   6.070  -6.013  1.00  0.00    -0.200 F 
ATOM     72  F   UNL     1      12.184   4.220  -7.728  1.00  0.00    -0.200 F 
ENDBRANCH  48  62
BRANCH  49  73
ATOM     73  C   UNL     1       3.829  14.469  -2.645  1.00  0.00     0.064 A 
ATOM     74  C   UNL     1       2.874  15.015  -3.514  1.00  0.00     0.173 A 
ATOM     75  C   UNL     1       3.869  14.961  -1.332  1.00  0.00     0.173 A 
ATOM     76  F   UNL     1       2.814  14.601  -4.788  1.00  0.00    -0.203 F 
ATOM     77  C   UNL     1       2.004  16.019  -3.092  1.00  0.00     0.198 A 
ATOM     78  C   UNL     1       2.976  15.940  -0.901  1.00  0.00     0.198 A 
ATOM     79  F   UNL     1       4.767  14.481  -0.460  1.00  0.00    -0.203 F 
ATOM     80  F   UNL     1       1.134  16.557  -3.957  1.00  0.00    -0.200 F 
ATOM     81  C   UNL     1       2.050  16.475  -1.783  1.00  0.00     0.200 A 
ATOM     82  F   UNL     1       3.016  16.368   0.368  1.00  0.00    -0.200 F 
ATOM     83  F   UNL     1       1.210  17.436  -1.375  1.00  0.00    -0.200 F 
ENDBRANCH  49  73
BRANCH  61  84
ATOM     84  C   UNL     1       9.068  14.400  -7.240  1.00  0.00     0.064 A 
ATOM     85  C   UNL     1       9.932  15.345  -6.669  1.00  0.00     0.173 A 
ATOM     86  C   UNL     1       8.863  14.441  -8.627  1.00  0.00     0.173 A 
ATOM     87  F   UNL     1      10.147  15.350  -5.345  1.00  0.00    -0.203 F 
ATOM     88  C   UNL     1      10.561  16.303  -7.458  1.00  0.00     0.198 A 
ATOM     89  C   UNL     1       9.511  15.387  -9.415  1.00  0.00     0.198 A 
ATOM     90  F   UNL     1       8.050  13.553  -9.217  1.00  0.00    -0.203 F 
ATOM     91  F   UNL     1      11.362  17.215  -6.890  1.00  0.00    -0.200 F 
ATOM     92  C   UNL     1      10.357  16.318  -8.830  1.00  0.00     0.200 A 
ATOM     93  F   UNL     1       9.322  15.395 -10.742  1.00  0.00    -0.200 F 
ATOM     94  F   UNL     1      10.974  17.234  -9.589  1.00  0.00    -0.200 F 
ENDBRANCH  61  84
ENDBRANCH  35  36
ENDBRANCH  28  30
ENDBRANCH  27  28
ENDBRANCH  26  27
ENDBRANCH   1  26
TORSDOF 16
