REMARK SMILES O=C(Nc1ccc(C(=O)OCCOC(=O)c2ccc(-c3c4nc(c(-c5c(F)c(F)c(F)c(F)c5F)c5ccc([nH]5)c(-c5c(F)c(F)c(F)c(F)c5F)c5nc(c(-c6c(F)c(F)c(F)c(F)c6F)c6ccc3[nH]6)C=C5)C=C4)cc2)cn1)N[C@@H]1CCOC1
REMARK SMILES IDX 11 1 10 2 8 3 9 4 7 5 4 6 5 7 80 8 6 9 79 10 3 11 1 12 2 13
REMARK SMILES IDX 81 14 82 17 83 18 86 19 84 20 85 21 12 22 13 23 14 24 15 25
REMARK SMILES IDX 16 26 17 27 78 28 18 29 77 30 19 31 20 32 21 33 71 34 22 35
REMARK SMILES IDX 76 36 70 37 72 38 23 39 75 40 69 41 68 42 24 44 56 45 36 46
REMARK SMILES IDX 55 47 37 48 40 49 54 50 73 51 38 52 39 53 53 55 74 56 41 57
REMARK SMILES IDX 25 58 26 59 34 60 27 61 28 62 32 63 35 64 29 65 30 66 33 67
REMARK SMILES IDX 31 68 57 69 58 70 66 71 59 72 60 73 64 74 67 75 61 76 62 77
REMARK SMILES IDX 65 78 63 79 42 80 43 81 51 82 44 83 45 84 49 85 52 86 46 87
REMARK SMILES IDX 47 88 50 89 48 90
REMARK H PARENT 3 15 81 16 72 43 40 54
REMARK Flexibility Score: inf
ROOT
ATOM      1  C   UNL     1      10.753   0.752  -0.318  1.00  0.00     0.275 C 
ENDROOT
BRANCH   1   2
ATOM      2  O   UNL     1       9.327   0.856  -0.526  1.00  0.00    -0.458 OA
BRANCH   2   3
ATOM      3  C   UNL     1       8.555   0.456   0.509  1.00  0.00     0.339 C 
ATOM      4  O   UNL     1       8.941  -0.014   1.569  1.00  0.00    -0.246 OA
BRANCH   3   5
ATOM      5  C   UNL     1       7.133   0.738   0.254  1.00  0.00     0.078 A 
ATOM      6  C   UNL     1       4.424   1.129   0.076  1.00  0.00     0.133 A 
ATOM      7  C   UNL     1       5.122   0.685  -1.048  1.00  0.00     0.048 A 
ATOM      8  N   UNL     1       5.024   1.440   1.230  1.00  0.00    -0.238 NA
ATOM      9  C   UNL     1       6.508   0.512  -0.966  1.00  0.00     0.021 A 
ATOM     10  C   UNL     1       6.344   1.174   1.309  1.00  0.00     0.129 A 
BRANCH   6  11
ATOM     11  N   UNL     1       3.042   1.220   0.112  1.00  0.00    -0.292 N 
ATOM     12  O   UNL     1       0.940   0.679  -0.426  1.00  0.00    -0.248 OA
ATOM     13  C   UNL     1       2.116   0.342  -0.365  1.00  0.00     0.320 C 
ATOM     14  N   UNL     1       2.575  -0.921  -0.609  1.00  0.00    -0.333 N 
ATOM     15  H   UNL     1       2.680   2.028   0.541  1.00  0.00     0.173 HD
ATOM     16  H   UNL     1       3.538  -1.062  -0.456  1.00  0.00     0.165 HD
BRANCH  14  17
ATOM     17  C   UNL     1       1.826  -2.092  -1.067  1.00  0.00     0.112 C 
ATOM     18  C   UNL     1       0.342  -2.116  -0.770  1.00  0.00     0.056 C 
ATOM     19  C   UNL     1       2.265  -3.330  -0.273  1.00  0.00     0.185 C 
ATOM     20  C   UNL     1       0.320  -2.498   0.693  1.00  0.00     0.162 C 
ATOM     21  O   UNL     1       1.413  -3.413   0.885  1.00  0.00    -0.379 OA
ENDBRANCH  14  17
ENDBRANCH   6  11
ENDBRANCH   3   5
ENDBRANCH   2   3
ENDBRANCH   1   2
BRANCH   1  22
ATOM     22  C   UNL     1      11.368   2.108   0.041  1.00  0.00     0.275 C 
BRANCH  22  23
ATOM     23  O   UNL     1      10.984   2.524   1.368  1.00  0.00    -0.458 OA
BRANCH  23  24
ATOM     24  C   UNL     1      10.031   3.481   1.410  1.00  0.00     0.338 C 
ATOM     25  O   UNL     1       9.476   4.015   0.463  1.00  0.00    -0.246 OA
BRANCH  24  26
ATOM     26  C   UNL     1       9.605   3.744   2.793  1.00  0.00     0.060 A 
ATOM     27  C   UNL     1       8.658   2.887   3.329  1.00  0.00     0.016 A 
ATOM     28  C   UNL     1       9.900   4.936   3.445  1.00  0.00     0.016 A 
ATOM     29  C   UNL     1       7.861   3.294   4.392  1.00  0.00     0.010 A 
ATOM     30  C   UNL     1       9.216   5.263   4.629  1.00  0.00     0.010 A 
ATOM     31  C   UNL     1       8.140   4.478   5.088  1.00  0.00    -0.014 A 
BRANCH  31  32
ATOM     32  C   UNL     1       7.287   4.877   6.255  1.00  0.00     0.031 A 
ATOM     33  C   UNL     1       6.662   6.253   6.328  1.00  0.00     0.074 A 
ATOM     34  C   UNL     1       7.026   3.995   7.245  1.00  0.00     0.049 A 
ATOM     35  N   UNL     1       6.025   6.826   7.322  1.00  0.00    -0.248 NA
ATOM     36  C   UNL     1       6.784   7.105   5.135  1.00  0.00     0.031 C 
ATOM     37  C   UNL     1       7.524   2.619   7.310  1.00  0.00     0.029 A 
ATOM     38  N   UNL     1       6.262   4.114   8.384  1.00  0.00    -0.354 N 
ATOM     39  C   UNL     1       5.720   8.113   6.893  1.00  0.00     0.074 A 
ATOM     40  C   UNL     1       6.263   8.248   5.559  1.00  0.00     0.031 C 
ATOM     41  C   UNL     1       7.008   2.006   8.383  1.00  0.00     0.029 A 
ATOM     42  C   UNL     1       6.241   2.975   9.154  1.00  0.00     0.049 A 
ATOM     43  H   UNL     1       5.777   4.936   8.624  1.00  0.00     0.167 HD
ATOM     44  C   UNL     1       5.041   9.090   7.546  1.00  0.00     0.037 A 
ATOM     45  C   UNL     1       5.715   2.737  10.372  1.00  0.00     0.037 A 
ATOM     46  C   UNL     1       4.454   8.940   8.855  1.00  0.00     0.049 A 
ATOM     47  C   UNL     1       5.004   3.848  11.090  1.00  0.00     0.074 A 
ATOM     48  C   UNL     1       3.750   9.873   9.599  1.00  0.00     0.029 A 
ATOM     49  N   UNL     1       4.484   7.775   9.608  1.00  0.00    -0.354 N 
ATOM     50  N   UNL     1       4.777   5.076  10.696  1.00  0.00    -0.248 NA
ATOM     51  C   UNL     1       4.489   3.542  12.431  1.00  0.00     0.031 C 
ATOM     52  C   UNL     1       3.394   9.287  10.819  1.00  0.00     0.029 A 
ATOM     53  C   UNL     1       3.822   7.970  10.812  1.00  0.00     0.049 A 
ATOM     54  H   UNL     1       4.912   6.934   9.329  1.00  0.00     0.167 HD
ATOM     55  C   UNL     1       4.079   5.684  11.730  1.00  0.00     0.074 A 
ATOM     56  C   UNL     1       3.893   4.679  12.756  1.00  0.00     0.031 C 
ATOM     57  C   UNL     1       3.640   6.963  11.824  1.00  0.00     0.037 A 
BRANCH  44  58
ATOM     58  C   UNL     1       4.910  10.427   6.867  1.00  0.00     0.064 A 
ATOM     59  C   UNL     1       4.099  10.612   5.737  1.00  0.00     0.173 A 
ATOM     60  C   UNL     1       5.572  11.552   7.384  1.00  0.00     0.173 A 
ATOM     61  F   UNL     1       3.450   9.570   5.194  1.00  0.00    -0.203 F 
ATOM     62  C   UNL     1       3.980  11.863   5.134  1.00  0.00     0.198 A 
ATOM     63  C   UNL     1       5.424  12.808   6.800  1.00  0.00     0.198 A 
ATOM     64  F   UNL     1       6.353  11.439   8.470  1.00  0.00    -0.203 F 
ATOM     65  F   UNL     1       3.240  12.003   4.025  1.00  0.00    -0.200 F 
ATOM     66  C   UNL     1       4.636  12.961   5.670  1.00  0.00     0.200 A 
ATOM     67  F   UNL     1       6.044  13.871   7.331  1.00  0.00    -0.200 F 
ATOM     68  F   UNL     1       4.512  14.165   5.095  1.00  0.00    -0.200 F 
ENDBRANCH  44  58
BRANCH  45  69
ATOM     69  C   UNL     1       5.899   1.406  11.015  1.00  0.00     0.064 A 
ATOM     70  C   UNL     1       4.807   0.571  11.287  1.00  0.00     0.173 A 
ATOM     71  C   UNL     1       7.174   0.948  11.386  1.00  0.00     0.173 A 
ATOM     72  F   UNL     1       3.564   0.971  10.978  1.00  0.00    -0.203 F 
ATOM     73  C   UNL     1       4.980  -0.658  11.922  1.00  0.00     0.198 A 
ATOM     74  C   UNL     1       7.350  -0.297  11.982  1.00  0.00     0.198 A 
ATOM     75  F   UNL     1       8.255   1.706  11.150  1.00  0.00    -0.203 F 
ATOM     76  F   UNL     1       3.912  -1.409  12.224  1.00  0.00    -0.200 F 
ATOM     77  C   UNL     1       6.252  -1.095  12.261  1.00  0.00     0.200 A 
ATOM     78  F   UNL     1       8.584  -0.722  12.288  1.00  0.00    -0.200 F 
ATOM     79  F   UNL     1       6.418  -2.279  12.866  1.00  0.00    -0.200 F 
ENDBRANCH  45  69
BRANCH  57  80
ATOM     80  C   UNL     1       2.878   7.331  13.066  1.00  0.00     0.064 A 
ATOM     81  C   UNL     1       3.505   7.420  14.318  1.00  0.00     0.173 A 
ATOM     82  C   UNL     1       1.502   7.597  13.001  1.00  0.00     0.173 A 
ATOM     83  F   UNL     1       4.815   7.158  14.438  1.00  0.00    -0.203 F 
ATOM     84  C   UNL     1       2.774   7.721  15.465  1.00  0.00     0.198 A 
ATOM     85  C   UNL     1       0.782   7.933  14.143  1.00  0.00     0.198 A 
ATOM     86  F   UNL     1       0.855   7.532  11.828  1.00  0.00    -0.203 F 
ATOM     87  F   UNL     1       3.381   7.734  16.660  1.00  0.00    -0.200 F 
ATOM     88  C   UNL     1       1.415   7.983  15.376  1.00  0.00     0.200 A 
ATOM     89  F   UNL     1      -0.529   8.199  14.053  1.00  0.00    -0.200 F 
ATOM     90  F   UNL     1       0.713   8.271  16.480  1.00  0.00    -0.200 F 
ENDBRANCH  57  80
ENDBRANCH  31  32
ENDBRANCH  24  26
ENDBRANCH  23  24
ENDBRANCH  22  23
ENDBRANCH   1  22
TORSDOF 13
