REMARK SMILES Cc1ccc(C)c(S(=O)(=O)N[C@H](CC2=c3ccccc3=NC2)C(=O)OCCOC(=O)c2ccc(-c3c4nc(c(-c5c(F)c(F)c(F)c(F)c5F)c5ccc([nH]5)c(-c5c(F)c(F)c(F)c(F)c5F)c5nc(c(-c6c(F)c(F)c(F)c(F)c6F)c6ccc3[nH]6)C=C5)C=C4)cc2)c1
REMARK SMILES IDX 26 1 25 2 23 3 24 4 12 5 11 6 8 8 9 9 10 10 7 11 1 12 2 13
REMARK SMILES IDX 3 14 94 15 4 16 5 17 6 18 13 19 14 20 15 21 22 22 16 23
REMARK SMILES IDX 20 24 21 25 17 26 19 27 18 28 27 29 28 30 29 31 30 32 31 33
REMARK SMILES IDX 32 34 93 35 33 36 92 37 34 38 35 39 36 40 86 41 37 42 91 43
REMARK SMILES IDX 85 44 87 45 38 46 90 47 84 48 83 49 39 51 71 52 51 53 70 54
REMARK SMILES IDX 52 55 55 56 69 57 88 58 53 59 54 60 68 62 89 63 56 64 40 65
REMARK SMILES IDX 41 66 49 67 42 68 43 69 47 70 50 71 44 72 45 73 48 74 46 75
REMARK SMILES IDX 72 76 73 77 81 78 74 79 75 80 79 81 82 82 76 83 77 84 80 85
REMARK SMILES IDX 78 86 57 87 58 88 66 89 59 90 60 91 64 92 67 93 61 94 62 95
REMARK SMILES IDX 65 96 63 97
REMARK H PARENT 11 7 87 50 55 61
REMARK Flexibility Score: inf
ROOT
ATOM      1  C   UNL     1       3.621   8.377  -0.664  1.00  0.00     0.274 C 
ENDROOT
BRANCH   1   2
ATOM      2  O   UNL     1       2.523   7.901  -1.455  1.00  0.00    -0.461 OA
BRANCH   2   3
ATOM      3  C   UNL     1       2.611   6.517  -1.910  1.00  0.00     0.324 C 
ATOM      4  O   UNL     1       3.822   6.394  -2.230  1.00  0.00    -0.250 OA
BRANCH   3   5
ATOM      5  C   UNL     1       0.902   5.124  -1.894  1.00  0.00     0.183 C 
BRANCH   5   6
ATOM      6  N   UNL     1      -0.098   4.511  -3.103  1.00  0.00    -0.197 NA
ATOM      7  H   UNL     1      -1.040   4.576  -2.718  1.00  0.00     0.142 HD
BRANCH   6   8
ATOM      8  S   UNL     1      -0.030   2.948  -3.839  1.00  0.00     0.241 S 
ATOM      9  O   UNL     1       1.331   2.752  -4.289  1.00  0.00    -0.207 OA
ATOM     10  O   UNL     1      -1.121   2.995  -4.796  1.00  0.00    -0.207 OA
BRANCH   8  11
ATOM     11  C   UNL     1      -0.414   1.450  -2.850  1.00  0.00     0.085 A 
ATOM     12  C   UNL     1      -1.631   0.270   0.616  1.00  0.00     0.044 C 
ATOM     13  C   UNL     1      -1.123   0.282  -0.801  1.00  0.00    -0.050 A 
ATOM     14  C   UNL     1      -0.810  -0.956  -1.367  1.00  0.00     0.004 A 
ATOM     15  C   UNL     1      -0.957   1.476  -1.557  1.00  0.00     0.025 A 
ATOM     16  C   UNL     1      -0.346  -1.013  -2.669  1.00  0.00     0.005 A 
ATOM     17  C   UNL     1      -0.149   0.166  -3.427  1.00  0.00    -0.031 A 
ATOM     18  C   UNL     1       0.318  -0.097  -4.837  1.00  0.00     0.046 C 
ENDBRANCH   8  11
ENDBRANCH   6   8
ENDBRANCH   5   6
BRANCH   5  19
ATOM     19  C   UNL     1      -0.404   4.804  -0.561  1.00  0.00     0.065 C 
BRANCH  19  20
ATOM     20  C   UNL     1      -0.788   5.557   0.736  1.00  0.00    -0.037 C 
ATOM     21  C   UNL     1      -0.327   5.395   1.986  1.00  0.00     0.001 A 
ATOM     22  C   UNL     1      -1.632   6.808   0.686  1.00  0.00     0.174 C 
ATOM     23  C   UNL     1       0.433   4.419   2.704  1.00  0.00     0.010 A 
ATOM     24  C   UNL     1      -0.510   6.756   2.552  1.00  0.00     0.065 A 
ATOM     25  N   UNL     1      -1.216   7.603   1.865  1.00  0.00    -0.280 NA
ATOM     26  C   UNL     1       1.008   4.758   3.872  1.00  0.00     0.001 A 
ATOM     27  C   UNL     1       0.264   7.088   3.772  1.00  0.00     0.028 A 
ATOM     28  C   UNL     1       0.978   6.122   4.370  1.00  0.00     0.002 A 
ENDBRANCH  19  20
ENDBRANCH   5  19
ENDBRANCH   3   5
ENDBRANCH   2   3
ENDBRANCH   1   2
BRANCH   1  29
ATOM     29  C   UNL     1       3.618   7.751   0.741  1.00  0.00     0.275 C 
BRANCH  29  30
ATOM     30  O   UNL     1       4.068   6.365   0.852  1.00  0.00    -0.458 OA
BRANCH  30  31
ATOM     31  C   UNL     1       3.293   5.248   0.782  1.00  0.00     0.338 C 
ATOM     32  O   UNL     1       3.476   4.228   1.426  1.00  0.00    -0.246 OA
BRANCH  31  33
ATOM     33  C   UNL     1       2.371   5.230  -0.354  1.00  0.00     0.060 A 
ATOM     34  C   UNL     1       2.948   4.458  -1.889  1.00  0.00     0.016 A 
ATOM     35  C   UNL     1       1.174   6.575  -0.449  1.00  0.00     0.016 A 
ATOM     36  C   UNL     1       2.422   5.179  -3.478  1.00  0.00     0.010 A 
ATOM     37  C   UNL     1       0.589   7.194  -2.044  1.00  0.00     0.010 A 
ATOM     38  C   UNL     1       1.377   6.639  -3.536  1.00  0.00    -0.014 A 
BRANCH  38  39
ATOM     39  C   UNL     1       1.529   7.820  -4.569  1.00  0.00     0.031 A 
ATOM     40  C   UNL     1       0.237   7.788  -5.264  1.00  0.00     0.074 A 
ATOM     41  C   UNL     1       2.348   8.919  -4.842  1.00  0.00     0.049 A 
ATOM     42  N   UNL     1      -0.035   6.924  -6.184  1.00  0.00    -0.248 NA
ATOM     43  C   UNL     1      -0.950   8.415  -4.662  1.00  0.00     0.031 C 
ATOM     44  C   UNL     1       3.563   9.431  -4.175  1.00  0.00     0.029 A 
ATOM     45  N   UNL     1       2.232   9.897  -5.870  1.00  0.00    -0.354 N 
ATOM     46  C   UNL     1      -1.355   7.162  -6.493  1.00  0.00     0.074 A 
ATOM     47  C   UNL     1      -1.916   7.756  -5.313  1.00  0.00     0.031 C 
ATOM     48  C   UNL     1       3.928  10.667  -4.639  1.00  0.00     0.029 A 
ATOM     49  C   UNL     1       3.089  11.049  -5.766  1.00  0.00     0.049 A 
ATOM     50  H   UNL     1       1.597   9.791  -6.615  1.00  0.00     0.167 HD
ATOM     51  C   UNL     1      -1.717   7.287  -7.799  1.00  0.00     0.037 A 
ATOM     52  C   UNL     1       3.241  12.128  -6.630  1.00  0.00     0.037 A 
ATOM     53  C   UNL     1      -0.593   6.941  -8.652  1.00  0.00     0.049 A 
ATOM     54  C   UNL     1       2.766  11.669  -7.945  1.00  0.00     0.074 A 
ATOM     55  C   UNL     1       0.167   5.816  -8.900  1.00  0.00     0.029 A 
ATOM     56  N   UNL     1       0.184   8.022  -8.974  1.00  0.00    -0.354 N 
ATOM     57  N   UNL     1       3.376  10.780  -8.667  1.00  0.00    -0.248 NA
ATOM     58  C   UNL     1       1.374  11.921  -8.258  1.00  0.00     0.031 C 
ATOM     59  C   UNL     1       1.489   6.280  -9.184  1.00  0.00     0.029 A 
ATOM     60  C   UNL     1       1.481   7.672  -9.218  1.00  0.00     0.049 A 
ATOM     61  H   UNL     1      -0.153   8.945  -9.024  1.00  0.00     0.167 HD
ATOM     62  C   UNL     1       2.340  10.000  -9.135  1.00  0.00     0.074 A 
ATOM     63  C   UNL     1       1.134  10.814  -8.961  1.00  0.00     0.031 C 
ATOM     64  C   UNL     1       2.533   8.659  -9.280  1.00  0.00     0.037 A 
BRANCH  51  65
ATOM     65  C   UNL     1      -2.823   8.193  -8.299  1.00  0.00     0.064 A 
ATOM     66  C   UNL     1      -3.192   8.107  -9.656  1.00  0.00     0.173 A 
ATOM     67  C   UNL     1      -3.368   9.294  -7.600  1.00  0.00     0.173 A 
ATOM     68  F   UNL     1      -2.695   7.135 -10.436  1.00  0.00    -0.203 F 
ATOM     69  C   UNL     1      -4.017   9.059 -10.263  1.00  0.00     0.198 A 
ATOM     70  C   UNL     1      -4.233  10.211  -8.193  1.00  0.00     0.198 A 
ATOM     71  F   UNL     1      -3.013   9.613  -6.352  1.00  0.00    -0.203 F 
ATOM     72  F   UNL     1      -4.258   8.987 -11.578  1.00  0.00    -0.200 F 
ATOM     73  C   UNL     1      -4.543  10.105  -9.529  1.00  0.00     0.200 A 
ATOM     74  F   UNL     1      -4.698  11.238  -7.468  1.00  0.00    -0.200 F 
ATOM     75  F   UNL     1      -5.304  11.038 -10.114  1.00  0.00    -0.200 F 
ENDBRANCH  51  65
BRANCH  52  76
ATOM     76  C   UNL     1       3.432  13.640  -6.495  1.00  0.00     0.064 A 
ATOM     77  C   UNL     1       3.625  14.499  -7.623  1.00  0.00     0.173 A 
ATOM     78  C   UNL     1       3.016  14.301  -5.331  1.00  0.00     0.173 A 
ATOM     79  F   UNL     1       3.992  13.992  -8.811  1.00  0.00    -0.203 F 
ATOM     80  C   UNL     1       3.352  15.885  -7.592  1.00  0.00     0.198 A 
ATOM     81  C   UNL     1       2.737  15.684  -5.304  1.00  0.00     0.198 A 
ATOM     82  F   UNL     1       2.768  13.596  -4.221  1.00  0.00    -0.203 F 
ATOM     83  F   UNL     1       3.471  16.631  -8.703  1.00  0.00    -0.200 F 
ATOM     84  C   UNL     1       2.884  16.471  -6.434  1.00  0.00     0.200 A 
ATOM     85  F   UNL     1       2.250  16.237  -4.184  1.00  0.00    -0.200 F 
ATOM     86  F   UNL     1       2.534  17.767  -6.415  1.00  0.00    -0.200 F 
ENDBRANCH  52  76
BRANCH  64  87
ATOM     87  C   UNL     1       3.951   8.164  -9.392  1.00  0.00     0.064 A 
ATOM     88  C   UNL     1       4.915   8.206  -8.369  1.00  0.00     0.173 A 
ATOM     89  C   UNL     1       4.303   7.511 -10.581  1.00  0.00     0.173 A 
ATOM     90  F   UNL     1       4.644   8.768  -7.185  1.00  0.00    -0.203 F 
ATOM     91  C   UNL     1       6.172   7.620  -8.540  1.00  0.00     0.198 A 
ATOM     92  C   UNL     1       5.541   6.899 -10.735  1.00  0.00     0.198 A 
ATOM     93  F   UNL     1       3.416   7.429 -11.585  1.00  0.00    -0.203 F 
ATOM     94  F   UNL     1       7.080   7.671  -7.552  1.00  0.00    -0.200 F 
ATOM     95  C   UNL     1       6.478   6.956  -9.717  1.00  0.00     0.200 A 
ATOM     96  F   UNL     1       5.813   6.228 -11.862  1.00  0.00    -0.200 F 
ATOM     97  F   UNL     1       7.666   6.354  -9.865  1.00  0.00    -0.200 F 
ENDBRANCH  64  87
ENDBRANCH  38  39
ENDBRANCH  31  33
ENDBRANCH  30  31
ENDBRANCH  29  30
ENDBRANCH   1  29
TORSDOF 16
