REMARK SMILES CC[C@@](C)(NC(=O)N1CCC[C@H]1C1CCCC1)C(=O)OCCOC(=O)c1ccc(-c2c3nc(c(-c4c(F)c(F)c(F)c(F)c4F)c4ccc([nH]4)c(-c4c(F)c(F)c(F)c(F)c4F)c4nc(c(-c5c(F)c(F)c(F)c(F)c5F)c5ccc2[nH]5)C=C4)C=C3)cc1
REMARK SMILES IDX 21 1 20 2 18 3 19 4 3 5 4 6 2 7 1 8 5 9 6 10 7 12 8 13 9 14
REMARK SMILES IDX 12 15 10 16 11 17 13 18 14 19 17 20 15 21 16 22 22 23 23 24
REMARK SMILES IDX 24 25 25 26 26 27 27 28 88 29 28 30 87 31 29 32 30 33 31 34
REMARK SMILES IDX 81 35 32 36 86 37 80 38 82 39 33 40 85 41 79 42 78 43 34 45
REMARK SMILES IDX 66 46 46 47 65 48 47 49 50 50 64 51 83 52 48 53 49 54 63 56
REMARK SMILES IDX 84 57 51 58 35 59 36 60 44 61 37 62 38 63 42 64 45 65 39 66
REMARK SMILES IDX 40 67 43 68 41 69 67 70 68 71 76 72 69 73 70 74 74 75 77 76
REMARK SMILES IDX 71 77 72 78 75 79 73 80 52 81 53 82 61 83 54 84 55 85 59 86
REMARK SMILES IDX 62 87 56 88 57 89 60 90 58 91
REMARK H PARENT 5 11 82 44 50 55
REMARK Flexibility Score: inf
ROOT
ATOM      1  C   UNL     1       4.977  -0.299  -2.440  1.00  0.00     0.274 C 
ENDROOT
BRANCH   1   2
ATOM      2  O   UNL     1       3.706   0.331  -2.769  1.00  0.00    -0.460 OA
BRANCH   2   3
ATOM      3  C   UNL     1       2.610  -0.021  -2.057  1.00  0.00     0.331 C 
ATOM      4  O   UNL     1       2.684  -0.913  -1.213  1.00  0.00    -0.249 OA
BRANCH   3   5
ATOM      5  C   UNL     1       1.207   0.667  -2.465  1.00  0.00     0.136 C 
ATOM      6  C   UNL     1       0.553  -0.481  -3.285  1.00  0.00     0.047 C 
BRANCH   5   7
ATOM      7  C   UNL     1       0.364   0.898  -1.162  1.00  0.00     0.037 C 
ATOM      8  C   UNL     1       0.134  -0.301  -0.231  1.00  0.00     0.007 C 
ENDBRANCH   5   7
BRANCH   5   9
ATOM      9  N   UNL     1       0.951   1.887  -3.387  1.00  0.00    -0.322 N 
ATOM     10  C   UNL     1       1.232   3.232  -3.286  1.00  0.00     0.318 C 
ATOM     11  H   UNL     1       0.488   1.651  -4.223  1.00  0.00     0.166 HD
ATOM     12  O   UNL     1       0.364   4.000  -2.878  1.00  0.00    -0.249 OA
BRANCH  10  13
ATOM     13  N   UNL     1       2.431   3.664  -3.842  1.00  0.00    -0.322 N 
ATOM     14  C   UNL     1       3.474   2.708  -4.016  1.00  0.00     0.122 C 
ATOM     15  C   UNL     1       3.053   4.951  -3.462  1.00  0.00     0.090 C 
ATOM     16  C   UNL     1       4.200   2.963  -2.716  1.00  0.00     0.024 C 
ATOM     17  C   UNL     1       4.249   4.476  -2.603  1.00  0.00     0.027 C 
BRANCH  15  18
ATOM     18  C   UNL     1       3.642   5.830  -4.600  1.00  0.00     0.012 C 
ATOM     19  C   UNL     1       4.351   5.126  -5.761  1.00  0.00     0.006 C 
ATOM     20  C   UNL     1       2.649   6.726  -5.324  1.00  0.00     0.006 C 
ATOM     21  C   UNL     1       4.580   6.232  -6.769  1.00  0.00     0.000 C 
ATOM     22  C   UNL     1       3.366   7.145  -6.616  1.00  0.00     0.000 C 
ENDBRANCH  15  18
ENDBRANCH  10  13
ENDBRANCH   5   9
ENDBRANCH   3   5
ENDBRANCH   2   3
ENDBRANCH   1   2
BRANCH   1  23
ATOM     23  C   UNL     1       5.816   0.451  -1.381  1.00  0.00     0.275 C 
BRANCH  23  24
ATOM     24  O   UNL     1       4.990   0.875  -0.286  1.00  0.00    -0.458 OA
BRANCH  24  25
ATOM     25  C   UNL     1       5.218   2.102   0.256  1.00  0.00     0.338 C 
ATOM     26  O   UNL     1       6.111   2.873  -0.028  1.00  0.00    -0.246 OA
BRANCH  25  27
ATOM     27  C   UNL     1       4.176   2.370   1.287  1.00  0.00     0.060 A 
ATOM     28  C   UNL     1       2.943   1.720   1.236  1.00  0.00     0.016 A 
ATOM     29  C   UNL     1       4.432   3.255   2.335  1.00  0.00     0.016 A 
ATOM     30  C   UNL     1       1.991   1.895   2.238  1.00  0.00     0.010 A 
ATOM     31  C   UNL     1       3.515   3.363   3.391  1.00  0.00     0.010 A 
ATOM     32  C   UNL     1       2.309   2.640   3.375  1.00  0.00    -0.014 A 
BRANCH  32  33
ATOM     33  C   UNL     1       1.479   2.531   4.607  1.00  0.00     0.031 A 
ATOM     34  C   UNL     1       0.865   3.744   5.236  1.00  0.00     0.074 A 
ATOM     35  C   UNL     1       1.373   1.330   5.215  1.00  0.00     0.049 A 
ATOM     36  N   UNL     1       0.361   3.890   6.435  1.00  0.00    -0.248 NA
ATOM     37  C   UNL     1       0.822   4.959   4.410  1.00  0.00     0.031 C 
ATOM     38  C   UNL     1       1.893   0.063   4.691  1.00  0.00     0.029 A 
ATOM     39  N   UNL     1       0.825   0.979   6.426  1.00  0.00    -0.354 N 
ATOM     40  C   UNL     1      -0.019   5.223   6.527  1.00  0.00     0.074 A 
ATOM     41  C   UNL     1       0.313   5.842   5.260  1.00  0.00     0.031 C 
ATOM     42  C   UNL     1       1.648  -0.917   5.570  1.00  0.00     0.029 A 
ATOM     43  C   UNL     1       1.040  -0.339   6.760  1.00  0.00     0.049 A 
ATOM     44  H   UNL     1       0.327   1.607   6.997  1.00  0.00     0.167 HD
ATOM     45  C   UNL     1      -0.583   5.864   7.582  1.00  0.00     0.037 A 
ATOM     46  C   UNL     1       0.838  -1.000   7.914  1.00  0.00     0.037 A 
ATOM     47  C   UNL     1      -0.917   5.224   8.832  1.00  0.00     0.049 A 
ATOM     48  C   UNL     1       0.274  -0.253   9.088  1.00  0.00     0.074 A 
ATOM     49  C   UNL     1      -1.509   5.777   9.954  1.00  0.00     0.029 A 
ATOM     50  N   UNL     1      -0.682   3.887   9.126  1.00  0.00    -0.354 N 
ATOM     51  N   UNL     1      -0.066   1.010   9.177  1.00  0.00    -0.248 NA
ATOM     52  C   UNL     1       0.074  -1.018  10.325  1.00  0.00     0.031 C 
ATOM     53  C   UNL     1      -1.577   4.793  10.946  1.00  0.00     0.029 A 
ATOM     54  C   UNL     1      -1.093   3.606  10.421  1.00  0.00     0.049 A 
ATOM     55  H   UNL     1      -0.283   3.234   8.506  1.00  0.00     0.167 HD
ATOM     56  C   UNL     1      -0.546   1.185  10.466  1.00  0.00     0.074 A 
ATOM     57  C   UNL     1      -0.467  -0.106  11.119  1.00  0.00     0.031 C 
ATOM     58  C   UNL     1      -1.012   2.314  11.055  1.00  0.00     0.037 A 
BRANCH  45  59
ATOM     59  C   UNL     1      -0.830   7.341   7.454  1.00  0.00     0.064 A 
ATOM     60  C   UNL     1      -1.812   7.863   6.598  1.00  0.00     0.173 A 
ATOM     61  C   UNL     1      -0.097   8.250   8.235  1.00  0.00     0.173 A 
ATOM     62  F   UNL     1      -2.539   7.043   5.825  1.00  0.00    -0.203 F 
ATOM     63  C   UNL     1      -2.028   9.237   6.506  1.00  0.00     0.198 A 
ATOM     64  C   UNL     1      -0.339   9.620   8.165  1.00  0.00     0.198 A 
ATOM     65  F   UNL     1       0.848   7.808   9.079  1.00  0.00    -0.203 F 
ATOM     66  F   UNL     1      -2.938   9.715   5.645  1.00  0.00    -0.200 F 
ATOM     67  C   UNL     1      -1.297  10.113   7.294  1.00  0.00     0.200 A 
ATOM     68  F   UNL     1       0.358  10.462   8.941  1.00  0.00    -0.200 F 
ATOM     69  F   UNL     1      -1.512  11.433   7.210  1.00  0.00    -0.200 F 
ENDBRANCH  45  59
BRANCH  46  70
ATOM     70  C   UNL     1       1.212  -2.436   8.023  1.00  0.00     0.064 A 
ATOM     71  C   UNL     1       0.232  -3.426   8.174  1.00  0.00     0.173 A 
ATOM     72  C   UNL     1       2.552  -2.851   7.965  1.00  0.00     0.173 A 
ATOM     73  F   UNL     1      -1.061  -3.080   8.257  1.00  0.00    -0.203 F 
ATOM     74  C   UNL     1       0.578  -4.772   8.278  1.00  0.00     0.198 A 
ATOM     75  C   UNL     1       2.894  -4.200   8.034  1.00  0.00     0.198 A 
ATOM     76  F   UNL     1       3.531  -1.946   7.818  1.00  0.00    -0.203 F 
ATOM     77  F   UNL     1      -0.377  -5.693   8.468  1.00  0.00    -0.200 F 
ATOM     78  C   UNL     1       1.907  -5.159   8.199  1.00  0.00     0.200 A 
ATOM     79  F   UNL     1       4.178  -4.570   7.937  1.00  0.00    -0.200 F 
ATOM     80  F   UNL     1       2.237  -6.455   8.287  1.00  0.00    -0.200 F 
ENDBRANCH  46  70
BRANCH  58  81
ATOM     81  C   UNL     1      -1.521   2.189  12.463  1.00  0.00     0.064 A 
ATOM     82  C   UNL     1      -0.659   1.967  13.547  1.00  0.00     0.173 A 
ATOM     83  C   UNL     1      -2.893   2.321  12.731  1.00  0.00     0.173 A 
ATOM     84  F   UNL     1       0.658   1.814  13.342  1.00  0.00    -0.203 F 
ATOM     85  C   UNL     1      -1.155   1.852  14.843  1.00  0.00     0.198 A 
ATOM     86  C   UNL     1      -3.380   2.240  14.032  1.00  0.00     0.198 A 
ATOM     87  F   UNL     1      -3.760   2.537  11.731  1.00  0.00    -0.203 F 
ATOM     88  F   UNL     1      -0.320   1.582  15.856  1.00  0.00    -0.200 F 
ATOM     89  C   UNL     1      -2.513   1.997  15.086  1.00  0.00     0.200 A 
ATOM     90  F   UNL     1      -4.691   2.396  14.265  1.00  0.00    -0.200 F 
ATOM     91  F   UNL     1      -2.987   1.893  16.335  1.00  0.00    -0.200 F 
ENDBRANCH  58  81
ENDBRANCH  32  33
ENDBRANCH  25  27
ENDBRANCH  24  25
ENDBRANCH  23  24
ENDBRANCH   1  23
TORSDOF 15
