REMARK SMILES O=C(/C=C/C(=O)OCCOC(=O)c1ccc(-c2c3nc(c(-c4c(F)c(F)c(F)c(F)c4F)c4ccc([nH]4)c(-c4c(F)c(F)c(F)c(F)c4F)c4nc(c(-c5c(F)c(F)c(F)c(F)c5F)c5ccc2[nH]5)C=C4)C=C3)cc1)NNC(=O)CSc1ccc2ccccc2n1
REMARK SMILES IDX 7 1 5 2 6 3 4 4 3 5 2 6 1 7 76 8 77 10 78 11 79 13 80 14
REMARK SMILES IDX 81 15 82 16 83 17 91 18 84 19 90 20 85 21 89 22 86 23 88 24
REMARK SMILES IDX 87 25 8 26 9 27 10 28 11 29 12 30 13 31 14 32 75 33 15 34
REMARK SMILES IDX 74 35 16 36 17 37 18 38 68 39 19 40 73 41 67 42 69 43 20 44
REMARK SMILES IDX 72 45 66 46 65 47 21 49 53 50 33 51 52 52 34 53 37 54 51 55
REMARK SMILES IDX 70 56 35 57 36 58 50 60 71 61 38 62 22 63 23 64 31 65 24 66
REMARK SMILES IDX 25 67 29 68 32 69 26 70 27 71 30 72 28 73 54 74 55 75 63 76
REMARK SMILES IDX 56 77 57 78 61 79 64 80 58 81 59 82 62 83 60 84 39 85 40 86
REMARK SMILES IDX 48 87 41 88 42 89 46 90 49 91 43 92 44 93 47 94 45 95
REMARK H PARENT 76 9 77 12 69 48 37 59
REMARK Flexibility Score: inf
ROOT
ATOM      1  O   UNL     1       4.179   3.452  -1.499  1.00  0.00    -0.459 OA
ENDROOT
BRANCH   1   2
ATOM      2  C   UNL     1       4.632   2.226  -1.848  1.00  0.00     0.331 C 
ATOM      3  O   UNL     1       5.669   1.979  -2.445  1.00  0.00    -0.247 OA
BRANCH   2   4
ATOM      4  C   UNL     1       3.780   1.134  -1.339  1.00  0.00     0.099 C 
ATOM      5  C   UNL     1       2.705   1.299  -0.558  1.00  0.00     0.080 C 
BRANCH   5   6
ATOM      6  C   UNL     1       1.968   0.136  -0.010  1.00  0.00     0.262 C 
ATOM      7  O   UNL     1       0.746   0.142   0.063  1.00  0.00    -0.268 OA
ATOM      8  N   UNL     1       2.781  -0.856   0.503  1.00  0.00    -0.264 N 
ATOM      9  H   UNL     1       3.760  -0.793   0.422  1.00  0.00     0.191 HD
BRANCH   8  10
ATOM     10  N   UNL     1       2.192  -1.947   1.138  1.00  0.00    -0.267 N 
ATOM     11  C   UNL     1       2.590  -3.254   0.987  1.00  0.00     0.248 C 
ATOM     12  H   UNL     1       1.433  -1.769   1.740  1.00  0.00     0.191 HD
ATOM     13  O   UNL     1       2.010  -4.146   1.609  1.00  0.00    -0.272 OA
BRANCH  11  14
ATOM     14  C   UNL     1       3.757  -3.562   0.062  1.00  0.00     0.178 C 
BRANCH  14  15
ATOM     15  S   UNL     1       3.110  -3.922  -1.599  1.00  0.00    -0.096 SA
BRANCH  15  16
ATOM     16  C   UNL     1       4.567  -3.895  -2.616  1.00  0.00     0.097 A 
ATOM     17  C   UNL     1       5.854  -4.133  -2.156  1.00  0.00     0.036 A 
ATOM     18  N   UNL     1       4.312  -3.617  -3.914  1.00  0.00    -0.241 NA
ATOM     19  C   UNL     1       6.917  -4.037  -3.054  1.00  0.00     0.013 A 
ATOM     20  C   UNL     1       5.330  -3.543  -4.787  1.00  0.00     0.072 A 
ATOM     21  C   UNL     1       6.670  -3.723  -4.396  1.00  0.00     0.000 A 
ATOM     22  C   UNL     1       5.062  -3.272  -6.121  1.00  0.00     0.029 A 
ATOM     23  C   UNL     1       7.705  -3.586  -5.340  1.00  0.00     0.010 A 
ATOM     24  C   UNL     1       6.086  -3.139  -7.063  1.00  0.00     0.002 A 
ATOM     25  C   UNL     1       7.411  -3.284  -6.669  1.00  0.00     0.001 A 
ENDBRANCH  15  16
ENDBRANCH  14  15
ENDBRANCH  11  14
ENDBRANCH   8  10
ENDBRANCH   5   6
ENDBRANCH   2   4
ENDBRANCH   1   2
BRANCH   1  26
ATOM     26  C   UNL     1       5.039   4.559  -1.834  1.00  0.00     0.275 C 
BRANCH  26  27
ATOM     27  C   UNL     1       5.844   5.041  -0.621  1.00  0.00     0.275 C 
BRANCH  27  28
ATOM     28  O   UNL     1       6.828   4.077  -0.199  1.00  0.00    -0.458 OA
BRANCH  28  29
ATOM     29  C   UNL     1       6.394   3.172   0.706  1.00  0.00     0.338 C 
ATOM     30  O   UNL     1       5.279   3.099   1.206  1.00  0.00    -0.246 OA
BRANCH  29  31
ATOM     31  C   UNL     1       7.416   2.136   0.928  1.00  0.00     0.060 A 
ATOM     32  C   UNL     1       7.012   0.803   0.808  1.00  0.00     0.016 A 
ATOM     33  C   UNL     1       8.721   2.448   1.315  1.00  0.00     0.016 A 
ATOM     34  C   UNL     1       7.906  -0.226   1.084  1.00  0.00     0.010 A 
ATOM     35  C   UNL     1       9.622   1.411   1.590  1.00  0.00     0.010 A 
ATOM     36  C   UNL     1       9.216   0.070   1.487  1.00  0.00    -0.014 A 
BRANCH  36  37
ATOM     37  C   UNL     1      10.137  -1.045   1.814  1.00  0.00     0.031 A 
ATOM     38  C   UNL     1      10.446  -1.379   3.244  1.00  0.00     0.074 A 
ATOM     39  C   UNL     1      10.654  -1.789   0.819  1.00  0.00     0.049 A 
ATOM     40  N   UNL     1      11.201  -2.334   3.726  1.00  0.00    -0.248 NA
ATOM     41  C   UNL     1       9.821  -0.529   4.268  1.00  0.00     0.031 C 
ATOM     42  C   UNL     1      10.409  -1.575  -0.607  1.00  0.00     0.029 A 
ATOM     43  N   UNL     1      11.487  -2.878   0.857  1.00  0.00    -0.354 N 
ATOM     44  C   UNL     1      11.148  -2.199   5.107  1.00  0.00     0.074 A 
ATOM     45  C   UNL     1      10.306  -1.053   5.385  1.00  0.00     0.031 C 
ATOM     46  C   UNL     1      11.071  -2.508  -1.309  1.00  0.00     0.029 A 
ATOM     47  C   UNL     1      11.812  -3.364  -0.385  1.00  0.00     0.049 A 
ATOM     48  H   UNL     1      11.820  -3.274   1.695  1.00  0.00     0.167 HD
ATOM     49  C   UNL     1      11.740  -2.965   6.054  1.00  0.00     0.037 A 
ATOM     50  C   UNL     1      12.627  -4.375  -0.737  1.00  0.00     0.037 A 
ATOM     51  C   UNL     1      12.575  -4.105   5.775  1.00  0.00     0.049 A 
ATOM     52  C   UNL     1      13.319  -5.175   0.333  1.00  0.00     0.074 A 
ATOM     53  C   UNL     1      13.192  -4.964   6.669  1.00  0.00     0.029 A 
ATOM     54  N   UNL     1      12.920  -4.539   4.504  1.00  0.00    -0.354 N 
ATOM     55  N   UNL     1      13.233  -5.060   1.636  1.00  0.00    -0.248 NA
ATOM     56  C   UNL     1      14.219  -6.244  -0.118  1.00  0.00     0.031 C 
ATOM     57  C   UNL     1      13.948  -5.889   5.939  1.00  0.00     0.029 A 
ATOM     58  C   UNL     1      13.764  -5.636   4.589  1.00  0.00     0.049 A 
ATOM     59  H   UNL     1      12.611  -4.129   3.664  1.00  0.00     0.167 HD
ATOM     60  C   UNL     1      14.054  -6.049   2.161  1.00  0.00     0.074 A 
ATOM     61  C   UNL     1      14.614  -6.767   1.034  1.00  0.00     0.031 C 
ATOM     62  C   UNL     1      14.320  -6.336   3.459  1.00  0.00     0.037 A 
BRANCH  49  63
ATOM     63  C   UNL     1      11.524  -2.580   7.489  1.00  0.00     0.064 A 
ATOM     64  C   UNL     1      10.292  -2.779   8.128  1.00  0.00     0.173 A 
ATOM     65  C   UNL     1      12.574  -2.031   8.241  1.00  0.00     0.173 A 
ATOM     66  F   UNL     1       9.254  -3.288   7.448  1.00  0.00    -0.203 F 
ATOM     67  C   UNL     1      10.111  -2.419   9.461  1.00  0.00     0.198 A 
ATOM     68  C   UNL     1      12.396  -1.695   9.581  1.00  0.00     0.198 A 
ATOM     69  F   UNL     1      13.774  -1.824   7.678  1.00  0.00    -0.203 F 
ATOM     70  F   UNL     1       8.912  -2.576  10.039  1.00  0.00    -0.200 F 
ATOM     71  C   UNL     1      11.164  -1.883  10.188  1.00  0.00     0.200 A 
ATOM     72  F   UNL     1      13.418  -1.186  10.283  1.00  0.00    -0.200 F 
ATOM     73  F   UNL     1      10.988  -1.538  11.471  1.00  0.00    -0.200 F 
ENDBRANCH  49  63
BRANCH  50  74
ATOM     74  C   UNL     1      12.831  -4.688  -2.174  1.00  0.00     0.064 A 
ATOM     75  C   UNL     1      12.301  -5.856  -2.739  1.00  0.00     0.173 A 
ATOM     76  C   UNL     1      13.548  -3.822  -3.011  1.00  0.00     0.173 A 
ATOM     77  F   UNL     1      11.622  -6.721  -1.972  1.00  0.00    -0.203 F 
ATOM     78  C   UNL     1      12.489  -6.149  -4.087  1.00  0.00     0.198 A 
ATOM     79  C   UNL     1      13.713  -4.104  -4.365  1.00  0.00     0.198 A 
ATOM     80  F   UNL     1      14.071  -2.690  -2.516  1.00  0.00    -0.203 F 
ATOM     81  F   UNL     1      11.997  -7.286  -4.597  1.00  0.00    -0.200 F 
ATOM     82  C   UNL     1      13.188  -5.270  -4.901  1.00  0.00     0.200 A 
ATOM     83  F   UNL     1      14.374  -3.243  -5.150  1.00  0.00    -0.200 F 
ATOM     84  F   UNL     1      13.356  -5.546  -6.201  1.00  0.00    -0.200 F 
ENDBRANCH  50  74
BRANCH  62  85
ATOM     85  C   UNL     1      15.245  -7.486   3.730  1.00  0.00     0.064 A 
ATOM     86  C   UNL     1      16.625  -7.389   3.494  1.00  0.00     0.173 A 
ATOM     87  C   UNL     1      14.752  -8.689   4.257  1.00  0.00     0.173 A 
ATOM     88  F   UNL     1      17.142  -6.266   2.975  1.00  0.00    -0.203 F 
ATOM     89  C   UNL     1      17.472  -8.463   3.753  1.00  0.00     0.198 A 
ATOM     90  C   UNL     1      15.606  -9.752   4.540  1.00  0.00     0.198 A 
ATOM     91  F   UNL     1      13.441  -8.832   4.504  1.00  0.00    -0.203 F 
ATOM     92  F   UNL     1      18.780  -8.364   3.477  1.00  0.00    -0.200 F 
ATOM     93  C   UNL     1      16.964  -9.640   4.281  1.00  0.00     0.200 A 
ATOM     94  F   UNL     1      15.114 -10.885   5.059  1.00  0.00    -0.200 F 
ATOM     95  F   UNL     1      17.782 -10.672   4.532  1.00  0.00    -0.200 F 
ENDBRANCH  62  85
ENDBRANCH  36  37
ENDBRANCH  29  31
ENDBRANCH  28  29
ENDBRANCH  27  28
ENDBRANCH  26  27
ENDBRANCH   1  26
TORSDOF 16
