REMARK SMILES CC(C)[C@H](NC(=O)[C@H](C)NC(=O)CNC(=O)OCc1ccccc1)C(=O)OCCOC(=O)c1ccc(-c2c3nc(c(-c4c(F)c(F)c(F)c(F)c4F)c4ccc([nH]4)c(-c4c(F)c(F)c(F)c(F)c4F)c4nc(c(-c5c(F)c(F)c(F)c(F)c5F)c5ccc2[nH]5)C=C4)C=C3)cc1
REMARK SMILES IDX 4 1 2 2 1 3 3 4 25 5 26 6 27 7 28 8 29 9 30 10 31 11 32 12
REMARK SMILES IDX 33 13 34 14 95 15 35 16 94 17 36 18 37 19 38 20 88 21 39 22
REMARK SMILES IDX 93 23 87 24 89 25 40 26 92 27 86 28 85 29 41 31 73 32 53 33
REMARK SMILES IDX 72 34 54 35 57 36 71 37 90 38 55 39 56 40 70 42 91 43 58 44
REMARK SMILES IDX 42 45 43 46 51 47 44 48 45 49 49 50 52 51 46 52 47 53 50 54
REMARK SMILES IDX 48 55 74 56 75 57 83 58 76 59 77 60 81 61 84 62 78 63 79 64
REMARK SMILES IDX 82 65 80 66 59 67 60 68 68 69 61 70 62 71 66 72 69 73 63 74
REMARK SMILES IDX 64 75 67 76 65 77 5 78 6 79 7 81 8 82 9 83 10 84 11 85 12 87
REMARK SMILES IDX 13 88 14 89 15 90 16 92 17 93 18 94 19 95 20 96 24 97 21 98
REMARK SMILES IDX 23 99 22 100
REMARK H PARENT 89 30 57 41 5 80 10 86 14 91
REMARK Flexibility Score: inf
ROOT
ATOM      1  C   UNL     1      -2.425  -5.772   2.531  1.00  0.00     0.194 C 
ENDROOT
BRANCH   1   2
ATOM      2  C   UNL     1      -1.146  -5.137   3.136  1.00  0.00     0.017 C 
ATOM      3  C   UNL     1      -1.322  -3.826   3.916  1.00  0.00     0.010 C 
ATOM      4  C   UNL     1      -0.396  -6.120   4.045  1.00  0.00     0.010 C 
ENDBRANCH   1   2
BRANCH   1   5
ATOM      5  C   UNL     1      -3.369  -4.774   1.799  1.00  0.00     0.329 C 
ATOM      6  O   UNL     1      -3.563  -3.628   2.192  1.00  0.00    -0.250 OA
BRANCH   5   7
ATOM      7  O   UNL     1      -4.091  -5.340   0.793  1.00  0.00    -0.461 OA
BRANCH   7   8
ATOM      8  C   UNL     1      -5.199  -4.548   0.300  1.00  0.00     0.274 C 
BRANCH   8   9
ATOM      9  C   UNL     1      -6.555  -5.114   0.733  1.00  0.00     0.275 C 
BRANCH   9  10
ATOM     10  O   UNL     1      -6.788  -4.912   2.136  1.00  0.00    -0.458 OA
BRANCH  10  11
ATOM     11  C   UNL     1      -6.263  -5.871   2.925  1.00  0.00     0.338 C 
ATOM     12  O   UNL     1      -5.667  -6.880   2.586  1.00  0.00    -0.246 OA
BRANCH  11  13
ATOM     13  C   UNL     1      -6.327  -5.444   4.324  1.00  0.00     0.060 A 
ATOM     14  C   UNL     1      -5.114  -5.173   4.949  1.00  0.00     0.016 A 
ATOM     15  C   UNL     1      -7.514  -5.437   5.046  1.00  0.00     0.016 A 
ATOM     16  C   UNL     1      -5.042  -5.025   6.315  1.00  0.00     0.010 A 
ATOM     17  C   UNL     1      -7.459  -5.183   6.419  1.00  0.00     0.010 A 
ATOM     18  C   UNL     1      -6.218  -5.012   7.061  1.00  0.00    -0.014 A 
BRANCH  18  19
ATOM     19  C   UNL     1      -6.104  -4.850   8.522  1.00  0.00     0.031 A 
ATOM     20  C   UNL     1      -6.488  -5.984   9.419  1.00  0.00     0.074 A 
ATOM     21  C   UNL     1      -5.578  -3.712   9.011  1.00  0.00     0.049 A 
ATOM     22  N   UNL     1      -6.543  -6.021  10.724  1.00  0.00    -0.248 NA
ATOM     23  C   UNL     1      -6.869  -7.246   8.763  1.00  0.00     0.031 C 
ATOM     24  C   UNL     1      -5.104  -2.584   8.202  1.00  0.00     0.029 A 
ATOM     25  N   UNL     1      -5.336  -3.320  10.299  1.00  0.00    -0.354 N 
ATOM     26  C   UNL     1      -7.007  -7.289  11.043  1.00  0.00     0.074 A 
ATOM     27  C   UNL     1      -7.230  -7.990   9.798  1.00  0.00     0.031 C 
ATOM     28  C   UNL     1      -4.605  -1.640   9.012  1.00  0.00     0.029 A 
ATOM     29  C   UNL     1      -4.801  -2.059  10.393  1.00  0.00     0.049 A 
ATOM     30  H   UNL     1      -5.526  -3.886  11.082  1.00  0.00     0.167 HD
ATOM     31  C   UNL     1      -7.225  -7.809  12.273  1.00  0.00     0.037 A 
ATOM     32  C   UNL     1      -4.541  -1.310  11.479  1.00  0.00     0.037 A 
ATOM     33  C   UNL     1      -6.964  -7.093  13.495  1.00  0.00     0.049 A 
ATOM     34  C   UNL     1      -4.844  -1.894  12.829  1.00  0.00     0.074 A 
ATOM     35  C   UNL     1      -7.141  -7.515  14.799  1.00  0.00     0.029 A 
ATOM     36  N   UNL     1      -6.464  -5.798  13.555  1.00  0.00    -0.354 N 
ATOM     37  N   UNL     1      -5.317  -3.081  13.128  1.00  0.00    -0.248 NA
ATOM     38  C   UNL     1      -4.589  -1.035  13.990  1.00  0.00     0.031 C 
ATOM     39  C   UNL     1      -6.795  -6.457  15.648  1.00  0.00     0.029 A 
ATOM     40  C   UNL     1      -6.348  -5.396  14.875  1.00  0.00     0.049 A 
ATOM     41  H   UNL     1      -6.227  -5.247  12.774  1.00  0.00     0.167 HD
ATOM     42  C   UNL     1      -5.402  -3.120  14.511  1.00  0.00     0.074 A 
ATOM     43  C   UNL     1      -4.908  -1.843  14.991  1.00  0.00     0.031 C 
ATOM     44  C   UNL     1      -5.852  -4.115  15.315  1.00  0.00     0.037 A 
BRANCH  31  45
ATOM     45  C   UNL     1      -7.814  -9.187  12.350  1.00  0.00     0.064 A 
ATOM     46  C   UNL     1      -7.089 -10.332  11.986  1.00  0.00     0.173 A 
ATOM     47  C   UNL     1      -9.131  -9.364  12.802  1.00  0.00     0.173 A 
ATOM     48  F   UNL     1      -5.834 -10.218  11.526  1.00  0.00    -0.203 F 
ATOM     49  C   UNL     1      -7.669 -11.598  12.047  1.00  0.00     0.198 A 
ATOM     50  C   UNL     1      -9.697 -10.633  12.891  1.00  0.00     0.198 A 
ATOM     51  F   UNL     1      -9.872  -8.304  13.159  1.00  0.00    -0.203 F 
ATOM     52  F   UNL     1      -6.975 -12.671  11.642  1.00  0.00    -0.200 F 
ATOM     53  C   UNL     1      -8.969 -11.748  12.505  1.00  0.00     0.200 A 
ATOM     54  F   UNL     1     -10.951 -10.776  13.342  1.00  0.00    -0.200 F 
ATOM     55  F   UNL     1      -9.524 -12.966  12.566  1.00  0.00    -0.200 F 
ENDBRANCH  31  45
BRANCH  32  56
ATOM     56  C   UNL     1      -4.007   0.067  11.321  1.00  0.00     0.064 A 
ATOM     57  C   UNL     1      -2.715   0.396  11.750  1.00  0.00     0.173 A 
ATOM     58  C   UNL     1      -4.772   1.080  10.721  1.00  0.00     0.173 A 
ATOM     59  F   UNL     1      -1.950  -0.532  12.344  1.00  0.00    -0.203 F 
ATOM     60  C   UNL     1      -2.213   1.687  11.599  1.00  0.00     0.198 A 
ATOM     61  C   UNL     1      -4.258   2.362  10.541  1.00  0.00     0.198 A 
ATOM     62  F   UNL     1      -6.013   0.818  10.287  1.00  0.00    -0.203 F 
ATOM     63  F   UNL     1      -0.989   1.986  12.056  1.00  0.00    -0.200 F 
ATOM     64  C   UNL     1      -2.982   2.667  10.987  1.00  0.00     0.200 A 
ATOM     65  F   UNL     1      -4.997   3.298   9.931  1.00  0.00    -0.200 F 
ATOM     66  F   UNL     1      -2.495   3.906  10.833  1.00  0.00    -0.200 F 
ENDBRANCH  32  56
BRANCH  44  67
ATOM     67  C   UNL     1      -5.798  -3.863  16.792  1.00  0.00     0.064 A 
ATOM     68  C   UNL     1      -6.669  -2.959  17.416  1.00  0.00     0.173 A 
ATOM     69  C   UNL     1      -4.878  -4.555  17.595  1.00  0.00     0.173 A 
ATOM     70  F   UNL     1      -7.553  -2.260  16.687  1.00  0.00    -0.203 F 
ATOM     71  C   UNL     1      -6.600  -2.733  18.787  1.00  0.00     0.198 A 
ATOM     72  C   UNL     1      -4.836  -4.352  18.970  1.00  0.00     0.198 A 
ATOM     73  F   UNL     1      -4.029  -5.436  17.045  1.00  0.00    -0.203 F 
ATOM     74  F   UNL     1      -7.403  -1.822  19.355  1.00  0.00    -0.200 F 
ATOM     75  C   UNL     1      -5.690  -3.435  19.564  1.00  0.00     0.200 A 
ATOM     76  F   UNL     1      -3.966  -5.042  19.720  1.00  0.00    -0.200 F 
ATOM     77  F   UNL     1      -5.629  -3.220  20.885  1.00  0.00    -0.200 F 
ENDBRANCH  44  67
ENDBRANCH  18  19
ENDBRANCH  11  13
ENDBRANCH  10  11
ENDBRANCH   9  10
ENDBRANCH   8   9
ENDBRANCH   7   8
ENDBRANCH   5   7
ENDBRANCH   1   5
BRANCH   1  78
ATOM     78  N   UNL     1      -2.250  -7.104   1.930  1.00  0.00    -0.341 N 
ATOM     79  C   UNL     1      -1.408  -7.666   1.028  1.00  0.00     0.242 C 
ATOM     80  H   UNL     1      -2.911  -7.751   2.268  1.00  0.00     0.164 HD
ATOM     81  O   UNL     1      -1.473  -8.893   0.908  1.00  0.00    -0.273 OA
BRANCH  79  82
ATOM     82  C   UNL     1      -0.452  -6.821   0.169  1.00  0.00     0.168 C 
ATOM     83  C   UNL     1       0.061  -7.666  -0.999  1.00  0.00     0.041 C 
BRANCH  82  84
ATOM     84  N   UNL     1       0.709  -6.285   0.874  1.00  0.00    -0.343 N 
ATOM     85  C   UNL     1       1.248  -5.028   0.782  1.00  0.00     0.240 C 
ATOM     86  H   UNL     1       1.160  -6.904   1.493  1.00  0.00     0.164 HD
ATOM     87  O   UNL     1       2.281  -4.780   1.406  1.00  0.00    -0.273 OA
BRANCH  85  88
ATOM     88  C   UNL     1       0.521  -3.938  -0.022  1.00  0.00     0.219 C 
BRANCH  88  89
ATOM     89  N   UNL     1       0.633  -4.212  -1.439  1.00  0.00    -0.312 N 
ATOM     90  C   UNL     1      -0.369  -4.514  -2.302  1.00  0.00     0.407 C 
ATOM     91  H   UNL     1       1.540  -4.174  -1.820  1.00  0.00     0.167 HD
ATOM     92  O   UNL     1      -0.118  -4.912  -3.438  1.00  0.00    -0.225 OA
BRANCH  90  93
ATOM     93  O   UNL     1      -1.610  -4.349  -1.788  1.00  0.00    -0.445 OA
BRANCH  93  94
ATOM     94  C   UNL     1      -2.699  -4.699  -2.661  1.00  0.00     0.270 C 
BRANCH  94  95
ATOM     95  C   UNL     1      -3.270  -3.468  -3.322  1.00  0.00    -0.011 A 
ATOM     96  C   UNL     1      -2.430  -2.585  -4.015  1.00  0.00     0.007 A 
ATOM     97  C   UNL     1      -4.646  -3.199  -3.305  1.00  0.00     0.007 A 
ATOM     98  C   UNL     1      -2.938  -1.442  -4.629  1.00  0.00     0.000 A 
ATOM     99  C   UNL     1      -5.156  -2.049  -3.913  1.00  0.00     0.000 A 
ATOM    100  C   UNL     1      -4.300  -1.169  -4.570  1.00  0.00     0.000 A 
ENDBRANCH  94  95
ENDBRANCH  93  94
ENDBRANCH  90  93
ENDBRANCH  88  89
ENDBRANCH  85  88
ENDBRANCH  82  84
ENDBRANCH  79  82
ENDBRANCH   1  78
TORSDOF 20
