REMARK SMILES C[C@H]1Oc2ccccc2C=C1/C=C/C(=O)N[C@H](C(=O)OCCOC(=O)c1ccc(-c2c3nc(c(-c4c(F)c(F)c(F)c(F)c4F)c4ccc([nH]4)c(-c4c(F)c(F)c(F)c(F)c4F)c4nc(c(-c5c(F)c(F)c(F)c(F)c5F)c5ccc2[nH]5)C=C4)C=C3)cc1)c1ccccc1
REMARK SMILES IDX 21 1 20 2 18 3 19 4 17 5 16 6 14 7 15 8 13 10 12 11 11 12
REMARK SMILES IDX 1 13 2 14 3 15 4 16 10 17 5 18 9 19 6 20 8 21 7 22 89 23
REMARK SMILES IDX 90 24 94 25 91 26 93 27 92 28 22 29 23 30 24 31 25 32 26 33
REMARK SMILES IDX 27 34 88 35 28 36 87 37 29 38 30 39 31 40 81 41 32 42 86 43
REMARK SMILES IDX 80 44 82 45 33 46 85 47 79 48 78 49 34 51 66 52 46 53 65 54
REMARK SMILES IDX 47 55 50 56 64 57 83 58 48 59 49 60 63 62 84 63 51 64 35 65
REMARK SMILES IDX 36 66 44 67 37 68 38 69 42 70 45 71 39 72 40 73 43 74 41 75
REMARK SMILES IDX 67 76 68 77 76 78 69 79 70 80 74 81 77 82 71 83 72 84 75 85
REMARK SMILES IDX 73 86 52 87 53 88 61 89 54 90 55 91 59 92 62 93 56 94 57 95
REMARK SMILES IDX 60 96 58 97
REMARK H PARENT 16 9 82 50 50 61
REMARK Flexibility Score: inf
ROOT
ATOM      1  C   UNL     1      -3.231  -4.045  -0.715  1.00  0.00     0.274 C 
ENDROOT
BRANCH   1   2
ATOM      2  O   UNL     1      -1.912  -3.544  -0.368  1.00  0.00    -0.460 OA
BRANCH   2   3
ATOM      3  C   UNL     1      -0.881  -4.141  -1.018  1.00  0.00     0.333 C 
ATOM      4  O   UNL     1      -1.050  -4.860  -1.995  1.00  0.00    -0.249 OA
BRANCH   3   5
ATOM      5  C   UNL     1       0.517  -3.867  -0.397  1.00  0.00     0.223 C 
BRANCH   5   6
ATOM      6  N   UNL     1       0.748  -4.453   0.953  1.00  0.00    -0.335 N 
ATOM      7  C   UNL     1       0.812  -5.663   1.570  1.00  0.00     0.244 C 
ATOM      8  O   UNL     1       1.181  -5.658   2.749  1.00  0.00    -0.270 OA
ATOM      9  H   UNL     1       0.904  -3.734   1.607  1.00  0.00     0.165 HD
BRANCH   7  10
ATOM     10  C   UNL     1       0.460  -6.995   0.994  1.00  0.00     0.071 C 
ATOM     11  C   UNL     1       0.179  -7.182  -0.289  1.00  0.00     0.013 C 
BRANCH  11  12
ATOM     12  C   UNL     1      -0.174  -8.315  -1.125  1.00  0.00    -0.007 C 
ATOM     13  C   UNL     1       0.972  -7.410  -3.075  1.00  0.00     0.058 C 
ATOM     14  C   UNL     1      -0.399  -7.854  -2.556  1.00  0.00     0.200 C 
ATOM     15  O   UNL     1      -1.056  -8.743  -3.451  1.00  0.00    -0.485 OA
ATOM     16  C   UNL     1      -1.202 -10.035  -3.056  1.00  0.00     0.127 A 
ATOM     17  C   UNL     1      -0.214  -9.617  -0.820  1.00  0.00     0.019 C 
ATOM     18  C   UNL     1      -1.878 -10.854  -3.962  1.00  0.00     0.047 A 
ATOM     19  C   UNL     1      -0.675 -10.541  -1.865  1.00  0.00     0.017 A 
ATOM     20  C   UNL     1      -1.953 -12.219  -3.730  1.00  0.00     0.004 A 
ATOM     21  C   UNL     1      -0.694 -11.925  -1.676  1.00  0.00     0.012 A 
ATOM     22  C   UNL     1      -1.326 -12.758  -2.608  1.00  0.00     0.001 A 
ENDBRANCH  11  12
ENDBRANCH   7  10
ENDBRANCH   5   6
BRANCH   5  23
ATOM     23  C   UNL     1       1.662  -4.054  -1.412  1.00  0.00    -0.014 A 
ATOM     24  C   UNL     1       1.627  -3.322  -2.620  1.00  0.00     0.006 A 
ATOM     25  C   UNL     1       2.709  -4.977  -1.250  1.00  0.00     0.006 A 
ATOM     26  C   UNL     1       2.542  -3.568  -3.651  1.00  0.00     0.000 A 
ATOM     27  C   UNL     1       3.616  -5.231  -2.289  1.00  0.00     0.000 A 
ATOM     28  C   UNL     1       3.522  -4.541  -3.495  1.00  0.00     0.000 A 
ENDBRANCH   5  23
ENDBRANCH   3   5
ENDBRANCH   2   3
ENDBRANCH   1   2
BRANCH   1  29
ATOM     29  C   UNL     1      -3.817  -3.571  -2.064  1.00  0.00     0.275 C 
BRANCH  29  30
ATOM     30  O   UNL     1      -3.480  -4.453  -3.168  1.00  0.00    -0.458 OA
BRANCH  30  31
ATOM     31  C   UNL     1      -2.631  -3.955  -4.107  1.00  0.00     0.338 C 
ATOM     32  O   UNL     1      -2.189  -2.818  -4.146  1.00  0.00    -0.246 OA
BRANCH  31  33
ATOM     33  C   UNL     1      -2.126  -5.045  -4.993  1.00  0.00     0.060 A 
ATOM     34  C   UNL     1      -2.927  -5.858  -5.798  1.00  0.00     0.016 A 
ATOM     35  C   UNL     1      -0.745  -5.218  -5.046  1.00  0.00     0.016 A 
ATOM     36  C   UNL     1      -2.342  -6.907  -6.560  1.00  0.00     0.010 A 
ATOM     37  C   UNL     1      -0.174  -6.239  -5.817  1.00  0.00     0.010 A 
ATOM     38  C   UNL     1      -0.956  -7.161  -6.524  1.00  0.00    -0.014 A 
BRANCH  38  39
ATOM     39  C   UNL     1      -0.270  -8.181  -7.381  1.00  0.00     0.031 A 
ATOM     40  C   UNL     1       0.178  -9.564  -6.963  1.00  0.00     0.074 A 
ATOM     41  C   UNL     1       0.262  -7.768  -8.542  1.00  0.00     0.049 A 
ATOM     42  N   UNL     1       0.212 -10.688  -7.644  1.00  0.00    -0.248 NA
ATOM     43  C   UNL     1       0.775  -9.712  -5.645  1.00  0.00     0.031 C 
ATOM     44  C   UNL     1       0.214  -6.405  -9.062  1.00  0.00     0.029 A 
ATOM     45  N   UNL     1       1.013  -8.463  -9.451  1.00  0.00    -0.354 N 
ATOM     46  C   UNL     1       0.593 -11.676  -6.731  1.00  0.00     0.074 A 
ATOM     47  C   UNL     1       0.925 -11.021  -5.502  1.00  0.00     0.031 C 
ATOM     48  C   UNL     1       0.924  -6.358 -10.199  1.00  0.00     0.029 A 
ATOM     49  C   UNL     1       1.421  -7.698 -10.506  1.00  0.00     0.049 A 
ATOM     50  H   UNL     1       1.236  -9.417  -9.355  1.00  0.00     0.167 HD
ATOM     51  C   UNL     1       0.783 -12.999  -6.922  1.00  0.00     0.037 A 
ATOM     52  C   UNL     1       2.075  -8.064 -11.620  1.00  0.00     0.037 A 
ATOM     53  C   UNL     1       1.159 -13.535  -8.191  1.00  0.00     0.049 A 
ATOM     54  C   UNL     1       2.403  -9.515 -11.853  1.00  0.00     0.074 A 
ATOM     55  C   UNL     1       1.480 -14.837  -8.520  1.00  0.00     0.029 A 
ATOM     56  N   UNL     1       1.476 -12.738  -9.274  1.00  0.00    -0.354 N 
ATOM     57  N   UNL     1       2.173 -10.559 -11.092  1.00  0.00    -0.248 NA
ATOM     58  C   UNL     1       3.049  -9.836 -13.132  1.00  0.00     0.031 C 
ATOM     59  C   UNL     1       2.115 -14.806  -9.765  1.00  0.00     0.029 A 
ATOM     60  C   UNL     1       2.095 -13.501 -10.237  1.00  0.00     0.049 A 
ATOM     61  H   UNL     1       1.288 -11.775  -9.345  1.00  0.00     0.167 HD
ATOM     62  C   UNL     1       2.610 -11.663 -11.818  1.00  0.00     0.074 A 
ATOM     63  C   UNL     1       3.108 -11.160 -13.079  1.00  0.00     0.031 C 
ATOM     64  C   UNL     1       2.593 -12.976 -11.478  1.00  0.00     0.037 A 
BRANCH  51  65
ATOM     65  C   UNL     1       0.680 -13.958  -5.776  1.00  0.00     0.064 A 
ATOM     66  C   UNL     1      -0.537 -14.640  -5.603  1.00  0.00     0.173 A 
ATOM     67  C   UNL     1       1.764 -14.353  -4.986  1.00  0.00     0.173 A 
ATOM     68  F   UNL     1      -1.602 -14.320  -6.356  1.00  0.00    -0.203 F 
ATOM     69  C   UNL     1      -0.671 -15.662  -4.668  1.00  0.00     0.198 A 
ATOM     70  C   UNL     1       1.629 -15.382  -4.050  1.00  0.00     0.198 A 
ATOM     71  F   UNL     1       2.961 -13.768  -5.139  1.00  0.00    -0.203 F 
ATOM     72  F   UNL     1      -1.850 -16.280  -4.514  1.00  0.00    -0.200 F 
ATOM     73  C   UNL     1       0.414 -16.034  -3.892  1.00  0.00     0.200 A 
ATOM     74  F   UNL     1       2.683 -15.759  -3.312  1.00  0.00    -0.200 F 
ATOM     75  F   UNL     1       0.286 -17.018  -2.991  1.00  0.00    -0.200 F 
ENDBRANCH  51  65
BRANCH  52  76
ATOM     76  C   UNL     1       2.280  -7.043 -12.670  1.00  0.00     0.064 A 
ATOM     77  C   UNL     1       1.468  -7.055 -13.812  1.00  0.00     0.173 A 
ATOM     78  C   UNL     1       3.203  -6.000 -12.524  1.00  0.00     0.173 A 
ATOM     79  F   UNL     1       0.566  -8.034 -13.980  1.00  0.00    -0.203 F 
ATOM     80  C   UNL     1       1.585  -6.069 -14.783  1.00  0.00     0.198 A 
ATOM     81  C   UNL     1       3.302  -4.999 -13.487  1.00  0.00     0.198 A 
ATOM     82  F   UNL     1       3.976  -5.932 -11.430  1.00  0.00    -0.203 F 
ATOM     83  F   UNL     1       0.813  -6.117 -15.877  1.00  0.00    -0.200 F 
ATOM     84  C   UNL     1       2.498  -5.038 -14.617  1.00  0.00     0.200 A 
ATOM     85  F   UNL     1       4.165  -3.988 -13.313  1.00  0.00    -0.200 F 
ATOM     86  F   UNL     1       2.599  -4.078 -15.546  1.00  0.00    -0.200 F 
ENDBRANCH  52  76
BRANCH  64  87
ATOM     87  C   UNL     1       3.128 -13.977 -12.454  1.00  0.00     0.064 A 
ATOM     88  C   UNL     1       4.497 -14.065 -12.738  1.00  0.00     0.173 A 
ATOM     89  C   UNL     1       2.274 -14.948 -13.000  1.00  0.00     0.173 A 
ATOM     90  F   UNL     1       5.353 -13.165 -12.231  1.00  0.00    -0.203 F 
ATOM     91  C   UNL     1       4.990 -15.080 -13.551  1.00  0.00     0.198 A 
ATOM     92  C   UNL     1       2.776 -15.983 -13.779  1.00  0.00     0.198 A 
ATOM     93  F   UNL     1       0.959 -14.920 -12.735  1.00  0.00    -0.203 F 
ATOM     94  F   UNL     1       6.299 -15.130 -13.835  1.00  0.00    -0.200 F 
ATOM     95  C   UNL     1       4.132 -16.045 -14.059  1.00  0.00     0.200 A 
ATOM     96  F   UNL     1       1.950 -16.932 -14.241  1.00  0.00    -0.200 F 
ATOM     97  F   UNL     1       4.615 -17.041 -14.814  1.00  0.00    -0.200 F 
ENDBRANCH  64  87
ENDBRANCH  38  39
ENDBRANCH  31  33
ENDBRANCH  30  31
ENDBRANCH  29  30
ENDBRANCH   1  29
TORSDOF 15
