REMARK SMILES O=C(OCCOC(=O)c1c(C2CC2)nn(-c2ccc(Cl)c(F)c2)c1Cl)c1ccc(-c2c3nc(c(-c4c(F)c(F)c(F)c(F)c4F)c4ccc([nH]4)c(-c4c(F)c(F)c(F)c(F)c4F)c4nc(c(-c5c(F)c(F)c(F)c(F)c5F)c5ccc2[nH]5)C=C4)C=C3)cc1
REMARK SMILES IDX 4 1 3 2 2 3 1 4 26 5 27 6 88 7 28 8 87 9 29 10 30 11 31 12
REMARK SMILES IDX 81 13 32 14 86 15 80 16 82 17 33 18 85 19 79 20 78 21 34 23
REMARK SMILES IDX 66 24 46 25 65 26 47 27 50 28 64 29 83 30 48 31 49 32 63 34
REMARK SMILES IDX 84 35 51 36 35 37 36 38 44 39 37 40 38 41 42 42 45 43 39 44
REMARK SMILES IDX 40 45 43 46 41 47 67 48 68 49 76 50 69 51 70 52 74 53 77 54
REMARK SMILES IDX 71 55 72 56 75 57 73 58 52 59 53 60 61 61 54 62 55 63 59 64
REMARK SMILES IDX 62 65 56 66 57 67 60 68 58 69 5 70 6 71 7 72 8 73 9 74 10 75
REMARK SMILES IDX 24 76 14 77 15 78 25 79 11 80 12 81 13 82 16 83 17 84 23 85
REMARK SMILES IDX 18 86 21 87 19 88 22 89 20 90
REMARK H PARENT 82 22 50 33
REMARK Flexibility Score: inf
ROOT
ATOM      1  C   UNL     1       5.159   0.453   0.917  1.00  0.00     0.275 C 
ENDROOT
BRANCH   1   2
ATOM      2  O   UNL     1       4.876   1.049  -0.357  1.00  0.00    -0.458 OA
BRANCH   2   3
ATOM      3  C   UNL     1       3.601   1.394  -0.626  1.00  0.00     0.338 C 
ATOM      4  O   UNL     1       2.764   1.798   0.159  1.00  0.00    -0.246 OA
BRANCH   3   5
ATOM      5  C   UNL     1       3.310   0.883  -1.982  1.00  0.00     0.060 A 
ATOM      6  C   UNL     1       4.309   0.717  -2.946  1.00  0.00     0.016 A 
ATOM      7  C   UNL     1       2.011   0.443  -2.231  1.00  0.00     0.016 A 
ATOM      8  C   UNL     1       3.994   0.135  -4.169  1.00  0.00     0.010 A 
ATOM      9  C   UNL     1       1.704  -0.162  -3.444  1.00  0.00     0.010 A 
ATOM     10  C   UNL     1       2.684  -0.287  -4.423  1.00  0.00    -0.014 A 
BRANCH  10  11
ATOM     11  C   UNL     1       2.354  -0.813  -5.740  1.00  0.00     0.031 A 
ATOM     12  C   UNL     1       2.926  -2.119  -6.157  1.00  0.00     0.074 A 
ATOM     13  C   UNL     1       1.498  -0.205  -6.583  1.00  0.00     0.049 A 
ATOM     14  N   UNL     1       3.812  -2.337  -7.074  1.00  0.00    -0.248 NA
ATOM     15  C   UNL     1       2.433  -3.332  -5.494  1.00  0.00     0.031 C 
ATOM     16  C   UNL     1       0.553   0.882  -6.319  1.00  0.00     0.029 A 
ATOM     17  N   UNL     1       1.288  -0.497  -7.898  1.00  0.00    -0.354 N 
ATOM     18  C   UNL     1       3.912  -3.720  -7.206  1.00  0.00     0.074 A 
ATOM     19  C   UNL     1       3.081  -4.286  -6.169  1.00  0.00     0.031 C 
ATOM     20  C   UNL     1      -0.235   1.059  -7.404  1.00  0.00     0.029 A 
ATOM     21  C   UNL     1       0.258   0.216  -8.480  1.00  0.00     0.049 A 
ATOM     22  H   UNL     1       1.825  -1.160  -8.391  1.00  0.00     0.167 HD
ATOM     23  C   UNL     1       4.577  -4.307  -8.242  1.00  0.00     0.037 A 
ATOM     24  C   UNL     1      -0.161   0.122  -9.761  1.00  0.00     0.037 A 
ATOM     25  C   UNL     1       5.437  -3.380  -8.926  1.00  0.00     0.049 A 
ATOM     26  C   UNL     1       0.950  -0.436 -10.568  1.00  0.00     0.074 A 
ATOM     27  C   UNL     1       6.530  -2.620  -8.557  1.00  0.00     0.029 A 
ATOM     28  N   UNL     1       5.035  -2.868 -10.134  1.00  0.00    -0.354 N 
ATOM     29  N   UNL     1       2.057   0.198 -10.837  1.00  0.00    -0.248 NA
ATOM     30  C   UNL     1       0.978  -1.869 -10.815  1.00  0.00     0.031 C 
ATOM     31  C   UNL     1       6.405  -1.404  -9.294  1.00  0.00     0.029 A 
ATOM     32  C   UNL     1       5.253  -1.514 -10.075  1.00  0.00     0.049 A 
ATOM     33  H   UNL     1       4.663  -3.372 -10.893  1.00  0.00     0.167 HD
ATOM     34  C   UNL     1       3.027  -0.790 -10.898  1.00  0.00     0.074 A 
ATOM     35  C   UNL     1       2.287  -2.040 -11.011  1.00  0.00     0.031 C 
ATOM     36  C   UNL     1       4.329  -0.525 -10.581  1.00  0.00     0.037 A 
BRANCH  23  37
ATOM     37  C   UNL     1       4.305  -5.685  -8.777  1.00  0.00     0.064 A 
ATOM     38  C   UNL     1       5.259  -6.335  -9.586  1.00  0.00     0.173 A 
ATOM     39  C   UNL     1       3.033  -6.291  -8.723  1.00  0.00     0.173 A 
ATOM     40  F   UNL     1       6.487  -5.818  -9.742  1.00  0.00    -0.203 F 
ATOM     41  C   UNL     1       4.953  -7.494 -10.304  1.00  0.00     0.198 A 
ATOM     42  C   UNL     1       2.745  -7.475  -9.404  1.00  0.00     0.198 A 
ATOM     43  F   UNL     1       2.009  -5.706  -8.088  1.00  0.00    -0.203 F 
ATOM     44  F   UNL     1       5.865  -8.028 -11.129  1.00  0.00    -0.200 F 
ATOM     45  C   UNL     1       3.697  -8.066 -10.210  1.00  0.00     0.200 A 
ATOM     46  F   UNL     1       1.516  -8.003  -9.319  1.00  0.00    -0.200 F 
ATOM     47  F   UNL     1       3.391  -9.156 -10.925  1.00  0.00    -0.200 F 
ENDBRANCH  23  37
BRANCH  24  48
ATOM     48  C   UNL     1      -1.523   0.309 -10.295  1.00  0.00     0.064 A 
ATOM     49  C   UNL     1      -1.745   0.590 -11.650  1.00  0.00     0.173 A 
ATOM     50  C   UNL     1      -2.648  -0.051  -9.529  1.00  0.00     0.173 A 
ATOM     51  F   UNL     1      -0.717   0.898 -12.454  1.00  0.00    -0.203 F 
ATOM     52  C   UNL     1      -3.020   0.494 -12.214  1.00  0.00     0.198 A 
ATOM     53  C   UNL     1      -3.920  -0.140 -10.091  1.00  0.00     0.198 A 
ATOM     54  F   UNL     1      -2.516  -0.412  -8.244  1.00  0.00    -0.203 F 
ATOM     55  F   UNL     1      -3.187   0.711 -13.526  1.00  0.00    -0.200 F 
ATOM     56  C   UNL     1      -4.104   0.119 -11.437  1.00  0.00     0.200 A 
ATOM     57  F   UNL     1      -4.954  -0.538  -9.336  1.00  0.00    -0.200 F 
ATOM     58  F   UNL     1      -5.314  -0.032 -11.991  1.00  0.00    -0.200 F 
ENDBRANCH  24  48
BRANCH  36  59
ATOM     59  C   UNL     1       4.737   0.918 -10.462  1.00  0.00     0.064 A 
ATOM     60  C   UNL     1       4.199   1.802  -9.510  1.00  0.00     0.173 A 
ATOM     61  C   UNL     1       5.797   1.389 -11.248  1.00  0.00     0.173 A 
ATOM     62  F   UNL     1       3.264   1.394  -8.643  1.00  0.00    -0.203 F 
ATOM     63  C   UNL     1       4.661   3.111  -9.394  1.00  0.00     0.198 A 
ATOM     64  C   UNL     1       6.284   2.687 -11.104  1.00  0.00     0.198 A 
ATOM     65  F   UNL     1       6.397   0.573 -12.130  1.00  0.00    -0.203 F 
ATOM     66  F   UNL     1       4.116   3.938  -8.489  1.00  0.00    -0.200 F 
ATOM     67  C   UNL     1       5.707   3.552 -10.187  1.00  0.00     0.200 A 
ATOM     68  F   UNL     1       7.332   3.093 -11.835  1.00  0.00    -0.200 F 
ATOM     69  F   UNL     1       6.178   4.799 -10.048  1.00  0.00    -0.200 F 
ENDBRANCH  36  59
ENDBRANCH  10  11
ENDBRANCH   3   5
ENDBRANCH   2   3
ENDBRANCH   1   2
BRANCH   1  70
ATOM     70  C   UNL     1       4.025  -0.378   1.538  1.00  0.00     0.275 C 
BRANCH  70  71
ATOM     71  O   UNL     1       3.481  -1.295   0.567  1.00  0.00    -0.458 OA
BRANCH  71  72
ATOM     72  C   UNL     1       2.153  -1.620   0.675  1.00  0.00     0.343 C 
ATOM     73  O   UNL     1       1.376  -1.093   1.454  1.00  0.00    -0.246 OA
BRANCH  72  74
ATOM     74  C   UNL     1       1.808  -2.749  -0.170  1.00  0.00     0.121 A 
ATOM     75  C   UNL     1       0.654  -3.145  -0.913  1.00  0.00     0.082 A 
ATOM     76  C   UNL     1       2.616  -3.870  -0.255  1.00  0.00     0.147 A 
ATOM     77  N   UNL     1       0.863  -4.298  -1.576  1.00  0.00    -0.170 NA
ATOM     78  N   UNL     1       1.980  -4.810  -1.021  1.00  0.00    -0.221 N 
ATOM     79  Cl  UNL     1       4.151  -4.205   0.436  1.00  0.00    -0.061 Cl
BRANCH  75  80
ATOM     80  C   UNL     1      -0.771  -2.594  -1.028  1.00  0.00     0.041 C 
ATOM     81  C   UNL     1      -1.311  -1.497  -0.148  1.00  0.00     0.011 C 
ATOM     82  C   UNL     1      -1.168  -1.267  -1.611  1.00  0.00     0.011 C 
ENDBRANCH  75  80
BRANCH  78  83
ATOM     83  C   UNL     1       2.263  -6.188  -1.182  1.00  0.00     0.069 A 
ATOM     84  C   UNL     1       2.176  -6.762  -2.457  1.00  0.00     0.030 A 
ATOM     85  C   UNL     1       2.573  -6.978  -0.068  1.00  0.00     0.069 A 
ATOM     86  C   UNL     1       2.476  -8.118  -2.625  1.00  0.00     0.026 A 
ATOM     87  C   UNL     1       2.827  -8.334  -0.245  1.00  0.00     0.143 A 
ATOM     88  C   UNL     1       2.800  -8.904  -1.516  1.00  0.00     0.076 A 
ATOM     89  F   UNL     1       3.087  -9.082   0.837  1.00  0.00    -0.205 F 
ATOM     90  Cl  UNL     1       3.157 -10.572  -1.737  1.00  0.00    -0.081 Cl
ENDBRANCH  78  83
ENDBRANCH  72  74
ENDBRANCH  71  72
ENDBRANCH  70  71
ENDBRANCH   1  70
TORSDOF 13
