REMARK SMILES NC(=O)[C@@H]1CCCCN1c1cncc(C(=O)OCCOC(=O)c2ccc(-c3c4nc(c(-c5c(F)c(F)c(F)c(F)c5F)c5ccc([nH]5)c(-c5c(F)c(F)c(F)c(F)c5F)c5nc(c(-c6c(F)c(F)c(F)c(F)c6F)c6ccc3[nH]6)C=C5)C=C4)cc2)n1
REMARK SMILES IDX 18 1 17 2 15 3 16 4 14 5 10 6 11 7 86 8 12 9 13 10 9 11 4 12
REMARK SMILES IDX 5 13 6 14 8 15 7 16 2 17 1 18 3 21 19 22 20 23 21 24 22 25
REMARK SMILES IDX 23 26 24 27 85 28 25 29 84 30 26 31 27 32 28 33 78 34 29 35
REMARK SMILES IDX 83 36 77 37 79 38 30 39 82 40 76 41 75 42 31 44 63 45 43 46
REMARK SMILES IDX 62 47 44 48 47 49 61 50 80 51 45 52 46 53 60 55 81 56 48 57
REMARK SMILES IDX 32 58 33 59 41 60 34 61 35 62 39 63 42 64 36 65 37 66 40 67
REMARK SMILES IDX 38 68 64 69 65 70 73 71 66 72 67 73 71 74 74 75 68 76 69 77
REMARK SMILES IDX 72 78 70 79 49 80 50 81 58 82 51 83 52 84 56 85 59 86 53 87
REMARK SMILES IDX 54 88 57 89 55 90
REMARK H PARENT 1 19 1 20 79 43 47 54
REMARK Flexibility Score: inf
ROOT
ATOM      1  C   UNL     1      -5.084   0.950   1.119  1.00  0.00     0.275 C 
ENDROOT
BRANCH   1   2
ATOM      2  O   UNL     1      -3.837   1.674   1.162  1.00  0.00    -0.457 OA
BRANCH   2   3
ATOM      3  C   UNL     1      -3.264   1.939  -0.039  1.00  0.00     0.358 C 
ATOM      4  O   UNL     1      -3.717   1.659  -1.138  1.00  0.00    -0.244 OA
BRANCH   3   5
ATOM      5  C   UNL     1      -2.041   2.755   0.125  1.00  0.00     0.169 A 
ATOM      6  C   UNL     1      -0.009   3.152   1.131  1.00  0.00     0.148 A 
ATOM      7  C   UNL     1       0.153   4.240   0.255  1.00  0.00     0.157 A 
ATOM      8  N   UNL     1      -1.145   2.425   1.091  1.00  0.00    -0.220 NA
ATOM      9  N   UNL     1      -0.732   4.586  -0.709  1.00  0.00    -0.258 NA
ATOM     10  C   UNL     1      -1.818   3.790  -0.772  1.00  0.00     0.147 A 
BRANCH   6  11
ATOM     11  N   UNL     1       1.041   2.748   1.937  1.00  0.00    -0.343 N 
ATOM     12  C   UNL     1       1.218   1.321   2.312  1.00  0.00     0.172 C 
ATOM     13  C   UNL     1       0.684   1.065   3.721  1.00  0.00     0.035 C 
ATOM     14  C   UNL     1       1.321   2.035   4.715  1.00  0.00     0.004 C 
ATOM     15  C   UNL     1       1.597   3.733   2.868  1.00  0.00     0.119 C 
ATOM     16  C   UNL     1       1.077   3.480   4.285  1.00  0.00     0.022 C 
BRANCH  12  17
ATOM     17  C   UNL     1       0.685   0.294   1.286  1.00  0.00     0.240 C 
ATOM     18  N   UNL     1       1.222   0.395   0.028  1.00  0.00    -0.368 N 
ATOM     19  H   UNL     1       0.934  -0.224  -0.682  1.00  0.00     0.159 HD
ATOM     20  H   UNL     1       1.897   1.085  -0.166  1.00  0.00     0.159 HD
ATOM     21  O   UNL     1      -0.092  -0.621   1.547  1.00  0.00    -0.273 OA
ENDBRANCH  12  17
ENDBRANCH   6  11
ENDBRANCH   3   5
ENDBRANCH   2   3
ENDBRANCH   1   2
BRANCH   1  22
ATOM     22  C   UNL     1      -6.275   1.896   1.274  1.00  0.00     0.275 C 
BRANCH  22  23
ATOM     23  O   UNL     1      -6.349   2.772   0.133  1.00  0.00    -0.458 OA
BRANCH  23  24
ATOM     24  C   UNL     1      -6.418   4.093   0.400  1.00  0.00     0.338 C 
ATOM     25  O   UNL     1      -6.487   4.633   1.494  1.00  0.00    -0.246 OA
BRANCH  24  26
ATOM     26  C   UNL     1      -6.366   4.859  -0.858  1.00  0.00     0.060 A 
ATOM     27  C   UNL     1      -5.300   4.668  -1.732  1.00  0.00     0.016 A 
ATOM     28  C   UNL     1      -7.296   5.865  -1.109  1.00  0.00     0.016 A 
ATOM     29  C   UNL     1      -5.090   5.548  -2.791  1.00  0.00     0.010 A 
ATOM     30  C   UNL     1      -7.150   6.675  -2.242  1.00  0.00     0.010 A 
ATOM     31  C   UNL     1      -6.020   6.558  -3.073  1.00  0.00    -0.014 A 
BRANCH  31  32
ATOM     32  C   UNL     1      -5.790   7.513  -4.197  1.00  0.00     0.031 A 
ATOM     33  C   UNL     1      -5.753   8.997  -3.935  1.00  0.00     0.074 A 
ATOM     34  C   UNL     1      -5.594   7.066  -5.455  1.00  0.00     0.049 A 
ATOM     35  N   UNL     1      -5.761   9.993  -4.787  1.00  0.00    -0.248 NA
ATOM     36  C   UNL     1      -5.719   9.418  -2.526  1.00  0.00     0.031 C 
ATOM     37  C   UNL     1      -5.545   5.661  -5.860  1.00  0.00     0.029 A 
ATOM     38  N   UNL     1      -5.384   7.753  -6.627  1.00  0.00    -0.354 N 
ATOM     39  C   UNL     1      -5.815  11.150  -4.019  1.00  0.00     0.074 A 
ATOM     40  C   UNL     1      -5.824  10.735  -2.632  1.00  0.00     0.031 C 
ATOM     41  C   UNL     1      -5.262   5.588  -7.169  1.00  0.00     0.029 A 
ATOM     42  C   UNL     1      -5.209   6.938  -7.719  1.00  0.00     0.049 A 
ATOM     43  H   UNL     1      -5.362   8.736  -6.679  1.00  0.00     0.167 HD
ATOM     44  C   UNL     1      -5.859  12.439  -4.435  1.00  0.00     0.037 A 
ATOM     45  C   UNL     1      -5.064   7.236  -9.024  1.00  0.00     0.037 A 
ATOM     46  C   UNL     1      -5.760  12.854  -5.810  1.00  0.00     0.049 A 
ATOM     47  C   UNL     1      -5.130   8.671  -9.463  1.00  0.00     0.074 A 
ATOM     48  C   UNL     1      -5.751  14.139  -6.325  1.00  0.00     0.029 A 
ATOM     49  N   UNL     1      -5.631  11.991  -6.887  1.00  0.00    -0.354 N 
ATOM     50  N   UNL     1      -5.253   9.753  -8.736  1.00  0.00    -0.248 NA
ATOM     51  C   UNL     1      -5.071   8.921 -10.910  1.00  0.00     0.031 C 
ATOM     52  C   UNL     1      -5.649  14.053  -7.719  1.00  0.00     0.029 A 
ATOM     53  C   UNL     1      -5.557  12.715  -8.067  1.00  0.00     0.049 A 
ATOM     54  H   UNL     1      -5.597  11.009  -6.824  1.00  0.00     0.167 HD
ATOM     55  C   UNL     1      -5.279  10.812  -9.632  1.00  0.00     0.074 A 
ATOM     56  C   UNL     1      -5.139  10.245 -10.957  1.00  0.00     0.031 C 
ATOM     57  C   UNL     1      -5.416  12.136  -9.378  1.00  0.00     0.037 A 
BRANCH  44  58
ATOM     58  C   UNL     1      -6.067  13.499  -3.392  1.00  0.00     0.064 A 
ATOM     59  C   UNL     1      -5.056  13.880  -2.498  1.00  0.00     0.173 A 
ATOM     60  C   UNL     1      -7.299  14.168  -3.314  1.00  0.00     0.173 A 
ATOM     61  F   UNL     1      -3.865  13.263  -2.524  1.00  0.00    -0.203 F 
ATOM     62  C   UNL     1      -5.281  14.872  -1.546  1.00  0.00     0.198 A 
ATOM     63  C   UNL     1      -7.511  15.177  -2.379  1.00  0.00     0.198 A 
ATOM     64  F   UNL     1      -8.297  13.847  -4.151  1.00  0.00    -0.203 F 
ATOM     65  F   UNL     1      -4.316  15.189  -0.671  1.00  0.00    -0.200 F 
ATOM     66  C   UNL     1      -6.504  15.524  -1.491  1.00  0.00     0.200 A 
ATOM     67  F   UNL     1      -8.690  15.814  -2.337  1.00  0.00    -0.200 F 
ATOM     68  F   UNL     1      -6.716  16.481  -0.578  1.00  0.00    -0.200 F 
ENDBRANCH  44  58
BRANCH  45  69
ATOM     69  C   UNL     1      -4.876   6.144 -10.015  1.00  0.00     0.064 A 
ATOM     70  C   UNL     1      -3.649   5.976 -10.670  1.00  0.00     0.173 A 
ATOM     71  C   UNL     1      -5.907   5.241 -10.314  1.00  0.00     0.173 A 
ATOM     72  F   UNL     1      -2.644   6.833 -10.440  1.00  0.00    -0.203 F 
ATOM     73  C   UNL     1      -3.460   4.944 -11.587  1.00  0.00     0.198 A 
ATOM     74  C   UNL     1      -5.707   4.192 -11.209  1.00  0.00     0.198 A 
ATOM     75  F   UNL     1      -7.101   5.363  -9.717  1.00  0.00    -0.203 F 
ATOM     76  F   UNL     1      -2.287   4.823 -12.224  1.00  0.00    -0.200 F 
ATOM     77  C   UNL     1      -4.485   4.047 -11.848  1.00  0.00     0.200 A 
ATOM     78  F   UNL     1      -6.697   3.321 -11.448  1.00  0.00    -0.200 F 
ATOM     79  F   UNL     1      -4.298   3.046 -12.719  1.00  0.00    -0.200 F 
ENDBRANCH  45  69
BRANCH  57  80
ATOM     80  C   UNL     1      -5.394  13.062 -10.557  1.00  0.00     0.064 A 
ATOM     81  C   UNL     1      -6.493  13.171 -11.421  1.00  0.00     0.173 A 
ATOM     82  C   UNL     1      -4.273  13.866 -10.809  1.00  0.00     0.173 A 
ATOM     83  F   UNL     1      -7.580  12.409 -11.231  1.00  0.00    -0.203 F 
ATOM     84  C   UNL     1      -6.460  14.037 -12.511  1.00  0.00     0.198 A 
ATOM     85  C   UNL     1      -4.253  14.748 -11.885  1.00  0.00     0.198 A 
ATOM     86  F   UNL     1      -3.199  13.799 -10.008  1.00  0.00    -0.203 F 
ATOM     87  F   UNL     1      -7.504  14.095 -13.350  1.00  0.00    -0.200 F 
ATOM     88  C   UNL     1      -5.344  14.828 -12.738  1.00  0.00     0.200 A 
ATOM     89  F   UNL     1      -3.177  15.517 -12.100  1.00  0.00    -0.200 F 
ATOM     90  F   UNL     1      -5.315  15.663 -13.787  1.00  0.00    -0.200 F 
ENDBRANCH  57  80
ENDBRANCH  31  32
ENDBRANCH  24  26
ENDBRANCH  23  24
ENDBRANCH  22  23
ENDBRANCH   1  22
TORSDOF 13
