REMARK SMILES CCCNC(=O)c1cnn([C@@H](C)C(=O)OCCOC(=O)c2ccc(-c3c4nc(c(-c5c(F)c(F)c(F)c(F)c5F)c5ccc([nH]5)c(-c5c(F)c(F)c(F)c(F)c5F)c5nc(c(-c6c(F)c(F)c(F)c(F)c6F)c6ccc3[nH]6)C=C5)C=C4)cc2)c1
REMARK SMILES IDX 16 1 15 2 13 3 14 4 11 5 12 6 10 7 7 8 8 9 84 10 9 11 5 12
REMARK SMILES IDX 4 13 6 15 3 16 2 17 1 18 17 19 18 20 19 21 20 22 21 23 22 24
REMARK SMILES IDX 83 25 23 26 82 27 24 28 25 29 26 30 76 31 27 32 81 33 75 34
REMARK SMILES IDX 77 35 28 36 80 37 74 38 73 39 29 41 61 42 41 43 60 44 42 45
REMARK SMILES IDX 45 46 59 47 78 48 43 49 44 50 58 52 79 53 46 54 30 55 31 56
REMARK SMILES IDX 39 57 32 58 33 59 37 60 40 61 34 62 35 63 38 64 36 65 62 66
REMARK SMILES IDX 63 67 71 68 64 69 65 70 69 71 72 72 66 73 67 74 70 75 68 76
REMARK SMILES IDX 47 77 48 78 56 79 49 80 50 81 54 82 57 83 51 84 52 85 55 86
REMARK SMILES IDX 53 87
REMARK H PARENT 4 14 77 40 45 51
REMARK Flexibility Score: inf
ROOT
ATOM      1  C   UNL     1      -1.593  -2.728  -9.902  1.00  0.00     0.274 C 
ENDROOT
BRANCH   1   2
ATOM      2  O   UNL     1      -1.715  -2.009  -8.660  1.00  0.00    -0.460 OA
BRANCH   2   3
ATOM      3  C   UNL     1      -2.916  -2.066  -8.027  1.00  0.00     0.330 C 
ATOM      4  O   UNL     1      -3.930  -2.549  -8.531  1.00  0.00    -0.250 OA
BRANCH   3   5
ATOM      5  C   UNL     1      -2.940  -1.423  -6.658  1.00  0.00     0.213 C 
ATOM      6  C   UNL     1      -3.123   0.080  -6.785  1.00  0.00     0.046 C 
BRANCH   5   7
ATOM      7  N   UNL     1      -1.823  -1.769  -5.782  1.00  0.00    -0.258 N 
ATOM      8  C   UNL     1      -0.653  -2.367  -4.004  1.00  0.00     0.077 A 
ATOM      9  C   UNL     1       0.153  -1.891  -5.060  1.00  0.00     0.149 A 
ATOM     10  C   UNL     1      -1.931  -2.312  -4.526  1.00  0.00     0.123 A 
ATOM     11  N   UNL     1      -0.557  -1.406  -6.080  1.00  0.00    -0.180 NA
BRANCH   8  12
ATOM     12  C   UNL     1      -0.288  -2.862  -2.694  1.00  0.00     0.254 C 
ATOM     13  N   UNL     1       0.650  -2.177  -1.959  1.00  0.00    -0.352 N 
ATOM     14  H   UNL     1       0.987  -2.651  -1.165  1.00  0.00     0.163 HD
ATOM     15  O   UNL     1      -0.819  -3.854  -2.199  1.00  0.00    -0.269 OA
BRANCH  13  16
ATOM     16  C   UNL     1       1.220  -0.857  -2.179  1.00  0.00     0.116 C 
BRANCH  16  17
ATOM     17  C   UNL     1       0.595   0.200  -1.272  1.00  0.00     0.018 C 
ATOM     18  C   UNL     1       1.050   0.070   0.173  1.00  0.00     0.006 C 
ENDBRANCH  16  17
ENDBRANCH  13  16
ENDBRANCH   8  12
ENDBRANCH   5   7
ENDBRANCH   3   5
ENDBRANCH   2   3
ENDBRANCH   1   2
BRANCH   1  19
ATOM     19  C   UNL     1      -1.151  -4.171  -9.685  1.00  0.00     0.275 C 
BRANCH  19  20
ATOM     20  O   UNL     1      -2.192  -4.959  -9.105  1.00  0.00    -0.458 OA
BRANCH  20  21
ATOM     21  C   UNL     1      -2.168  -4.986  -7.755  1.00  0.00     0.338 C 
ATOM     22  O   UNL     1      -1.494  -4.291  -7.021  1.00  0.00    -0.246 OA
BRANCH  21  23
ATOM     23  C   UNL     1      -2.921  -6.124  -7.240  1.00  0.00     0.060 A 
ATOM     24  C   UNL     1      -3.049  -6.210  -5.847  1.00  0.00     0.016 A 
ATOM     25  C   UNL     1      -3.156  -7.213  -8.085  1.00  0.00     0.016 A 
ATOM     26  C   UNL     1      -3.227  -7.450  -5.279  1.00  0.00     0.010 A 
ATOM     27  C   UNL     1      -3.309  -8.451  -7.516  1.00  0.00     0.010 A 
ATOM     28  C   UNL     1      -3.265  -8.559  -6.124  1.00  0.00    -0.014 A 
BRANCH  28  29
ATOM     29  C   UNL     1      -3.274  -9.872  -5.523  1.00  0.00     0.031 A 
ATOM     30  C   UNL     1      -4.598 -10.312  -5.027  1.00  0.00     0.074 A 
ATOM     31  C   UNL     1      -2.190 -10.665  -5.606  1.00  0.00     0.049 A 
ATOM     32  N   UNL     1      -4.906 -10.753  -3.854  1.00  0.00    -0.248 NA
ATOM     33  C   UNL     1      -5.750 -10.148  -5.931  1.00  0.00     0.031 C 
ATOM     34  C   UNL     1      -0.953 -10.423  -6.354  1.00  0.00     0.029 A 
ATOM     35  N   UNL     1      -2.033 -11.935  -5.158  1.00  0.00    -0.354 N 
ATOM     36  C   UNL     1      -6.259 -11.069  -3.913  1.00  0.00     0.074 A 
ATOM     37  C   UNL     1      -6.757 -10.544  -5.156  1.00  0.00     0.031 C 
ATOM     38  C   UNL     1      -0.306 -11.598  -6.518  1.00  0.00     0.029 A 
ATOM     39  C   UNL     1      -1.035 -12.639  -5.812  1.00  0.00     0.049 A 
ATOM     40  H   UNL     1      -2.578 -12.322  -4.435  1.00  0.00     0.167 HD
ATOM     41  C   UNL     1      -6.825 -11.940  -3.037  1.00  0.00     0.037 A 
ATOM     42  C   UNL     1      -0.926 -13.989  -5.866  1.00  0.00     0.037 A 
ATOM     43  C   UNL     1      -6.033 -12.086  -1.846  1.00  0.00     0.049 A 
ATOM     44  C   UNL     1      -1.758 -14.547  -4.760  1.00  0.00     0.074 A 
ATOM     45  C   UNL     1      -5.573 -11.199  -0.890  1.00  0.00     0.029 A 
ATOM     46  N   UNL     1      -5.279 -13.223  -1.686  1.00  0.00    -0.354 N 
ATOM     47  N   UNL     1      -1.476 -14.412  -3.492  1.00  0.00    -0.248 NA
ATOM     48  C   UNL     1      -3.151 -14.860  -5.055  1.00  0.00     0.031 C 
ATOM     49  C   UNL     1      -4.259 -11.651  -0.571  1.00  0.00     0.029 A 
ATOM     50  C   UNL     1      -4.025 -12.810  -1.311  1.00  0.00     0.049 A 
ATOM     51  H   UNL     1      -5.579 -14.152  -1.816  1.00  0.00     0.167 HD
ATOM     52  C   UNL     1      -2.703 -14.202  -2.876  1.00  0.00     0.074 A 
ATOM     53  C   UNL     1      -3.702 -14.577  -3.872  1.00  0.00     0.031 C 
ATOM     54  C   UNL     1      -2.810 -13.465  -1.730  1.00  0.00     0.037 A 
BRANCH  41  55
ATOM     55  C   UNL     1      -7.914 -12.904  -3.420  1.00  0.00     0.064 A 
ATOM     56  C   UNL     1      -8.583 -13.623  -2.413  1.00  0.00     0.173 A 
ATOM     57  C   UNL     1      -8.124 -13.358  -4.741  1.00  0.00     0.173 A 
ATOM     58  F   UNL     1      -8.429 -13.293  -1.122  1.00  0.00    -0.203 F 
ATOM     59  C   UNL     1      -9.350 -14.753  -2.705  1.00  0.00     0.198 A 
ATOM     60  C   UNL     1      -8.938 -14.449  -5.033  1.00  0.00     0.198 A 
ATOM     61  F   UNL     1      -7.464 -12.843  -5.786  1.00  0.00    -0.203 F 
ATOM     62  F   UNL     1      -9.865 -15.482  -1.705  1.00  0.00    -0.200 F 
ATOM     63  C   UNL     1      -9.525 -15.166  -4.013  1.00  0.00     0.200 A 
ATOM     64  F   UNL     1      -9.078 -14.844  -6.306  1.00  0.00    -0.200 F 
ATOM     65  F   UNL     1     -10.211 -16.283  -4.289  1.00  0.00    -0.200 F 
ENDBRANCH  41  55
BRANCH  42  66
ATOM     66  C   UNL     1      -0.445 -14.805  -7.011  1.00  0.00     0.064 A 
ATOM     67  C   UNL     1      -0.157 -16.170  -6.855  1.00  0.00     0.173 A 
ATOM     68  C   UNL     1      -0.476 -14.329  -8.339  1.00  0.00     0.173 A 
ATOM     69  F   UNL     1      -0.162 -16.725  -5.634  1.00  0.00    -0.203 F 
ATOM     70  C   UNL     1       0.078 -17.004  -7.955  1.00  0.00     0.198 A 
ATOM     71  C   UNL     1      -0.221 -15.155  -9.434  1.00  0.00     0.198 A 
ATOM     72  F   UNL     1      -0.844 -13.072  -8.620  1.00  0.00    -0.203 F 
ATOM     73  F   UNL     1       0.290 -18.314  -7.768  1.00  0.00    -0.200 F 
ATOM     74  C   UNL     1       0.044 -16.496  -9.243  1.00  0.00     0.200 A 
ATOM     75  F   UNL     1      -0.293 -14.654 -10.675  1.00  0.00    -0.200 F 
ATOM     76  F   UNL     1       0.223 -17.302 -10.299  1.00  0.00    -0.200 F 
ENDBRANCH  42  66
BRANCH  54  77
ATOM     77  C   UNL     1      -1.551 -13.071  -1.009  1.00  0.00     0.064 A 
ATOM     78  C   UNL     1      -0.542 -12.276  -1.580  1.00  0.00     0.173 A 
ATOM     79  C   UNL     1      -1.444 -13.358   0.358  1.00  0.00     0.173 A 
ATOM     80  F   UNL     1      -0.626 -11.859  -2.848  1.00  0.00    -0.203 F 
ATOM     81  C   UNL     1       0.546 -11.835  -0.830  1.00  0.00     0.198 A 
ATOM     82  C   UNL     1      -0.377 -12.882   1.116  1.00  0.00     0.198 A 
ATOM     83  F   UNL     1      -2.408 -14.059   0.977  1.00  0.00    -0.203 F 
ATOM     84  F   UNL     1       1.500 -11.089  -1.407  1.00  0.00    -0.200 F 
ATOM     85  C   UNL     1       0.623 -12.130   0.519  1.00  0.00     0.200 A 
ATOM     86  F   UNL     1      -0.334 -13.125   2.433  1.00  0.00    -0.200 F 
ATOM     87  F   UNL     1       1.646 -11.668   1.252  1.00  0.00    -0.200 F 
ENDBRANCH  54  77
ENDBRANCH  28  29
ENDBRANCH  21  23
ENDBRANCH  20  21
ENDBRANCH  19  20
ENDBRANCH   1  19
TORSDOF 15
