REMARK SMILES CC1([C@@]2(C)C[C@@H]2C(=O)OCCOC(=O)c2ccc(-c3c4nc(c(-c5c(F)c(F)c(F)c(F)c5F)c5ccc([nH]5)c(-c5c(F)c(F)c(F)c(F)c5F)c5nc(c(-c6c(F)c(F)c(F)c(F)c6F)c6ccc3[nH]6)C=C5)C=C4)cc2)CC1
REMARK SMILES IDX 11 1 10 2 9 3 7 4 8 5 6 6 3 7 4 8 5 9 2 10 1 11 78 12 79 13
REMARK SMILES IDX 12 14 13 15 14 16 15 17 16 18 77 19 17 20 76 21 18 22 19 23
REMARK SMILES IDX 20 24 70 25 21 26 75 27 69 28 71 29 22 30 74 31 68 32 67 33
REMARK SMILES IDX 23 35 55 36 35 37 54 38 36 39 39 40 53 41 72 42 37 43 38 44
REMARK SMILES IDX 52 46 73 47 40 48 24 49 25 50 33 51 26 52 27 53 31 54 34 55
REMARK SMILES IDX 28 56 29 57 32 58 30 59 56 60 57 61 65 62 58 63 59 64 63 65
REMARK SMILES IDX 66 66 60 67 61 68 64 69 62 70 41 71 42 72 50 73 43 74 44 75
REMARK SMILES IDX 48 76 51 77 45 78 46 79 49 80 47 81
REMARK H PARENT 71 34 39 45
REMARK Flexibility Score: inf
ROOT
ATOM      1  C   UNL     1       3.118  -4.120   2.763  1.00  0.00     0.275 C 
ENDROOT
BRANCH   1   2
ATOM      2  C   UNL     1       1.829  -4.207   1.950  1.00  0.00     0.274 C 
BRANCH   2   3
ATOM      3  O   UNL     1       1.344  -2.895   1.598  1.00  0.00    -0.462 OA
BRANCH   3   4
ATOM      4  C   UNL     1       0.308  -2.436   2.348  1.00  0.00     0.309 C 
ATOM      5  O   UNL     1      -0.204  -3.009   3.300  1.00  0.00    -0.252 OA
BRANCH   4   6
ATOM      6  C   UNL     1      -0.263  -1.175   1.830  1.00  0.00     0.106 C 
ATOM      7  C   UNL     1       0.512   0.127   1.594  1.00  0.00    -0.013 C 
ATOM      8  C   UNL     1       1.973   0.208   1.978  1.00  0.00     0.013 C 
ATOM      9  C   UNL     1      -0.468   0.002   2.747  1.00  0.00     0.024 C 
BRANCH   7  10
ATOM     10  C   UNL     1       0.169   0.933   0.304  1.00  0.00    -0.026 C 
ATOM     11  C   UNL     1       0.595   0.239  -0.970  1.00  0.00     0.012 C 
ATOM     12  C   UNL     1       0.272   2.450   0.305  1.00  0.00     0.008 C 
ATOM     13  C   UNL     1      -1.075   1.805   0.216  1.00  0.00     0.008 C 
ENDBRANCH   7  10
ENDBRANCH   4   6
ENDBRANCH   3   4
ENDBRANCH   2   3
ENDBRANCH   1   2
BRANCH   1  14
ATOM     14  O   UNL     1       2.870  -3.376   3.966  1.00  0.00    -0.458 OA
BRANCH  14  15
ATOM     15  C   UNL     1       3.712  -2.346   4.207  1.00  0.00     0.338 C 
ATOM     16  O   UNL     1       4.718  -2.050   3.584  1.00  0.00    -0.246 OA
BRANCH  15  17
ATOM     17  C   UNL     1       3.224  -1.557   5.357  1.00  0.00     0.060 A 
ATOM     18  C   UNL     1       1.868  -1.258   5.487  1.00  0.00     0.016 A 
ATOM     19  C   UNL     1       4.143  -1.000   6.245  1.00  0.00     0.016 A 
ATOM     20  C   UNL     1       1.439  -0.334   6.436  1.00  0.00     0.010 A 
ATOM     21  C   UNL     1       3.695  -0.163   7.273  1.00  0.00     0.010 A 
ATOM     22  C   UNL     1       2.341   0.203   7.364  1.00  0.00    -0.014 A 
BRANCH  22  23
ATOM     23  C   UNL     1       1.872   1.137   8.427  1.00  0.00     0.031 A 
ATOM     24  C   UNL     1       2.483   2.506   8.567  1.00  0.00     0.074 A 
ATOM     25  C   UNL     1       0.906   0.751   9.285  1.00  0.00     0.049 A 
ATOM     26  N   UNL     1       2.362   3.373   9.541  1.00  0.00    -0.248 NA
ATOM     27  C   UNL     1       3.360   2.954   7.474  1.00  0.00     0.031 C 
ATOM     28  C   UNL     1       0.200  -0.531   9.248  1.00  0.00     0.029 A 
ATOM     29  N   UNL     1       0.353   1.399  10.363  1.00  0.00    -0.354 N 
ATOM     30  C   UNL     1       3.188   4.439   9.208  1.00  0.00     0.074 A 
ATOM     31  C   UNL     1       3.808   4.112   7.941  1.00  0.00     0.031 C 
ATOM     32  C   UNL     1      -0.712  -0.563  10.230  1.00  0.00     0.029 A 
ATOM     33  C   UNL     1      -0.588   0.651  11.027  1.00  0.00     0.049 A 
ATOM     34  H   UNL     1       0.606   2.312  10.632  1.00  0.00     0.167 HD
ATOM     35  C   UNL     1       3.409   5.584   9.899  1.00  0.00     0.037 A 
ATOM     36  C   UNL     1      -1.244   0.884  12.180  1.00  0.00     0.037 A 
ATOM     37  C   UNL     1       2.748   5.929  11.133  1.00  0.00     0.049 A 
ATOM     38  C   UNL     1      -0.958   2.147  12.941  1.00  0.00     0.074 A 
ATOM     39  C   UNL     1       2.882   7.079  11.893  1.00  0.00     0.029 A 
ATOM     40  N   UNL     1       1.817   5.131  11.781  1.00  0.00    -0.354 N 
ATOM     41  N   UNL     1      -0.143   3.128  12.641  1.00  0.00    -0.248 NA
ATOM     42  C   UNL     1      -1.672   2.325  14.213  1.00  0.00     0.031 C 
ATOM     43  C   UNL     1       2.064   6.958  13.021  1.00  0.00     0.029 A 
ATOM     44  C   UNL     1       1.382   5.756  12.941  1.00  0.00     0.049 A 
ATOM     45  H   UNL     1       1.510   4.250  11.465  1.00  0.00     0.167 HD
ATOM     46  C   UNL     1      -0.252   4.043  13.677  1.00  0.00     0.074 A 
ATOM     47  C   UNL     1      -1.233   3.513  14.602  1.00  0.00     0.031 C 
ATOM     48  C   UNL     1       0.408   5.214  13.852  1.00  0.00     0.037 A 
BRANCH  35  49
ATOM     49  C   UNL     1       4.430   6.544   9.360  1.00  0.00     0.064 A 
ATOM     50  C   UNL     1       4.192   7.322   8.218  1.00  0.00     0.173 A 
ATOM     51  C   UNL     1       5.649   6.727  10.034  1.00  0.00     0.173 A 
ATOM     52  F   UNL     1       3.049   7.178   7.530  1.00  0.00    -0.203 F 
ATOM     53  C   UNL     1       5.143   8.232   7.759  1.00  0.00     0.198 A 
ATOM     54  C   UNL     1       6.584   7.657   9.589  1.00  0.00     0.198 A 
ATOM     55  F   UNL     1       5.925   6.013  11.136  1.00  0.00    -0.203 F 
ATOM     56  F   UNL     1       4.909   8.937   6.643  1.00  0.00    -0.200 F 
ATOM     57  C   UNL     1       6.333   8.405   8.449  1.00  0.00     0.200 A 
ATOM     58  F   UNL     1       7.727   7.833  10.267  1.00  0.00    -0.200 F 
ATOM     59  F   UNL     1       7.241   9.290   8.014  1.00  0.00    -0.200 F 
ENDBRANCH  35  49
BRANCH  36  60
ATOM     60  C   UNL     1      -2.199  -0.126  12.704  1.00  0.00     0.064 A 
ATOM     61  C   UNL     1      -3.574   0.141  12.757  1.00  0.00     0.173 A 
ATOM     62  C   UNL     1      -1.759  -1.379  13.158  1.00  0.00     0.173 A 
ATOM     63  F   UNL     1      -4.040   1.334  12.359  1.00  0.00    -0.203 F 
ATOM     64  C   UNL     1      -4.470  -0.803  13.254  1.00  0.00     0.198 A 
ATOM     65  C   UNL     1      -2.660  -2.334  13.623  1.00  0.00     0.198 A 
ATOM     66  F   UNL     1      -0.453  -1.684  13.130  1.00  0.00    -0.203 F 
ATOM     67  F   UNL     1      -5.774  -0.506  13.335  1.00  0.00    -0.200 F 
ATOM     68  C   UNL     1      -4.014  -2.042  13.678  1.00  0.00     0.200 A 
ATOM     69  F   UNL     1      -2.216  -3.535  14.015  1.00  0.00    -0.200 F 
ATOM     70  F   UNL     1      -4.878  -2.953  14.146  1.00  0.00    -0.200 F 
ENDBRANCH  36  60
BRANCH  48  71
ATOM     71  C   UNL     1       0.067   6.008  15.078  1.00  0.00     0.064 A 
ATOM     72  C   UNL     1       0.469   5.595  16.357  1.00  0.00     0.173 A 
ATOM     73  C   UNL     1      -0.665   7.200  14.972  1.00  0.00     0.173 A 
ATOM     74  F   UNL     1       1.154   4.452  16.512  1.00  0.00    -0.203 F 
ATOM     75  C   UNL     1       0.122   6.330  17.488  1.00  0.00     0.198 A 
ATOM     76  C   UNL     1      -0.984   7.948  16.102  1.00  0.00     0.198 A 
ATOM     77  F   UNL     1      -1.069   7.641  13.771  1.00  0.00    -0.203 F 
ATOM     78  F   UNL     1       0.467   5.886  18.704  1.00  0.00    -0.200 F 
ATOM     79  C   UNL     1      -0.599   7.507  17.359  1.00  0.00     0.200 A 
ATOM     80  F   UNL     1      -1.672   9.091  15.975  1.00  0.00    -0.200 F 
ATOM     81  F   UNL     1      -0.933   8.212  18.448  1.00  0.00    -0.200 F 
ENDBRANCH  48  71
ENDBRANCH  22  23
ENDBRANCH  15  17
ENDBRANCH  14  15
ENDBRANCH   1  14
TORSDOF 12
