REMARK SMILES O=C(OCCOC(=O)[C@]1([NH2+]C2CC2)CCC[C@H](SC2CCCCC2)C1)c1ccc(-c2c3nc(c(-c4c(F)c(F)c(F)c(F)c4F)c4ccc([nH]4)c(-c4c(F)c(F)c(F)c(F)c4F)c4nc(c(-c5c(F)c(F)c(F)c(F)c5F)c5ccc2[nH]5)C=C4)C=C3)cc1
REMARK SMILES IDX 4 1 3 2 2 3 1 4 26 5 27 6 88 7 28 8 87 9 29 10 30 11 31 12
REMARK SMILES IDX 81 13 32 14 86 15 80 16 82 17 33 18 85 19 79 20 78 21 34 23
REMARK SMILES IDX 66 24 46 25 65 26 47 27 50 28 64 29 83 30 48 31 49 32 63 34
REMARK SMILES IDX 84 35 51 36 35 37 36 38 44 39 37 40 38 41 42 42 45 43 39 44
REMARK SMILES IDX 40 45 43 46 41 47 67 48 68 49 76 50 69 51 70 52 74 53 77 54
REMARK SMILES IDX 71 55 72 56 75 57 73 58 52 59 53 60 61 61 54 62 55 63 59 64
REMARK SMILES IDX 62 65 56 66 57 67 60 68 58 69 5 70 6 71 7 72 8 73 9 74 14 75
REMARK SMILES IDX 25 76 15 77 17 78 16 79 10 80 11 83 12 84 13 85 18 86 19 87
REMARK SMILES IDX 20 88 24 89 21 90 23 91 22 92
REMARK H PARENT 82 22 50 33 10 81 10 82
REMARK Flexibility Score: inf
ROOT
ATOM      1  C   UNL     1      -2.239  -1.691   1.513  1.00  0.00     0.275 C 
ENDROOT
BRANCH   1   2
ATOM      2  O   UNL     1      -1.774  -2.592   0.488  1.00  0.00    -0.458 OA
BRANCH   2   3
ATOM      3  C   UNL     1      -0.611  -2.553  -0.201  1.00  0.00     0.338 C 
ATOM      4  O   UNL     1      -0.409  -3.317  -1.140  1.00  0.00    -0.246 OA
BRANCH   3   5
ATOM      5  C   UNL     1       0.499  -1.633   0.161  1.00  0.00     0.060 A 
ATOM      6  C   UNL     1       0.312  -0.086   1.120  1.00  0.00     0.016 A 
ATOM      7  C   UNL     1       2.124  -1.924  -0.685  1.00  0.00     0.016 A 
ATOM      8  C   UNL     1       1.680   1.072   1.302  1.00  0.00     0.010 A 
ATOM      9  C   UNL     1       3.468  -0.696  -0.530  1.00  0.00     0.010 A 
ATOM     10  C   UNL     1       3.231   0.824   0.446  1.00  0.00    -0.014 A 
BRANCH  10  11
ATOM     11  C   UNL     1       4.266   1.917   0.671  1.00  0.00     0.031 A 
ATOM     12  C   UNL     1       4.557   2.998  -0.352  1.00  0.00     0.074 A 
ATOM     13  C   UNL     1       4.807   2.100   1.893  1.00  0.00     0.049 A 
ATOM     14  N   UNL     1       5.609   3.753  -0.560  1.00  0.00    -0.248 NA
ATOM     15  C   UNL     1       3.519   3.263  -1.332  1.00  0.00     0.031 C 
ATOM     16  C   UNL     1       4.546   1.284   3.075  1.00  0.00     0.029 A 
ATOM     17  N   UNL     1       5.662   3.075   2.356  1.00  0.00    -0.354 N 
ATOM     18  C   UNL     1       5.364   4.389  -1.784  1.00  0.00     0.074 A 
ATOM     19  C   UNL     1       4.177   3.805  -2.336  1.00  0.00     0.031 C 
ATOM     20  C   UNL     1       5.216   1.787   4.125  1.00  0.00     0.029 A 
ATOM     21  C   UNL     1       5.984   2.947   3.688  1.00  0.00     0.049 A 
ATOM     22  H   UNL     1       6.011   3.798   1.787  1.00  0.00     0.167 HD
ATOM     23  C   UNL     1       5.910   5.501  -2.332  1.00  0.00     0.037 A 
ATOM     24  C   UNL     1       6.819   3.682   4.452  1.00  0.00     0.037 A 
ATOM     25  C   UNL     1       6.819   6.338  -1.615  1.00  0.00     0.049 A 
ATOM     26  C   UNL     1       7.499   4.873   3.817  1.00  0.00     0.074 A 
ATOM     27  C   UNL     1       7.444   7.497  -2.027  1.00  0.00     0.029 A 
ATOM     28  N   UNL     1       7.137   6.146  -0.279  1.00  0.00    -0.354 N 
ATOM     29  N   UNL     1       7.381   5.346   2.597  1.00  0.00    -0.248 NA
ATOM     30  C   UNL     1       8.427   5.636   4.663  1.00  0.00     0.031 C 
ATOM     31  C   UNL     1       8.159   8.001  -0.936  1.00  0.00     0.029 A 
ATOM     32  C   UNL     1       7.950   7.170   0.157  1.00  0.00     0.049 A 
ATOM     33  H   UNL     1       6.828   5.393   0.274  1.00  0.00     0.167 HD
ATOM     34  C   UNL     1       8.198   6.468   2.537  1.00  0.00     0.074 A 
ATOM     35  C   UNL     1       8.782   6.623   3.854  1.00  0.00     0.031 C 
ATOM     36  C   UNL     1       8.466   7.293   1.494  1.00  0.00     0.037 A 
BRANCH  23  37
ATOM     37  C   UNL     1       5.474   5.898  -3.722  1.00  0.00     0.064 A 
ATOM     38  C   UNL     1       4.186   6.383  -4.013  1.00  0.00     0.173 A 
ATOM     39  C   UNL     1       6.357   5.728  -4.798  1.00  0.00     0.173 A 
ATOM     40  F   UNL     1       3.288   6.548  -3.029  1.00  0.00    -0.203 F 
ATOM     41  C   UNL     1       3.778   6.605  -5.328  1.00  0.00     0.198 A 
ATOM     42  C   UNL     1       5.961   5.996  -6.107  1.00  0.00     0.198 A 
ATOM     43  F   UNL     1       7.604   5.284  -4.582  1.00  0.00    -0.203 F 
ATOM     44  F   UNL     1       2.511   6.962  -5.584  1.00  0.00    -0.200 F 
ATOM     45  C   UNL     1       4.667   6.415  -6.373  1.00  0.00     0.200 A 
ATOM     46  F   UNL     1       6.827   5.826  -7.116  1.00  0.00    -0.200 F 
ATOM     47  F   UNL     1       4.271   6.618  -7.638  1.00  0.00    -0.200 F 
ENDBRANCH  23  37
BRANCH  24  48
ATOM     48  C   UNL     1       7.091   3.301   5.871  1.00  0.00     0.064 A 
ATOM     49  C   UNL     1       6.781   4.152   6.942  1.00  0.00     0.173 A 
ATOM     50  C   UNL     1       7.719   2.083   6.183  1.00  0.00     0.173 A 
ATOM     51  F   UNL     1       6.201   5.339   6.710  1.00  0.00    -0.203 F 
ATOM     52  C   UNL     1       7.115   3.818   8.257  1.00  0.00     0.198 A 
ATOM     53  C   UNL     1       8.017   1.733   7.500  1.00  0.00     0.198 A 
ATOM     54  F   UNL     1       8.045   1.226   5.205  1.00  0.00    -0.203 F 
ATOM     55  F   UNL     1       6.865   4.682   9.251  1.00  0.00    -0.200 F 
ATOM     56  C   UNL     1       7.728   2.606   8.535  1.00  0.00     0.200 A 
ATOM     57  F   UNL     1       8.596   0.553   7.761  1.00  0.00    -0.200 F 
ATOM     58  F   UNL     1       8.050   2.287   9.796  1.00  0.00    -0.200 F 
ENDBRANCH  24  48
BRANCH  36  59
ATOM     59  C   UNL     1       9.391   8.441   1.752  1.00  0.00     0.064 A 
ATOM     60  C   UNL     1      10.768   8.239   1.913  1.00  0.00     0.173 A 
ATOM     61  C   UNL     1       8.903   9.756   1.767  1.00  0.00     0.173 A 
ATOM     62  F   UNL     1      11.273   6.996   1.911  1.00  0.00    -0.203 F 
ATOM     63  C   UNL     1      11.624   9.316   2.110  1.00  0.00     0.198 A 
ATOM     64  C   UNL     1       9.768  10.832   1.929  1.00  0.00     0.198 A 
ATOM     65  F   UNL     1       7.594   9.995   1.597  1.00  0.00    -0.203 F 
ATOM     66  F   UNL     1      12.931   9.100   2.311  1.00  0.00    -0.200 F 
ATOM     67  C   UNL     1      11.125  10.611   2.109  1.00  0.00     0.200 A 
ATOM     68  F   UNL     1       9.289  12.083   1.904  1.00  0.00    -0.200 F 
ATOM     69  F   UNL     1      11.955  11.647   2.287  1.00  0.00    -0.200 F 
ENDBRANCH  36  59
ENDBRANCH  10  11
ENDBRANCH   3   5
ENDBRANCH   2   3
ENDBRANCH   1   2
BRANCH   1  70
ATOM     70  C   UNL     1      -1.631  -1.897   2.919  1.00  0.00     0.274 C 
BRANCH  70  71
ATOM     71  O   UNL     1      -0.201  -1.734   2.978  1.00  0.00    -0.457 OA
BRANCH  71  72
ATOM     72  C   UNL     1       0.521  -2.759   2.443  1.00  0.00     0.368 C 
ATOM     73  O   UNL     1       0.032  -3.861   2.216  1.00  0.00    -0.245 OA
BRANCH  72  74
ATOM     74  C   UNL     1       1.987  -2.364   2.048  1.00  0.00     0.195 C 
ATOM     75  C   UNL     1       2.732  -3.580   1.389  1.00  0.00     0.081 C 
ATOM     76  C   UNL     1       2.731  -2.150   3.422  1.00  0.00     0.095 C 
ATOM     77  C   UNL     1       2.888  -4.834   2.240  1.00  0.00     0.008 C 
ATOM     78  C   UNL     1       2.788  -3.410   4.363  1.00  0.00     0.053 C 
ATOM     79  C   UNL     1       3.445  -4.572   3.627  1.00  0.00     0.015 C 
BRANCH  74  80
ATOM     80  N   UNL     1       2.191  -0.924   1.129  1.00  0.00    -0.330 N 
ATOM     81  H   UNL     1       3.192  -0.948   0.935  1.00  0.00     0.347 HD
ATOM     82  H   UNL     1       1.559  -0.396   1.730  1.00  0.00     0.347 HD
BRANCH  80  83
ATOM     83  C   UNL     1       1.439   0.001  -0.641  1.00  0.00     0.183 C 
ATOM     84  C   UNL     1       0.879   1.420  -1.008  1.00  0.00     0.071 C 
ATOM     85  C   UNL     1       1.961   0.805  -1.863  1.00  0.00     0.071 C 
ENDBRANCH  80  83
ENDBRANCH  74  80
BRANCH  78  86
ATOM     86  S   UNL     1       1.175  -3.581   5.269  1.00  0.00    -0.155 SA
BRANCH  86  87
ATOM     87  C   UNL     1       0.669  -5.350   5.475  1.00  0.00     0.047 C 
ATOM     88  C   UNL     1       0.718  -6.323   4.295  1.00  0.00     0.014 C 
ATOM     89  C   UNL     1       1.289  -5.930   6.748  1.00  0.00     0.014 C 
ATOM     90  C   UNL     1       0.198  -7.718   4.641  1.00  0.00     0.001 C 
ATOM     91  C   UNL     1       0.728  -7.322   7.054  1.00  0.00     0.001 C 
ATOM     92  C   UNL     1       0.907  -8.266   5.872  1.00  0.00     0.000 C 
ENDBRANCH  86  87
ENDBRANCH  78  86
ENDBRANCH  72  74
ENDBRANCH  71  72
ENDBRANCH  70  71
ENDBRANCH   1  70
TORSDOF 15
