REMARK SMILES O=C(C[C@@H](C[NH+]1CCCCC1)C(=O)OCCOC(=O)c1ccc(-c2c3nc(c(-c4c(F)c(F)c(F)c(F)c4F)c4ccc([nH]4)c(-c4c(F)c(F)c(F)c(F)c4F)c4nc(c(-c5c(F)c(F)c(F)c(F)c5F)c5ccc2[nH]5)C=C4)C=C3)cc1)Nc1ccccc1O
REMARK SMILES IDX 15 1 14 2 12 3 13 4 4 5 3 6 2 7 1 8 83 9 84 11 85 12 89 13
REMARK SMILES IDX 86 14 88 15 87 16 90 17 5 19 6 20 7 21 11 22 8 24 10 25 9 26
REMARK SMILES IDX 16 27 17 28 18 29 19 30 20 31 21 32 82 33 22 34 81 35 23 36
REMARK SMILES IDX 24 37 25 38 75 39 26 40 80 41 74 42 76 43 27 44 79 45 73 46
REMARK SMILES IDX 72 47 28 49 60 50 40 51 59 52 41 53 44 54 58 55 77 56 42 57
REMARK SMILES IDX 43 58 57 60 78 61 45 62 29 63 30 64 38 65 31 66 32 67 36 68
REMARK SMILES IDX 39 69 33 70 34 71 37 72 35 73 61 74 62 75 70 76 63 77 64 78
REMARK SMILES IDX 68 79 71 80 65 81 66 82 69 83 67 84 46 85 47 86 55 87 48 88
REMARK SMILES IDX 49 89 53 90 56 91 50 92 51 93 54 94 52 95
REMARK H PARENT 83 10 90 18 6 23 76 48 44 59
REMARK Flexibility Score: inf
ROOT
ATOM      1  C   UNL     1       5.906   2.246  -3.923  1.00  0.00     0.274 C 
ENDROOT
BRANCH   1   2
ATOM      2  O   UNL     1       5.153   1.656  -2.842  1.00  0.00    -0.462 OA
BRANCH   2   3
ATOM      3  C   UNL     1       5.091   2.324  -1.663  1.00  0.00     0.315 C 
ATOM      4  O   UNL     1       5.510   3.460  -1.478  1.00  0.00    -0.252 OA
BRANCH   3   5
ATOM      5  C   UNL     1       4.523   1.465  -0.535  1.00  0.00     0.163 C 
BRANCH   5   6
ATOM      6  C   UNL     1       3.400   0.536  -1.010  1.00  0.00     0.121 C 
BRANCH   6   7
ATOM      7  C   UNL     1       2.353   0.034  -0.016  1.00  0.00     0.225 C 
ATOM      8  O   UNL     1       1.247  -0.308  -0.436  1.00  0.00    -0.275 OA
ATOM      9  N   UNL     1       2.728  -0.074   1.297  1.00  0.00    -0.323 N 
ATOM     10  H   UNL     1       3.567   0.384   1.533  1.00  0.00     0.170 HD
BRANCH   9  11
ATOM     11  C   UNL     1       2.084  -0.748   2.370  1.00  0.00     0.083 A 
ATOM     12  C   UNL     1       2.666  -0.538   3.635  1.00  0.00     0.030 A 
ATOM     13  C   UNL     1       0.992  -1.626   2.296  1.00  0.00     0.139 A 
ATOM     14  C   UNL     1       2.175  -1.168   4.782  1.00  0.00     0.002 A 
ATOM     15  C   UNL     1       0.509  -2.265   3.444  1.00  0.00     0.048 A 
ATOM     16  C   UNL     1       1.094  -2.035   4.686  1.00  0.00     0.004 A 
BRANCH  13  17
ATOM     17  O   UNL     1       0.329  -1.973   1.155  1.00  0.00    -0.506 OA
ATOM     18  H   UNL     1       0.580  -1.597   0.334  1.00  0.00     0.293 HD
ENDBRANCH  13  17
ENDBRANCH   9  11
ENDBRANCH   6   7
ENDBRANCH   5   6
BRANCH   5  19
ATOM     19  C   UNL     1       5.711   0.855   0.255  1.00  0.00     0.278 C 
BRANCH  19  20
ATOM     20  N   UNL     1       6.353  -0.402  -0.145  1.00  0.00    -0.334 N 
ATOM     21  C   UNL     1       5.623  -1.621   0.209  1.00  0.00     0.262 C 
ATOM     22  C   UNL     1       6.854  -0.397  -1.518  1.00  0.00     0.262 C 
ATOM     23  H   UNL     1       7.182  -0.441   0.448  1.00  0.00     0.348 HD
ATOM     24  C   UNL     1       6.407  -2.893  -0.130  1.00  0.00     0.062 C 
ATOM     25  C   UNL     1       7.704  -1.621  -1.831  1.00  0.00     0.062 C 
ATOM     26  C   UNL     1       6.897  -2.885  -1.574  1.00  0.00     0.012 C 
ENDBRANCH  19  20
ENDBRANCH   5  19
ENDBRANCH   3   5
ENDBRANCH   2   3
ENDBRANCH   1   2
BRANCH   1  27
ATOM     27  C   UNL     1       5.017   2.490  -5.141  1.00  0.00     0.275 C 
BRANCH  27  28
ATOM     28  O   UNL     1       4.049   3.507  -4.841  1.00  0.00    -0.458 OA
BRANCH  28  29
ATOM     29  C   UNL     1       2.899   3.039  -4.303  1.00  0.00     0.338 C 
ATOM     30  O   UNL     1       2.536   1.882  -4.207  1.00  0.00    -0.246 OA
BRANCH  29  31
ATOM     31  C   UNL     1       2.227   4.155  -3.627  1.00  0.00     0.060 A 
ATOM     32  C   UNL     1       2.034   4.055  -2.247  1.00  0.00     0.016 A 
ATOM     33  C   UNL     1       1.780   5.270  -4.335  1.00  0.00     0.016 A 
ATOM     34  C   UNL     1       1.386   5.068  -1.558  1.00  0.00     0.010 A 
ATOM     35  C   UNL     1       1.124   6.289  -3.644  1.00  0.00     0.010 A 
ATOM     36  C   UNL     1       0.918   6.184  -2.257  1.00  0.00    -0.014 A 
BRANCH  36  37
ATOM     37  C   UNL     1       0.137   7.206  -1.533  1.00  0.00     0.031 A 
ATOM     38  C   UNL     1      -1.352   7.229  -1.690  1.00  0.00     0.074 A 
ATOM     39  C   UNL     1       0.765   8.075  -0.724  1.00  0.00     0.049 A 
ATOM     40  N   UNL     1      -2.221   8.086  -1.221  1.00  0.00    -0.248 NA
ATOM     41  C   UNL     1      -1.944   6.141  -2.485  1.00  0.00     0.031 C 
ATOM     42  C   UNL     1       2.205   8.094  -0.463  1.00  0.00     0.029 A 
ATOM     43  N   UNL     1       0.273   9.111   0.025  1.00  0.00    -0.354 N 
ATOM     44  C   UNL     1      -3.457   7.655  -1.683  1.00  0.00     0.074 A 
ATOM     45  C   UNL     1      -3.227   6.470  -2.480  1.00  0.00     0.031 C 
ATOM     46  C   UNL     1       2.481   9.102   0.381  1.00  0.00     0.029 A 
ATOM     47  C   UNL     1       1.246   9.821   0.680  1.00  0.00     0.049 A 
ATOM     48  H   UNL     1      -0.686   9.325   0.086  1.00  0.00     0.167 HD
ATOM     49  C   UNL     1      -4.671   8.207  -1.455  1.00  0.00     0.037 A 
ATOM     50  C   UNL     1       1.148  10.946   1.412  1.00  0.00     0.037 A 
ATOM     51  C   UNL     1      -4.881   9.379  -0.647  1.00  0.00     0.049 A 
ATOM     52  C   UNL     1      -0.209  11.567   1.605  1.00  0.00     0.074 A 
ATOM     53  C   UNL     1      -6.070  10.016  -0.340  1.00  0.00     0.029 A 
ATOM     54  N   UNL     1      -3.870  10.091  -0.016  1.00  0.00    -0.354 N 
ATOM     55  N   UNL     1      -1.376  11.163   1.161  1.00  0.00    -0.248 NA
ATOM     56  C   UNL     1      -0.264  12.801   2.398  1.00  0.00     0.031 C 
ATOM     57  C   UNL     1      -5.773  11.140   0.440  1.00  0.00     0.029 A 
ATOM     58  C   UNL     1      -4.405  11.175   0.660  1.00  0.00     0.049 A 
ATOM     59  H   UNL     1      -2.913   9.860  -0.046  1.00  0.00     0.167 HD
ATOM     60  C   UNL     1      -2.303  12.081   1.632  1.00  0.00     0.074 A 
ATOM     61  C   UNL     1      -1.565  13.050   2.417  1.00  0.00     0.031 C 
ATOM     62  C   UNL     1      -3.644  12.126   1.431  1.00  0.00     0.037 A 
BRANCH  49  63
ATOM     63  C   UNL     1      -5.856   7.571  -2.120  1.00  0.00     0.064 A 
ATOM     64  C   UNL     1      -6.361   6.330  -1.707  1.00  0.00     0.173 A 
ATOM     65  C   UNL     1      -6.508   8.227  -3.175  1.00  0.00     0.173 A 
ATOM     66  F   UNL     1      -5.761   5.653  -0.716  1.00  0.00    -0.203 F 
ATOM     67  C   UNL     1      -7.462   5.758  -2.340  1.00  0.00     0.198 A 
ATOM     68  C   UNL     1      -7.625   7.666  -3.788  1.00  0.00     0.198 A 
ATOM     69  F   UNL     1      -6.064   9.416  -3.610  1.00  0.00    -0.203 F 
ATOM     70  F   UNL     1      -7.901   4.551  -1.958  1.00  0.00    -0.200 F 
ATOM     71  C   UNL     1      -8.097   6.429  -3.374  1.00  0.00     0.200 A 
ATOM     72  F   UNL     1      -8.243   8.320  -4.781  1.00  0.00    -0.200 F 
ATOM     73  F   UNL     1      -9.161   5.881  -3.978  1.00  0.00    -0.200 F 
ENDBRANCH  49  63
BRANCH  50  74
ATOM     74  C   UNL     1       2.368  11.568   1.988  1.00  0.00     0.064 A 
ATOM     75  C   UNL     1       2.580  11.600   3.372  1.00  0.00     0.173 A 
ATOM     76  C   UNL     1       3.343  12.151   1.165  1.00  0.00     0.173 A 
ATOM     77  F   UNL     1       1.665  11.076   4.202  1.00  0.00    -0.203 F 
ATOM     78  C   UNL     1       3.711  12.207   3.913  1.00  0.00     0.198 A 
ATOM     79  C   UNL     1       4.488  12.732   1.705  1.00  0.00     0.198 A 
ATOM     80  F   UNL     1       3.188  12.148  -0.168  1.00  0.00    -0.203 F 
ATOM     81  F   UNL     1       3.866  12.265   5.242  1.00  0.00    -0.200 F 
ATOM     82  C   UNL     1       4.668  12.767   3.079  1.00  0.00     0.200 A 
ATOM     83  F   UNL     1       5.416  13.259   0.894  1.00  0.00    -0.200 F 
ATOM     84  F   UNL     1       5.757  13.348   3.600  1.00  0.00    -0.200 F 
ENDBRANCH  50  74
BRANCH  62  85
ATOM     85  C   UNL     1      -4.390  13.249   2.090  1.00  0.00     0.064 A 
ATOM     86  C   UNL     1      -4.276  14.572   1.638  1.00  0.00     0.173 A 
ATOM     87  C   UNL     1      -5.243  12.995   3.175  1.00  0.00     0.173 A 
ATOM     88  F   UNL     1      -3.460  14.867   0.614  1.00  0.00    -0.203 F 
ATOM     89  C   UNL     1      -4.962  15.604   2.269  1.00  0.00     0.198 A 
ATOM     90  C   UNL     1      -5.952  14.026   3.784  1.00  0.00     0.198 A 
ATOM     91  F   UNL     1      -5.392  11.746   3.640  1.00  0.00    -0.203 F 
ATOM     92  F   UNL     1      -4.793  16.869   1.858  1.00  0.00    -0.200 F 
ATOM     93  C   UNL     1      -5.804  15.330   3.337  1.00  0.00     0.200 A 
ATOM     94  F   UNL     1      -6.775  13.758   4.807  1.00  0.00    -0.200 F 
ATOM     95  F   UNL     1      -6.464  16.326   3.944  1.00  0.00    -0.200 F 
ENDBRANCH  62  85
ENDBRANCH  36  37
ENDBRANCH  29  31
ENDBRANCH  28  29
ENDBRANCH  27  28
ENDBRANCH   1  27
TORSDOF 17
