REMARK SMILES COc1cc(Nc2cn[nH]c(=O)n2)c(C(=O)OCCOC(=O)c2ccc(-c3c4nc(c(-c5c(F)c(F)c(F)c(F)c5F)c5ccc([nH]5)c(-c5c(F)c(F)c(F)c(F)c5F)c5nc(c(-c6c(F)c(F)c(F)c(F)c6F)c6ccc3[nH]6)C=C5)C=C4)cc2)cc1OC
REMARK SMILES IDX 18 1 17 2 15 3 16 4 14 5 3 6 4 7 87 8 5 9 86 10 2 11 1 12
REMARK SMILES IDX 88 13 89 14 6 15 7 17 8 18 13 19 9 20 11 21 10 22 12 23
REMARK SMILES IDX 19 25 20 26 21 27 22 28 23 29 24 30 85 31 25 32 84 33 26 34
REMARK SMILES IDX 27 35 28 36 78 37 29 38 83 39 77 40 79 41 30 42 82 43 76 44
REMARK SMILES IDX 75 45 31 47 63 48 43 49 62 50 44 51 47 52 61 53 80 54 45 55
REMARK SMILES IDX 46 56 60 58 81 59 48 60 32 61 33 62 41 63 34 64 35 65 39 66
REMARK SMILES IDX 42 67 36 68 37 69 40 70 38 71 64 72 65 73 73 74 66 75 67 76
REMARK SMILES IDX 71 77 74 78 68 79 69 80 72 81 70 82 49 83 50 84 58 85 51 86
REMARK SMILES IDX 52 87 56 88 59 89 53 90 54 91 57 92 55 93
REMARK H PARENT 6 16 10 24 79 46 47 57
REMARK Flexibility Score: inf
ROOT
ATOM      1  C   UNL     1       3.472  -0.127   7.730  1.00  0.00     0.275 C 
ENDROOT
BRANCH   1   2
ATOM      2  O   UNL     1       3.175   0.312   6.386  1.00  0.00    -0.458 OA
BRANCH   2   3
ATOM      3  C   UNL     1       1.971  -0.064   5.891  1.00  0.00     0.340 C 
ATOM      4  O   UNL     1       1.096  -0.656   6.499  1.00  0.00    -0.246 OA
BRANCH   3   5
ATOM      5  C   UNL     1       1.843   0.317   4.466  1.00  0.00     0.087 A 
ATOM      6  C   UNL     1       1.512   0.584   1.705  1.00  0.00     0.162 A 
ATOM      7  C   UNL     1       0.511   1.018   2.584  1.00  0.00     0.077 A 
ATOM      8  C   UNL     1       2.719   0.084   2.205  1.00  0.00     0.161 A 
ATOM      9  C   UNL     1       0.683   0.946   3.974  1.00  0.00     0.058 A 
ATOM     10  C   UNL     1       2.857  -0.084   3.587  1.00  0.00     0.068 A 
BRANCH   6  11
ATOM     11  O   UNL     1       1.314   0.755   0.360  1.00  0.00    -0.493 OA
ATOM     12  C   UNL     1       0.222  -0.029  -0.125  1.00  0.00     0.278 C 
ENDBRANCH   6  11
BRANCH   8  13
ATOM     13  O   UNL     1       3.828  -0.314   1.512  1.00  0.00    -0.493 OA
ATOM     14  C   UNL     1       3.846  -0.126   0.105  1.00  0.00     0.278 C 
ENDBRANCH   8  13
BRANCH   9  15
ATOM     15  N   UNL     1      -0.247   1.564   4.833  1.00  0.00    -0.338 N 
ATOM     16  H   UNL     1       0.065   1.793   5.738  1.00  0.00     0.168 HD
BRANCH  15  17
ATOM     17  C   UNL     1      -1.554   1.878   4.523  1.00  0.00     0.156 A 
ATOM     18  C   UNL     1      -1.961   3.317   4.728  1.00  0.00     0.180 A 
ATOM     19  N   UNL     1      -2.429   1.015   4.114  1.00  0.00    -0.173 NA
ATOM     20  N   UNL     1      -3.178   3.715   4.577  1.00  0.00    -0.176 NA
ATOM     21  C   UNL     1      -3.734   1.416   3.966  1.00  0.00     0.363 A 
ATOM     22  N   UNL     1      -4.052   2.736   4.218  1.00  0.00    -0.227 N 
ATOM     23  O   UNL     1      -4.625   0.635   3.640  1.00  0.00    -0.244 OA
ATOM     24  H   UNL     1      -4.999   2.992   4.129  1.00  0.00     0.195 HD
ENDBRANCH  15  17
ENDBRANCH   9  15
ENDBRANCH   3   5
ENDBRANCH   2   3
ENDBRANCH   1   2
BRANCH   1  25
ATOM     25  C   UNL     1       3.372   1.020   8.736  1.00  0.00     0.275 C 
BRANCH  25  26
ATOM     26  O   UNL     1       1.996   1.326   9.038  1.00  0.00    -0.458 OA
BRANCH  26  27
ATOM     27  C   UNL     1       1.479   2.376   8.371  1.00  0.00     0.338 C 
ATOM     28  O   UNL     1       2.030   3.096   7.553  1.00  0.00    -0.246 OA
BRANCH  27  29
ATOM     29  C   UNL     1       0.037   2.494   8.622  1.00  0.00     0.060 A 
ATOM     30  C   UNL     1      -0.794   1.592   7.975  1.00  0.00     0.016 A 
ATOM     31  C   UNL     1      -0.500   3.636   9.215  1.00  0.00     0.016 A 
ATOM     32  C   UNL     1      -2.128   1.918   7.767  1.00  0.00     0.010 A 
ATOM     33  C   UNL     1      -1.879   3.885   9.120  1.00  0.00     0.010 A 
ATOM     34  C   UNL     1      -2.706   3.070   8.326  1.00  0.00    -0.014 A 
BRANCH  34  35
ATOM     35  C   UNL     1      -4.123   3.439   7.993  1.00  0.00     0.031 A 
ATOM     36  C   UNL     1      -4.477   4.829   7.502  1.00  0.00     0.074 A 
ATOM     37  C   UNL     1      -5.106   2.511   8.025  1.00  0.00     0.049 A 
ATOM     38  N   UNL     1      -5.659   5.372   7.328  1.00  0.00    -0.248 NA
ATOM     39  C   UNL     1      -3.362   5.732   7.174  1.00  0.00     0.031 C 
ATOM     40  C   UNL     1      -4.938   1.107   8.402  1.00  0.00     0.029 A 
ATOM     41  N   UNL     1      -6.439   2.598   7.695  1.00  0.00    -0.354 N 
ATOM     42  C   UNL     1      -5.426   6.688   6.941  1.00  0.00     0.074 A 
ATOM     43  C   UNL     1      -3.992   6.864   6.890  1.00  0.00     0.031 C 
ATOM     44  C   UNL     1      -6.079   0.446   8.176  1.00  0.00     0.029 A 
ATOM     45  C   UNL     1      -7.111   1.403   7.802  1.00  0.00     0.049 A 
ATOM     46  H   UNL     1      -6.871   3.436   7.410  1.00  0.00     0.167 HD
ATOM     47  C   UNL     1      -6.325   7.664   6.663  1.00  0.00     0.037 A 
ATOM     48  C   UNL     1      -8.419   1.105   7.687  1.00  0.00     0.037 A 
ATOM     49  C   UNL     1      -7.752   7.474   6.630  1.00  0.00     0.049 A 
ATOM     50  C   UNL     1      -9.402   2.209   7.431  1.00  0.00     0.074 A 
ATOM     51  C   UNL     1      -8.742   8.407   6.365  1.00  0.00     0.029 A 
ATOM     52  N   UNL     1      -8.393   6.264   6.842  1.00  0.00    -0.354 N 
ATOM     53  N   UNL     1      -9.176   3.479   7.205  1.00  0.00    -0.248 NA
ATOM     54  C   UNL     1     -10.825   1.846   7.464  1.00  0.00     0.031 C 
ATOM     55  C   UNL     1      -9.983   7.767   6.452  1.00  0.00     0.029 A 
ATOM     56  C   UNL     1      -9.764   6.428   6.727  1.00  0.00     0.049 A 
ATOM     57  H   UNL     1      -7.941   5.413   7.045  1.00  0.00     0.167 HD
ATOM     58  C   UNL     1     -10.425   4.068   7.077  1.00  0.00     0.074 A 
ATOM     59  C   UNL     1     -11.405   3.012   7.217  1.00  0.00     0.031 C 
ATOM     60  C   UNL     1     -10.730   5.373   6.877  1.00  0.00     0.037 A 
BRANCH  47  61
ATOM     61  C   UNL     1      -5.803   9.052   6.421  1.00  0.00     0.064 A 
ATOM     62  C   UNL     1      -5.173   9.421   5.226  1.00  0.00     0.173 A 
ATOM     63  C   UNL     1      -5.999  10.046   7.394  1.00  0.00     0.173 A 
ATOM     64  F   UNL     1      -4.949   8.506   4.270  1.00  0.00    -0.203 F 
ATOM     65  C   UNL     1      -4.742  10.730   5.019  1.00  0.00     0.198 A 
ATOM     66  C   UNL     1      -5.592  11.359   7.173  1.00  0.00     0.198 A 
ATOM     67  F   UNL     1      -6.603   9.748   8.554  1.00  0.00    -0.203 F 
ATOM     68  F   UNL     1      -4.109  11.054   3.883  1.00  0.00    -0.200 F 
ATOM     69  C   UNL     1      -4.960  11.699   5.988  1.00  0.00     0.200 A 
ATOM     70  F   UNL     1      -5.816  12.295   8.106  1.00  0.00    -0.200 F 
ATOM     71  F   UNL     1      -4.556  12.960   5.781  1.00  0.00    -0.200 F 
ENDBRANCH  47  61
BRANCH  48  72
ATOM     72  C   UNL     1      -8.879  -0.292   7.919  1.00  0.00     0.064 A 
ATOM     73  C   UNL     1      -9.446  -1.052   6.887  1.00  0.00     0.173 A 
ATOM     74  C   UNL     1      -8.747  -0.899   9.178  1.00  0.00     0.173 A 
ATOM     75  F   UNL     1      -9.636  -0.504   5.678  1.00  0.00    -0.203 F 
ATOM     76  C   UNL     1      -9.855  -2.367   7.106  1.00  0.00     0.198 A 
ATOM     77  C   UNL     1      -9.119  -2.224   9.384  1.00  0.00     0.198 A 
ATOM     78  F   UNL     1      -8.226  -0.211  10.205  1.00  0.00    -0.203 F 
ATOM     79  F   UNL     1     -10.434  -3.060   6.115  1.00  0.00    -0.200 F 
ATOM     80  C   UNL     1      -9.678  -2.956   8.349  1.00  0.00     0.200 A 
ATOM     81  F   UNL     1      -8.931  -2.791  10.584  1.00  0.00    -0.200 F 
ATOM     82  F   UNL     1     -10.055  -4.225   8.553  1.00  0.00    -0.200 F 
ENDBRANCH  48  72
BRANCH  60  83
ATOM     83  C   UNL     1     -12.184   5.725   6.786  1.00  0.00     0.064 A 
ATOM     84  C   UNL     1     -13.004   5.742   7.924  1.00  0.00     0.173 A 
ATOM     85  C   UNL     1     -12.759   6.064   5.553  1.00  0.00     0.173 A 
ATOM     86  F   UNL     1     -12.502   5.409   9.123  1.00  0.00    -0.203 F 
ATOM     87  C   UNL     1     -14.355   6.062   7.825  1.00  0.00     0.198 A 
ATOM     88  C   UNL     1     -14.105   6.407   5.462  1.00  0.00     0.198 A 
ATOM     89  F   UNL     1     -12.015   6.065   4.437  1.00  0.00    -0.203 F 
ATOM     90  F   UNL     1     -15.131   6.028   8.918  1.00  0.00    -0.200 F 
ATOM     91  C   UNL     1     -14.903   6.399   6.596  1.00  0.00     0.200 A 
ATOM     92  F   UNL     1     -14.631   6.742   4.276  1.00  0.00    -0.200 F 
ATOM     93  F   UNL     1     -16.204   6.707   6.504  1.00  0.00    -0.200 F 
ENDBRANCH  60  83
ENDBRANCH  34  35
ENDBRANCH  27  29
ENDBRANCH  26  27
ENDBRANCH  25  26
ENDBRANCH   1  25
TORSDOF 15
