REMARK SMILES Cc1ccc(S(=O)(=O)N2c3ccc(C(=O)OCCOC(=O)c4ccc(-c5c6nc(c(-c7c(F)c(F)c(F)c(F)c7F)c7ccc([nH]7)c(-c7c(F)c(F)c(F)c(F)c7F)c7nc(c(-c8c(F)c(F)c(F)c(F)c8F)c8ccc5[nH]8)C=C7)C=C6)cc4)cc3C[C@H]2C)cc1
REMARK SMILES IDX 17 1 16 2 14 3 15 4 13 5 9 6 10 7 88 8 11 9 86 10 87 11
REMARK SMILES IDX 89 12 12 13 85 14 6 15 7 16 8 17 5 18 1 19 2 20 3 21 91 22
REMARK SMILES IDX 4 23 90 24 18 25 19 26 20 27 21 28 22 29 23 30 84 31 24 32
REMARK SMILES IDX 83 33 25 34 26 35 27 36 77 37 28 38 82 39 76 40 78 41 29 42
REMARK SMILES IDX 81 43 75 44 74 45 30 47 62 48 42 49 61 50 43 51 46 52 60 53
REMARK SMILES IDX 79 54 44 55 45 56 59 58 80 59 47 60 31 61 32 62 40 63 33 64
REMARK SMILES IDX 34 65 38 66 41 67 35 68 36 69 39 70 37 71 63 72 64 73 72 74
REMARK SMILES IDX 65 75 66 76 70 77 73 78 67 79 68 80 71 81 69 82 48 83 49 84
REMARK SMILES IDX 57 85 50 86 51 87 55 88 58 89 52 90 53 91 56 92 54 93
REMARK H PARENT 78 46 46 57
REMARK Flexibility Score: inf
ROOT
ATOM      1  C   UNL     1     -11.348   3.148   2.101  1.00  0.00     0.275 C 
ENDROOT
BRANCH   1   2
ATOM      2  O   UNL     1      -9.954   3.223   1.766  1.00  0.00    -0.458 OA
BRANCH   2   3
ATOM      3  C   UNL     1      -9.441   1.983   1.540  1.00  0.00     0.338 C 
ATOM      4  O   UNL     1     -10.078   0.938   1.590  1.00  0.00    -0.246 OA
BRANCH   3   5
ATOM      5  C   UNL     1      -7.978   1.963   1.333  1.00  0.00     0.060 A 
ATOM      6  N   UNL     1      -3.848   1.599   0.659  1.00  0.00    -0.263 N 
ATOM      7  C   UNL     1      -5.262   1.589   0.941  1.00  0.00     0.055 A 
ATOM      8  C   UNL     1      -3.626   2.914  -0.072  1.00  0.00     0.101 C 
ATOM      9  C   UNL     1      -5.924   0.728   1.792  1.00  0.00     0.028 A 
ATOM     10  C   UNL     1      -5.932   2.623   0.284  1.00  0.00    -0.021 A 
ATOM     11  C   UNL     1      -4.998   3.313  -0.662  1.00  0.00     0.063 C 
ATOM     12  C   UNL     1      -3.164   3.951   0.964  1.00  0.00     0.032 C 
ATOM     13  C   UNL     1      -7.295   0.903   1.963  1.00  0.00     0.018 A 
ATOM     14  C   UNL     1      -7.288   2.848   0.494  1.00  0.00     0.021 A 
BRANCH   6  15
ATOM     15  S   UNL     1      -3.312   0.173  -0.151  1.00  0.00     0.264 S 
ATOM     16  O   UNL     1      -3.617   0.320  -1.560  1.00  0.00    -0.201 OA
ATOM     17  O   UNL     1      -3.783  -0.978   0.596  1.00  0.00    -0.201 OA
BRANCH  15  18
ATOM     18  C   UNL     1      -1.531   0.116  -0.018  1.00  0.00     0.088 A 
ATOM     19  C   UNL     1       2.764  -0.231   0.016  1.00  0.00     0.044 C 
ATOM     20  C   UNL     1       1.268  -0.114   0.035  1.00  0.00    -0.051 A 
ATOM     21  C   UNL     1       0.471  -1.253  -0.118  1.00  0.00     0.005 A 
ATOM     22  C   UNL     1       0.651   1.129   0.213  1.00  0.00     0.005 A 
ATOM     23  C   UNL     1      -0.921  -1.140  -0.147  1.00  0.00     0.022 A 
ATOM     24  C   UNL     1      -0.742   1.242   0.197  1.00  0.00     0.022 A 
ENDBRANCH  15  18
ENDBRANCH   6  15
ENDBRANCH   3   5
ENDBRANCH   2   3
ENDBRANCH   1   2
BRANCH   1  25
ATOM     25  C   UNL     1     -12.110   4.477   2.014  1.00  0.00     0.275 C 
BRANCH  25  26
ATOM     26  O   UNL     1     -11.842   5.455   0.970  1.00  0.00    -0.458 OA
BRANCH  26  27
ATOM     27  C   UNL     1     -10.982   5.326  -0.063  1.00  0.00     0.338 C 
ATOM     28  O   UNL     1     -10.176   6.198  -0.370  1.00  0.00    -0.246 OA
BRANCH  27  29
ATOM     29  C   UNL     1     -11.101   4.092  -0.854  1.00  0.00     0.060 A 
ATOM     30  C   UNL     1      -9.978   3.616  -1.554  1.00  0.00     0.016 A 
ATOM     31  C   UNL     1     -12.277   3.355  -0.788  1.00  0.00     0.016 A 
ATOM     32  C   UNL     1      -9.977   2.329  -2.074  1.00  0.00     0.010 A 
ATOM     33  C   UNL     1     -12.238   2.046  -1.186  1.00  0.00     0.010 A 
ATOM     34  C   UNL     1     -11.109   1.552  -1.865  1.00  0.00    -0.014 A 
BRANCH  34  35
ATOM     35  C   UNL     1     -11.390   0.329  -2.586  1.00  0.00     0.031 A 
ATOM     36  C   UNL     1     -10.930  -0.990  -2.134  1.00  0.00     0.074 A 
ATOM     37  C   UNL     1     -12.335   0.552  -3.529  1.00  0.00     0.049 A 
ATOM     38  N   UNL     1     -11.089  -2.053  -2.835  1.00  0.00    -0.248 NA
ATOM     39  C   UNL     1     -10.233  -1.256  -0.880  1.00  0.00     0.031 C 
ATOM     40  C   UNL     1     -13.277  -0.338  -4.176  1.00  0.00     0.029 A 
ATOM     41  N   UNL     1     -12.567   1.795  -4.152  1.00  0.00    -0.354 N 
ATOM     42  C   UNL     1     -10.832  -3.144  -2.031  1.00  0.00     0.074 A 
ATOM     43  C   UNL     1     -10.204  -2.598  -0.856  1.00  0.00     0.031 C 
ATOM     44  C   UNL     1     -13.746   0.271  -5.284  1.00  0.00     0.029 A 
ATOM     45  C   UNL     1     -12.978   1.499  -5.454  1.00  0.00     0.049 A 
ATOM     46  H   UNL     1     -12.460   2.689  -3.753  1.00  0.00     0.167 HD
ATOM     47  C   UNL     1     -11.334  -4.347  -2.436  1.00  0.00     0.037 A 
ATOM     48  C   UNL     1     -12.102   1.755  -6.471  1.00  0.00     0.037 A 
ATOM     49  C   UNL     1     -11.951  -4.185  -3.748  1.00  0.00     0.049 A 
ATOM     50  C   UNL     1     -11.696   0.468  -7.141  1.00  0.00     0.074 A 
ATOM     51  C   UNL     1     -13.258  -3.932  -4.131  1.00  0.00     0.029 A 
ATOM     52  N   UNL     1     -11.145  -3.849  -4.827  1.00  0.00    -0.354 N 
ATOM     53  N   UNL     1     -11.514  -0.668  -6.521  1.00  0.00    -0.248 NA
ATOM     54  C   UNL     1     -11.602   0.354  -8.589  1.00  0.00     0.031 C 
ATOM     55  C   UNL     1     -13.228  -3.415  -5.452  1.00  0.00     0.029 A 
ATOM     56  C   UNL     1     -11.907  -3.353  -5.864  1.00  0.00     0.049 A 
ATOM     57  H   UNL     1     -10.166  -3.951  -4.849  1.00  0.00     0.167 HD
ATOM     58  C   UNL     1     -11.373  -1.666  -7.456  1.00  0.00     0.074 A 
ATOM     59  C   UNL     1     -11.420  -0.969  -8.730  1.00  0.00     0.031 C 
ATOM     60  C   UNL     1     -11.290  -2.992  -7.128  1.00  0.00     0.037 A 
BRANCH  47  61
ATOM     61  C   UNL     1     -11.517  -5.600  -1.609  1.00  0.00     0.064 A 
ATOM     62  C   UNL     1     -12.539  -6.524  -1.944  1.00  0.00     0.173 A 
ATOM     63  C   UNL     1     -10.752  -5.955  -0.485  1.00  0.00     0.173 A 
ATOM     64  F   UNL     1     -13.329  -6.345  -3.011  1.00  0.00    -0.203 F 
ATOM     65  C   UNL     1     -12.805  -7.670  -1.194  1.00  0.00     0.198 A 
ATOM     66  C   UNL     1     -11.033  -7.099   0.280  1.00  0.00     0.198 A 
ATOM     67  F   UNL     1      -9.688  -5.236  -0.109  1.00  0.00    -0.203 F 
ATOM     68  F   UNL     1     -13.797  -8.492  -1.566  1.00  0.00    -0.200 F 
ATOM     69  C   UNL     1     -12.060  -7.953  -0.072  1.00  0.00     0.200 A 
ATOM     70  F   UNL     1     -10.293  -7.373   1.365  1.00  0.00    -0.200 F 
ATOM     71  F   UNL     1     -12.322  -9.047   0.656  1.00  0.00    -0.200 F 
ENDBRANCH  47  61
BRANCH  48  72
ATOM     72  C   UNL     1     -11.212   2.933  -6.196  1.00  0.00     0.064 A 
ATOM     73  C   UNL     1     -11.823   4.176  -5.904  1.00  0.00     0.173 A 
ATOM     74  C   UNL     1      -9.858   2.803  -5.860  1.00  0.00     0.173 A 
ATOM     75  F   UNL     1     -13.119   4.370  -6.200  1.00  0.00    -0.203 F 
ATOM     76  C   UNL     1     -11.158   5.177  -5.195  1.00  0.00     0.198 A 
ATOM     77  C   UNL     1      -9.185   3.823  -5.172  1.00  0.00     0.198 A 
ATOM     78  F   UNL     1      -9.201   1.662  -6.108  1.00  0.00    -0.203 F 
ATOM     79  F   UNL     1     -11.817   6.283  -4.819  1.00  0.00    -0.200 F 
ATOM     80  C   UNL     1      -9.844   4.990  -4.812  1.00  0.00     0.200 A 
ATOM     81  F   UNL     1      -7.917   3.639  -4.775  1.00  0.00    -0.200 F 
ATOM     82  F   UNL     1      -9.224   5.910  -4.057  1.00  0.00    -0.200 F 
ENDBRANCH  48  72
BRANCH  60  83
ATOM     83  C   UNL     1     -10.740  -4.114  -7.991  1.00  0.00     0.064 A 
ATOM     84  C   UNL     1     -10.011  -3.918  -9.173  1.00  0.00     0.173 A 
ATOM     85  C   UNL     1     -10.798  -5.466  -7.550  1.00  0.00     0.173 A 
ATOM     86  F   UNL     1      -9.740  -2.696  -9.644  1.00  0.00    -0.203 F 
ATOM     87  C   UNL     1      -9.463  -4.981  -9.896  1.00  0.00     0.198 A 
ATOM     88  C   UNL     1     -10.174  -6.511  -8.227  1.00  0.00     0.198 A 
ATOM     89  F   UNL     1     -11.429  -5.831  -6.426  1.00  0.00    -0.203 F 
ATOM     90  F   UNL     1      -8.836  -4.732 -11.054  1.00  0.00    -0.200 F 
ATOM     91  C   UNL     1      -9.528  -6.273  -9.416  1.00  0.00     0.200 A 
ATOM     92  F   UNL     1     -10.189  -7.745  -7.701  1.00  0.00    -0.200 F 
ATOM     93  F   UNL     1      -8.950  -7.278 -10.085  1.00  0.00    -0.200 F 
ENDBRANCH  60  83
ENDBRANCH  34  35
ENDBRANCH  27  29
ENDBRANCH  26  27
ENDBRANCH  25  26
ENDBRANCH   1  25
TORSDOF 13
