REMARK SMILES CC[C@@](CC(F)(F)F)(C(=O)OCCOC(=O)c1ccc(-c2c3nc(c(-c4c(F)c(F)c(F)c(F)c4F)c4ccc([nH]4)c(-c4c(F)c(F)c(F)c(F)c4F)c4nc(c(-c5c(F)c(F)c(F)c(F)c5F)c5ccc2[nH]5)C=C4)C=C3)cc1)c1ccccc1
REMARK SMILES IDX 12 1 11 2 9 3 10 4 3 5 2 6 1 7 4 8 5 9 6 10 7 11 8 12 80 13
REMARK SMILES IDX 81 14 85 15 82 16 84 17 83 18 13 19 14 20 15 21 16 22 17 23
REMARK SMILES IDX 18 24 79 25 19 26 78 27 20 28 21 29 22 30 72 31 23 32 77 33
REMARK SMILES IDX 71 34 73 35 24 36 76 37 70 38 69 39 25 41 57 42 37 43 56 44
REMARK SMILES IDX 38 45 41 46 55 47 74 48 39 49 40 50 54 52 75 53 42 54 26 55
REMARK SMILES IDX 27 56 35 57 28 58 29 59 33 60 36 61 30 62 31 63 34 64 32 65
REMARK SMILES IDX 58 66 59 67 67 68 60 69 61 70 65 71 68 72 62 73 63 74 66 75
REMARK SMILES IDX 64 76 43 77 44 78 52 79 45 80 46 81 50 82 53 83 47 84 48 85
REMARK SMILES IDX 51 86 49 87
REMARK H PARENT 73 40 41 51
REMARK Flexibility Score: inf
ROOT
ATOM      1  C   UNL     1      -1.075   1.284  -4.852  1.00  0.00     0.274 C 
ENDROOT
BRANCH   1   2
ATOM      2  O   UNL     1      -0.553   0.951  -3.549  1.00  0.00    -0.461 OA
BRANCH   2   3
ATOM      3  C   UNL     1       0.420   0.002  -3.497  1.00  0.00     0.317 C 
ATOM      4  O   UNL     1       0.918  -0.531  -4.484  1.00  0.00    -0.251 OA
BRANCH   3   5
ATOM      5  C   UNL     1       0.760  -0.428  -2.046  1.00  0.00     0.101 C 
BRANCH   5   6
ATOM      6  C   UNL     1       0.050   0.491  -0.997  1.00  0.00     0.020 C 
ATOM      7  C   UNL     1       0.282   0.110   0.464  1.00  0.00     0.005 C 
ENDBRANCH   5   6
BRANCH   5   8
ATOM      8  C   UNL     1       0.232  -1.897  -1.939  1.00  0.00     0.139 C 
BRANCH   8   9
ATOM      9  C   UNL     1      -1.270  -2.079  -2.032  1.00  0.00     0.390 C 
ATOM     10  F   UNL     1      -1.783  -1.528  -3.150  1.00  0.00    -0.171 F 
ATOM     11  F   UNL     1      -1.568  -3.399  -2.063  1.00  0.00    -0.171 F 
ATOM     12  F   UNL     1      -1.916  -1.556  -0.973  1.00  0.00    -0.171 F 
ENDBRANCH   8   9
ENDBRANCH   5   8
BRANCH   5  13
ATOM     13  C   UNL     1       2.314  -0.376  -1.867  1.00  0.00    -0.030 A 
ATOM     14  C   UNL     1       3.137  -1.484  -2.150  1.00  0.00     0.005 A 
ATOM     15  C   UNL     1       2.967   0.797  -1.435  1.00  0.00     0.005 A 
ATOM     16  C   UNL     1       4.523  -1.443  -1.953  1.00  0.00     0.000 A 
ATOM     17  C   UNL     1       4.352   0.835  -1.224  1.00  0.00     0.000 A 
ATOM     18  C   UNL     1       5.129  -0.288  -1.476  1.00  0.00     0.000 A 
ENDBRANCH   5  13
ENDBRANCH   3   5
ENDBRANCH   2   3
ENDBRANCH   1   2
BRANCH   1  19
ATOM     19  C   UNL     1      -0.603   2.672  -5.269  1.00  0.00     0.275 C 
BRANCH  19  20
ATOM     20  O   UNL     1       0.826   2.643  -5.419  1.00  0.00    -0.458 OA
BRANCH  20  21
ATOM     21  C   UNL     1       1.521   3.531  -4.674  1.00  0.00     0.338 C 
ATOM     22  O   UNL     1       1.079   4.424  -3.973  1.00  0.00    -0.246 OA
BRANCH  21  23
ATOM     23  C   UNL     1       2.961   3.251  -4.805  1.00  0.00     0.060 A 
ATOM     24  C   UNL     1       3.438   1.954  -4.629  1.00  0.00     0.016 A 
ATOM     25  C   UNL     1       3.856   4.306  -4.980  1.00  0.00     0.016 A 
ATOM     26  C   UNL     1       4.808   1.726  -4.528  1.00  0.00     0.010 A 
ATOM     27  C   UNL     1       5.232   4.057  -4.967  1.00  0.00     0.010 A 
ATOM     28  C   UNL     1       5.728   2.770  -4.691  1.00  0.00    -0.014 A 
BRANCH  28  29
ATOM     29  C   UNL     1       7.188   2.539  -4.493  1.00  0.00     0.031 A 
ATOM     30  C   UNL     1       7.949   3.357  -3.481  1.00  0.00     0.074 A 
ATOM     31  C   UNL     1       7.844   1.584  -5.181  1.00  0.00     0.049 A 
ATOM     32  N   UNL     1       9.243   3.492  -3.326  1.00  0.00    -0.248 NA
ATOM     33  C   UNL     1       7.149   4.141  -2.526  1.00  0.00     0.031 C 
ATOM     34  C   UNL     1       7.242   0.661  -6.143  1.00  0.00     0.029 A 
ATOM     35  N   UNL     1       9.171   1.223  -5.163  1.00  0.00    -0.354 N 
ATOM     36  C   UNL     1       9.408   4.438  -2.322  1.00  0.00     0.074 A 
ATOM     37  C   UNL     1       8.085   4.826  -1.883  1.00  0.00     0.031 C 
ATOM     38  C   UNL     1       8.179  -0.193  -6.581  1.00  0.00     0.029 A 
ATOM     39  C   UNL     1       9.468   0.185  -6.011  1.00  0.00     0.049 A 
ATOM     40  H   UNL     1       9.843   1.666  -4.597  1.00  0.00     0.167 HD
ATOM     41  C   UNL     1      10.562   4.946  -1.825  1.00  0.00     0.037 A 
ATOM     42  C   UNL     1      10.650  -0.373  -6.335  1.00  0.00     0.037 A 
ATOM     43  C   UNL     1      11.877   4.497  -2.200  1.00  0.00     0.049 A 
ATOM     44  C   UNL     1      11.917   0.189  -5.757  1.00  0.00     0.074 A 
ATOM     45  C   UNL     1      13.107   4.955  -1.758  1.00  0.00     0.029 A 
ATOM     46  N   UNL     1      12.132   3.458  -3.081  1.00  0.00    -0.354 N 
ATOM     47  N   UNL     1      12.070   1.177  -4.911  1.00  0.00    -0.248 NA
ATOM     48  C   UNL     1      13.177  -0.418  -6.208  1.00  0.00     0.031 C 
ATOM     49  C   UNL     1      14.107   4.199  -2.381  1.00  0.00     0.029 A 
ATOM     50  C   UNL     1      13.498   3.254  -3.189  1.00  0.00     0.049 A 
ATOM     51  H   UNL     1      11.444   2.941  -3.559  1.00  0.00     0.167 HD
ATOM     52  C   UNL     1      13.439   1.322  -4.740  1.00  0.00     0.074 A 
ATOM     53  C   UNL     1      14.073   0.296  -5.542  1.00  0.00     0.031 C 
ATOM     54  C   UNL     1      14.111   2.235  -3.999  1.00  0.00     0.037 A 
BRANCH  41  55
ATOM     55  C   UNL     1      10.459   6.078  -0.848  1.00  0.00     0.064 A 
ATOM     56  C   UNL     1      10.086   5.878   0.488  1.00  0.00     0.173 A 
ATOM     57  C   UNL     1      10.787   7.383  -1.252  1.00  0.00     0.173 A 
ATOM     58  F   UNL     1       9.747   4.653   0.917  1.00  0.00    -0.203 F 
ATOM     59  C   UNL     1      10.031   6.945   1.381  1.00  0.00     0.198 A 
ATOM     60  C   UNL     1      10.752   8.443  -0.351  1.00  0.00     0.198 A 
ATOM     61  F   UNL     1      11.153   7.625  -2.519  1.00  0.00    -0.203 F 
ATOM     62  F   UNL     1       9.639   6.738   2.646  1.00  0.00    -0.200 F 
ATOM     63  C   UNL     1      10.370   8.224   0.964  1.00  0.00     0.200 A 
ATOM     64  F   UNL     1      11.091   9.675  -0.754  1.00  0.00    -0.200 F 
ATOM     65  F   UNL     1      10.325   9.248   1.828  1.00  0.00    -0.200 F 
ENDBRANCH  41  55
BRANCH  42  66
ATOM     66  C   UNL     1      10.688  -1.501  -7.301  1.00  0.00     0.064 A 
ATOM     67  C   UNL     1      10.993  -2.800  -6.876  1.00  0.00     0.173 A 
ATOM     68  C   UNL     1      10.396  -1.306  -8.659  1.00  0.00     0.173 A 
ATOM     69  F   UNL     1      11.307  -3.028  -5.592  1.00  0.00    -0.203 F 
ATOM     70  C   UNL     1      11.002  -3.865  -7.774  1.00  0.00     0.198 A 
ATOM     71  C   UNL     1      10.378  -2.376  -9.550  1.00  0.00     0.198 A 
ATOM     72  F   UNL     1      10.101  -0.079  -9.113  1.00  0.00    -0.203 F 
ATOM     73  F   UNL     1      11.324  -5.094  -7.349  1.00  0.00    -0.200 F 
ATOM     74  C   UNL     1      10.685  -3.653  -9.108  1.00  0.00     0.200 A 
ATOM     75  F   UNL     1      10.058  -2.169 -10.835  1.00  0.00    -0.200 F 
ATOM     76  F   UNL     1      10.678  -4.681  -9.968  1.00  0.00    -0.200 F 
ENDBRANCH  42  66
BRANCH  54  77
ATOM     77  C   UNL     1      15.607   2.165  -4.025  1.00  0.00     0.064 A 
ATOM     78  C   UNL     1      16.336   2.646  -5.121  1.00  0.00     0.173 A 
ATOM     79  C   UNL     1      16.316   1.639  -2.936  1.00  0.00     0.173 A 
ATOM     80  F   UNL     1      15.697   3.143  -6.191  1.00  0.00    -0.203 F 
ATOM     81  C   UNL     1      17.727   2.586  -5.134  1.00  0.00     0.198 A 
ATOM     82  C   UNL     1      17.707   1.597  -2.945  1.00  0.00     0.198 A 
ATOM     83  F   UNL     1      15.660   1.169  -1.865  1.00  0.00    -0.203 F 
ATOM     84  F   UNL     1      18.404   3.018  -6.206  1.00  0.00    -0.200 F 
ATOM     85  C   UNL     1      18.411   2.065  -4.045  1.00  0.00     0.200 A 
ATOM     86  F   UNL     1      18.368   1.098  -1.892  1.00  0.00    -0.200 F 
ATOM     87  F   UNL     1      19.750   2.007  -4.060  1.00  0.00    -0.200 F 
ENDBRANCH  54  77
ENDBRANCH  28  29
ENDBRANCH  21  23
ENDBRANCH  20  21
ENDBRANCH  19  20
ENDBRANCH   1  19
TORSDOF 15
