REMARK SMILES O=C(OCCOC(=O)[C@@H]1[C@@H](C(=O)Nc2cccc([N+](=O)[O-])c2)[C@@H]2C=C[C@H]1O2)c1ccc(-c2c3nc(c(-c4c(F)c(F)c(F)c(F)c4F)c4ccc([nH]4)c(-c4c(F)c(F)c(F)c(F)c4F)c4nc(c(-c5c(F)c(F)c(F)c(F)c5F)c5ccc2[nH]5)C=C4)C=C3)cc1
REMARK SMILES IDX 5 1 4 2 3 3 2 4 1 5 28 6 29 7 90 8 30 9 89 10 31 11 32 12
REMARK SMILES IDX 33 13 83 14 34 15 88 16 82 17 84 18 35 19 87 20 81 21 80 22
REMARK SMILES IDX 36 24 68 25 48 26 67 27 49 28 52 29 66 30 85 31 50 32 51 33
REMARK SMILES IDX 65 35 86 36 53 37 37 38 38 39 46 40 39 41 40 42 44 43 47 44
REMARK SMILES IDX 41 45 42 46 45 47 43 48 69 49 70 50 78 51 71 52 72 53 76 54
REMARK SMILES IDX 79 55 73 56 74 57 77 58 75 59 54 60 55 61 63 62 56 63 57 64
REMARK SMILES IDX 61 65 64 66 58 67 59 68 62 69 60 70 6 71 7 72 8 73 9 74
REMARK SMILES IDX 10 75 26 76 23 77 25 78 27 79 24 80 11 81 12 82 13 83 14 85
REMARK SMILES IDX 15 86 22 87 16 88 18 89 17 90 19 91 20 92 21 93
REMARK H PARENT 84 23 52 34 13 84
REMARK Flexibility Score: inf
ROOT
ATOM      1  C   UNL     1       3.729  -0.546   2.130  1.00  0.00     0.274 C 
ENDROOT
BRANCH   1   2
ATOM      2  C   UNL     1       3.747   0.807   1.393  1.00  0.00     0.275 C 
BRANCH   2   3
ATOM      3  O   UNL     1       3.101   0.782   0.115  1.00  0.00    -0.458 OA
BRANCH   3   4
ATOM      4  C   UNL     1       3.842   0.979  -1.007  1.00  0.00     0.338 C 
ATOM      5  O   UNL     1       3.541   1.799  -1.865  1.00  0.00    -0.246 OA
BRANCH   4   6
ATOM      6  C   UNL     1       4.721  -0.173  -1.323  1.00  0.00     0.060 A 
ATOM      7  C   UNL     1       5.787  -0.591  -0.522  1.00  0.00     0.016 A 
ATOM      8  C   UNL     1       4.385  -0.912  -2.452  1.00  0.00     0.016 A 
ATOM      9  C   UNL     1       6.409  -1.825  -0.753  1.00  0.00     0.010 A 
ATOM     10  C   UNL     1       4.981  -2.153  -2.656  1.00  0.00     0.010 A 
ATOM     11  C   UNL     1       5.971  -2.654  -1.789  1.00  0.00    -0.014 A 
BRANCH  11  12
ATOM     12  C   UNL     1       6.556  -4.005  -2.053  1.00  0.00     0.031 A 
ATOM     13  C   UNL     1       7.094  -4.278  -3.441  1.00  0.00     0.074 A 
ATOM     14  C   UNL     1       6.476  -5.009  -1.147  1.00  0.00     0.049 A 
ATOM     15  N   UNL     1       7.457  -5.408  -3.991  1.00  0.00    -0.248 NA
ATOM     16  C   UNL     1       7.162  -3.124  -4.359  1.00  0.00     0.031 C 
ATOM     17  C   UNL     1       5.904  -4.921   0.201  1.00  0.00     0.029 A 
ATOM     18  N   UNL     1       6.819  -6.342  -1.254  1.00  0.00    -0.354 N 
ATOM     19  C   UNL     1       7.731  -5.102  -5.317  1.00  0.00     0.074 A 
ATOM     20  C   UNL     1       7.386  -3.716  -5.519  1.00  0.00     0.031 C 
ATOM     21  C   UNL     1       5.887  -6.146   0.765  1.00  0.00     0.029 A 
ATOM     22  C   UNL     1       6.434  -7.116  -0.178  1.00  0.00     0.049 A 
ATOM     23  H   UNL     1       7.299  -6.710  -2.032  1.00  0.00     0.167 HD
ATOM     24  C   UNL     1       8.294  -5.878  -6.271  1.00  0.00     0.037 A 
ATOM     25  C   UNL     1       6.478  -8.456  -0.005  1.00  0.00     0.037 A 
ATOM     26  C   UNL     1       8.665  -7.244  -6.060  1.00  0.00     0.049 A 
ATOM     27  C   UNL     1       7.061  -9.317  -1.104  1.00  0.00     0.074 A 
ATOM     28  C   UNL     1       9.396  -8.081  -6.880  1.00  0.00     0.029 A 
ATOM     29  N   UNL     1       8.311  -7.976  -4.938  1.00  0.00    -0.354 N 
ATOM     30  N   UNL     1       7.530  -8.964  -2.275  1.00  0.00    -0.248 NA
ATOM     31  C   UNL     1       7.127 -10.765  -0.851  1.00  0.00     0.031 C 
ATOM     32  C   UNL     1       9.467  -9.333  -6.262  1.00  0.00     0.029 A 
ATOM     33  C   UNL     1       8.810  -9.261  -5.043  1.00  0.00     0.049 A 
ATOM     34  H   UNL     1       7.783  -7.633  -4.180  1.00  0.00     0.167 HD
ATOM     35  C   UNL     1       8.003 -10.130  -2.866  1.00  0.00     0.074 A 
ATOM     36  C   UNL     1       7.746 -11.206  -1.935  1.00  0.00     0.031 C 
ATOM     37  C   UNL     1       8.613 -10.296  -4.064  1.00  0.00     0.037 A 
BRANCH  24  38
ATOM     38  C   UNL     1       8.619  -5.220  -7.580  1.00  0.00     0.064 A 
ATOM     39  C   UNL     1       9.573  -4.190  -7.646  1.00  0.00     0.173 A 
ATOM     40  C   UNL     1       7.975  -5.593  -8.767  1.00  0.00     0.173 A 
ATOM     41  F   UNL     1      10.214  -3.791  -6.537  1.00  0.00    -0.203 F 
ATOM     42  C   UNL     1       9.822  -3.515  -8.835  1.00  0.00     0.198 A 
ATOM     43  C   UNL     1       8.257  -4.940  -9.966  1.00  0.00     0.198 A 
ATOM     44  F   UNL     1       7.064  -6.578  -8.767  1.00  0.00    -0.203 F 
ATOM     45  F   UNL     1      10.673  -2.479  -8.849  1.00  0.00    -0.200 F 
ATOM     46  C   UNL     1       9.167  -3.892  -9.995  1.00  0.00     0.200 A 
ATOM     47  F   UNL     1       7.634  -5.313 -11.093  1.00  0.00    -0.200 F 
ATOM     48  F   UNL     1       9.402  -3.237 -11.140  1.00  0.00    -0.200 F 
ENDBRANCH  24  38
BRANCH  25  49
ATOM     49  C   UNL     1       5.916  -9.136   1.203  1.00  0.00     0.064 A 
ATOM     50  C   UNL     1       6.737  -9.760   2.151  1.00  0.00     0.173 A 
ATOM     51  C   UNL     1       4.538  -9.359   1.315  1.00  0.00     0.173 A 
ATOM     52  F   UNL     1       8.070  -9.641   2.059  1.00  0.00    -0.203 F 
ATOM     53  C   UNL     1       6.203 -10.608   3.127  1.00  0.00     0.198 A 
ATOM     54  C   UNL     1       3.997 -10.178   2.304  1.00  0.00     0.198 A 
ATOM     55  F   UNL     1       3.711  -8.846   0.403  1.00  0.00    -0.203 F 
ATOM     56  F   UNL     1       7.021 -11.275   3.952  1.00  0.00    -0.200 F 
ATOM     57  C   UNL     1       4.833 -10.819   3.200  1.00  0.00     0.200 A 
ATOM     58  F   UNL     1       2.674 -10.392   2.343  1.00  0.00    -0.200 F 
ATOM     59  F   UNL     1       4.326 -11.673   4.099  1.00  0.00    -0.200 F 
ENDBRANCH  25  49
BRANCH  37  60
ATOM     60  C   UNL     1       9.181 -11.646  -4.383  1.00  0.00     0.064 A 
ATOM     61  C   UNL     1       8.375 -12.726  -4.763  1.00  0.00     0.173 A 
ATOM     62  C   UNL     1      10.575 -11.822  -4.399  1.00  0.00     0.173 A 
ATOM     63  F   UNL     1       7.038 -12.614  -4.738  1.00  0.00    -0.203 F 
ATOM     64  C   UNL     1       8.944 -13.936  -5.151  1.00  0.00     0.198 A 
ATOM     65  C   UNL     1      11.140 -13.021  -4.818  1.00  0.00     0.198 A 
ATOM     66  F   UNL     1      11.388 -10.815  -4.045  1.00  0.00    -0.203 F 
ATOM     67  F   UNL     1       8.157 -14.967  -5.487  1.00  0.00    -0.200 F 
ATOM     68  C   UNL     1      10.325 -14.077  -5.193  1.00  0.00     0.200 A 
ATOM     69  F   UNL     1      12.473 -13.148  -4.874  1.00  0.00    -0.200 F 
ATOM     70  F   UNL     1      10.870 -15.233  -5.596  1.00  0.00    -0.200 F 
ENDBRANCH  37  60
ENDBRANCH  11  12
ENDBRANCH   4   6
ENDBRANCH   3   4
ENDBRANCH   2   3
ENDBRANCH   1   2
BRANCH   1  71
ATOM     71  O   UNL     1       3.118  -1.638   1.398  1.00  0.00    -0.462 OA
BRANCH  71  72
ATOM     72  C   UNL     1       1.952  -2.108   1.917  1.00  0.00     0.312 C 
ATOM     73  O   UNL     1       1.428  -1.638   2.924  1.00  0.00    -0.252 OA
BRANCH  72  74
ATOM     74  C   UNL     1       1.251  -3.180   1.110  1.00  0.00     0.147 C 
ATOM     75  C   UNL     1       1.975  -4.424   0.453  1.00  0.00     0.129 C 
ATOM     76  C   UNL     1       0.555  -2.538  -0.093  1.00  0.00     0.157 C 
ATOM     77  C   UNL     1       1.405  -4.324  -0.968  1.00  0.00     0.155 C 
ATOM     78  C   UNL     1       1.522  -2.081  -1.141  1.00  0.00     0.004 C 
ATOM     79  O   UNL     1       0.093  -3.750  -0.738  1.00  0.00    -0.365 OA
ATOM     80  C   UNL     1       2.049  -3.189  -1.669  1.00  0.00     0.004 C 
BRANCH  75  81
ATOM     81  C   UNL     1       1.551  -5.718   1.146  1.00  0.00     0.231 C 
ATOM     82  O   UNL     1       1.423  -5.732   2.377  1.00  0.00    -0.274 OA
ATOM     83  N   UNL     1       1.264  -6.884   0.494  1.00  0.00    -0.325 N 
ATOM     84  H   UNL     1       0.741  -7.508   1.048  1.00  0.00     0.169 HD
BRANCH  83  85
ATOM     85  C   UNL     1       1.541  -7.399  -0.786  1.00  0.00     0.048 A 
ATOM     86  C   UNL     1       0.549  -8.206  -1.366  1.00  0.00     0.026 A 
ATOM     87  C   UNL     1       2.744  -7.204  -1.471  1.00  0.00     0.111 A 
ATOM     88  C   UNL     1       0.724  -8.779  -2.630  1.00  0.00     0.009 A 
ATOM     89  C   UNL     1       2.931  -7.848  -2.707  1.00  0.00     0.271 A 
ATOM     90  C   UNL     1       1.927  -8.617  -3.302  1.00  0.00     0.086 A 
BRANCH  89  91
ATOM     91  N   UNL     1       4.194  -7.715  -3.414  1.00  0.00     0.062 N 
ATOM     92  O   UNL     1       4.644  -8.726  -3.971  1.00  0.00    -0.258 OA
ATOM     93  O   UNL     1       4.696  -6.587  -3.443  1.00  0.00    -0.258 OA
ENDBRANCH  89  91
ENDBRANCH  83  85
ENDBRANCH  75  81
ENDBRANCH  72  74
ENDBRANCH  71  72
ENDBRANCH   1  71
TORSDOF 14
