REMARK SMILES O=C(CCCOc1ccc(Cl)cc1Cl)Nc1cccc(C(=O)OCCOC(=O)c2ccc(-c3c4nc(c(-c5c(F)c(F)c(F)c(F)c5F)c5ccc([nH]5)c(-c5c(F)c(F)c(F)c(F)c5F)c5nc(c(-c6c(F)c(F)c(F)c(F)c6F)c6ccc3[nH]6)C=C5)C=C4)cc2)c1
REMARK SMILES IDX 21 1 22 2 20 3 16 4 17 5 92 6 18 7 19 8 15 9 1 10 2 11 3 13
REMARK SMILES IDX 4 14 5 15 6 16 7 17 8 18 13 19 9 20 12 21 14 22 10 23 11 24
REMARK SMILES IDX 23 25 24 26 25 27 26 28 27 29 28 30 29 31 30 32 91 33 31 34
REMARK SMILES IDX 90 35 32 36 33 37 34 38 84 39 35 40 89 41 83 42 85 43 36 44
REMARK SMILES IDX 88 45 82 46 81 47 37 49 69 50 49 51 68 52 50 53 53 54 67 55
REMARK SMILES IDX 86 56 51 57 52 58 66 60 87 61 54 62 38 63 39 64 47 65 40 66
REMARK SMILES IDX 41 67 45 68 48 69 42 70 43 71 46 72 44 73 70 74 71 75 79 76
REMARK SMILES IDX 72 77 73 78 77 79 80 80 74 81 75 82 78 83 76 84 55 85 56 86
REMARK SMILES IDX 64 87 57 88 58 89 62 90 65 91 59 92 60 93 63 94 61 95
REMARK H PARENT 15 12 85 48 53 59
REMARK Flexibility Score: inf
ROOT
ATOM      1  C   UNL     1      -1.002  -0.460  -3.784  1.00  0.00     0.338 C 
ATOM      2  O   UNL     1      -1.997  -1.094  -4.068  1.00  0.00    -0.246 OA
ENDROOT
BRANCH   1   3
ATOM      3  C   UNL     1       0.270  -1.071  -3.326  1.00  0.00     0.062 A 
ATOM      4  C   UNL     1       2.228  -0.978  -1.950  1.00  0.00     0.042 A 
ATOM      5  C   UNL     1       2.767  -2.095  -2.591  1.00  0.00     0.026 A 
ATOM      6  C   UNL     1       1.027  -0.418  -2.369  1.00  0.00     0.041 A 
ATOM      7  C   UNL     1       1.983  -2.785  -3.506  1.00  0.00     0.003 A 
ATOM      8  C   UNL     1       0.708  -2.308  -3.817  1.00  0.00     0.016 A 
BRANCH   4   9
ATOM      9  N   UNL     1       2.863  -0.503  -0.799  1.00  0.00    -0.326 N 
ATOM     10  O   UNL     1       0.933  -0.320   0.457  1.00  0.00    -0.275 OA
ATOM     11  C   UNL     1       2.158  -0.233   0.355  1.00  0.00     0.224 C 
ATOM     12  H   UNL     1       3.837  -0.358  -0.813  1.00  0.00     0.169 HD
BRANCH  11  13
ATOM     13  C   UNL     1       2.966   0.229   1.547  1.00  0.00     0.104 C 
BRANCH  13  14
ATOM     14  C   UNL     1       4.231  -0.535   1.930  1.00  0.00     0.051 C 
BRANCH  14  15
ATOM     15  C   UNL     1       5.493  -0.445   1.057  1.00  0.00     0.230 C 
BRANCH  15  16
ATOM     16  O   UNL     1       6.025   0.877   0.920  1.00  0.00    -0.492 OA
BRANCH  16  17
ATOM     17  C   UNL     1       5.513   1.619  -0.110  1.00  0.00     0.137 A 
ATOM     18  C   UNL     1       4.746   2.721   0.275  1.00  0.00     0.049 A 
ATOM     19  C   UNL     1       5.774   1.407  -1.469  1.00  0.00     0.084 A 
ATOM     20  C   UNL     1       4.118   3.518  -0.680  1.00  0.00     0.024 A 
ATOM     21  C   UNL     1       5.181   2.234  -2.431  1.00  0.00     0.045 A 
ATOM     22  Cl  UNL     1       6.839   0.165  -2.016  1.00  0.00    -0.080 Cl
ATOM     23  C   UNL     1       4.335   3.267  -2.030  1.00  0.00     0.042 A 
ATOM     24  Cl  UNL     1       3.567   4.258  -3.207  1.00  0.00    -0.084 Cl
ENDBRANCH  16  17
ENDBRANCH  15  16
ENDBRANCH  14  15
ENDBRANCH  13  14
ENDBRANCH  11  13
ENDBRANCH   4   9
ENDBRANCH   1   3
BRANCH   1  25
ATOM     25  O   UNL     1      -0.799   0.874  -3.950  1.00  0.00    -0.458 OA
BRANCH  25  26
ATOM     26  C   UNL     1      -1.874   1.641  -4.524  1.00  0.00     0.275 C 
BRANCH  26  27
ATOM     27  C   UNL     1      -1.549   2.037  -5.966  1.00  0.00     0.275 C 
BRANCH  27  28
ATOM     28  O   UNL     1      -1.537   0.871  -6.812  1.00  0.00    -0.458 OA
BRANCH  28  29
ATOM     29  C   UNL     1      -0.313   0.448  -7.199  1.00  0.00     0.338 C 
ATOM     30  O   UNL     1       0.767   0.972  -6.984  1.00  0.00    -0.246 OA
BRANCH  29  31
ATOM     31  C   UNL     1      -0.429  -0.872  -7.832  1.00  0.00     0.060 A 
ATOM     32  C   UNL     1      -0.511  -1.968  -6.988  1.00  0.00     0.016 A 
ATOM     33  C   UNL     1      -0.288  -1.064  -9.200  1.00  0.00     0.016 A 
ATOM     34  C   UNL     1      -0.327  -3.257  -7.462  1.00  0.00     0.010 A 
ATOM     35  C   UNL     1      -0.242  -2.374  -9.702  1.00  0.00     0.010 A 
ATOM     36  C   UNL     1      -0.227  -3.487  -8.835  1.00  0.00    -0.014 A 
BRANCH  36  37
ATOM     37  C   UNL     1      -0.093  -4.882  -9.342  1.00  0.00     0.031 A 
ATOM     38  C   UNL     1       1.072  -5.260 -10.217  1.00  0.00     0.074 A 
ATOM     39  C   UNL     1      -1.001  -5.822  -9.004  1.00  0.00     0.049 A 
ATOM     40  N   UNL     1       1.266  -6.349 -10.917  1.00  0.00    -0.248 NA
ATOM     41  C   UNL     1       2.160  -4.276 -10.328  1.00  0.00     0.031 C 
ATOM     42  C   UNL     1      -2.142  -5.620  -8.106  1.00  0.00     0.029 A 
ATOM     43  N   UNL     1      -1.111  -7.141  -9.375  1.00  0.00    -0.354 N 
ATOM     44  C   UNL     1       2.462  -6.155 -11.597  1.00  0.00     0.074 A 
ATOM     45  C   UNL     1       2.948  -4.843 -11.230  1.00  0.00     0.031 C 
ATOM     46  C   UNL     1      -2.813  -6.772  -7.973  1.00  0.00     0.029 A 
ATOM     47  C   UNL     1      -2.224  -7.764  -8.862  1.00  0.00     0.049 A 
ATOM     48  H   UNL     1      -0.456  -7.596  -9.953  1.00  0.00     0.167 HD
ATOM     49  C   UNL     1       3.090  -6.999 -12.452  1.00  0.00     0.037 A 
ATOM     50  C   UNL     1      -2.756  -8.973  -9.124  1.00  0.00     0.037 A 
ATOM     51  C   UNL     1       2.618  -8.321 -12.774  1.00  0.00     0.049 A 
ATOM     52  C   UNL     1      -2.080  -9.858 -10.132  1.00  0.00     0.074 A 
ATOM     53  C   UNL     1       3.189  -9.260 -13.616  1.00  0.00     0.029 A 
ATOM     54  N   UNL     1       1.461  -8.895 -12.264  1.00  0.00    -0.354 N 
ATOM     55  N   UNL     1      -0.976  -9.652 -10.807  1.00  0.00    -0.248 NA
ATOM     56  C   UNL     1      -2.735 -11.139 -10.429  1.00  0.00     0.031 C 
ATOM     57  C   UNL     1       2.348 -10.377 -13.662  1.00  0.00     0.029 A 
ATOM     58  C   UNL     1       1.287 -10.163 -12.796  1.00  0.00     0.049 A 
ATOM     59  H   UNL     1       0.854  -8.464 -11.620  1.00  0.00     0.167 HD
ATOM     60  C   UNL     1      -0.790 -10.782 -11.590  1.00  0.00     0.074 A 
ATOM     61  C   UNL     1      -1.886 -11.681 -11.289  1.00  0.00     0.031 C 
ATOM     62  C   UNL     1       0.195 -11.050 -12.481  1.00  0.00     0.037 A 
BRANCH  49  63
ATOM     63  C   UNL     1       4.332  -6.504 -13.139  1.00  0.00     0.064 A 
ATOM     64  C   UNL     1       5.538  -6.301 -12.453  1.00  0.00     0.173 A 
ATOM     65  C   UNL     1       4.320  -6.265 -14.523  1.00  0.00     0.173 A 
ATOM     66  F   UNL     1       5.604  -6.502 -11.128  1.00  0.00    -0.203 F 
ATOM     67  C   UNL     1       6.676  -5.852 -13.120  1.00  0.00     0.198 A 
ATOM     68  C   UNL     1       5.468  -5.850 -15.193  1.00  0.00     0.198 A 
ATOM     69  F   UNL     1       3.195  -6.448 -15.231  1.00  0.00    -0.203 F 
ATOM     70  F   UNL     1       7.804  -5.617 -12.435  1.00  0.00    -0.200 F 
ATOM     71  C   UNL     1       6.643  -5.635 -14.490  1.00  0.00     0.200 A 
ATOM     72  F   UNL     1       5.436  -5.657 -16.519  1.00  0.00    -0.200 F 
ATOM     73  F   UNL     1       7.741  -5.214 -15.132  1.00  0.00    -0.200 F 
ENDBRANCH  49  63
BRANCH  50  74
ATOM     74  C   UNL     1      -4.028  -9.386  -8.471  1.00  0.00     0.064 A 
ATOM     75  C   UNL     1      -4.068 -10.469  -7.582  1.00  0.00     0.173 A 
ATOM     76  C   UNL     1      -5.234  -8.716  -8.732  1.00  0.00     0.173 A 
ATOM     77  F   UNL     1      -2.949 -11.160  -7.319  1.00  0.00    -0.203 F 
ATOM     78  C   UNL     1      -5.265 -10.876  -6.996  1.00  0.00     0.198 A 
ATOM     79  C   UNL     1      -6.423  -9.099  -8.115  1.00  0.00     0.198 A 
ATOM     80  F   UNL     1      -5.256  -7.674  -9.576  1.00  0.00    -0.203 F 
ATOM     81  F   UNL     1      -5.283 -11.950  -6.194  1.00  0.00    -0.200 F 
ATOM     82  C   UNL     1      -6.439 -10.186  -7.256  1.00  0.00     0.200 A 
ATOM     83  F   UNL     1      -7.551  -8.417  -8.356  1.00  0.00    -0.200 F 
ATOM     84  F   UNL     1      -7.588 -10.576  -6.687  1.00  0.00    -0.200 F 
ENDBRANCH  50  74
BRANCH  62  85
ATOM     85  C   UNL     1       0.159 -12.389 -13.160  1.00  0.00     0.064 A 
ATOM     86  C   UNL     1      -0.815 -12.707 -14.118  1.00  0.00     0.173 A 
ATOM     87  C   UNL     1       1.131 -13.357 -12.865  1.00  0.00     0.173 A 
ATOM     88  F   UNL     1      -1.777 -11.822 -14.422  1.00  0.00    -0.203 F 
ATOM     89  C   UNL     1      -0.833 -13.956 -14.732  1.00  0.00     0.198 A 
ATOM     90  C   UNL     1       1.131 -14.592 -13.507  1.00  0.00     0.198 A 
ATOM     91  F   UNL     1       2.088 -13.102 -11.960  1.00  0.00    -0.203 F 
ATOM     92  F   UNL     1      -1.808 -14.259 -15.600  1.00  0.00    -0.200 F 
ATOM     93  C   UNL     1       0.144 -14.894 -14.433  1.00  0.00     0.200 A 
ATOM     94  F   UNL     1       2.086 -15.490 -13.229  1.00  0.00    -0.200 F 
ATOM     95  F   UNL     1       0.129 -16.093 -15.030  1.00  0.00    -0.200 F 
ENDBRANCH  62  85
ENDBRANCH  36  37
ENDBRANCH  29  31
ENDBRANCH  28  29
ENDBRANCH  27  28
ENDBRANCH  26  27
ENDBRANCH  25  26
ENDBRANCH   1  25
TORSDOF 17
