REMARK SMILES O=C(OCCOC(=O)[C@@H]1C[C@@H](O)CN1C(=O)C1(c2ccccc2)CC1)c1ccc(-c2c3nc(c(-c4c(F)c(F)c(F)c(F)c4F)c4ccc([nH]4)c(-c4c(F)c(F)c(F)c(F)c4F)c4nc(c(-c5c(F)c(F)c(F)c(F)c5F)c5ccc2[nH]5)C=C4)C=C3)cc1
REMARK SMILES IDX 5 1 4 2 3 3 2 4 1 5 26 6 27 7 88 8 28 9 87 10 29 11 30 12
REMARK SMILES IDX 31 13 81 14 32 15 86 16 80 17 82 18 33 19 85 20 79 21 78 22
REMARK SMILES IDX 34 24 66 25 46 26 65 27 47 28 50 29 64 30 83 31 48 32 49 33
REMARK SMILES IDX 63 35 84 36 51 37 35 38 36 39 44 40 37 41 38 42 42 43 45 44
REMARK SMILES IDX 39 45 40 46 43 47 41 48 67 49 68 50 76 51 69 52 70 53 74 54
REMARK SMILES IDX 77 55 71 56 72 57 75 58 73 59 52 60 53 61 61 62 54 63 55 64
REMARK SMILES IDX 59 65 62 66 56 67 57 68 60 69 58 70 6 71 7 72 8 73 9 74
REMARK SMILES IDX 10 75 14 76 11 77 13 78 15 79 16 80 17 81 24 82 25 83 18 84
REMARK SMILES IDX 19 85 23 86 20 87 22 88 21 89 12 90
REMARK H PARENT 82 23 50 34 12 91
REMARK Flexibility Score: inf
ROOT
ATOM      1  C   UNL     1       0.991  -3.088   3.169  1.00  0.00     0.274 C 
ENDROOT
BRANCH   1   2
ATOM      2  C   UNL     1      -0.131  -4.130   2.994  1.00  0.00     0.275 C 
BRANCH   2   3
ATOM      3  O   UNL     1       0.003  -5.033   1.883  1.00  0.00    -0.458 OA
BRANCH   3   4
ATOM      4  C   UNL     1      -0.472  -4.894   0.623  1.00  0.00     0.338 C 
ATOM      5  O   UNL     1      -0.608  -5.884  -0.092  1.00  0.00    -0.246 OA
BRANCH   4   6
ATOM      6  C   UNL     1      -0.601  -3.549  -0.012  1.00  0.00     0.060 A 
ATOM      7  C   UNL     1      -0.966  -2.370   0.645  1.00  0.00     0.016 A 
ATOM      8  C   UNL     1      -0.247  -3.470  -1.370  1.00  0.00     0.016 A 
ATOM      9  C   UNL     1      -0.793  -1.125   0.039  1.00  0.00     0.010 A 
ATOM     10  C   UNL     1      -0.089  -2.227  -1.988  1.00  0.00     0.010 A 
ATOM     11  C   UNL     1      -0.307  -1.041  -1.264  1.00  0.00    -0.014 A 
BRANCH  11  12
ATOM     12  C   UNL     1      -0.151   0.276  -1.919  1.00  0.00     0.031 A 
ATOM     13  C   UNL     1      -1.134   0.622  -2.990  1.00  0.00     0.074 A 
ATOM     14  C   UNL     1       0.836   1.131  -1.581  1.00  0.00     0.049 A 
ATOM     15  N   UNL     1      -1.194   1.680  -3.750  1.00  0.00    -0.248 NA
ATOM     16  C   UNL     1      -2.210  -0.358  -3.227  1.00  0.00     0.031 C 
ATOM     17  C   UNL     1       1.799   0.942  -0.497  1.00  0.00     0.029 A 
ATOM     18  N   UNL     1       1.217   2.327  -2.139  1.00  0.00    -0.354 N 
ATOM     19  C   UNL     1      -2.325   1.504  -4.529  1.00  0.00     0.074 A 
ATOM     20  C   UNL     1      -2.865   0.199  -4.230  1.00  0.00     0.031 C 
ATOM     21  C   UNL     1       2.724   1.918  -0.539  1.00  0.00     0.029 A 
ATOM     22  C   UNL     1       2.386   2.838  -1.617  1.00  0.00     0.049 A 
ATOM     23  H   UNL     1       0.703   2.777  -2.847  1.00  0.00     0.167 HD
ATOM     24  C   UNL     1      -2.901   2.386  -5.374  1.00  0.00     0.037 A 
ATOM     25  C   UNL     1       3.088   3.932  -1.972  1.00  0.00     0.037 A 
ATOM     26  C   UNL     1      -2.363   3.685  -5.648  1.00  0.00     0.049 A 
ATOM     27  C   UNL     1       2.492   4.843  -3.015  1.00  0.00     0.074 A 
ATOM     28  C   UNL     1      -2.873   4.676  -6.463  1.00  0.00     0.029 A 
ATOM     29  N   UNL     1      -1.177   4.168  -5.111  1.00  0.00    -0.354 N 
ATOM     30  N   UNL     1       1.366   4.715  -3.677  1.00  0.00    -0.248 NA
ATOM     31  C   UNL     1       3.229   6.077  -3.322  1.00  0.00     0.031 C 
ATOM     32  C   UNL     1      -1.971   5.745  -6.453  1.00  0.00     0.029 A 
ATOM     33  C   UNL     1      -0.923   5.436  -5.599  1.00  0.00     0.049 A 
ATOM     34  H   UNL     1      -0.603   3.679  -4.477  1.00  0.00     0.167 HD
ATOM     35  C   UNL     1       1.229   5.873  -4.426  1.00  0.00     0.074 A 
ATOM     36  C   UNL     1       2.388   6.693  -4.141  1.00  0.00     0.031 C 
ATOM     37  C   UNL     1       0.229   6.235  -5.266  1.00  0.00     0.037 A 
BRANCH  24  38
ATOM     38  C   UNL     1      -4.174   1.952  -6.027  1.00  0.00     0.064 A 
ATOM     39  C   UNL     1      -5.362   1.817  -5.290  1.00  0.00     0.173 A 
ATOM     40  C   UNL     1      -4.198   1.616  -7.386  1.00  0.00     0.173 A 
ATOM     41  F   UNL     1      -5.377   2.094  -3.977  1.00  0.00    -0.203 F 
ATOM     42  C   UNL     1      -6.519   1.323  -5.884  1.00  0.00     0.198 A 
ATOM     43  C   UNL     1      -5.365   1.149  -7.984  1.00  0.00     0.198 A 
ATOM     44  F   UNL     1      -3.085   1.716  -8.128  1.00  0.00    -0.203 F 
ATOM     45  F   UNL     1      -7.620   1.133  -5.145  1.00  0.00    -0.200 F 
ATOM     46  C   UNL     1      -6.520   0.993  -7.231  1.00  0.00     0.200 A 
ATOM     47  F   UNL     1      -5.367   0.828  -9.285  1.00  0.00    -0.200 F 
ATOM     48  F   UNL     1      -7.631   0.506  -7.799  1.00  0.00    -0.200 F 
ENDBRANCH  24  38
BRANCH  25  49
ATOM     49  C   UNL     1       4.389   4.269  -1.328  1.00  0.00     0.064 A 
ATOM     50  C   UNL     1       4.518   5.389  -0.492  1.00  0.00     0.173 A 
ATOM     51  C   UNL     1       5.551   3.534  -1.607  1.00  0.00     0.173 A 
ATOM     52  F   UNL     1       3.443   6.138  -0.209  1.00  0.00    -0.203 F 
ATOM     53  C   UNL     1       5.762   5.787  -0.002  1.00  0.00     0.198 A 
ATOM     54  C   UNL     1       6.792   3.920  -1.096  1.00  0.00     0.198 A 
ATOM     55  F   UNL     1       5.489   2.456  -2.400  1.00  0.00    -0.203 F 
ATOM     56  F   UNL     1       5.863   6.903   0.734  1.00  0.00    -0.200 F 
ATOM     57  C   UNL     1       6.899   5.055  -0.307  1.00  0.00     0.200 A 
ATOM     58  F   UNL     1       7.889   3.209  -1.391  1.00  0.00    -0.200 F 
ATOM     59  F   UNL     1       8.097   5.453   0.144  1.00  0.00    -0.200 F 
ENDBRANCH  25  49
BRANCH  37  60
ATOM     60  C   UNL     1       0.317   7.593  -5.894  1.00  0.00     0.064 A 
ATOM     61  C   UNL     1       1.239   7.872  -6.911  1.00  0.00     0.173 A 
ATOM     62  C   UNL     1      -0.587   8.600  -5.522  1.00  0.00     0.173 A 
ATOM     63  F   UNL     1       2.132   6.944  -7.286  1.00  0.00    -0.203 F 
ATOM     64  C   UNL     1       1.262   9.119  -7.527  1.00  0.00     0.198 A 
ATOM     65  C   UNL     1      -0.582   9.833  -6.164  1.00  0.00     0.198 A 
ATOM     66  F   UNL     1      -1.491   8.376  -4.557  1.00  0.00    -0.203 F 
ATOM     67  F   UNL     1       2.176   9.379  -8.472  1.00  0.00    -0.200 F 
ATOM     68  C   UNL     1       0.344  10.093  -7.162  1.00  0.00     0.200 A 
ATOM     69  F   UNL     1      -1.482  10.767  -5.823  1.00  0.00    -0.200 F 
ATOM     70  F   UNL     1       0.354  11.286  -7.773  1.00  0.00    -0.200 F 
ENDBRANCH  37  60
ENDBRANCH  11  12
ENDBRANCH   4   6
ENDBRANCH   3   4
ENDBRANCH   2   3
ENDBRANCH   1   2
BRANCH   1  71
ATOM     71  O   UNL     1       1.701  -2.703   1.972  1.00  0.00    -0.461 OA
BRANCH  71  72
ATOM     72  C   UNL     1       2.722  -3.555   1.673  1.00  0.00     0.329 C 
ATOM     73  O   UNL     1       2.925  -4.562   2.337  1.00  0.00    -0.250 OA
BRANCH  72  74
ATOM     74  C   UNL     1       3.644  -3.099   0.529  1.00  0.00     0.197 C 
ATOM     75  C   UNL     1       2.992  -2.305  -0.584  1.00  0.00     0.070 C 
ATOM     76  N   UNL     1       4.166  -4.293  -0.141  1.00  0.00    -0.325 N 
ATOM     77  C   UNL     1       3.552  -2.870  -1.881  1.00  0.00     0.136 C 
ATOM     78  C   UNL     1       3.808  -4.331  -1.546  1.00  0.00     0.152 C 
BRANCH  76  79
ATOM     79  C   UNL     1       5.366  -4.809   0.288  1.00  0.00     0.234 C 
ATOM     80  O   UNL     1       6.338  -4.100   0.532  1.00  0.00    -0.274 OA
BRANCH  79  81
ATOM     81  C   UNL     1       5.365  -6.285   0.601  1.00  0.00     0.074 C 
ATOM     82  C   UNL     1       4.964  -7.300  -0.467  1.00  0.00     0.023 C 
ATOM     83  C   UNL     1       6.408  -7.121  -0.125  1.00  0.00     0.023 C 
BRANCH  81  84
ATOM     84  C   UNL     1       5.044  -6.596   2.072  1.00  0.00    -0.032 A 
ATOM     85  C   UNL     1       3.868  -7.269   2.460  1.00  0.00     0.005 A 
ATOM     86  C   UNL     1       5.822  -6.031   3.102  1.00  0.00     0.005 A 
ATOM     87  C   UNL     1       3.453  -7.308   3.796  1.00  0.00     0.000 A 
ATOM     88  C   UNL     1       5.406  -6.057   4.436  1.00  0.00     0.000 A 
ATOM     89  C   UNL     1       4.212  -6.683   4.780  1.00  0.00     0.000 A 
ENDBRANCH  81  84
ENDBRANCH  79  81
ENDBRANCH  76  79
BRANCH  77  90
ATOM     90  O   UNL     1       4.768  -2.197  -2.202  1.00  0.00    -0.391 OA
ATOM     91  H   UNL     1       5.388  -2.279  -1.460  1.00  0.00     0.211 HD
ENDBRANCH  77  90
ENDBRANCH  72  74
ENDBRANCH  71  72
ENDBRANCH   1  71
TORSDOF 15
