REMARK SMILES Cc1ccc(Oc2cc(C(=O)OCCOC(=O)c3ccc(-c4c5nc(c(-c6c(F)c(F)c(F)c(F)c6F)c6ccc([nH]6)c(-c6c(F)c(F)c(F)c(F)c6F)c6nc(c(-c7c(F)c(F)c(F)c(F)c7F)c7ccc4[nH]7)C=C6)C=C5)cc3)nc3ccccc23)cc1
REMARK SMILES IDX 13 1 12 2 10 3 11 4 9 5 7 6 8 7 87 8 82 9 86 10 81 11 83 12
REMARK SMILES IDX 85 13 84 14 6 15 5 16 1 17 2 18 3 19 89 20 4 21 88 22 14 23
REMARK SMILES IDX 15 24 16 25 17 26 18 27 19 28 80 29 20 30 79 31 21 32 22 33
REMARK SMILES IDX 23 34 73 35 24 36 78 37 72 38 74 39 25 40 77 41 71 42 70 43
REMARK SMILES IDX 26 45 58 46 38 47 57 48 39 49 42 50 56 51 75 52 40 53 41 54
REMARK SMILES IDX 55 56 76 57 43 58 27 59 28 60 36 61 29 62 30 63 34 64 37 65
REMARK SMILES IDX 31 66 32 67 35 68 33 69 59 70 60 71 68 72 61 73 62 74 66 75
REMARK SMILES IDX 69 76 63 77 64 78 67 79 65 80 44 81 45 82 53 83 46 84 47 85
REMARK SMILES IDX 51 86 54 87 48 88 49 89 52 90 50 91
REMARK H PARENT 74 44 42 55
REMARK Flexibility Score: inf
ROOT
ATOM      1  C   UNL     1      -9.147   3.924   0.821  1.00  0.00     0.275 C 
ENDROOT
BRANCH   1   2
ATOM      2  O   UNL     1      -8.138   3.102   0.199  1.00  0.00    -0.457 OA
BRANCH   2   3
ATOM      3  C   UNL     1      -6.965   3.778   0.043  1.00  0.00     0.357 C 
ATOM      4  O   UNL     1      -6.771   4.923   0.438  1.00  0.00    -0.244 OA
BRANCH   3   5
ATOM      5  C   UNL     1      -5.911   3.083  -0.749  1.00  0.00     0.152 A 
ATOM      6  C   UNL     1      -4.100   1.543  -1.021  1.00  0.00     0.139 A 
ATOM      7  C   UNL     1      -5.312   1.884  -0.396  1.00  0.00     0.084 A 
ATOM      8  C   UNL     1      -3.616   2.325  -2.101  1.00  0.00     0.043 A 
ATOM      9  C   UNL     1      -4.320   3.517  -2.366  1.00  0.00     0.075 A 
ATOM     10  C   UNL     1      -2.502   2.028  -2.925  1.00  0.00     0.014 A 
ATOM     11  N   UNL     1      -5.413   3.890  -1.711  1.00  0.00    -0.240 NA
ATOM     12  C   UNL     1      -3.872   4.392  -3.335  1.00  0.00     0.029 A 
ATOM     13  C   UNL     1      -2.062   2.924  -3.901  1.00  0.00     0.001 A 
ATOM     14  C   UNL     1      -2.741   4.118  -4.095  1.00  0.00     0.002 A 
BRANCH   6  15
ATOM     15  O   UNL     1      -3.479   0.403  -0.529  1.00  0.00    -0.457 OA
BRANCH  15  16
ATOM     16  C   UNL     1      -2.117   0.385  -0.273  1.00  0.00     0.127 A 
ATOM     17  C   UNL     1       2.182  -0.022   0.080  1.00  0.00     0.044 C 
ATOM     18  C   UNL     1       0.687   0.121   0.009  1.00  0.00    -0.051 A 
ATOM     19  C   UNL     1      -0.120  -1.009  -0.160  1.00  0.00     0.007 A 
ATOM     20  C   UNL     1       0.071   1.373   0.111  1.00  0.00     0.007 A 
ATOM     21  C   UNL     1      -1.510  -0.876  -0.300  1.00  0.00     0.047 A 
ATOM     22  C   UNL     1      -1.323   1.503  -0.004  1.00  0.00     0.047 A 
ENDBRANCH  15  16
ENDBRANCH   6  15
ENDBRANCH   3   5
ENDBRANCH   2   3
ENDBRANCH   1   2
BRANCH   1  23
ATOM     23  C   UNL     1     -10.217   3.153   1.610  1.00  0.00     0.275 C 
BRANCH  23  24
ATOM     24  O   UNL     1      -9.904   1.827   2.120  1.00  0.00    -0.458 OA
BRANCH  24  25
ATOM     25  C   UNL     1      -8.689   1.358   2.485  1.00  0.00     0.338 C 
ATOM     26  O   UNL     1      -8.356   0.189   2.316  1.00  0.00    -0.246 OA
BRANCH  25  27
ATOM     27  C   UNL     1      -7.748   2.320   3.073  1.00  0.00     0.060 A 
ATOM     28  C   UNL     1      -6.370   2.158   2.845  1.00  0.00     0.016 A 
ATOM     29  C   UNL     1      -8.244   3.438   3.729  1.00  0.00     0.016 A 
ATOM     30  C   UNL     1      -5.487   3.171   3.177  1.00  0.00     0.010 A 
ATOM     31  C   UNL     1      -7.415   4.510   3.894  1.00  0.00     0.010 A 
ATOM     32  C   UNL     1      -6.036   4.337   3.697  1.00  0.00    -0.014 A 
BRANCH  32  33
ATOM     33  C   UNL     1      -5.260   5.294   4.456  1.00  0.00     0.031 A 
ATOM     34  C   UNL     1      -4.543   6.372   3.773  1.00  0.00     0.074 A 
ATOM     35  C   UNL     1      -5.489   5.118   5.778  1.00  0.00     0.049 A 
ATOM     36  N   UNL     1      -3.539   6.999   4.267  1.00  0.00    -0.248 NA
ATOM     37  C   UNL     1      -4.854   6.809   2.414  1.00  0.00     0.031 C 
ATOM     38  C   UNL     1      -5.272   5.948   6.943  1.00  0.00     0.029 A 
ATOM     39  N   UNL     1      -5.957   3.903   6.332  1.00  0.00    -0.354 N 
ATOM     40  C   UNL     1      -3.381   8.149   3.515  1.00  0.00     0.074 A 
ATOM     41  C   UNL     1      -4.056   7.874   2.276  1.00  0.00     0.031 C 
ATOM     42  C   UNL     1      -5.241   5.145   8.030  1.00  0.00     0.029 A 
ATOM     43  C   UNL     1      -5.312   3.763   7.558  1.00  0.00     0.049 A 
ATOM     44  H   UNL     1      -6.606   3.281   5.931  1.00  0.00     0.167 HD
ATOM     45  C   UNL     1      -2.919   9.266   4.151  1.00  0.00     0.037 A 
ATOM     46  C   UNL     1      -4.318   2.828   7.622  1.00  0.00     0.037 A 
ATOM     47  C   UNL     1      -2.635   8.919   5.547  1.00  0.00     0.049 A 
ATOM     48  C   UNL     1      -2.989   3.523   7.789  1.00  0.00     0.074 A 
ATOM     49  C   UNL     1      -3.400   9.048   6.695  1.00  0.00     0.029 A 
ATOM     50  N   UNL     1      -1.659   7.970   5.825  1.00  0.00    -0.354 N 
ATOM     51  N   UNL     1      -2.689   4.679   7.257  1.00  0.00    -0.248 NA
ATOM     52  C   UNL     1      -1.953   3.011   8.673  1.00  0.00     0.031 C 
ATOM     53  C   UNL     1      -2.925   8.097   7.639  1.00  0.00     0.029 A 
ATOM     54  C   UNL     1      -1.885   7.388   7.059  1.00  0.00     0.049 A 
ATOM     55  H   UNL     1      -0.910   7.743   5.226  1.00  0.00     0.167 HD
ATOM     56  C   UNL     1      -1.512   5.123   7.798  1.00  0.00     0.074 A 
ATOM     57  C   UNL     1      -1.079   4.031   8.656  1.00  0.00     0.031 C 
ATOM     58  C   UNL     1      -0.985   6.361   7.556  1.00  0.00     0.037 A 
BRANCH  45  59
ATOM     59  C   UNL     1      -3.038  10.704   3.676  1.00  0.00     0.064 A 
ATOM     60  C   UNL     1      -2.936  11.766   4.609  1.00  0.00     0.173 A 
ATOM     61  C   UNL     1      -3.279  11.122   2.353  1.00  0.00     0.173 A 
ATOM     62  F   UNL     1      -2.630  11.542   5.894  1.00  0.00    -0.203 F 
ATOM     63  C   UNL     1      -3.135  13.106   4.263  1.00  0.00     0.198 A 
ATOM     64  C   UNL     1      -3.498  12.464   2.009  1.00  0.00     0.198 A 
ATOM     65  F   UNL     1      -3.265  10.265   1.329  1.00  0.00    -0.203 F 
ATOM     66  F   UNL     1      -3.038  14.056   5.204  1.00  0.00    -0.200 F 
ATOM     67  C   UNL     1      -3.434  13.455   2.965  1.00  0.00     0.200 A 
ATOM     68  F   UNL     1      -3.764  12.789   0.735  1.00  0.00    -0.200 F 
ATOM     69  F   UNL     1      -3.632  14.738   2.634  1.00  0.00    -0.200 F 
ENDBRANCH  45  59
BRANCH  46  70
ATOM     70  C   UNL     1      -4.578   1.591   6.800  1.00  0.00     0.064 A 
ATOM     71  C   UNL     1      -5.828   0.935   6.935  1.00  0.00     0.173 A 
ATOM     72  C   UNL     1      -3.782   1.190   5.720  1.00  0.00     0.173 A 
ATOM     73  F   UNL     1      -6.647   1.256   7.951  1.00  0.00    -0.203 F 
ATOM     74  C   UNL     1      -6.299   0.024   5.989  1.00  0.00     0.198 A 
ATOM     75  C   UNL     1      -4.244   0.248   4.788  1.00  0.00     0.198 A 
ATOM     76  F   UNL     1      -2.586   1.756   5.508  1.00  0.00    -0.203 F 
ATOM     77  F   UNL     1      -7.544  -0.464   6.091  1.00  0.00    -0.200 F 
ATOM     78  C   UNL     1      -5.508  -0.315   4.909  1.00  0.00     0.200 A 
ATOM     79  F   UNL     1      -3.502  -0.047   3.710  1.00  0.00    -0.200 F 
ATOM     80  F   UNL     1      -5.979  -1.130   3.955  1.00  0.00    -0.200 F 
ENDBRANCH  46  70
BRANCH  58  81
ATOM     81  C   UNL     1       0.438   6.768   7.843  1.00  0.00     0.064 A 
ATOM     82  C   UNL     1       1.504   5.858   7.902  1.00  0.00     0.173 A 
ATOM     83  C   UNL     1       0.802   8.139   7.877  1.00  0.00     0.173 A 
ATOM     84  F   UNL     1       1.314   4.543   7.733  1.00  0.00    -0.203 F 
ATOM     85  C   UNL     1       2.821   6.280   8.068  1.00  0.00     0.198 A 
ATOM     86  C   UNL     1       2.127   8.555   7.948  1.00  0.00     0.198 A 
ATOM     87  F   UNL     1      -0.110   9.119   7.803  1.00  0.00    -0.203 F 
ATOM     88  F   UNL     1       3.794   5.367   8.189  1.00  0.00    -0.200 F 
ATOM     89  C   UNL     1       3.135   7.625   8.071  1.00  0.00     0.200 A 
ATOM     90  F   UNL     1       2.417   9.861   7.870  1.00  0.00    -0.200 F 
ATOM     91  F   UNL     1       4.409   8.023   8.167  1.00  0.00    -0.200 F 
ENDBRANCH  58  81
ENDBRANCH  32  33
ENDBRANCH  25  27
ENDBRANCH  24  25
ENDBRANCH  23  24
ENDBRANCH   1  23
TORSDOF 13
