REMARK SMILES CC(C)(C(=O)N1C[C@@H]2c3ccccc3OC[C@]2(C(=O)OCCOC(=O)c2ccc(-c3c4nc(c(-c5c(F)c(F)c(F)c(F)c5F)c5ccc([nH]5)c(-c5c(F)c(F)c(F)c(F)c5F)c5nc(c(-c6c(F)c(F)c(F)c(F)c6F)c6ccc3[nH]6)C=C5)C=C4)cc2)C1)[NH+]1CCOCC1
REMARK SMILES IDX 21 1 20 2 18 3 19 4 17 5 6 6 7 7 89 8 8 9 9 10 16 11 10 12
REMARK SMILES IDX 14 13 15 14 11 15 13 16 12 17 4 18 5 19 2 20 1 21 3 22 90 23
REMARK SMILES IDX 91 24 95 25 92 27 94 28 93 29 22 30 23 31 24 32 25 33 26 34
REMARK SMILES IDX 27 35 88 36 28 37 87 38 29 39 30 40 31 41 81 42 32 43 86 44
REMARK SMILES IDX 80 45 82 46 33 47 85 48 79 49 78 50 34 52 66 53 46 54 65 55
REMARK SMILES IDX 47 56 50 57 64 58 83 59 48 60 49 61 63 63 84 64 51 65 35 66
REMARK SMILES IDX 36 67 44 68 37 69 38 70 42 71 45 72 39 73 40 74 43 75 41 76
REMARK SMILES IDX 67 77 68 78 76 79 69 80 70 81 74 82 77 83 71 84 72 85 75 86
REMARK SMILES IDX 73 87 52 88 53 89 61 90 54 91 55 92 59 93 62 94 56 95 57 96
REMARK SMILES IDX 60 97 58 98
REMARK H PARENT 90 26 82 51 50 62
REMARK Flexibility Score: inf
ROOT
ATOM      1  C   UNL     1      -1.302  -4.442  -1.913  1.00  0.00     0.274 C 
ENDROOT
BRANCH   1   2
ATOM      2  O   UNL     1      -1.560  -3.062  -1.597  1.00  0.00    -0.461 OA
BRANCH   2   3
ATOM      3  C   UNL     1      -2.040  -2.213  -2.560  1.00  0.00     0.318 C 
ATOM      4  O   UNL     1      -1.979  -2.399  -3.763  1.00  0.00    -0.251 OA
BRANCH   3   5
ATOM      5  C   UNL     1      -2.575  -0.975  -1.860  1.00  0.00     0.128 C 
ATOM      6  N   UNL     1      -1.446   0.936  -1.005  1.00  0.00    -0.335 N 
ATOM      7  C   UNL     1      -2.626   1.405  -1.695  1.00  0.00     0.129 C 
ATOM      8  C   UNL     1      -1.316  -0.483  -1.144  1.00  0.00     0.142 C 
ATOM      9  C   UNL     1      -2.951   0.264  -2.683  1.00  0.00     0.065 C 
ATOM     10  C   UNL     1      -4.395   0.350  -3.062  1.00  0.00     0.000 A 
ATOM     11  C   UNL     1      -3.716  -1.343  -0.904  1.00  0.00     0.251 C 
ATOM     12  C   UNL     1      -4.820   1.275  -4.032  1.00  0.00     0.008 A 
ATOM     13  C   UNL     1      -5.342  -0.430  -2.405  1.00  0.00     0.122 A 
ATOM     14  O   UNL     1      -5.020  -1.397  -1.498  1.00  0.00    -0.492 OA
ATOM     15  C   UNL     1      -6.175   1.414  -4.335  1.00  0.00     0.001 A 
ATOM     16  C   UNL     1      -6.698  -0.292  -2.713  1.00  0.00     0.047 A 
ATOM     17  C   UNL     1      -7.116   0.632  -3.672  1.00  0.00     0.004 A 
BRANCH   6  18
ATOM     18  C   UNL     1      -0.789   1.668  -0.037  1.00  0.00     0.283 C 
ATOM     19  O   UNL     1      -1.443   2.426   0.681  1.00  0.00    -0.268 OA
BRANCH  18  20
ATOM     20  C   UNL     1       0.814   1.610  -0.072  1.00  0.00     0.171 C 
ATOM     21  C   UNL     1       1.335   0.184   0.226  1.00  0.00     0.090 C 
ATOM     22  C   UNL     1       1.199   1.978  -1.523  1.00  0.00     0.090 C 
BRANCH  20  23
ATOM     23  N   UNL     1       1.343   2.552   0.963  1.00  0.00    -0.319 N 
ATOM     24  C   UNL     1       1.031   3.986   0.776  1.00  0.00     0.291 C 
ATOM     25  C   UNL     1       2.748   2.442   1.395  1.00  0.00     0.291 C 
ATOM     26  H   UNL     1       0.780   2.170   1.723  1.00  0.00     0.349 HD
ATOM     27  C   UNL     1       2.070   4.778  -0.037  1.00  0.00     0.221 C 
ATOM     28  C   UNL     1       3.743   3.207   0.514  1.00  0.00     0.221 C 
ATOM     29  O   UNL     1       3.404   4.595   0.448  1.00  0.00    -0.370 OA
ENDBRANCH  20  23
ENDBRANCH  18  20
ENDBRANCH   6  18
ENDBRANCH   3   5
ENDBRANCH   2   3
ENDBRANCH   1   2
BRANCH   1  30
ATOM     30  C   UNL     1      -2.554  -5.220  -1.521  1.00  0.00     0.275 C 
BRANCH  30  31
ATOM     31  O   UNL     1      -3.535  -4.913  -2.520  1.00  0.00    -0.458 OA
BRANCH  31  32
ATOM     32  C   UNL     1      -4.827  -4.878  -2.140  1.00  0.00     0.338 C 
ATOM     33  O   UNL     1      -5.295  -5.215  -1.064  1.00  0.00    -0.246 OA
BRANCH  32  34
ATOM     34  C   UNL     1      -5.594  -4.397  -3.304  1.00  0.00     0.060 A 
ATOM     35  C   UNL     1      -6.765  -5.040  -3.684  1.00  0.00     0.016 A 
ATOM     36  C   UNL     1      -5.130  -3.305  -4.041  1.00  0.00     0.016 A 
ATOM     37  C   UNL     1      -7.409  -4.630  -4.853  1.00  0.00     0.010 A 
ATOM     38  C   UNL     1      -5.816  -2.836  -5.150  1.00  0.00     0.010 A 
ATOM     39  C   UNL     1      -6.933  -3.531  -5.600  1.00  0.00    -0.014 A 
BRANCH  39  40
ATOM     40  C   UNL     1      -7.606  -3.122  -6.852  1.00  0.00     0.031 A 
ATOM     41  C   UNL     1      -6.904  -3.232  -8.177  1.00  0.00     0.074 A 
ATOM     42  C   UNL     1      -8.870  -2.671  -6.782  1.00  0.00     0.049 A 
ATOM     43  N   UNL     1      -7.403  -3.116  -9.382  1.00  0.00    -0.248 NA
ATOM     44  C   UNL     1      -5.453  -3.483  -8.158  1.00  0.00     0.031 C 
ATOM     45  C   UNL     1      -9.601  -2.420  -5.539  1.00  0.00     0.029 A 
ATOM     46  N   UNL     1      -9.775  -2.387  -7.769  1.00  0.00    -0.354 N 
ATOM     47  C   UNL     1      -6.337  -3.296 -10.254  1.00  0.00     0.074 A 
ATOM     48  C   UNL     1      -5.149  -3.449  -9.447  1.00  0.00     0.031 C 
ATOM     49  C   UNL     1     -10.871  -2.108  -5.836  1.00  0.00     0.029 A 
ATOM     50  C   UNL     1     -11.033  -2.120  -7.287  1.00  0.00     0.049 A 
ATOM     51  H   UNL     1      -9.548  -2.375  -8.727  1.00  0.00     0.167 HD
ATOM     52  C   UNL     1      -6.358  -3.369 -11.605  1.00  0.00     0.037 A 
ATOM     53  C   UNL     1     -12.194  -1.951  -7.946  1.00  0.00     0.037 A 
ATOM     54  C   UNL     1      -7.553  -3.230 -12.393  1.00  0.00     0.049 A 
ATOM     55  C   UNL     1     -12.203  -2.078  -9.444  1.00  0.00     0.074 A 
ATOM     56  C   UNL     1      -7.704  -3.342 -13.763  1.00  0.00     0.029 A 
ATOM     57  N   UNL     1      -8.808  -2.948 -11.871  1.00  0.00    -0.354 N 
ATOM     58  N   UNL     1     -11.212  -2.358 -10.255  1.00  0.00    -0.248 NA
ATOM     59  C   UNL     1     -13.493  -1.876 -10.117  1.00  0.00     0.031 C 
ATOM     60  C   UNL     1      -9.043  -3.088 -14.075  1.00  0.00     0.029 A 
ATOM     61  C   UNL     1      -9.736  -2.862 -12.895  1.00  0.00     0.049 A 
ATOM     62  H   UNL     1      -9.009  -2.826 -10.915  1.00  0.00     0.167 HD
ATOM     63  C   UNL     1     -11.757  -2.377 -11.531  1.00  0.00     0.074 A 
ATOM     64  C   UNL     1     -13.173  -2.107 -11.383  1.00  0.00     0.031 C 
ATOM     65  C   UNL     1     -11.140  -2.589 -12.720  1.00  0.00     0.037 A 
BRANCH  52  66
ATOM     66  C   UNL     1      -5.062  -3.642 -12.313  1.00  0.00     0.064 A 
ATOM     67  C   UNL     1      -4.433  -4.894 -12.223  1.00  0.00     0.173 A 
ATOM     68  C   UNL     1      -4.470  -2.670 -13.132  1.00  0.00     0.173 A 
ATOM     69  F   UNL     1      -4.954  -5.857 -11.448  1.00  0.00    -0.203 F 
ATOM     70  C   UNL     1      -3.248  -5.154 -12.907  1.00  0.00     0.198 A 
ATOM     71  C   UNL     1      -3.299  -2.943 -13.838  1.00  0.00     0.198 A 
ATOM     72  F   UNL     1      -5.032  -1.459 -13.261  1.00  0.00    -0.203 F 
ATOM     73  F   UNL     1      -2.646  -6.344 -12.772  1.00  0.00    -0.200 F 
ATOM     74  C   UNL     1      -2.687  -4.182 -13.720  1.00  0.00     0.200 A 
ATOM     75  F   UNL     1      -2.764  -2.007 -14.634  1.00  0.00    -0.200 F 
ATOM     76  F   UNL     1      -1.553  -4.437 -14.386  1.00  0.00    -0.200 F 
ENDBRANCH  52  66
BRANCH  53  77
ATOM     77  C   UNL     1     -13.444  -1.733  -7.175  1.00  0.00     0.064 A 
ATOM     78  C   UNL     1     -14.424  -2.733  -7.098  1.00  0.00     0.173 A 
ATOM     79  C   UNL     1     -13.665  -0.546  -6.462  1.00  0.00     0.173 A 
ATOM     80  F   UNL     1     -14.263  -3.881  -7.772  1.00  0.00    -0.203 F 
ATOM     81  C   UNL     1     -15.581  -2.550  -6.344  1.00  0.00     0.198 A 
ATOM     82  C   UNL     1     -14.809  -0.375  -5.687  1.00  0.00     0.198 A 
ATOM     83  F   UNL     1     -12.751   0.435  -6.492  1.00  0.00    -0.203 F 
ATOM     84  F   UNL     1     -16.515  -3.510  -6.311  1.00  0.00    -0.200 F 
ATOM     85  C   UNL     1     -15.769  -1.374  -5.633  1.00  0.00     0.200 A 
ATOM     86  F   UNL     1     -14.978   0.754  -4.985  1.00  0.00    -0.200 F 
ATOM     87  F   UNL     1     -16.875  -1.205  -4.896  1.00  0.00    -0.200 F 
ENDBRANCH  53  77
BRANCH  65  88
ATOM     88  C   UNL     1     -11.986  -2.533 -13.956  1.00  0.00     0.064 A 
ATOM     89  C   UNL     1     -12.460  -1.312 -14.456  1.00  0.00     0.173 A 
ATOM     90  C   UNL     1     -12.252  -3.696 -14.692  1.00  0.00     0.173 A 
ATOM     91  F   UNL     1     -12.239  -0.174 -13.780  1.00  0.00    -0.203 F 
ATOM     92  C   UNL     1     -13.183  -1.259 -15.644  1.00  0.00     0.198 A 
ATOM     93  C   UNL     1     -12.951  -3.637 -15.894  1.00  0.00     0.198 A 
ATOM     94  F   UNL     1     -11.811  -4.887 -14.259  1.00  0.00    -0.203 F 
ATOM     95  F   UNL     1     -13.653  -0.086 -16.088  1.00  0.00    -0.200 F 
ATOM     96  C   UNL     1     -13.418  -2.419 -16.367  1.00  0.00     0.200 A 
ATOM     97  F   UNL     1     -13.164  -4.755 -16.600  1.00  0.00    -0.200 F 
ATOM     98  F   UNL     1     -14.097  -2.364 -17.521  1.00  0.00    -0.200 F 
ENDBRANCH  65  88
ENDBRANCH  39  40
ENDBRANCH  32  34
ENDBRANCH  31  32
ENDBRANCH  30  31
ENDBRANCH   1  30
TORSDOF 14
