REMARK SMILES CC[C@@](C)([NH3+])C(=O)N1CC[NH+]([C@H](C)C(=O)OCCOC(=O)c2ccc(-c3c4nc(c(-c5c(F)c(F)c(F)c(F)c5F)c5ccc([nH]5)c(-c5c(F)c(F)c(F)c(F)c5F)c5nc(c(-c6c(F)c(F)c(F)c(F)c6F)c6ccc3[nH]6)C=C5)C=C4)cc2)CC1
REMARK SMILES IDX 17 1 16 2 14 3 15 4 12 5 13 6 11 7 6 8 7 9 8 10 9 11 86 12
REMARK SMILES IDX 10 13 85 14 3 16 4 17 2 18 1 19 5 20 18 24 19 25 20 26 21 27
REMARK SMILES IDX 22 28 23 29 84 30 24 31 83 32 25 33 26 34 27 35 77 36 28 37
REMARK SMILES IDX 82 38 76 39 78 40 29 41 81 42 75 43 74 44 30 46 62 47 42 48
REMARK SMILES IDX 61 49 43 50 46 51 60 52 79 53 44 54 45 55 59 57 80 58 47 59
REMARK SMILES IDX 31 60 32 61 40 62 33 63 34 64 38 65 41 66 35 67 36 68 39 69
REMARK SMILES IDX 37 70 63 71 64 72 72 73 65 74 66 75 70 76 73 77 67 78 68 79
REMARK SMILES IDX 71 80 69 81 48 82 49 83 57 84 50 85 51 86 55 87 58 88 52 89
REMARK SMILES IDX 53 90 56 91 54 92
REMARK H PARENT 11 15 5 21 5 22 5 23 78 45 46 56
REMARK Flexibility Score: inf
ROOT
ATOM      1  C   UNL     1       7.754   4.671  -4.706  1.00  0.00     0.274 C 
ENDROOT
BRANCH   1   2
ATOM      2  O   UNL     1       6.578   4.620  -3.877  1.00  0.00    -0.458 OA
BRANCH   2   3
ATOM      3  C   UNL     1       6.397   5.664  -3.020  1.00  0.00     0.364 C 
ATOM      4  O   UNL     1       7.191   6.588  -2.877  1.00  0.00    -0.245 OA
BRANCH   3   5
ATOM      5  C   UNL     1       5.077   5.558  -2.230  1.00  0.00     0.292 C 
ATOM      6  C   UNL     1       3.973   4.798  -2.977  1.00  0.00     0.088 C 
BRANCH   5   7
ATOM      7  N   UNL     1       5.354   5.115  -0.843  1.00  0.00    -0.321 N 
ATOM      8  C   UNL     1       4.002   2.523   2.064  1.00  0.00     0.283 C 
ATOM      9  O   UNL     1       4.617   1.538   2.490  1.00  0.00    -0.268 OA
ATOM     10  N   UNL     1       4.718   3.553   1.483  1.00  0.00    -0.326 N 
ATOM     11  C   UNL     1       5.914   3.229   0.715  1.00  0.00     0.181 C 
ATOM     12  C   UNL     1       4.434   4.982   1.507  1.00  0.00     0.181 C 
ATOM     13  C   UNL     1       5.689   3.680  -0.742  1.00  0.00     0.284 C 
ATOM     14  C   UNL     1       4.274   5.530   0.081  1.00  0.00     0.284 C 
ATOM     15  H   UNL     1       6.201   5.598  -0.544  1.00  0.00     0.348 HD
BRANCH   8  16
ATOM     16  C   UNL     1       2.429   2.493   1.947  1.00  0.00     0.171 C 
ATOM     17  C   UNL     1       2.035   2.439   0.461  1.00  0.00     0.090 C 
BRANCH  16  18
ATOM     18  C   UNL     1       1.865   1.253   2.701  1.00  0.00     0.075 C 
ATOM     19  C   UNL     1       2.120  -0.102   2.042  1.00  0.00     0.011 C 
ENDBRANCH  16  18
BRANCH  16  20
ATOM     20  N   UNL     1       1.809   3.689   2.570  1.00  0.00    -0.345 N 
ATOM     21  H   UNL     1       0.795   3.635   2.474  1.00  0.00     0.345 HD
ATOM     22  H   UNL     1       2.150   4.530   2.103  1.00  0.00     0.345 HD
ATOM     23  H   UNL     1       2.057   3.724   3.558  1.00  0.00     0.345 HD
ENDBRANCH  16  20
ENDBRANCH   8  16
ENDBRANCH   5   7
ENDBRANCH   3   5
ENDBRANCH   2   3
ENDBRANCH   1   2
BRANCH   1  24
ATOM     24  C   UNL     1       7.436   5.225  -6.099  1.00  0.00     0.275 C 
BRANCH  24  25
ATOM     25  O   UNL     1       7.119   6.630  -6.057  1.00  0.00    -0.458 OA
BRANCH  25  26
ATOM     26  C   UNL     1       5.803   6.917  -5.930  1.00  0.00     0.338 C 
ATOM     27  O   UNL     1       4.873   6.130  -5.899  1.00  0.00    -0.246 OA
BRANCH  26  28
ATOM     28  C   UNL     1       5.627   8.354  -5.678  1.00  0.00     0.060 A 
ATOM     29  C   UNL     1       5.063   8.740  -4.460  1.00  0.00     0.016 A 
ATOM     30  C   UNL     1       5.925   9.306  -6.653  1.00  0.00     0.016 A 
ATOM     31  C   UNL     1       4.792  10.078  -4.201  1.00  0.00     0.010 A 
ATOM     32  C   UNL     1       5.649  10.652  -6.396  1.00  0.00     0.010 A 
ATOM     33  C   UNL     1       5.073  11.042  -5.173  1.00  0.00    -0.014 A 
BRANCH  33  34
ATOM     34  C   UNL     1       4.701  12.452  -4.925  1.00  0.00     0.031 A 
ATOM     35  C   UNL     1       3.494  13.028  -5.603  1.00  0.00     0.074 A 
ATOM     36  C   UNL     1       5.423  13.195  -4.068  1.00  0.00     0.049 A 
ATOM     37  N   UNL     1       3.053  14.259  -5.603  1.00  0.00    -0.248 NA
ATOM     38  C   UNL     1       2.673  12.092  -6.386  1.00  0.00     0.031 C 
ATOM     39  C   UNL     1       6.574  12.718  -3.302  1.00  0.00     0.029 A 
ATOM     40  N   UNL     1       5.297  14.511  -3.702  1.00  0.00    -0.354 N 
ATOM     41  C   UNL     1       1.920  14.252  -6.404  1.00  0.00     0.074 A 
ATOM     42  C   UNL     1       1.743  12.896  -6.880  1.00  0.00     0.031 C 
ATOM     43  C   UNL     1       7.053  13.729  -2.559  1.00  0.00     0.029 A 
ATOM     44  C   UNL     1       6.274  14.933  -2.837  1.00  0.00     0.049 A 
ATOM     45  H   UNL     1       4.575  15.095  -4.029  1.00  0.00     0.167 HD
ATOM     46  C   UNL     1       1.105  15.288  -6.714  1.00  0.00     0.037 A 
ATOM     47  C   UNL     1       6.530  16.162  -2.351  1.00  0.00     0.037 A 
ATOM     48  C   UNL     1       1.280  16.629  -6.222  1.00  0.00     0.049 A 
ATOM     49  C   UNL     1       5.645  17.308  -2.759  1.00  0.00     0.074 A 
ATOM     50  C   UNL     1       0.510  17.751  -6.475  1.00  0.00     0.029 A 
ATOM     51  N   UNL     1       2.301  17.028  -5.371  1.00  0.00    -0.354 N 
ATOM     52  N   UNL     1       4.590  17.302  -3.537  1.00  0.00    -0.248 NA
ATOM     53  C   UNL     1       5.991  18.634  -2.228  1.00  0.00     0.031 C 
ATOM     54  C   UNL     1       1.085  18.836  -5.805  1.00  0.00     0.029 A 
ATOM     55  C   UNL     1       2.190  18.382  -5.101  1.00  0.00     0.049 A 
ATOM     56  H   UNL     1       3.001  16.436  -5.012  1.00  0.00     0.167 HD
ATOM     57  C   UNL     1       4.135  18.612  -3.575  1.00  0.00     0.074 A 
ATOM     58  C   UNL     1       5.022  19.386  -2.730  1.00  0.00     0.031 C 
ATOM     59  C   UNL     1       3.080  19.130  -4.251  1.00  0.00     0.037 A 
BRANCH  46  60
ATOM     60  C   UNL     1      -0.028  15.018  -7.657  1.00  0.00     0.064 A 
ATOM     61  C   UNL     1      -1.168  14.306  -7.259  1.00  0.00     0.173 A 
ATOM     62  C   UNL     1       0.017  15.505  -8.973  1.00  0.00     0.173 A 
ATOM     63  F   UNL     1      -1.251  13.805  -6.017  1.00  0.00    -0.203 F 
ATOM     64  C   UNL     1      -2.213  14.072  -8.149  1.00  0.00     0.198 A 
ATOM     65  C   UNL     1      -1.039  15.290  -9.853  1.00  0.00     0.198 A 
ATOM     66  F   UNL     1       1.086  16.192  -9.402  1.00  0.00    -0.203 F 
ATOM     67  F   UNL     1      -3.276  13.354  -7.760  1.00  0.00    -0.200 F 
ATOM     68  C   UNL     1      -2.151  14.570  -9.443  1.00  0.00     0.200 A 
ATOM     69  F   UNL     1      -0.980  15.778 -11.100  1.00  0.00    -0.200 F 
ATOM     70  F   UNL     1      -3.159  14.348 -10.297  1.00  0.00    -0.200 F 
ENDBRANCH  46  60
BRANCH  47  71
ATOM     71  C   UNL     1       7.692  16.374  -1.451  1.00  0.00     0.064 A 
ATOM     72  C   UNL     1       7.510  16.681  -0.096  1.00  0.00     0.173 A 
ATOM     73  C   UNL     1       9.007  16.273  -1.928  1.00  0.00     0.173 A 
ATOM     74  F   UNL     1       6.270  16.814   0.399  1.00  0.00    -0.203 F 
ATOM     75  C   UNL     1       8.600  16.890   0.746  1.00  0.00     0.198 A 
ATOM     76  C   UNL     1      10.097  16.456  -1.079  1.00  0.00     0.198 A 
ATOM     77  F   UNL     1       9.234  15.985  -3.218  1.00  0.00    -0.203 F 
ATOM     78  F   UNL     1       8.399  17.222   2.029  1.00  0.00    -0.200 F 
ATOM     79  C   UNL     1       9.892  16.771   0.256  1.00  0.00     0.200 A 
ATOM     80  F   UNL     1      11.343  16.330  -1.555  1.00  0.00    -0.200 F 
ATOM     81  F   UNL     1      10.940  16.967   1.067  1.00  0.00    -0.200 F 
ENDBRANCH  47  71
BRANCH  59  82
ATOM     82  C   UNL     1       2.810  20.594  -4.077  1.00  0.00     0.064 A 
ATOM     83  C   UNL     1       3.609  21.565  -4.696  1.00  0.00     0.173 A 
ATOM     84  C   UNL     1       1.713  21.027  -3.318  1.00  0.00     0.173 A 
ATOM     85  F   UNL     1       4.678  21.199  -5.419  1.00  0.00    -0.203 F 
ATOM     86  C   UNL     1       3.331  22.921  -4.544  1.00  0.00     0.198 A 
ATOM     87  C   UNL     1       1.423  22.382  -3.188  1.00  0.00     0.198 A 
ATOM     88  F   UNL     1       0.915  20.134  -2.712  1.00  0.00    -0.203 F 
ATOM     89  F   UNL     1       4.130  23.834  -5.111  1.00  0.00    -0.200 F 
ATOM     90  C   UNL     1       2.235  23.327  -3.796  1.00  0.00     0.200 A 
ATOM     91  F   UNL     1       0.359  22.773  -2.474  1.00  0.00    -0.200 F 
ATOM     92  F   UNL     1       1.966  24.632  -3.656  1.00  0.00    -0.200 F 
ENDBRANCH  59  82
ENDBRANCH  33  34
ENDBRANCH  26  28
ENDBRANCH  25  26
ENDBRANCH  24  25
ENDBRANCH   1  24
TORSDOF 15
