REMARK SMILES Cc1ccccc1OCC[NH+]1CCC(CC(=O)OCCOC(=O)c2ccc(-c3c4nc(c(-c5c(F)c(F)c(F)c(F)c5F)c5ccc([nH]5)c(-c5c(F)c(F)c(F)c(F)c5F)c5nc(c(-c6c(F)c(F)c(F)c(F)c6F)c6ccc3[nH]6)C=C5)C=C4)cc2)CC1
REMARK SMILES IDX 18 1 16 2 17 3 15 4 14 5 11 6 12 7 88 8 13 10 87 11 10 12
REMARK SMILES IDX 9 13 8 14 7 15 1 16 2 17 3 18 4 19 6 20 5 21 19 22 20 23
REMARK SMILES IDX 21 24 22 25 23 26 24 27 25 28 86 29 26 30 85 31 27 32 28 33
REMARK SMILES IDX 29 34 79 35 30 36 84 37 78 38 80 39 31 40 83 41 77 42 76 43
REMARK SMILES IDX 32 45 64 46 44 47 63 48 45 49 48 50 62 51 81 52 46 53 47 54
REMARK SMILES IDX 61 56 82 57 49 58 33 59 34 60 42 61 35 62 36 63 40 64 43 65
REMARK SMILES IDX 37 66 38 67 41 68 39 69 65 70 66 71 74 72 67 73 68 74 72 75
REMARK SMILES IDX 75 76 69 77 70 78 73 79 71 80 50 81 51 82 59 83 52 84 53 85
REMARK SMILES IDX 57 86 60 87 54 88 55 89 58 90 56 91
REMARK H PARENT 11 9 80 44 48 55
REMARK Flexibility Score: inf
ROOT
ATOM      1  O   UNL     1       1.338  -2.622  -2.121  1.00  0.00    -0.462 OA
ENDROOT
BRANCH   1   2
ATOM      2  C   UNL     1       0.871  -2.599  -0.845  1.00  0.00     0.306 C 
ATOM      3  O   UNL     1      -0.294  -2.548  -0.528  1.00  0.00    -0.252 OA
BRANCH   2   4
ATOM      4  C   UNL     1       2.030  -2.663   0.124  1.00  0.00     0.126 C 
BRANCH   4   5
ATOM      5  C   UNL     1       3.207  -1.712  -0.217  1.00  0.00     0.011 C 
ATOM      6  N   UNL     1       3.300   1.000   0.519  1.00  0.00    -0.332 N 
ATOM      7  C   UNL     1       3.487   0.754  -0.904  1.00  0.00     0.262 C 
ATOM      8  C   UNL     1       4.272   0.196   1.248  1.00  0.00     0.262 C 
ATOM      9  H   UNL     1       2.371   0.699   0.815  1.00  0.00     0.348 HD
ATOM     10  C   UNL     1       2.776  -0.548  -1.141  1.00  0.00     0.066 C 
ATOM     11  C   UNL     1       3.943  -1.297   1.085  1.00  0.00     0.066 C 
BRANCH   6  12
ATOM     12  C   UNL     1       3.270   2.423   0.854  1.00  0.00     0.304 C 
BRANCH  12  13
ATOM     13  C   UNL     1       1.927   3.083   0.440  1.00  0.00     0.290 C 
BRANCH  13  14
ATOM     14  O   UNL     1       0.914   2.851   1.434  1.00  0.00    -0.487 OA
BRANCH  14  15
ATOM     15  C   UNL     1      -0.077   2.002   1.016  1.00  0.00     0.122 A 
ATOM     16  C   UNL     1       0.761   0.260   2.665  1.00  0.00     0.048 C 
ATOM     17  C   UNL     1      -0.206   0.753   1.631  1.00  0.00    -0.009 A 
ATOM     18  C   UNL     1      -1.259  -0.087   1.244  1.00  0.00     0.007 A 
ATOM     19  C   UNL     1      -2.191   0.322   0.291  1.00  0.00     0.001 A 
ATOM     20  C   UNL     1      -1.028   2.428   0.083  1.00  0.00     0.047 A 
ATOM     21  C   UNL     1      -2.083   1.586  -0.281  1.00  0.00     0.004 A 
ENDBRANCH  14  15
ENDBRANCH  13  14
ENDBRANCH  12  13
ENDBRANCH   6  12
ENDBRANCH   4   5
ENDBRANCH   2   4
ENDBRANCH   1   2
BRANCH   1  22
ATOM     22  C   UNL     1       0.368  -2.446  -3.146  1.00  0.00     0.274 C 
BRANCH  22  23
ATOM     23  C   UNL     1       0.908  -3.067  -4.435  1.00  0.00     0.275 C 
BRANCH  23  24
ATOM     24  O   UNL     1       1.876  -4.165  -4.327  1.00  0.00    -0.458 OA
BRANCH  24  25
ATOM     25  C   UNL     1       2.025  -5.111  -3.361  1.00  0.00     0.338 C 
ATOM     26  O   UNL     1       3.105  -5.639  -3.131  1.00  0.00    -0.246 OA
BRANCH  25  27
ATOM     27  C   UNL     1       0.836  -5.483  -2.567  1.00  0.00     0.060 A 
ATOM     28  C   UNL     1       0.956  -5.786  -1.197  1.00  0.00     0.016 A 
ATOM     29  C   UNL     1      -0.413  -5.404  -3.161  1.00  0.00     0.016 A 
ATOM     30  C   UNL     1      -0.187  -5.862  -0.389  1.00  0.00     0.010 A 
ATOM     31  C   UNL     1      -1.522  -5.346  -2.349  1.00  0.00     0.010 A 
ATOM     32  C   UNL     1      -1.430  -5.598  -0.965  1.00  0.00    -0.014 A 
BRANCH  32  33
ATOM     33  C   UNL     1      -2.730  -5.809  -0.324  1.00  0.00     0.031 A 
ATOM     34  C   UNL     1      -3.366  -4.948   0.700  1.00  0.00     0.074 A 
ATOM     35  C   UNL     1      -3.412  -6.829  -0.893  1.00  0.00     0.049 A 
ATOM     36  N   UNL     1      -4.450  -5.275   1.324  1.00  0.00    -0.248 NA
ATOM     37  C   UNL     1      -2.861  -3.657   1.137  1.00  0.00     0.031 C 
ATOM     38  C   UNL     1      -4.821  -7.171  -0.831  1.00  0.00     0.029 A 
ATOM     39  N   UNL     1      -2.829  -7.896  -1.600  1.00  0.00    -0.354 N 
ATOM     40  C   UNL     1      -4.915  -4.185   2.031  1.00  0.00     0.074 A 
ATOM     41  C   UNL     1      -3.858  -3.210   1.917  1.00  0.00     0.031 C 
ATOM     42  C   UNL     1      -4.958  -8.463  -1.182  1.00  0.00     0.029 A 
ATOM     43  C   UNL     1      -3.614  -9.014  -1.309  1.00  0.00     0.049 A 
ATOM     44  H   UNL     1      -2.034  -7.862  -2.179  1.00  0.00     0.167 HD
ATOM     45  C   UNL     1      -6.187  -4.231   2.534  1.00  0.00     0.037 A 
ATOM     46  C   UNL     1      -3.085 -10.007  -0.536  1.00  0.00     0.037 A 
ATOM     47  C   UNL     1      -6.740  -5.573   2.367  1.00  0.00     0.049 A 
ATOM     48  C   UNL     1      -3.891 -10.218   0.715  1.00  0.00     0.074 A 
ATOM     49  C   UNL     1      -7.562  -6.133   1.405  1.00  0.00     0.029 A 
ATOM     50  N   UNL     1      -6.189  -6.625   3.088  1.00  0.00    -0.354 N 
ATOM     51  N   UNL     1      -4.536  -9.267   1.331  1.00  0.00    -0.248 NA
ATOM     52  C   UNL     1      -4.066 -11.525   1.334  1.00  0.00     0.031 C 
ATOM     53  C   UNL     1      -7.438  -7.541   1.498  1.00  0.00     0.029 A 
ATOM     54  C   UNL     1      -6.569  -7.831   2.537  1.00  0.00     0.049 A 
ATOM     55  H   UNL     1      -5.611  -6.525   3.879  1.00  0.00     0.167 HD
ATOM     56  C   UNL     1      -5.262  -9.818   2.351  1.00  0.00     0.074 A 
ATOM     57  C   UNL     1      -4.911 -11.226   2.334  1.00  0.00     0.031 C 
ATOM     58  C   UNL     1      -6.128  -9.089   3.110  1.00  0.00     0.037 A 
BRANCH  45  59
ATOM     59  C   UNL     1      -7.048  -3.058   2.976  1.00  0.00     0.064 A 
ATOM     60  C   UNL     1      -8.464  -3.149   2.920  1.00  0.00     0.173 A 
ATOM     61  C   UNL     1      -6.568  -1.812   3.415  1.00  0.00     0.173 A 
ATOM     62  F   UNL     1      -9.084  -4.290   2.592  1.00  0.00    -0.203 F 
ATOM     63  C   UNL     1      -9.310  -2.069   3.192  1.00  0.00     0.198 A 
ATOM     64  C   UNL     1      -7.416  -0.721   3.664  1.00  0.00     0.198 A 
ATOM     65  F   UNL     1      -5.271  -1.616   3.668  1.00  0.00    -0.203 F 
ATOM     66  F   UNL     1     -10.639  -2.224   3.099  1.00  0.00    -0.200 F 
ATOM     67  C   UNL     1      -8.785  -0.846   3.541  1.00  0.00     0.200 A 
ATOM     68  F   UNL     1      -6.892   0.458   4.031  1.00  0.00    -0.200 F 
ATOM     69  F   UNL     1      -9.592   0.199   3.774  1.00  0.00    -0.200 F 
ENDBRANCH  45  59
BRANCH  46  70
ATOM     70  C   UNL     1      -1.595 -10.118  -0.630  1.00  0.00     0.064 A 
ATOM     71  C   UNL     1      -1.012 -10.337  -1.898  1.00  0.00     0.173 A 
ATOM     72  C   UNL     1      -0.740  -9.696   0.397  1.00  0.00     0.173 A 
ATOM     73  F   UNL     1      -1.780 -10.729  -2.929  1.00  0.00    -0.203 F 
ATOM     74  C   UNL     1       0.330 -10.054  -2.148  1.00  0.00     0.198 A 
ATOM     75  C   UNL     1       0.612  -9.431   0.146  1.00  0.00     0.198 A 
ATOM     76  F   UNL     1      -1.217  -9.462   1.627  1.00  0.00    -0.203 F 
ATOM     77  F   UNL     1       0.820 -10.180  -3.390  1.00  0.00    -0.200 F 
ATOM     78  C   UNL     1       1.138  -9.585  -1.129  1.00  0.00     0.200 A 
ATOM     79  F   UNL     1       1.395  -8.962   1.129  1.00  0.00    -0.200 F 
ATOM     80  F   UNL     1       2.414  -9.256  -1.378  1.00  0.00    -0.200 F 
ENDBRANCH  46  70
BRANCH  58  81
ATOM     81  C   UNL     1      -6.736  -9.548   4.404  1.00  0.00     0.064 A 
ATOM     82  C   UNL     1      -6.078 -10.414   5.292  1.00  0.00     0.173 A 
ATOM     83  C   UNL     1      -7.944  -8.981   4.875  1.00  0.00     0.173 A 
ATOM     84  F   UNL     1      -4.872 -10.921   5.003  1.00  0.00    -0.203 F 
ATOM     85  C   UNL     1      -6.619 -10.739   6.536  1.00  0.00     0.198 A 
ATOM     86  C   UNL     1      -8.451  -9.264   6.140  1.00  0.00     0.198 A 
ATOM     87  F   UNL     1      -8.649  -8.114   4.134  1.00  0.00    -0.203 F 
ATOM     88  F   UNL     1      -5.972 -11.601   7.332  1.00  0.00    -0.200 F 
ATOM     89  C   UNL     1      -7.796 -10.155   6.965  1.00  0.00     0.200 A 
ATOM     90  F   UNL     1      -9.565  -8.650   6.563  1.00  0.00    -0.200 F 
ATOM     91  F   UNL     1      -8.286 -10.433   8.180  1.00  0.00    -0.200 F 
ENDBRANCH  58  81
ENDBRANCH  32  33
ENDBRANCH  25  27
ENDBRANCH  24  25
ENDBRANCH  23  24
ENDBRANCH  22  23
ENDBRANCH   1  22
TORSDOF 16
