REMARK SMILES COc1ccc([C@H](C)NC(=O)[C@@H](C)n2cc(C(=O)OCCOC(=O)c3ccc(-c4c5nc(c(-c6c(F)c(F)c(F)c(F)c6F)c6ccc([nH]6)c(-c6c(F)c(F)c(F)c(F)c6F)c6nc(c(-c7c(F)c(F)c(F)c(F)c7F)c7ccc4[nH]7)C=C6)C=C5)cc3)cn2)cc1
REMARK SMILES IDX 19 1 17 2 18 3 16 4 14 5 15 6 89 7 88 8 12 9 13 10 10 11
REMARK SMILES IDX 9 12 11 14 7 15 8 16 6 17 3 18 4 19 91 20 5 21 90 22 2 23
REMARK SMILES IDX 1 24 20 25 21 26 22 27 23 28 24 29 25 30 26 31 87 32 27 33
REMARK SMILES IDX 86 34 28 35 29 36 30 37 80 38 31 39 85 40 79 41 81 42 32 43
REMARK SMILES IDX 84 44 78 45 77 46 33 48 65 49 45 50 64 51 46 52 49 53 63 54
REMARK SMILES IDX 82 55 47 56 48 57 62 59 83 60 50 61 34 62 35 63 43 64 36 65
REMARK SMILES IDX 37 66 41 67 44 68 38 69 39 70 42 71 40 72 66 73 67 74 75 75
REMARK SMILES IDX 68 76 69 77 73 78 76 79 70 80 71 81 74 82 72 83 51 84 52 85
REMARK SMILES IDX 60 86 53 87 54 88 58 89 61 90 55 91 56 92 59 93 57 94
REMARK H PARENT 9 13 81 47 49 58
REMARK Flexibility Score: inf
ROOT
ATOM      1  O   UNL     1       5.713  -2.417   7.697  1.00  0.00    -0.458 OA
ENDROOT
BRANCH   1   2
ATOM      2  C   UNL     1       6.245  -3.664   7.883  1.00  0.00     0.341 C 
ATOM      3  O   UNL     1       7.165  -3.917   8.656  1.00  0.00    -0.246 OA
BRANCH   2   4
ATOM      4  C   UNL     1       5.531  -4.690   7.155  1.00  0.00     0.098 A 
ATOM      5  N   UNL     1       4.223  -5.781   5.750  1.00  0.00    -0.260 N 
ATOM      6  C   UNL     1       4.848  -4.580   5.961  1.00  0.00     0.125 A 
ATOM      7  N   UNL     1       4.566  -6.705   6.676  1.00  0.00    -0.180 NA
ATOM      8  C   UNL     1       5.336  -6.032   7.534  1.00  0.00     0.150 A 
BRANCH   5   9
ATOM      9  C   UNL     1       3.424  -6.199   4.601  1.00  0.00     0.193 C 
ATOM     10  C   UNL     1       3.835  -5.574   3.269  1.00  0.00     0.044 C 
BRANCH   9  11
ATOM     11  C   UNL     1       1.916  -6.145   4.840  1.00  0.00     0.245 C 
ATOM     12  N   UNL     1       1.200  -4.993   4.946  1.00  0.00    -0.348 N 
ATOM     13  H   UNL     1       0.225  -5.125   4.947  1.00  0.00     0.164 HD
ATOM     14  O   UNL     1       1.250  -7.189   4.840  1.00  0.00    -0.273 OA
BRANCH  12  15
ATOM     15  C   UNL     1       1.611  -3.603   5.058  1.00  0.00     0.109 C 
ATOM     16  C   UNL     1       0.994  -2.746   3.949  1.00  0.00     0.036 C 
BRANCH  15  17
ATOM     17  C   UNL     1       1.338  -3.022   6.432  1.00  0.00    -0.026 A 
ATOM     18  C   UNL     1       0.957  -1.918   9.002  1.00  0.00     0.118 A 
ATOM     19  C   UNL     1       2.002  -1.484   8.193  1.00  0.00     0.047 A 
ATOM     20  C   UNL     1       0.047  -2.842   8.496  1.00  0.00     0.047 A 
ATOM     21  C   UNL     1       2.213  -2.049   6.936  1.00  0.00     0.009 A 
ATOM     22  C   UNL     1       0.229  -3.380   7.214  1.00  0.00     0.009 A 
BRANCH  18  23
ATOM     23  O   UNL     1       0.904  -1.359  10.250  1.00  0.00    -0.497 OA
ATOM     24  C   UNL     1       0.379  -2.215  11.262  1.00  0.00     0.278 C 
ENDBRANCH  18  23
ENDBRANCH  15  17
ENDBRANCH  12  15
ENDBRANCH   9  11
ENDBRANCH   5   9
ENDBRANCH   2   4
ENDBRANCH   1   2
BRANCH   1  25
ATOM     25  C   UNL     1       6.148  -1.411   8.627  1.00  0.00     0.275 C 
BRANCH  25  26
ATOM     26  C   UNL     1       5.380  -1.417   9.947  1.00  0.00     0.275 C 
BRANCH  26  27
ATOM     27  O   UNL     1       5.524  -2.620  10.697  1.00  0.00    -0.458 OA
BRANCH  27  28
ATOM     28  C   UNL     1       4.554  -3.530  10.450  1.00  0.00     0.338 C 
ATOM     29  O   UNL     1       3.905  -3.668   9.430  1.00  0.00    -0.246 OA
BRANCH  28  30
ATOM     30  C   UNL     1       4.205  -4.226  11.681  1.00  0.00     0.060 A 
ATOM     31  C   UNL     1       3.480  -5.417  11.577  1.00  0.00     0.016 A 
ATOM     32  C   UNL     1       4.392  -3.567  12.902  1.00  0.00     0.016 A 
ATOM     33  C   UNL     1       2.876  -5.921  12.709  1.00  0.00     0.010 A 
ATOM     34  C   UNL     1       3.782  -4.064  14.026  1.00  0.00     0.010 A 
ATOM     35  C   UNL     1       3.002  -5.215  13.910  1.00  0.00    -0.014 A 
BRANCH  35  36
ATOM     36  C   UNL     1       2.442  -5.799  15.112  1.00  0.00     0.031 A 
ATOM     37  C   UNL     1       3.187  -6.996  15.574  1.00  0.00     0.074 A 
ATOM     38  C   UNL     1       1.476  -5.177  15.815  1.00  0.00     0.049 A 
ATOM     39  N   UNL     1       2.728  -8.181  15.795  1.00  0.00    -0.248 NA
ATOM     40  C   UNL     1       4.655  -6.895  15.684  1.00  0.00     0.031 C 
ATOM     41  C   UNL     1       0.941  -3.834  15.563  1.00  0.00     0.029 A 
ATOM     42  N   UNL     1       0.865  -5.544  16.976  1.00  0.00    -0.354 N 
ATOM     43  C   UNL     1       3.813  -8.922  16.261  1.00  0.00     0.074 A 
ATOM     44  C   UNL     1       4.991  -8.143  16.006  1.00  0.00     0.031 C 
ATOM     45  C   UNL     1       0.272  -3.412  16.657  1.00  0.00     0.029 A 
ATOM     46  C   UNL     1       0.223  -4.498  17.622  1.00  0.00     0.049 A 
ATOM     47  H   UNL     1       0.877  -6.465  17.323  1.00  0.00     0.167 HD
ATOM     48  C   UNL     1       3.614  -9.977  17.094  1.00  0.00     0.037 A 
ATOM     49  C   UNL     1      -0.257  -4.497  18.887  1.00  0.00     0.037 A 
ATOM     50  C   UNL     1       2.247 -10.422  17.040  1.00  0.00     0.049 A 
ATOM     51  C   UNL     1      -0.423  -5.903  19.321  1.00  0.00     0.074 A 
ATOM     52  C   UNL     1       1.475 -11.178  16.188  1.00  0.00     0.029 A 
ATOM     53  N   UNL     1       1.400  -9.721  17.854  1.00  0.00    -0.354 N 
ATOM     54  N   UNL     1      -1.302  -6.717  18.806  1.00  0.00    -0.248 NA
ATOM     55  C   UNL     1       0.623  -6.539  20.117  1.00  0.00     0.031 C 
ATOM     56  C   UNL     1       0.122 -10.792  16.428  1.00  0.00     0.029 A 
ATOM     57  C   UNL     1       0.103  -9.825  17.430  1.00  0.00     0.049 A 
ATOM     58  H   UNL     1       1.686  -9.207  18.643  1.00  0.00     0.167 HD
ATOM     59  C   UNL     1      -0.687  -7.952  18.849  1.00  0.00     0.074 A 
ATOM     60  C   UNL     1       0.387  -7.820  19.822  1.00  0.00     0.031 C 
ATOM     61  C   UNL     1      -0.885  -8.861  17.853  1.00  0.00     0.037 A 
BRANCH  48  62
ATOM     62  C   UNL     1       4.469 -10.272  18.309  1.00  0.00     0.064 A 
ATOM     63  C   UNL     1       4.192 -11.431  19.063  1.00  0.00     0.173 A 
ATOM     64  C   UNL     1       5.291  -9.316  18.948  1.00  0.00     0.173 A 
ATOM     65  F   UNL     1       3.413 -12.402  18.562  1.00  0.00    -0.203 F 
ATOM     66  C   UNL     1       4.630 -11.577  20.382  1.00  0.00     0.198 A 
ATOM     67  C   UNL     1       5.767  -9.490  20.246  1.00  0.00     0.198 A 
ATOM     68  F   UNL     1       5.571  -8.129  18.399  1.00  0.00    -0.203 F 
ATOM     69  F   UNL     1       4.233 -12.636  21.102  1.00  0.00    -0.200 F 
ATOM     70  C   UNL     1       5.409 -10.602  20.976  1.00  0.00     0.200 A 
ATOM     71  F   UNL     1       6.504  -8.522  20.811  1.00  0.00    -0.200 F 
ATOM     72  F   UNL     1       5.773 -10.707  22.260  1.00  0.00    -0.200 F 
ENDBRANCH  48  62
BRANCH  49  73
ATOM     73  C   UNL     1      -0.374  -3.355  19.820  1.00  0.00     0.064 A 
ATOM     74  C   UNL     1      -1.261  -3.388  20.905  1.00  0.00     0.173 A 
ATOM     75  C   UNL     1       0.565  -2.305  19.805  1.00  0.00     0.173 A 
ATOM     76  F   UNL     1      -2.159  -4.378  21.013  1.00  0.00    -0.203 F 
ATOM     77  C   UNL     1      -1.198  -2.437  21.929  1.00  0.00     0.198 A 
ATOM     78  C   UNL     1       0.621  -1.352  20.821  1.00  0.00     0.198 A 
ATOM     79  F   UNL     1       1.505  -2.238  18.850  1.00  0.00    -0.203 F 
ATOM     80  F   UNL     1      -2.024  -2.532  22.981  1.00  0.00    -0.200 F 
ATOM     81  C   UNL     1      -0.252  -1.426  21.890  1.00  0.00     0.200 A 
ATOM     82  F   UNL     1       1.564  -0.399  20.787  1.00  0.00    -0.200 F 
ATOM     83  F   UNL     1      -0.154  -0.549  22.899  1.00  0.00    -0.200 F 
ENDBRANCH  49  73
BRANCH  61  84
ATOM     84  C   UNL     1      -2.134  -8.722  17.043  1.00  0.00     0.064 A 
ATOM     85  C   UNL     1      -2.394  -7.655  16.169  1.00  0.00     0.173 A 
ATOM     86  C   UNL     1      -3.080  -9.752  17.113  1.00  0.00     0.173 A 
ATOM     87  F   UNL     1      -1.498  -6.675  15.990  1.00  0.00    -0.203 F 
ATOM     88  C   UNL     1      -3.576  -7.602  15.434  1.00  0.00     0.198 A 
ATOM     89  C   UNL     1      -4.241  -9.716  16.350  1.00  0.00     0.198 A 
ATOM     90  F   UNL     1      -2.858 -10.816  17.901  1.00  0.00    -0.203 F 
ATOM     91  F   UNL     1      -3.819  -6.559  14.625  1.00  0.00    -0.200 F 
ATOM     92  C   UNL     1      -4.496  -8.635  15.522  1.00  0.00     0.200 A 
ATOM     93  F   UNL     1      -5.107 -10.737  16.407  1.00  0.00    -0.200 F 
ATOM     94  F   UNL     1      -5.620  -8.598  14.793  1.00  0.00    -0.200 F 
ENDBRANCH  61  84
ENDBRANCH  35  36
ENDBRANCH  28  30
ENDBRANCH  27  28
ENDBRANCH  26  27
ENDBRANCH  25  26
ENDBRANCH   1  25
TORSDOF 16
