REMARK SMILES CN1C(=O)[C@H](CC(=O)OCCOC(=O)c2ccc(-c3c4nc(c(-c5c(F)c(F)c(F)c(F)c5F)c5ccc([nH]5)c(-c5c(F)c(F)c(F)c(F)c5F)c5nc(c(-c6c(F)c(F)c(F)c(F)c6F)c6ccc3[nH]6)C=C5)C=C4)cc2)S/C1=[NH+]\N=C\c1ccc(O)cc1O
REMARK SMILES IDX 10 1 9 2 7 3 8 4 6 5 5 6 1 7 2 8 3 9 79 10 4 11 78 12 80 13
REMARK SMILES IDX 81 15 82 16 83 17 84 18 89 19 85 20 88 21 86 22 90 23 87 25
REMARK SMILES IDX 11 27 12 28 13 29 14 30 15 31 16 32 77 33 17 34 76 35 18 36
REMARK SMILES IDX 19 37 20 38 70 39 21 40 75 41 69 42 71 43 22 44 74 45 68 46
REMARK SMILES IDX 67 47 23 49 55 50 35 51 54 52 36 53 39 54 53 55 72 56 37 57
REMARK SMILES IDX 38 58 52 60 73 61 40 62 24 63 25 64 33 65 26 66 27 67 31 68
REMARK SMILES IDX 34 69 28 70 29 71 32 72 30 73 56 74 57 75 65 76 58 77 59 78
REMARK SMILES IDX 63 79 66 80 60 81 61 82 64 83 62 84 41 85 42 86 50 87 43 88
REMARK SMILES IDX 44 89 48 90 51 91 45 92 46 93 49 94 47 95
REMARK H PARENT 80 14 90 24 87 26 71 48 39 59
REMARK Flexibility Score: inf
ROOT
ATOM      1  C   UNL     1       3.355  -6.433  -0.686  1.00  0.00     0.274 C 
ENDROOT
BRANCH   1   2
ATOM      2  O   UNL     1       2.679  -5.200  -0.369  1.00  0.00    -0.462 OA
BRANCH   2   3
ATOM      3  C   UNL     1       1.677  -4.841  -1.207  1.00  0.00     0.307 C 
ATOM      4  O   UNL     1       1.367  -5.448  -2.227  1.00  0.00    -0.252 OA
BRANCH   3   5
ATOM      5  C   UNL     1       0.994  -3.558  -0.816  1.00  0.00     0.150 C 
BRANCH   5   6
ATOM      6  C   UNL     1       0.964  -3.254   0.685  1.00  0.00     0.185 C 
ATOM      7  C   UNL     1       0.648   0.483   0.825  1.00  0.00     0.301 C 
ATOM      8  N   UNL     1       0.425  -0.940   0.953  1.00  0.00    -0.191 N 
ATOM      9  C   UNL     1       1.466  -1.835   0.839  1.00  0.00     0.324 C 
ATOM     10  C   UNL     1      -0.807  -1.452   1.258  1.00  0.00     0.339 C 
ATOM     11  O   UNL     1       2.653  -1.538   0.760  1.00  0.00    -0.245 OA
ATOM     12  S   UNL     1      -0.737  -3.194   1.351  1.00  0.00    -0.020 SA
ATOM     13  N   UNL     1      -1.847  -0.702   1.447  1.00  0.00    -0.142 N 
ATOM     14  H   UNL     1      -1.833   0.269   1.288  1.00  0.00     0.343 HD
BRANCH  13  15
ATOM     15  N   UNL     1      -2.985  -1.371   1.891  1.00  0.00    -0.093 NA
ATOM     16  C   UNL     1      -4.048  -0.640   1.764  1.00  0.00     0.170 C 
BRANCH  16  17
ATOM     17  C   UNL     1      -5.355  -1.097   2.277  1.00  0.00     0.039 A 
ATOM     18  C   UNL     1      -6.501  -0.392   1.891  1.00  0.00     0.017 A 
ATOM     19  C   UNL     1      -5.470  -2.179   3.161  1.00  0.00     0.128 A 
ATOM     20  C   UNL     1      -7.750  -0.776   2.385  1.00  0.00     0.047 A 
ATOM     21  C   UNL     1      -6.716  -2.554   3.662  1.00  0.00     0.093 A 
ATOM     22  C   UNL     1      -7.847  -1.849   3.265  1.00  0.00     0.119 A 
BRANCH  19  23
ATOM     23  O   UNL     1      -4.396  -2.908   3.597  1.00  0.00    -0.507 OA
ATOM     24  H   UNL     1      -3.535  -2.701   3.293  1.00  0.00     0.293 HD
ENDBRANCH  19  23
BRANCH  22  25
ATOM     25  O   UNL     1      -9.088  -2.181   3.724  1.00  0.00    -0.508 OA
ATOM     26  H   UNL     1      -9.837  -1.693   3.444  1.00  0.00     0.293 HD
ENDBRANCH  22  25
ENDBRANCH  16  17
ENDBRANCH  13  15
ENDBRANCH   5   6
ENDBRANCH   3   5
ENDBRANCH   2   3
ENDBRANCH   1   2
BRANCH   1  27
ATOM     27  C   UNL     1       2.768  -7.628   0.076  1.00  0.00     0.275 C 
BRANCH  27  28
ATOM     28  O   UNL     1       1.437  -7.963  -0.363  1.00  0.00    -0.458 OA
BRANCH  28  29
ATOM     29  C   UNL     1       0.441  -7.325   0.296  1.00  0.00     0.338 C 
ATOM     30  O   UNL     1       0.561  -6.532   1.214  1.00  0.00    -0.246 OA
BRANCH  29  31
ATOM     31  C   UNL     1      -0.852  -7.594  -0.356  1.00  0.00     0.060 A 
ATOM     32  C   UNL     1      -1.581  -6.502  -0.833  1.00  0.00     0.016 A 
ATOM     33  C   UNL     1      -1.383  -8.883  -0.429  1.00  0.00     0.016 A 
ATOM     34  C   UNL     1      -2.845  -6.686  -1.385  1.00  0.00     0.010 A 
ATOM     35  C   UNL     1      -2.655  -9.069  -0.982  1.00  0.00     0.010 A 
ATOM     36  C   UNL     1      -3.395  -7.970  -1.455  1.00  0.00    -0.014 A 
BRANCH  36  37
ATOM     37  C   UNL     1      -4.768  -8.143  -1.983  1.00  0.00     0.031 A 
ATOM     38  C   UNL     1      -5.908  -8.380  -1.038  1.00  0.00     0.074 A 
ATOM     39  C   UNL     1      -4.992  -8.050  -3.306  1.00  0.00     0.049 A 
ATOM     40  N   UNL     1      -7.165  -8.630  -1.301  1.00  0.00    -0.248 NA
ATOM     41  C   UNL     1      -5.590  -8.329   0.398  1.00  0.00     0.031 C 
ATOM     42  C   UNL     1      -3.972  -7.769  -4.315  1.00  0.00     0.029 A 
ATOM     43  N   UNL     1      -6.152  -8.184  -4.027  1.00  0.00    -0.354 N 
ATOM     44  C   UNL     1      -7.785  -8.782  -0.069  1.00  0.00     0.074 A 
ATOM     45  C   UNL     1      -6.764  -8.611   0.944  1.00  0.00     0.031 C 
ATOM     46  C   UNL     1      -4.549  -7.757  -5.527  1.00  0.00     0.029 A 
ATOM     47  C   UNL     1      -5.968  -8.071  -5.383  1.00  0.00     0.049 A 
ATOM     48  H   UNL     1      -7.030  -8.346  -3.613  1.00  0.00     0.167 HD
ATOM     49  C   UNL     1      -9.090  -9.036   0.190  1.00  0.00     0.037 A 
ATOM     50  C   UNL     1      -6.843  -8.232  -6.394  1.00  0.00     0.037 A 
ATOM     51  C   UNL     1     -10.104  -9.192  -0.821  1.00  0.00     0.049 A 
ATOM     52  C   UNL     1      -8.275  -8.570  -6.081  1.00  0.00     0.074 A 
ATOM     53  C   UNL     1     -11.454  -9.452  -0.659  1.00  0.00     0.029 A 
ATOM     54  N   UNL     1      -9.876  -9.098  -2.186  1.00  0.00    -0.354 N 
ATOM     55  N   UNL     1      -8.851  -8.730  -4.915  1.00  0.00    -0.248 NA
ATOM     56  C   UNL     1      -9.177  -8.754  -7.227  1.00  0.00     0.031 C 
ATOM     57  C   UNL     1     -12.036  -9.551  -1.928  1.00  0.00     0.029 A 
ATOM     58  C   UNL     1     -11.057  -9.311  -2.879  1.00  0.00     0.049 A 
ATOM     59  H   UNL     1      -9.004  -8.907  -2.602  1.00  0.00     0.167 HD
ATOM     60  C   UNL     1     -10.182  -9.018  -5.182  1.00  0.00     0.074 A 
ATOM     61  C   UNL     1     -10.333  -8.993  -6.623  1.00  0.00     0.031 C 
ATOM     62  C   UNL     1     -11.188  -9.282  -4.313  1.00  0.00     0.037 A 
BRANCH  49  63
ATOM     63  C   UNL     1      -9.491  -9.192   1.626  1.00  0.00     0.064 A 
ATOM     64  C   UNL     1      -9.581  -8.091   2.490  1.00  0.00     0.173 A 
ATOM     65  C   UNL     1      -9.822 -10.456   2.136  1.00  0.00     0.173 A 
ATOM     66  F   UNL     1      -9.262  -6.862   2.055  1.00  0.00    -0.203 F 
ATOM     67  C   UNL     1      -9.967  -8.253   3.818  1.00  0.00     0.198 A 
ATOM     68  C   UNL     1     -10.231 -10.612   3.457  1.00  0.00     0.198 A 
ATOM     69  F   UNL     1      -9.755 -11.541   1.349  1.00  0.00    -0.203 F 
ATOM     70  F   UNL     1     -10.008  -7.192   4.637  1.00  0.00    -0.200 F 
ATOM     71  C   UNL     1     -10.298  -9.512   4.298  1.00  0.00     0.200 A 
ATOM     72  F   UNL     1     -10.559 -11.827   3.917  1.00  0.00    -0.200 F 
ATOM     73  F   UNL     1     -10.675  -9.665   5.575  1.00  0.00    -0.200 F 
ENDBRANCH  49  63
BRANCH  50  74
ATOM     74  C   UNL     1      -6.377  -8.103  -7.798  1.00  0.00     0.064 A 
ATOM     75  C   UNL     1      -6.776  -7.023  -8.597  1.00  0.00     0.173 A 
ATOM     76  C   UNL     1      -5.523  -9.059  -8.368  1.00  0.00     0.173 A 
ATOM     77  F   UNL     1      -7.613  -6.099  -8.104  1.00  0.00    -0.203 F 
ATOM     78  C   UNL     1      -6.346  -6.910  -9.918  1.00  0.00     0.198 A 
ATOM     79  C   UNL     1      -5.074  -8.931  -9.680  1.00  0.00     0.198 A 
ATOM     80  F   UNL     1      -5.116 -10.113  -7.646  1.00  0.00    -0.203 F 
ATOM     81  F   UNL     1      -6.773  -5.889 -10.673  1.00  0.00    -0.200 F 
ATOM     82  C   UNL     1      -5.490  -7.860 -10.456  1.00  0.00     0.200 A 
ATOM     83  F   UNL     1      -4.239  -9.845 -10.193  1.00  0.00    -0.200 F 
ATOM     84  F   UNL     1      -5.074  -7.747 -11.724  1.00  0.00    -0.200 F 
ENDBRANCH  50  74
BRANCH  62  85
ATOM     85  C   UNL     1     -12.544  -9.543  -4.897  1.00  0.00     0.064 A 
ATOM     86  C   UNL     1     -12.845 -10.753  -5.539  1.00  0.00     0.173 A 
ATOM     87  C   UNL     1     -13.564  -8.587  -4.780  1.00  0.00     0.173 A 
ATOM     88  F   UNL     1     -11.897 -11.691  -5.689  1.00  0.00    -0.203 F 
ATOM     89  C   UNL     1     -14.113 -10.987  -6.063  1.00  0.00     0.198 A 
ATOM     90  C   UNL     1     -14.838  -8.835  -5.284  1.00  0.00     0.198 A 
ATOM     91  F   UNL     1     -13.327  -7.416  -4.170  1.00  0.00    -0.203 F 
ATOM     92  F   UNL     1     -14.367 -12.134  -6.709  1.00  0.00    -0.200 F 
ATOM     93  C   UNL     1     -15.110 -10.032  -5.929  1.00  0.00     0.200 A 
ATOM     94  F   UNL     1     -15.803  -7.915  -5.146  1.00  0.00    -0.200 F 
ATOM     95  F   UNL     1     -16.331 -10.261  -6.431  1.00  0.00    -0.200 F 
ENDBRANCH  62  85
ENDBRANCH  36  37
ENDBRANCH  29  31
ENDBRANCH  28  29
ENDBRANCH  27  28
ENDBRANCH   1  27
TORSDOF 16
