REMARK SMILES Cn1ncc(C(=O)OCCOC(=O)c2ccc(-c3c4nc(c(-c5c(F)c(F)c(F)c(F)c5F)c5ccc([nH]5)c(-c5c(F)c(F)c(F)c(F)c5F)c5nc(c(-c6c(F)c(F)c(F)c(F)c6F)c6ccc3[nH]6)C=C5)C=C4)cc2)c1C(=O)N1CCN(S(C)(=O)=O)CC1
REMARK SMILES IDX 9 1 8 2 6 3 7 4 5 5 1 6 2 7 3 8 77 9 4 10 78 11 79 12 80 13
REMARK SMILES IDX 81 14 89 15 82 16 88 17 83 18 84 19 85 20 86 21 87 22 10 23
REMARK SMILES IDX 11 24 12 25 13 26 14 27 15 28 76 29 16 30 75 31 17 32 18 33
REMARK SMILES IDX 19 34 69 35 20 36 74 37 68 38 70 39 21 40 73 41 67 42 66 43
REMARK SMILES IDX 22 45 54 46 34 47 53 48 35 49 38 50 52 51 71 52 36 53 37 54
REMARK SMILES IDX 51 56 72 57 39 58 23 59 24 60 32 61 25 62 26 63 30 64 33 65
REMARK SMILES IDX 27 66 28 67 31 68 29 69 55 70 56 71 64 72 57 73 58 74 62 75
REMARK SMILES IDX 65 76 59 77 60 78 63 79 61 80 40 81 41 82 49 83 42 84 43 85
REMARK SMILES IDX 47 86 50 87 44 88 45 89 48 90 46 91
REMARK H PARENT 70 44 38 55
REMARK Flexibility Score: inf
ROOT
ATOM      1  C   UNL     1       3.701  -3.400  -0.130  1.00  0.00     0.275 C 
ENDROOT
BRANCH   1   2
ATOM      2  O   UNL     1       2.513  -2.584  -0.183  1.00  0.00    -0.458 OA
BRANCH   2   3
ATOM      3  C   UNL     1       2.433  -1.577   0.731  1.00  0.00     0.342 C 
ATOM      4  O   UNL     1       3.328  -1.279   1.513  1.00  0.00    -0.246 OA
BRANCH   3   5
ATOM      5  C   UNL     1       1.242  -0.753   0.600  1.00  0.00     0.111 A 
ATOM      6  C   UNL     1      -2.201   0.346   0.422  1.00  0.00     0.174 C 
ATOM      7  N   UNL     1      -0.783   0.079   0.422  1.00  0.00    -0.262 N 
ATOM      8  N   UNL     1       0.005   1.158   0.578  1.00  0.00    -0.180 NA
ATOM      9  C   UNL     1      -0.095  -1.122   0.415  1.00  0.00     0.140 A 
ATOM     10  C   UNL     1       1.208   0.643   0.781  1.00  0.00     0.151 A 
BRANCH   9  11
ATOM     11  C   UNL     1      -0.604  -2.481   0.445  1.00  0.00     0.273 C 
ATOM     12  O   UNL     1       0.115  -3.445   0.709  1.00  0.00    -0.267 OA
ATOM     13  N   UNL     1      -1.976  -2.668   0.383  1.00  0.00    -0.335 N 
ATOM     14  C   UNL     1      -2.522  -3.651   1.315  1.00  0.00     0.136 C 
ATOM     15  C   UNL     1      -2.711  -2.553  -0.878  1.00  0.00     0.136 C 
ATOM     16  C   UNL     1      -3.986  -3.355   1.620  1.00  0.00     0.123 C 
ATOM     17  C   UNL     1      -4.218  -2.322  -0.651  1.00  0.00     0.123 C 
ATOM     18  N   UNL     1      -4.780  -3.245   0.371  1.00  0.00    -0.199 NA
BRANCH  18  19
ATOM     19  S   UNL     1      -5.781  -4.507  -0.093  1.00  0.00     0.211 S 
ATOM     20  C   UNL     1      -4.656  -5.642  -0.877  1.00  0.00     0.176 C 
ATOM     21  O   UNL     1      -6.288  -5.141   1.102  1.00  0.00    -0.213 OA
ATOM     22  O   UNL     1      -6.674  -4.002  -1.115  1.00  0.00    -0.213 OA
ENDBRANCH  18  19
ENDBRANCH   9  11
ENDBRANCH   3   5
ENDBRANCH   2   3
ENDBRANCH   1   2
BRANCH   1  23
ATOM     23  C   UNL     1       4.579  -3.162  -1.358  1.00  0.00     0.275 C 
BRANCH  23  24
ATOM     24  O   UNL     1       5.043  -1.799  -1.375  1.00  0.00    -0.458 OA
BRANCH  24  25
ATOM     25  C   UNL     1       4.476  -1.004  -2.311  1.00  0.00     0.338 C 
ATOM     26  O   UNL     1       3.681  -1.316  -3.180  1.00  0.00    -0.246 OA
BRANCH  25  27
ATOM     27  C   UNL     1       4.870   0.389  -2.062  1.00  0.00     0.060 A 
ATOM     28  C   UNL     1       4.187   1.082  -1.069  1.00  0.00     0.016 A 
ATOM     29  C   UNL     1       5.779   1.053  -2.878  1.00  0.00     0.016 A 
ATOM     30  C   UNL     1       4.341   2.456  -0.925  1.00  0.00     0.010 A 
ATOM     31  C   UNL     1       6.001   2.423  -2.679  1.00  0.00     0.010 A 
ATOM     32  C   UNL     1       5.261   3.146  -1.721  1.00  0.00    -0.014 A 
BRANCH  32  33
ATOM     33  C   UNL     1       5.400   4.623  -1.587  1.00  0.00     0.031 A 
ATOM     34  C   UNL     1       5.108   5.514  -2.764  1.00  0.00     0.074 A 
ATOM     35  C   UNL     1       5.755   5.175  -0.409  1.00  0.00     0.049 A 
ATOM     36  N   UNL     1       5.338   6.795  -2.914  1.00  0.00    -0.248 NA
ATOM     37  C   UNL     1       4.484   4.877  -3.933  1.00  0.00     0.031 C 
ATOM     38  C   UNL     1       6.001   4.441   0.833  1.00  0.00     0.029 A 
ATOM     39  N   UNL     1       5.969   6.488  -0.063  1.00  0.00    -0.354 N 
ATOM     40  C   UNL     1       4.940   7.102  -4.209  1.00  0.00     0.074 A 
ATOM     41  C   UNL     1       4.458   5.875  -4.805  1.00  0.00     0.031 C 
ATOM     42  C   UNL     1       6.302   5.311   1.808  1.00  0.00     0.029 A 
ATOM     43  C   UNL     1       6.362   6.655   1.243  1.00  0.00     0.049 A 
ATOM     44  H   UNL     1       5.851   7.237  -0.691  1.00  0.00     0.167 HD
ATOM     45  C   UNL     1       4.976   8.301  -4.840  1.00  0.00     0.037 A 
ATOM     46  C   UNL     1       6.774   7.755   1.901  1.00  0.00     0.037 A 
ATOM     47  C   UNL     1       5.402   9.530  -4.223  1.00  0.00     0.049 A 
ATOM     48  C   UNL     1       6.853   9.063   1.164  1.00  0.00     0.074 A 
ATOM     49  C   UNL     1       5.460  10.799  -4.774  1.00  0.00     0.029 A 
ATOM     50  N   UNL     1       5.831   9.647  -2.909  1.00  0.00    -0.354 N 
ATOM     51  N   UNL     1       6.530   9.335  -0.077  1.00  0.00    -0.248 NA
ATOM     52  C   UNL     1       7.375  10.215   1.914  1.00  0.00     0.031 C 
ATOM     53  C   UNL     1       5.962  11.675  -3.807  1.00  0.00     0.029 A 
ATOM     54  C   UNL     1       6.172  10.963  -2.637  1.00  0.00     0.049 A 
ATOM     55  H   UNL     1       5.884   8.905  -2.264  1.00  0.00     0.167 HD
ATOM     56  C   UNL     1       6.795  10.686  -0.253  1.00  0.00     0.074 A 
ATOM     57  C   UNL     1       7.284  11.185   1.016  1.00  0.00     0.031 C 
ATOM     58  C   UNL     1       6.652  11.444  -1.368  1.00  0.00     0.037 A 
BRANCH  45  59
ATOM     59  C   UNL     1       4.577   8.338  -6.287  1.00  0.00     0.064 A 
ATOM     60  C   UNL     1       3.244   8.195  -6.698  1.00  0.00     0.173 A 
ATOM     61  C   UNL     1       5.548   8.561  -7.277  1.00  0.00     0.173 A 
ATOM     62  F   UNL     1       2.280   7.968  -5.794  1.00  0.00    -0.203 F 
ATOM     63  C   UNL     1       2.902   8.248  -8.048  1.00  0.00     0.198 A 
ATOM     64  C   UNL     1       5.198   8.643  -8.622  1.00  0.00     0.198 A 
ATOM     65  F   UNL     1       6.838   8.710  -6.938  1.00  0.00    -0.203 F 
ATOM     66  F   UNL     1       1.628   8.063  -8.421  1.00  0.00    -0.200 F 
ATOM     67  C   UNL     1       3.877   8.479  -9.007  1.00  0.00     0.200 A 
ATOM     68  F   UNL     1       6.140   8.879  -9.545  1.00  0.00    -0.200 F 
ATOM     69  F   UNL     1       3.543   8.538 -10.304  1.00  0.00    -0.200 F 
ENDBRANCH  45  59
BRANCH  46  70
ATOM     70  C   UNL     1       7.194   7.657   3.325  1.00  0.00     0.064 A 
ATOM     71  C   UNL     1       6.460   8.282   4.341  1.00  0.00     0.173 A 
ATOM     72  C   UNL     1       8.345   6.944   3.697  1.00  0.00     0.173 A 
ATOM     73  F   UNL     1       5.370   9.001   4.034  1.00  0.00    -0.203 F 
ATOM     74  C   UNL     1       6.866   8.208   5.673  1.00  0.00     0.198 A 
ATOM     75  C   UNL     1       8.731   6.842   5.031  1.00  0.00     0.198 A 
ATOM     76  F   UNL     1       9.087   6.331   2.763  1.00  0.00    -0.203 F 
ATOM     77  F   UNL     1       6.172   8.855   6.619  1.00  0.00    -0.200 F 
ATOM     78  C   UNL     1       7.996   7.482   6.017  1.00  0.00     0.200 A 
ATOM     79  F   UNL     1       9.815   6.128   5.360  1.00  0.00    -0.200 F 
ATOM     80  F   UNL     1       8.382   7.406   7.298  1.00  0.00    -0.200 F 
ENDBRANCH  46  70
BRANCH  58  81
ATOM     81  C   UNL     1       7.000  12.899  -1.255  1.00  0.00     0.064 A 
ATOM     82  C   UNL     1       8.332  13.330  -1.158  1.00  0.00     0.173 A 
ATOM     83  C   UNL     1       5.992  13.874  -1.276  1.00  0.00     0.173 A 
ATOM     84  F   UNL     1       9.330  12.435  -1.117  1.00  0.00    -0.203 F 
ATOM     85  C   UNL     1       8.639  14.684  -1.062  1.00  0.00     0.198 A 
ATOM     86  C   UNL     1       6.305  15.229  -1.209  1.00  0.00     0.198 A 
ATOM     87  F   UNL     1       4.704  13.513  -1.373  1.00  0.00    -0.203 F 
ATOM     88  F   UNL     1       9.914  15.072  -0.923  1.00  0.00    -0.200 F 
ATOM     89  C   UNL     1       7.627  15.632  -1.095  1.00  0.00     0.200 A 
ATOM     90  F   UNL     1       5.327  16.144  -1.253  1.00  0.00    -0.200 F 
ATOM     91  F   UNL     1       7.925  16.936  -1.008  1.00  0.00    -0.200 F 
ENDBRANCH  58  81
ENDBRANCH  32  33
ENDBRANCH  25  27
ENDBRANCH  24  25
ENDBRANCH  23  24
ENDBRANCH   1  23
TORSDOF 13
