REMARK SMILES C[C@H](NC(=O)N1CC[C@H](C(=O)OCCOC(=O)c2ccc(-c3c4nc(c(-c5c(F)c(F)c(F)c(F)c5F)c5ccc([nH]5)c(-c5c(F)c(F)c(F)c(F)c5F)c5nc(c(-c6c(F)c(F)c(F)c(F)c6F)c6ccc3[nH]6)C=C5)C=C4)cc2)[C@@H]1C)[C@@H]1CCCO1
REMARK SMILES IDX 13 1 12 2 10 3 11 4 9 5 6 6 7 7 81 8 8 9 82 10 4 11 3 12
REMARK SMILES IDX 5 14 2 15 1 16 83 17 84 18 87 19 85 20 86 21 14 22 15 23
REMARK SMILES IDX 16 24 17 25 18 26 19 27 80 28 20 29 79 30 21 31 22 32 23 33
REMARK SMILES IDX 73 34 24 35 78 36 72 37 74 38 25 39 77 40 71 41 70 42 26 44
REMARK SMILES IDX 58 45 38 46 57 47 39 48 42 49 56 50 75 51 40 52 41 53 55 55
REMARK SMILES IDX 76 56 43 57 27 58 28 59 36 60 29 61 30 62 34 63 37 64 31 65
REMARK SMILES IDX 32 66 35 67 33 68 59 69 60 70 68 71 61 72 62 73 66 74 69 75
REMARK SMILES IDX 63 76 64 77 67 78 65 79 44 80 45 81 53 82 46 83 47 84 51 85
REMARK SMILES IDX 54 86 48 87 49 88 52 89 50 90
REMARK H PARENT 3 13 74 43 42 54
REMARK Flexibility Score: inf
ROOT
ATOM      1  C   UNL     1       5.943  -6.180   0.574  1.00  0.00     0.274 C 
ENDROOT
BRANCH   1   2
ATOM      2  O   UNL     1       4.612  -5.759   0.195  1.00  0.00    -0.462 OA
BRANCH   2   3
ATOM      3  C   UNL     1       3.939  -5.012   1.118  1.00  0.00     0.311 C 
ATOM      4  O   UNL     1       4.416  -4.614   2.172  1.00  0.00    -0.252 OA
BRANCH   3   5
ATOM      5  C   UNL     1       2.490  -4.799   0.692  1.00  0.00     0.123 C 
ATOM      6  N   UNL     1       1.641  -2.554   0.873  1.00  0.00    -0.321 N 
ATOM      7  C   UNL     1       1.653  -3.152   2.201  1.00  0.00     0.122 C 
ATOM      8  C   UNL     1       2.159  -3.513  -0.109  1.00  0.00     0.098 C 
ATOM      9  C   UNL     1       1.619  -4.649   1.943  1.00  0.00     0.039 C 
ATOM     10  C   UNL     1       3.310  -2.998  -0.961  1.00  0.00     0.032 C 
BRANCH   6  11
ATOM     11  C   UNL     1       1.265  -1.255   0.771  1.00  0.00     0.317 C 
ATOM     12  N   UNL     1       0.981  -0.627  -0.381  1.00  0.00    -0.333 N 
ATOM     13  H   UNL     1       1.427   0.249  -0.426  1.00  0.00     0.165 HD
ATOM     14  O   UNL     1       1.222  -0.541   1.780  1.00  0.00    -0.249 OA
BRANCH  12  15
ATOM     15  C   UNL     1       0.185  -0.885  -1.603  1.00  0.00     0.109 C 
ATOM     16  C   UNL     1       0.706  -1.929  -2.573  1.00  0.00     0.034 C 
BRANCH  15  17
ATOM     17  C   UNL     1      -1.350  -0.926  -1.325  1.00  0.00     0.140 C 
ATOM     18  C   UNL     1      -2.193  -1.962  -2.075  1.00  0.00     0.036 C 
ATOM     19  O   UNL     1      -1.901   0.372  -1.688  1.00  0.00    -0.376 OA
ATOM     20  C   UNL     1      -3.456  -1.210  -2.423  1.00  0.00     0.031 C 
ATOM     21  C   UNL     1      -2.919   0.176  -2.676  1.00  0.00     0.160 C 
ENDBRANCH  15  17
ENDBRANCH  12  15
ENDBRANCH   6  11
ENDBRANCH   3   5
ENDBRANCH   2   3
ENDBRANCH   1   2
BRANCH   1  22
ATOM     22  C   UNL     1       7.010  -5.307  -0.082  1.00  0.00     0.275 C 
BRANCH  22  23
ATOM     23  O   UNL     1       6.860  -3.956   0.382  1.00  0.00    -0.458 OA
BRANCH  23  24
ATOM     24  C   UNL     1       7.110  -2.992  -0.530  1.00  0.00     0.338 C 
ATOM     25  O   UNL     1       7.563  -3.156  -1.656  1.00  0.00    -0.246 OA
BRANCH  24  26
ATOM     26  C   UNL     1       6.694  -1.667  -0.013  1.00  0.00     0.060 A 
ATOM     27  C   UNL     1       5.665  -1.539   0.925  1.00  0.00     0.016 A 
ATOM     28  C   UNL     1       7.254  -0.521  -0.577  1.00  0.00     0.016 A 
ATOM     29  C   UNL     1       5.122  -0.288   1.209  1.00  0.00     0.010 A 
ATOM     30  C   UNL     1       6.796   0.741  -0.188  1.00  0.00     0.010 A 
ATOM     31  C   UNL     1       5.706   0.875   0.692  1.00  0.00    -0.014 A 
BRANCH  31  32
ATOM     32  C   UNL     1       5.219   2.233   1.066  1.00  0.00     0.031 A 
ATOM     33  C   UNL     1       4.881   3.235  -0.004  1.00  0.00     0.074 A 
ATOM     34  C   UNL     1       5.143   2.602   2.360  1.00  0.00     0.049 A 
ATOM     35  N   UNL     1       4.793   4.539   0.075  1.00  0.00    -0.248 NA
ATOM     36  C   UNL     1       4.632   2.699  -1.351  1.00  0.00     0.031 C 
ATOM     37  C   UNL     1       5.368   1.730   3.513  1.00  0.00     0.029 A 
ATOM     38  N   UNL     1       4.877   3.828   2.923  1.00  0.00    -0.354 N 
ATOM     39  C   UNL     1       4.550   4.983  -1.218  1.00  0.00     0.074 A 
ATOM     40  C   UNL     1       4.494   3.809  -2.064  1.00  0.00     0.031 C 
ATOM     41  C   UNL     1       5.213   2.437   4.640  1.00  0.00     0.029 A 
ATOM     42  C   UNL     1       5.000   3.835   4.291  1.00  0.00     0.049 A 
ATOM     43  H   UNL     1       4.624   4.622   2.398  1.00  0.00     0.167 HD
ATOM     44  C   UNL     1       4.400   6.258  -1.653  1.00  0.00     0.037 A 
ATOM     45  C   UNL     1       5.021   4.854   5.170  1.00  0.00     0.037 A 
ATOM     46  C   UNL     1       4.394   7.413  -0.789  1.00  0.00     0.049 A 
ATOM     47  C   UNL     1       4.908   6.262   4.663  1.00  0.00     0.074 A 
ATOM     48  C   UNL     1       4.227   8.745  -1.129  1.00  0.00     0.029 A 
ATOM     49  N   UNL     1       4.542   7.369   0.589  1.00  0.00    -0.354 N 
ATOM     50  N   UNL     1       4.769   6.688   3.432  1.00  0.00    -0.248 NA
ATOM     51  C   UNL     1       4.982   7.332   5.666  1.00  0.00     0.031 C 
ATOM     52  C   UNL     1       4.315   9.510   0.039  1.00  0.00     0.029 A 
ATOM     53  C   UNL     1       4.486   8.651   1.113  1.00  0.00     0.049 A 
ATOM     54  H   UNL     1       4.668   6.548   1.118  1.00  0.00     0.167 HD
ATOM     55  C   UNL     1       4.719   8.072   3.512  1.00  0.00     0.074 A 
ATOM     56  C   UNL     1       4.832   8.414   4.915  1.00  0.00     0.031 C 
ATOM     57  C   UNL     1       4.593   8.976   2.511  1.00  0.00     0.037 A 
BRANCH  44  58
ATOM     58  C   UNL     1       4.271   6.489  -3.131  1.00  0.00     0.064 A 
ATOM     59  C   UNL     1       3.110   6.154  -3.842  1.00  0.00     0.173 A 
ATOM     60  C   UNL     1       5.311   7.119  -3.836  1.00  0.00     0.173 A 
ATOM     61  F   UNL     1       2.091   5.542  -3.222  1.00  0.00    -0.203 F 
ATOM     62  C   UNL     1       3.002   6.424  -5.206  1.00  0.00     0.198 A 
ATOM     63  C   UNL     1       5.188   7.413  -5.191  1.00  0.00     0.198 A 
ATOM     64  F   UNL     1       6.441   7.468  -3.203  1.00  0.00    -0.203 F 
ATOM     65  F   UNL     1       1.898   6.061  -5.873  1.00  0.00    -0.200 F 
ATOM     66  C   UNL     1       4.036   7.061  -5.876  1.00  0.00     0.200 A 
ATOM     67  F   UNL     1       6.183   8.043  -5.832  1.00  0.00    -0.200 F 
ATOM     68  F   UNL     1       3.924   7.332  -7.184  1.00  0.00    -0.200 F 
ENDBRANCH  44  58
BRANCH  45  69
ATOM     69  C   UNL     1       5.224   4.570   6.614  1.00  0.00     0.064 A 
ATOM     70  C   UNL     1       4.193   4.770   7.539  1.00  0.00     0.173 A 
ATOM     71  C   UNL     1       6.443   4.063   7.092  1.00  0.00     0.173 A 
ATOM     72  F   UNL     1       3.021   5.281   7.135  1.00  0.00    -0.203 F 
ATOM     73  C   UNL     1       4.372   4.476   8.889  1.00  0.00     0.198 A 
ATOM     74  C   UNL     1       6.610   3.738   8.435  1.00  0.00     0.198 A 
ATOM     75  F   UNL     1       7.464   3.856   6.247  1.00  0.00    -0.203 F 
ATOM     76  F   UNL     1       3.382   4.712   9.761  1.00  0.00    -0.200 F 
ATOM     77  C   UNL     1       5.576   3.949   9.334  1.00  0.00     0.200 A 
ATOM     78  F   UNL     1       7.769   3.213   8.857  1.00  0.00    -0.200 F 
ATOM     79  F   UNL     1       5.742   3.652  10.630  1.00  0.00    -0.200 F 
ENDBRANCH  45  69
BRANCH  57  80
ATOM     80  C   UNL     1       4.524  10.422   2.903  1.00  0.00     0.064 A 
ATOM     81  C   UNL     1       5.660  11.122   3.335  1.00  0.00     0.173 A 
ATOM     82  C   UNL     1       3.311  11.121   2.816  1.00  0.00     0.173 A 
ATOM     83  F   UNL     1       6.838  10.492   3.453  1.00  0.00    -0.203 F 
ATOM     84  C   UNL     1       5.577  12.467   3.688  1.00  0.00     0.198 A 
ATOM     85  C   UNL     1       3.239  12.472   3.143  1.00  0.00     0.198 A 
ATOM     86  F   UNL     1       2.198  10.496   2.404  1.00  0.00    -0.203 F 
ATOM     87  F   UNL     1       6.664  13.106   4.141  1.00  0.00    -0.200 F 
ATOM     88  C   UNL     1       4.369  13.141   3.585  1.00  0.00     0.200 A 
ATOM     89  F   UNL     1       2.073  13.125   3.034  1.00  0.00    -0.200 F 
ATOM     90  F   UNL     1       4.294  14.437   3.920  1.00  0.00    -0.200 F 
ENDBRANCH  57  80
ENDBRANCH  31  32
ENDBRANCH  24  26
ENDBRANCH  23  24
ENDBRANCH  22  23
ENDBRANCH   1  22
TORSDOF 14
