REMARK SMILES Cc1cccc(-c2ccc(Cl)c(C(=O)OCCOC(=O)c3ccc(-c4c5nc(c(-c6c(F)c(F)c(F)c(F)c6F)c6ccc([nH]6)c(-c6c(F)c(F)c(F)c(F)c6F)c6nc(c(-c7c(F)c(F)c(F)c(F)c7F)c7ccc4[nH]7)C=C6)C=C5)cc3)c2)c1
REMARK SMILES IDX 17 1 16 2 15 3 13 4 14 5 12 6 7 7 8 8 84 9 9 10 10 11 11 12
REMARK SMILES IDX 6 13 1 14 2 15 3 16 85 17 4 18 5 19 18 20 19 21 20 22 21 23
REMARK SMILES IDX 22 24 83 25 23 26 82 27 24 28 25 29 26 30 76 31 27 32 81 33
REMARK SMILES IDX 75 34 77 35 28 36 80 37 74 38 73 39 29 41 61 42 41 43 60 44
REMARK SMILES IDX 42 45 45 46 59 47 78 48 43 49 44 50 58 52 79 53 46 54 30 55
REMARK SMILES IDX 31 56 39 57 32 58 33 59 37 60 40 61 34 62 35 63 38 64 36 65
REMARK SMILES IDX 62 66 63 67 71 68 64 69 65 70 69 71 72 72 66 73 67 74 70 75
REMARK SMILES IDX 68 76 47 77 48 78 56 79 49 80 50 81 54 82 57 83 51 84 52 85
REMARK SMILES IDX 55 86 53 87
REMARK H PARENT 77 40 45 51
REMARK Flexibility Score: inf
ROOT
ATOM      1  C   UNL     1      -8.048   4.445   1.766  1.00  0.00     0.275 C 
ENDROOT
BRANCH   1   2
ATOM      2  C   UNL     1      -7.017   5.249   0.960  1.00  0.00     0.275 C 
BRANCH   2   3
ATOM      3  O   UNL     1      -6.055   4.452   0.236  1.00  0.00    -0.458 OA
BRANCH   3   4
ATOM      4  C   UNL     1      -4.872   5.107   0.082  1.00  0.00     0.339 C 
ATOM      5  O   UNL     1      -4.625   6.208   0.557  1.00  0.00    -0.246 OA
BRANCH   4   6
ATOM      6  C   UNL     1      -3.849   4.426  -0.742  1.00  0.00     0.079 A 
ATOM      7  C   UNL     1      -2.084   2.718  -0.924  1.00  0.00    -0.017 A 
ATOM      8  C   UNL     1      -1.473   3.533  -1.896  1.00  0.00     0.010 A 
ATOM      9  C   UNL     1      -3.314   3.167  -0.388  1.00  0.00     0.026 A 
ATOM     10  C   UNL     1      -2.036   4.740  -2.308  1.00  0.00     0.022 A 
ATOM     11  C   UNL     1      -3.216   5.193  -1.729  1.00  0.00     0.055 A 
ATOM     12  Cl  UNL     1      -3.843   6.700  -2.304  1.00  0.00    -0.083 Cl
BRANCH   7  13
ATOM     13  C   UNL     1      -1.399   1.465  -0.503  1.00  0.00    -0.018 A 
ATOM     14  C   UNL     1       2.210   0.213  -0.015  1.00  0.00     0.044 C 
ATOM     15  C   UNL     1       0.710   0.236  -0.084  1.00  0.00    -0.051 A 
ATOM     16  C   UNL     1      -0.013  -0.947   0.062  1.00  0.00     0.003 A 
ATOM     17  C   UNL     1       0.010   1.426  -0.353  1.00  0.00     0.012 A 
ATOM     18  C   UNL     1      -1.404  -0.932  -0.034  1.00  0.00     0.001 A 
ATOM     19  C   UNL     1      -2.090   0.261  -0.310  1.00  0.00     0.009 A 
ENDBRANCH   7  13
ENDBRANCH   4   6
ENDBRANCH   3   4
ENDBRANCH   2   3
ENDBRANCH   1   2
BRANCH   1  20
ATOM     20  O   UNL     1      -7.702   3.100   2.201  1.00  0.00    -0.458 OA
BRANCH  20  21
ATOM     21  C   UNL     1      -6.480   2.637   2.556  1.00  0.00     0.338 C 
ATOM     22  O   UNL     1      -6.138   1.474   2.367  1.00  0.00    -0.246 OA
BRANCH  21  23
ATOM     23  C   UNL     1      -5.544   3.597   3.154  1.00  0.00     0.060 A 
ATOM     24  C   UNL     1      -4.168   3.475   2.895  1.00  0.00     0.016 A 
ATOM     25  C   UNL     1      -6.049   4.677   3.864  1.00  0.00     0.016 A 
ATOM     26  C   UNL     1      -3.303   4.500   3.241  1.00  0.00     0.010 A 
ATOM     27  C   UNL     1      -5.244   5.764   4.044  1.00  0.00     0.010 A 
ATOM     28  C   UNL     1      -3.866   5.638   3.806  1.00  0.00    -0.014 A 
BRANCH  28  29
ATOM     29  C   UNL     1      -3.093   6.624   4.531  1.00  0.00     0.031 A 
ATOM     30  C   UNL     1      -2.387   7.689   3.816  1.00  0.00     0.074 A 
ATOM     31  C   UNL     1      -3.285   6.478   5.862  1.00  0.00     0.049 A 
ATOM     32  N   UNL     1      -1.381   8.333   4.284  1.00  0.00    -0.248 NA
ATOM     33  C   UNL     1      -2.712   8.090   2.450  1.00  0.00     0.031 C 
ATOM     34  C   UNL     1      -3.019   7.328   7.003  1.00  0.00     0.029 A 
ATOM     35  N   UNL     1      -3.736   5.276   6.454  1.00  0.00    -0.354 N 
ATOM     36  C   UNL     1      -1.226   9.459   3.496  1.00  0.00     0.074 A 
ATOM     37  C   UNL     1      -1.913   9.148   2.273  1.00  0.00     0.031 C 
ATOM     38  C   UNL     1      -2.948   6.543   8.101  1.00  0.00     0.029 A 
ATOM     39  C   UNL     1      -3.042   5.154   7.654  1.00  0.00     0.049 A 
ATOM     40  H   UNL     1      -4.406   4.652   6.091  1.00  0.00     0.167 HD
ATOM     41  C   UNL     1      -0.747  10.591   4.093  1.00  0.00     0.037 A 
ATOM     42  C   UNL     1      -2.048   4.216   7.692  1.00  0.00     0.037 A 
ATOM     43  C   UNL     1      -0.411  10.273   5.484  1.00  0.00     0.049 A 
ATOM     44  C   UNL     1      -0.711   4.907   7.803  1.00  0.00     0.074 A 
ATOM     45  C   UNL     1      -1.130  10.425   6.659  1.00  0.00     0.029 A 
ATOM     46  N   UNL     1       0.574   9.326   5.741  1.00  0.00    -0.354 N 
ATOM     47  N   UNL     1      -0.427   6.060   7.254  1.00  0.00    -0.248 NA
ATOM     48  C   UNL     1       0.359   4.395   8.647  1.00  0.00     0.031 C 
ATOM     49  C   UNL     1      -0.625   9.481   7.597  1.00  0.00     0.029 A 
ATOM     50  C   UNL     1       0.390   8.760   6.989  1.00  0.00     0.049 A 
ATOM     51  H   UNL     1       1.302   9.092   5.121  1.00  0.00     0.167 HD
ATOM     52  C   UNL     1       0.776   6.499   7.740  1.00  0.00     0.074 A 
ATOM     53  C   UNL     1       1.236   5.410   8.588  1.00  0.00     0.031 C 
ATOM     54  C   UNL     1       1.302   7.731   7.464  1.00  0.00     0.037 A 
BRANCH  41  55
ATOM     55  C   UNL     1      -0.884  12.020   3.590  1.00  0.00     0.064 A 
ATOM     56  C   UNL     1      -0.719  13.101   4.490  1.00  0.00     0.173 A 
ATOM     57  C   UNL     1      -1.213  12.413   2.277  1.00  0.00     0.173 A 
ATOM     58  F   UNL     1      -0.333  12.903   5.758  1.00  0.00    -0.203 F 
ATOM     59  C   UNL     1      -0.938  14.435   4.130  1.00  0.00     0.198 A 
ATOM     60  C   UNL     1      -1.448  13.749   1.919  1.00  0.00     0.198 A 
ATOM     61  F   UNL     1      -1.282  11.538   1.272  1.00  0.00    -0.203 F 
ATOM     62  F   UNL     1      -0.781  15.405   5.042  1.00  0.00    -0.200 F 
ATOM     63  C   UNL     1      -1.319  14.759   2.847  1.00  0.00     0.200 A 
ATOM     64  F   UNL     1      -1.796  14.046   0.658  1.00  0.00    -0.200 F 
ATOM     65  F   UNL     1      -1.537  16.035   2.501  1.00  0.00    -0.200 F 
ENDBRANCH  41  55
BRANCH  42  66
ATOM     66  C   UNL     1      -2.340   2.971   6.892  1.00  0.00     0.064 A 
ATOM     67  C   UNL     1      -3.591   2.326   7.067  1.00  0.00     0.173 A 
ATOM     68  C   UNL     1      -1.573   2.547   5.799  1.00  0.00     0.173 A 
ATOM     69  F   UNL     1      -4.382   2.664   8.099  1.00  0.00    -0.203 F 
ATOM     70  C   UNL     1      -4.092   1.406   6.144  1.00  0.00     0.198 A 
ATOM     71  C   UNL     1      -2.065   1.596   4.891  1.00  0.00     0.198 A 
ATOM     72  F   UNL     1      -0.376   3.096   5.553  1.00  0.00    -0.203 F 
ATOM     73  F   UNL     1      -5.337   0.927   6.285  1.00  0.00    -0.200 F 
ATOM     74  C   UNL     1      -3.331   1.047   5.050  1.00  0.00     0.200 A 
ATOM     75  F   UNL     1      -1.346   1.274   3.806  1.00  0.00    -0.200 F 
ATOM     76  F   UNL     1      -3.830   0.217   4.122  1.00  0.00    -0.200 F 
ENDBRANCH  42  66
BRANCH  54  77
ATOM     77  C   UNL     1       2.740   8.127   7.688  1.00  0.00     0.064 A 
ATOM     78  C   UNL     1       3.799   7.207   7.716  1.00  0.00     0.173 A 
ATOM     79  C   UNL     1       3.117   9.493   7.693  1.00  0.00     0.173 A 
ATOM     80  F   UNL     1       3.592   5.892   7.566  1.00  0.00    -0.203 F 
ATOM     81  C   UNL     1       5.126   7.618   7.830  1.00  0.00     0.198 A 
ATOM     82  C   UNL     1       4.447   9.898   7.710  1.00  0.00     0.198 A 
ATOM     83  F   UNL     1       2.212  10.482   7.641  1.00  0.00    -0.203 F 
ATOM     84  F   UNL     1       6.094   6.697   7.925  1.00  0.00    -0.200 F 
ATOM     85  C   UNL     1       5.451   8.960   7.808  1.00  0.00     0.200 A 
ATOM     86  F   UNL     1       4.747  11.200   7.607  1.00  0.00    -0.200 F 
ATOM     87  F   UNL     1       6.732   9.347   7.854  1.00  0.00    -0.200 F 
ENDBRANCH  54  77
ENDBRANCH  28  29
ENDBRANCH  21  23
ENDBRANCH  20  21
ENDBRANCH   1  20
TORSDOF 12
