REMARK SMILES Cc1nn(C)c(N[C@@H]2C=C[C@H](C(=O)OCCOC(=O)c3ccc(-c4c5nc(c(-c6c(F)c(F)c(F)c(F)c6F)c6ccc([nH]6)c(-c6c(F)c(F)c(F)c(F)c6F)c6nc(c(-c7c(F)c(F)c(F)c(F)c7F)c7ccc4[nH]7)C=C6)C=C5)cc3)C2)c1C#N
REMARK SMILES IDX 15 1 14 2 12 3 13 4 11 5 8 6 9 7 83 8 10 9 7 10 6 12 1 13
REMARK SMILES IDX 2 14 3 15 84 16 4 17 5 18 85 19 86 20 16 21 17 22 18 23
REMARK SMILES IDX 19 24 20 25 21 26 82 27 22 28 81 29 23 30 24 31 25 32 75 33
REMARK SMILES IDX 26 34 80 35 74 36 76 37 27 38 79 39 73 40 72 41 28 43 60 44
REMARK SMILES IDX 40 45 59 46 41 47 44 48 58 49 77 50 42 51 43 52 57 54 78 55
REMARK SMILES IDX 45 56 29 57 30 58 38 59 31 60 32 61 36 62 39 63 33 64 34 65
REMARK SMILES IDX 37 66 35 67 61 68 62 69 70 70 63 71 64 72 68 73 71 74 65 75
REMARK SMILES IDX 66 76 69 77 67 78 46 79 47 80 55 81 48 82 49 83 53 84 56 85
REMARK SMILES IDX 50 86 51 87 54 88 52 89
REMARK H PARENT 7 11 76 42 44 53
REMARK Flexibility Score: inf
ROOT
ATOM      1  C   UNL     1      -4.732 -10.092   1.733  1.00  0.00     0.274 C 
ENDROOT
BRANCH   1   2
ATOM      2  O   UNL     1      -3.596  -9.485   1.075  1.00  0.00    -0.462 OA
BRANCH   2   3
ATOM      3  C   UNL     1      -3.407  -8.153   1.325  1.00  0.00     0.312 C 
ATOM      4  O   UNL     1      -4.146  -7.481   2.038  1.00  0.00    -0.252 OA
BRANCH   3   5
ATOM      5  C   UNL     1      -2.196  -7.586   0.589  1.00  0.00     0.124 C 
ATOM      6  C   UNL     1      -2.672  -5.379  -0.384  1.00  0.00     0.104 C 
ATOM      7  C   UNL     1      -2.704  -6.441  -1.417  1.00  0.00    -0.006 C 
ATOM      8  C   UNL     1      -2.083  -6.070   0.852  1.00  0.00     0.048 C 
ATOM      9  C   UNL     1      -2.369  -7.636  -0.907  1.00  0.00    -0.014 C 
BRANCH   6  10
ATOM     10  N   UNL     1      -3.886  -4.609  -0.173  1.00  0.00    -0.363 N 
ATOM     11  H   UNL     1      -3.673  -3.674   0.053  1.00  0.00     0.162 HD
BRANCH  10  12
ATOM     12  C   UNL     1      -5.247  -4.808  -0.197  1.00  0.00     0.142 A 
ATOM     13  C   UNL     1      -8.831  -3.835   0.035  1.00  0.00     0.070 C 
ATOM     14  C   UNL     1      -7.474  -4.420  -0.071  1.00  0.00     0.079 A 
ATOM     15  N   UNL     1      -7.349  -5.738  -0.135  1.00  0.00    -0.175 NA
ATOM     16  C   UNL     1      -6.213  -3.795  -0.144  1.00  0.00     0.117 A 
ATOM     17  N   UNL     1      -6.021  -5.954  -0.275  1.00  0.00    -0.251 N 
ATOM     18  C   UNL     1      -5.724  -7.329  -0.528  1.00  0.00     0.176 C 
BRANCH  16  19
ATOM     19  C   UNL     1      -5.986  -2.394  -0.182  1.00  0.00     0.105 C 
ATOM     20  N   UNL     1      -5.816  -1.238  -0.238  1.00  0.00    -0.192 NA
ENDBRANCH  16  19
ENDBRANCH  10  12
ENDBRANCH   6  10
ENDBRANCH   3   5
ENDBRANCH   2   3
ENDBRANCH   1   2
BRANCH   1  21
ATOM     21  C   UNL     1      -4.432 -10.574   3.148  1.00  0.00     0.275 C 
BRANCH  21  22
ATOM     22  O   UNL     1      -4.186  -9.472   4.011  1.00  0.00    -0.458 OA
BRANCH  22  23
ATOM     23  C   UNL     1      -2.916  -9.014   3.991  1.00  0.00     0.338 C 
ATOM     24  O   UNL     1      -1.984  -9.427   3.318  1.00  0.00    -0.246 OA
BRANCH  23  25
ATOM     25  C   UNL     1      -2.754  -7.997   5.028  1.00  0.00     0.060 A 
ATOM     26  C   UNL     1      -1.498  -7.386   5.072  1.00  0.00     0.016 A 
ATOM     27  C   UNL     1      -3.571  -8.135   6.151  1.00  0.00     0.016 A 
ATOM     28  C   UNL     1      -0.906  -7.260   6.303  1.00  0.00     0.010 A 
ATOM     29  C   UNL     1      -2.974  -8.031   7.372  1.00  0.00     0.010 A 
ATOM     30  C   UNL     1      -1.617  -7.713   7.418  1.00  0.00    -0.014 A 
BRANCH  30  31
ATOM     31  C   UNL     1      -1.007  -7.649   8.725  1.00  0.00     0.031 A 
ATOM     32  C   UNL     1      -0.961  -6.234   9.165  1.00  0.00     0.074 A 
ATOM     33  C   UNL     1      -0.717  -8.771   9.418  1.00  0.00     0.049 A 
ATOM     34  N   UNL     1       0.088  -5.496   9.314  1.00  0.00    -0.248 NA
ATOM     35  C   UNL     1      -2.224  -5.463   9.151  1.00  0.00     0.031 C 
ATOM     36  C   UNL     1      -0.964 -10.167   9.034  1.00  0.00     0.029 A 
ATOM     37  N   UNL     1      -0.228  -8.897  10.687  1.00  0.00    -0.354 N 
ATOM     38  C   UNL     1      -0.405  -4.251   9.690  1.00  0.00     0.074 A 
ATOM     39  C   UNL     1      -1.776  -4.215   9.278  1.00  0.00     0.031 C 
ATOM     40  C   UNL     1      -0.866 -10.965  10.124  1.00  0.00     0.029 A 
ATOM     41  C   UNL     1      -0.429 -10.167  11.251  1.00  0.00     0.049 A 
ATOM     42  H   UNL     1       0.224  -8.163  11.163  1.00  0.00     0.167 HD
ATOM     43  C   UNL     1       0.230  -3.548  10.665  1.00  0.00     0.037 A 
ATOM     44  C   UNL     1      -0.312 -10.458  12.578  1.00  0.00     0.037 A 
ATOM     45  C   UNL     1       1.596  -4.000  10.787  1.00  0.00     0.049 A 
ATOM     46  C   UNL     1       0.489  -9.355  13.181  1.00  0.00     0.074 A 
ATOM     47  C   UNL     1       2.679  -4.044   9.931  1.00  0.00     0.029 A 
ATOM     48  N   UNL     1       1.857  -4.907  11.783  1.00  0.00    -0.354 N 
ATOM     49  N   UNL     1       1.740  -9.135  12.877  1.00  0.00    -0.248 NA
ATOM     50  C   UNL     1      -0.259  -8.203  13.662  1.00  0.00     0.031 C 
ATOM     51  C   UNL     1       3.323  -5.285  10.210  1.00  0.00     0.029 A 
ATOM     52  C   UNL     1       2.678  -5.886  11.291  1.00  0.00     0.049 A 
ATOM     53  H   UNL     1       1.509  -4.862  12.703  1.00  0.00     0.167 HD
ATOM     54  C   UNL     1       1.810  -7.762  12.687  1.00  0.00     0.074 A 
ATOM     55  C   UNL     1       0.548  -7.238  13.211  1.00  0.00     0.031 C 
ATOM     56  C   UNL     1       2.736  -7.218  11.844  1.00  0.00     0.037 A 
BRANCH  43  57
ATOM     57  C   UNL     1      -0.500  -2.853  11.797  1.00  0.00     0.064 A 
ATOM     58  C   UNL     1       0.265  -2.131  12.732  1.00  0.00     0.173 A 
ATOM     59  C   UNL     1      -1.840  -3.102  12.182  1.00  0.00     0.173 A 
ATOM     60  F   UNL     1       1.552  -1.847  12.485  1.00  0.00    -0.203 F 
ATOM     61  C   UNL     1      -0.242  -1.772  13.984  1.00  0.00     0.198 A 
ATOM     62  C   UNL     1      -2.356  -2.698  13.411  1.00  0.00     0.198 A 
ATOM     63  F   UNL     1      -2.688  -3.833  11.454  1.00  0.00    -0.203 F 
ATOM     64  F   UNL     1       0.566  -1.204  14.888  1.00  0.00    -0.200 F 
ATOM     65  C   UNL     1      -1.550  -2.062  14.325  1.00  0.00     0.200 A 
ATOM     66  F   UNL     1      -3.622  -3.011  13.725  1.00  0.00    -0.200 F 
ATOM     67  F   UNL     1      -2.019  -1.775  15.546  1.00  0.00    -0.200 F 
ENDBRANCH  43  57
BRANCH  44  68
ATOM     68  C   UNL     1      -1.146 -11.361  13.418  1.00  0.00     0.064 A 
ATOM     69  C   UNL     1      -0.750 -11.731  14.719  1.00  0.00     0.173 A 
ATOM     70  C   UNL     1      -2.486 -11.633  13.082  1.00  0.00     0.173 A 
ATOM     71  F   UNL     1       0.490 -11.458  15.149  1.00  0.00    -0.203 F 
ATOM     72  C   UNL     1      -1.644 -12.319  15.626  1.00  0.00     0.198 A 
ATOM     73  C   UNL     1      -3.376 -12.220  13.986  1.00  0.00     0.198 A 
ATOM     74  F   UNL     1      -2.988 -11.243  11.902  1.00  0.00    -0.203 F 
ATOM     75  F   UNL     1      -1.245 -12.605  16.874  1.00  0.00    -0.200 F 
ATOM     76  C   UNL     1      -2.959 -12.553  15.261  1.00  0.00     0.200 A 
ATOM     77  F   UNL     1      -4.657 -12.398  13.635  1.00  0.00    -0.200 F 
ATOM     78  F   UNL     1      -3.832 -13.057  16.145  1.00  0.00    -0.200 F 
ENDBRANCH  44  68
BRANCH  56  79
ATOM     79  C   UNL     1       3.823  -8.115  11.317  1.00  0.00     0.064 A 
ATOM     80  C   UNL     1       3.615  -9.195  10.439  1.00  0.00     0.173 A 
ATOM     81  C   UNL     1       5.148  -7.749  11.585  1.00  0.00     0.173 A 
ATOM     82  F   UNL     1       2.380  -9.549  10.063  1.00  0.00    -0.203 F 
ATOM     83  C   UNL     1       4.691  -9.887   9.880  1.00  0.00     0.198 A 
ATOM     84  C   UNL     1       6.217  -8.417  10.998  1.00  0.00     0.198 A 
ATOM     85  F   UNL     1       5.402  -6.694  12.374  1.00  0.00    -0.203 F 
ATOM     86  F   UNL     1       4.472 -10.914   9.044  1.00  0.00    -0.200 F 
ATOM     87  C   UNL     1       5.990  -9.491  10.153  1.00  0.00     0.200 A 
ATOM     88  F   UNL     1       7.467  -7.993  11.225  1.00  0.00    -0.200 F 
ATOM     89  F   UNL     1       7.024 -10.124   9.581  1.00  0.00    -0.200 F 
ENDBRANCH  56  79
ENDBRANCH  30  31
ENDBRANCH  23  25
ENDBRANCH  22  23
ENDBRANCH  21  22
ENDBRANCH   1  21
TORSDOF 14
