REMARK SMILES [NH3+]C[C@H]1CC[C@@H](C(=O)Nc2ccc(O)c(C(=O)OCCOC(=O)c3ccc(-c4c5nc(c(-c6c(F)c(F)c(F)c(F)c6F)c6ccc([nH]6)c(-c6c(F)c(F)c(F)c(F)c6F)c6nc(c(-c7c(F)c(F)c(F)c(F)c7F)c7ccc4[nH]7)C=C6)C=C5)cc3)c2)O1
REMARK SMILES IDX 19 1 18 2 16 3 17 4 15 5 10 6 11 7 87 8 12 9 13 10 9 11 7 12
REMARK SMILES IDX 8 13 6 15 3 16 4 17 88 18 5 19 2 20 1 21 14 25 20 27 21 28
REMARK SMILES IDX 22 29 23 30 24 31 25 32 86 33 26 34 85 35 27 36 28 37 29 38
REMARK SMILES IDX 79 39 30 40 84 41 78 42 80 43 31 44 83 45 77 46 76 47 32 49
REMARK SMILES IDX 64 50 44 51 63 52 45 53 48 54 62 55 81 56 46 57 47 58 61 60
REMARK SMILES IDX 82 61 49 62 33 63 34 64 42 65 35 66 36 67 40 68 43 69 37 70
REMARK SMILES IDX 38 71 41 72 39 73 65 74 66 75 74 76 67 77 68 78 72 79 75 80
REMARK SMILES IDX 69 81 70 82 73 83 71 84 50 85 51 86 59 87 52 88 53 89 57 90
REMARK SMILES IDX 60 91 54 92 55 93 58 94 56 95
REMARK H PARENT 9 14 1 22 1 23 1 24 14 26 80 48 48 59
REMARK Flexibility Score: inf
ROOT
ATOM      1  C   UNL     1      -5.405  -0.448   4.038  1.00  0.00     0.275 C 
ENDROOT
BRANCH   1   2
ATOM      2  O   UNL     1      -4.761  -1.338   3.108  1.00  0.00    -0.458 OA
BRANCH   2   3
ATOM      3  C   UNL     1      -3.433  -1.509   3.296  1.00  0.00     0.342 C 
ATOM      4  O   UNL     1      -2.764  -1.026   4.199  1.00  0.00    -0.246 OA
BRANCH   3   5
ATOM      5  C   UNL     1      -2.869  -2.500   2.356  1.00  0.00     0.103 A 
ATOM      6  C   UNL     1      -1.235  -4.267   2.062  1.00  0.00     0.042 A 
ATOM      7  C   UNL     1      -1.499  -4.296   0.697  1.00  0.00     0.030 A 
ATOM      8  C   UNL     1      -1.940  -3.403   2.888  1.00  0.00     0.045 A 
ATOM      9  C   UNL     1      -2.448  -3.421   0.157  1.00  0.00     0.049 A 
ATOM     10  C   UNL     1      -3.117  -2.509   0.982  1.00  0.00     0.130 A 
BRANCH   6  11
ATOM     11  N   UNL     1      -0.264  -5.070   2.659  1.00  0.00    -0.324 N 
ATOM     12  C   UNL     1       1.079  -5.097   2.410  1.00  0.00     0.253 C 
ATOM     13  O   UNL     1       1.762  -5.904   3.052  1.00  0.00    -0.272 OA
ATOM     14  H   UNL     1      -0.587  -5.697   3.346  1.00  0.00     0.170 HD
BRANCH  12  15
ATOM     15  C   UNL     1       1.751  -4.095   1.435  1.00  0.00     0.208 C 
ATOM     16  C   UNL     1       1.727  -1.752   1.187  1.00  0.00     0.174 C 
ATOM     17  C   UNL     1       3.157  -2.178   1.448  1.00  0.00     0.041 C 
ATOM     18  O   UNL     1       1.017  -2.976   0.926  1.00  0.00    -0.359 OA
ATOM     19  C   UNL     1       2.980  -3.505   2.132  1.00  0.00     0.045 C 
BRANCH  16  20
ATOM     20  C   UNL     1       1.078  -1.020   2.384  1.00  0.00     0.291 C 
BRANCH  20  21
ATOM     21  N   UNL     1       0.077  -0.037   1.957  1.00  0.00    -0.355 N 
ATOM     22  H   UNL     1      -0.323   0.420   2.777  1.00  0.00     0.344 HD
ATOM     23  H   UNL     1      -0.663  -0.509   1.436  1.00  0.00     0.344 HD
ATOM     24  H   UNL     1       0.519   0.662   1.360  1.00  0.00     0.344 HD
ENDBRANCH  20  21
ENDBRANCH  16  20
ENDBRANCH  12  15
ENDBRANCH   6  11
BRANCH  10  25
ATOM     25  O   UNL     1      -3.961  -1.594   0.423  1.00  0.00    -0.507 OA
ATOM     26  H   UNL     1      -4.122  -1.607  -0.499  1.00  0.00     0.293 HD
ENDBRANCH  10  25
ENDBRANCH   3   5
ENDBRANCH   2   3
ENDBRANCH   1   2
BRANCH   1  27
ATOM     27  C   UNL     1      -6.165  -1.236   5.102  1.00  0.00     0.275 C 
BRANCH  27  28
ATOM     28  O   UNL     1      -5.241  -1.945   5.950  1.00  0.00    -0.458 OA
BRANCH  28  29
ATOM     29  C   UNL     1      -5.305  -3.293   5.889  1.00  0.00     0.338 C 
ATOM     30  O   UNL     1      -6.080  -3.978   5.245  1.00  0.00    -0.246 OA
BRANCH  29  31
ATOM     31  C   UNL     1      -4.254  -3.886   6.734  1.00  0.00     0.060 A 
ATOM     32  C   UNL     1      -2.917  -3.668   6.418  1.00  0.00     0.016 A 
ATOM     33  C   UNL     1      -4.594  -4.791   7.736  1.00  0.00     0.016 A 
ATOM     34  C   UNL     1      -1.923  -4.452   7.002  1.00  0.00     0.010 A 
ATOM     35  C   UNL     1      -3.583  -5.483   8.414  1.00  0.00     0.010 A 
ATOM     36  C   UNL     1      -2.237  -5.362   8.021  1.00  0.00    -0.014 A 
BRANCH  36  37
ATOM     37  C   UNL     1      -1.179  -6.212   8.649  1.00  0.00     0.031 A 
ATOM     38  C   UNL     1      -1.327  -7.714   8.675  1.00  0.00     0.074 A 
ATOM     39  C   UNL     1      -0.079  -5.655   9.197  1.00  0.00     0.049 A 
ATOM     40  N   UNL     1      -0.648  -8.606   9.353  1.00  0.00    -0.248 NA
ATOM     41  C   UNL     1      -2.395  -8.288   7.840  1.00  0.00     0.031 C 
ATOM     42  C   UNL     1       0.233  -4.226   9.212  1.00  0.00     0.029 A 
ATOM     43  N   UNL     1       0.987  -6.231   9.847  1.00  0.00    -0.354 N 
ATOM     44  C   UNL     1      -1.249  -9.830   9.083  1.00  0.00     0.074 A 
ATOM     45  C   UNL     1      -2.346  -9.569   8.176  1.00  0.00     0.031 C 
ATOM     46  C   UNL     1       1.427  -4.040   9.793  1.00  0.00     0.029 A 
ATOM     47  C   UNL     1       1.919  -5.322  10.285  1.00  0.00     0.049 A 
ATOM     48  H   UNL     1       1.075  -7.202   9.984  1.00  0.00     0.167 HD
ATOM     49  C   UNL     1      -0.917 -11.058   9.552  1.00  0.00     0.037 A 
ATOM     50  C   UNL     1       3.021  -5.485  11.042  1.00  0.00     0.037 A 
ATOM     51  C   UNL     1       0.220 -11.328  10.394  1.00  0.00     0.049 A 
ATOM     52  C   UNL     1       3.362  -6.853  11.561  1.00  0.00     0.074 A 
ATOM     53  C   UNL     1       0.650 -12.541  10.903  1.00  0.00     0.029 A 
ATOM     54  N   UNL     1       1.123 -10.370  10.830  1.00  0.00    -0.354 N 
ATOM     55  N   UNL     1       2.743  -7.990  11.363  1.00  0.00    -0.248 NA
ATOM     56  C   UNL     1       4.542  -6.954  12.432  1.00  0.00     0.031 C 
ATOM     57  C   UNL     1       1.796 -12.313  11.673  1.00  0.00     0.029 A 
ATOM     58  C   UNL     1       2.103 -10.964  11.610  1.00  0.00     0.049 A 
ATOM     59  H   UNL     1       1.076  -9.410  10.617  1.00  0.00     0.167 HD
ATOM     60  C   UNL     1       3.457  -8.942  12.077  1.00  0.00     0.074 A 
ATOM     61  C   UNL     1       4.572  -8.253  12.694  1.00  0.00     0.031 C 
ATOM     62  C   UNL     1       3.206 -10.266  12.216  1.00  0.00     0.037 A 
BRANCH  49  63
ATOM     63  C   UNL     1      -1.815 -12.208   9.196  1.00  0.00     0.064 A 
ATOM     64  C   UNL     1      -1.846 -12.760   7.908  1.00  0.00     0.173 A 
ATOM     65  C   UNL     1      -2.628 -12.794  10.180  1.00  0.00     0.173 A 
ATOM     66  F   UNL     1      -1.098 -12.230   6.929  1.00  0.00    -0.203 F 
ATOM     67  C   UNL     1      -2.675 -13.841   7.612  1.00  0.00     0.198 A 
ATOM     68  C   UNL     1      -3.434 -13.891   9.887  1.00  0.00     0.198 A 
ATOM     69  F   UNL     1      -2.632 -12.309  11.431  1.00  0.00    -0.203 F 
ATOM     70  F   UNL     1      -2.720 -14.325   6.363  1.00  0.00    -0.200 F 
ATOM     71  C   UNL     1      -3.462 -14.409   8.602  1.00  0.00     0.200 A 
ATOM     72  F   UNL     1      -4.184 -14.446  10.850  1.00  0.00    -0.200 F 
ATOM     73  F   UNL     1      -4.252 -15.453   8.316  1.00  0.00    -0.200 F 
ENDBRANCH  49  63
BRANCH  50  74
ATOM     74  C   UNL     1       3.856  -4.306  11.394  1.00  0.00     0.064 A 
ATOM     75  C   UNL     1       5.148  -4.156  10.874  1.00  0.00     0.173 A 
ATOM     76  C   UNL     1       3.375  -3.302  12.249  1.00  0.00     0.173 A 
ATOM     77  F   UNL     1       5.664  -5.104  10.078  1.00  0.00    -0.203 F 
ATOM     78  C   UNL     1       5.930  -3.049  11.199  1.00  0.00     0.198 A 
ATOM     79  C   UNL     1       4.145  -2.180  12.547  1.00  0.00     0.198 A 
ATOM     80  F   UNL     1       2.146  -3.400  12.776  1.00  0.00    -0.203 F 
ATOM     81  F   UNL     1       7.177  -2.949  10.719  1.00  0.00    -0.200 F 
ATOM     82  C   UNL     1       5.424  -2.058  12.027  1.00  0.00     0.200 A 
ATOM     83  F   UNL     1       3.647  -1.218  13.335  1.00  0.00    -0.200 F 
ATOM     84  F   UNL     1       6.172  -0.988  12.328  1.00  0.00    -0.200 F 
ENDBRANCH  50  74
BRANCH  62  85
ATOM     85  C   UNL     1       4.168 -11.058  13.050  1.00  0.00     0.064 A 
ATOM     86  C   UNL     1       4.179 -10.958  14.449  1.00  0.00     0.173 A 
ATOM     87  C   UNL     1       5.069 -11.946  12.445  1.00  0.00     0.173 A 
ATOM     88  F   UNL     1       3.347 -10.109  15.071  1.00  0.00    -0.203 F 
ATOM     89  C   UNL     1       5.075 -11.701  15.211  1.00  0.00     0.198 A 
ATOM     90  C   UNL     1       5.947 -12.706  13.212  1.00  0.00     0.198 A 
ATOM     91  F   UNL     1       5.094 -12.080  11.111  1.00  0.00    -0.203 F 
ATOM     92  F   UNL     1       5.100 -11.557  16.543  1.00  0.00    -0.200 F 
ATOM     93  C   UNL     1       5.955 -12.578  14.593  1.00  0.00     0.200 A 
ATOM     94  F   UNL     1       6.791 -13.559  12.614  1.00  0.00    -0.200 F 
ATOM     95  F   UNL     1       6.816 -13.295  15.329  1.00  0.00    -0.200 F 
ENDBRANCH  62  85
ENDBRANCH  36  37
ENDBRANCH  29  31
ENDBRANCH  28  29
ENDBRANCH  27  28
ENDBRANCH   1  27
TORSDOF 16
