REMARK SMILES O=C(OCCOC(=O)c1sccc1S(=O)(=O)Nc1ccccc1N1CCCCC1)c1ccc(-c2c3nc(c(-c4c(F)c(F)c(F)c(F)c4F)c4ccc([nH]4)c(-c4c(F)c(F)c(F)c(F)c4F)c4nc(c(-c5c(F)c(F)c(F)c(F)c5F)c5ccc2[nH]5)C=C4)C=C3)cc1
REMARK SMILES IDX 5 1 4 2 3 3 2 4 1 5 30 6 31 7 92 8 32 9 91 10 33 11 34 12
REMARK SMILES IDX 35 13 85 14 36 15 90 16 84 17 86 18 37 19 89 20 83 21 82 22
REMARK SMILES IDX 38 24 70 25 50 26 69 27 51 28 54 29 68 30 87 31 52 32 53 33
REMARK SMILES IDX 67 35 88 36 55 37 39 38 40 39 48 40 41 41 42 42 46 43 49 44
REMARK SMILES IDX 43 45 44 46 47 47 45 48 71 49 72 50 80 51 73 52 74 53 78 54
REMARK SMILES IDX 81 55 75 56 76 57 79 58 77 59 56 60 57 61 65 62 58 63 59 64
REMARK SMILES IDX 63 65 66 66 60 67 61 68 64 69 62 70 6 71 7 72 8 73 9 74
REMARK SMILES IDX 10 75 13 76 11 77 12 78 14 79 15 80 16 81 17 82 18 84 19 85
REMARK SMILES IDX 23 86 20 87 22 88 21 89 24 90 25 91 29 92 26 93 28 94 27 95
REMARK H PARENT 86 23 54 34 17 83
REMARK Flexibility Score: inf
ROOT
ATOM      1  C   UNL     1       4.590   0.303   1.133  1.00  0.00     0.275 C 
ENDROOT
BRANCH   1   2
ATOM      2  C   UNL     1       4.963   1.420   0.161  1.00  0.00     0.275 C 
BRANCH   2   3
ATOM      3  O   UNL     1       4.002   1.609  -0.886  1.00  0.00    -0.458 OA
BRANCH   3   4
ATOM      4  C   UNL     1       4.264   1.295  -2.178  1.00  0.00     0.338 C 
ATOM      5  O   UNL     1       3.909   2.012  -3.106  1.00  0.00    -0.246 OA
BRANCH   4   6
ATOM      6  C   UNL     1       4.707  -0.093  -2.459  1.00  0.00     0.060 A 
ATOM      7  C   UNL     1       5.918  -0.632  -2.013  1.00  0.00     0.016 A 
ATOM      8  C   UNL     1       3.870  -0.867  -3.269  1.00  0.00     0.016 A 
ATOM      9  C   UNL     1       6.252  -1.958  -2.294  1.00  0.00     0.010 A 
ATOM     10  C   UNL     1       4.210  -2.188  -3.570  1.00  0.00     0.010 A 
ATOM     11  C   UNL     1       5.406  -2.738  -3.084  1.00  0.00    -0.014 A 
BRANCH  11  12
ATOM     12  C   UNL     1       5.889  -4.021  -3.635  1.00  0.00     0.031 A 
ATOM     13  C   UNL     1       6.473  -3.991  -5.011  1.00  0.00     0.074 A 
ATOM     14  C   UNL     1       5.838  -5.173  -2.946  1.00  0.00     0.049 A 
ATOM     15  N   UNL     1       6.994  -4.966  -5.703  1.00  0.00    -0.248 NA
ATOM     16  C   UNL     1       6.514  -2.678  -5.678  1.00  0.00     0.031 C 
ATOM     17  C   UNL     1       5.407  -5.301  -1.564  1.00  0.00     0.029 A 
ATOM     18  N   UNL     1       6.120  -6.461  -3.322  1.00  0.00    -0.354 N 
ATOM     19  C   UNL     1       7.497  -4.369  -6.845  1.00  0.00     0.074 A 
ATOM     20  C   UNL     1       7.126  -2.973  -6.811  1.00  0.00     0.031 C 
ATOM     21  C   UNL     1       5.325  -6.604  -1.241  1.00  0.00     0.029 A 
ATOM     22  C   UNL     1       5.742  -7.396  -2.388  1.00  0.00     0.049 A 
ATOM     23  H   UNL     1       6.550  -6.693  -4.177  1.00  0.00     0.167 HD
ATOM     24  C   UNL     1       8.262  -4.929  -7.806  1.00  0.00     0.037 A 
ATOM     25  C   UNL     1       5.728  -8.740  -2.466  1.00  0.00     0.037 A 
ATOM     26  C   UNL     1       8.586  -6.323  -7.852  1.00  0.00     0.049 A 
ATOM     27  C   UNL     1       6.359  -9.380  -3.673  1.00  0.00     0.074 A 
ATOM     28  C   UNL     1       9.361  -7.005  -8.769  1.00  0.00     0.029 A 
ATOM     29  N   UNL     1       8.114  -7.259  -6.941  1.00  0.00    -0.354 N 
ATOM     30  N   UNL     1       6.931  -8.800  -4.701  1.00  0.00    -0.248 NA
ATOM     31  C   UNL     1       6.392 -10.847  -3.715  1.00  0.00     0.031 C 
ATOM     32  C   UNL     1       9.315  -8.366  -8.440  1.00  0.00     0.029 A 
ATOM     33  C   UNL     1       8.537  -8.524  -7.302  1.00  0.00     0.049 A 
ATOM     34  H   UNL     1       7.560  -7.051  -6.154  1.00  0.00     0.167 HD
ATOM     35  C   UNL     1       7.456  -9.823  -5.473  1.00  0.00     0.074 A 
ATOM     36  C   UNL     1       7.106 -11.065  -4.811  1.00  0.00     0.031 C 
ATOM     37  C   UNL     1       8.187  -9.740  -6.612  1.00  0.00     0.037 A 
BRANCH  24  38
ATOM     38  C   UNL     1       8.779  -3.995  -8.850  1.00  0.00     0.064 A 
ATOM     39  C   UNL     1       9.817  -3.095  -8.557  1.00  0.00     0.173 A 
ATOM     40  C   UNL     1       8.168  -3.918 -10.106  1.00  0.00     0.173 A 
ATOM     41  F   UNL     1      10.402  -3.108  -7.349  1.00  0.00    -0.203 F 
ATOM     42  C   UNL     1      10.201  -2.126  -9.478  1.00  0.00     0.198 A 
ATOM     43  C   UNL     1       8.567  -2.958 -11.031  1.00  0.00     0.198 A 
ATOM     44  F   UNL     1       7.156  -4.741 -10.416  1.00  0.00    -0.203 F 
ATOM     45  F   UNL     1      11.147  -1.234  -9.155  1.00  0.00    -0.200 F 
ATOM     46  C   UNL     1       9.575  -2.058 -10.713  1.00  0.00     0.200 A 
ATOM     47  F   UNL     1       7.953  -2.882 -12.220  1.00  0.00    -0.200 F 
ATOM     48  F   UNL     1       9.925  -1.107 -11.590  1.00  0.00    -0.200 F 
ENDBRANCH  24  38
BRANCH  25  49
ATOM     49  C   UNL     1       5.110  -9.560  -1.391  1.00  0.00     0.064 A 
ATOM     50  C   UNL     1       5.880 -10.370  -0.546  1.00  0.00     0.173 A 
ATOM     51  C   UNL     1       3.716  -9.591  -1.226  1.00  0.00     0.173 A 
ATOM     52  F   UNL     1       7.215 -10.394  -0.677  1.00  0.00    -0.203 F 
ATOM     53  C   UNL     1       5.281 -11.202   0.400  1.00  0.00     0.198 A 
ATOM     54  C   UNL     1       3.118 -10.412  -0.269  1.00  0.00     0.198 A 
ATOM     55  F   UNL     1       2.928  -8.839  -2.009  1.00  0.00    -0.203 F 
ATOM     56  F   UNL     1       6.039 -12.008   1.157  1.00  0.00    -0.200 F 
ATOM     57  C   UNL     1       3.901 -11.224   0.536  1.00  0.00     0.200 A 
ATOM     58  F   UNL     1       1.784 -10.430  -0.143  1.00  0.00    -0.200 F 
ATOM     59  F   UNL     1       3.325 -12.041   1.429  1.00  0.00    -0.200 F 
ENDBRANCH  25  49
BRANCH  37  60
ATOM     60  C   UNL     1       8.697 -11.023  -7.186  1.00  0.00     0.064 A 
ATOM     61  C   UNL     1       7.856 -11.896  -7.886  1.00  0.00     0.173 A 
ATOM     62  C   UNL     1      10.058 -11.346  -7.085  1.00  0.00     0.173 A 
ATOM     63  F   UNL     1       6.544 -11.634  -7.986  1.00  0.00    -0.203 F 
ATOM     64  C   UNL     1       8.360 -13.056  -8.464  1.00  0.00     0.198 A 
ATOM     65  C   UNL     1      10.563 -12.494  -7.686  1.00  0.00     0.198 A 
ATOM     66  F   UNL     1      10.899 -10.537  -6.423  1.00  0.00    -0.203 F 
ATOM     67  F   UNL     1       7.535 -13.894  -9.107  1.00  0.00    -0.200 F 
ATOM     68  C   UNL     1       9.714 -13.348  -8.373  1.00  0.00     0.200 A 
ATOM     69  F   UNL     1      11.872 -12.770  -7.606  1.00  0.00    -0.200 F 
ATOM     70  F   UNL     1      10.200 -14.458  -8.945  1.00  0.00    -0.200 F 
ENDBRANCH  37  60
ENDBRANCH  11  12
ENDBRANCH   4   6
ENDBRANCH   3   4
ENDBRANCH   2   3
ENDBRANCH   1   2
BRANCH   1  71
ATOM     71  O   UNL     1       4.213  -0.937   0.515  1.00  0.00    -0.458 OA
BRANCH  71  72
ATOM     72  C   UNL     1       2.878  -1.106   0.303  1.00  0.00     0.349 C 
ATOM     73  O   UNL     1       2.047  -0.216   0.426  1.00  0.00    -0.245 OA
BRANCH  72  74
ATOM     74  C   UNL     1       2.588  -2.448  -0.158  1.00  0.00     0.133 A 
ATOM     75  S   UNL     1       1.552  -2.575  -1.538  1.00  0.00    -0.136 S 
ATOM     76  C   UNL     1       2.914  -3.705   0.331  1.00  0.00     0.113 A 
ATOM     77  C   UNL     1       1.637  -4.275  -1.552  1.00  0.00     0.067 A 
ATOM     78  C   UNL     1       2.343  -4.754  -0.475  1.00  0.00     0.035 A 
BRANCH  76  79
ATOM     79  S   UNL     1       3.867  -4.064   1.743  1.00  0.00     0.263 S 
ATOM     80  O   UNL     1       4.128  -5.487   1.642  1.00  0.00    -0.201 OA
ATOM     81  O   UNL     1       4.976  -3.138   1.731  1.00  0.00    -0.201 OA
BRANCH  79  82
ATOM     82  N   UNL     1       3.010  -3.882   3.179  1.00  0.00    -0.277 N 
ATOM     83  H   UNL     1       2.921  -4.626   3.818  1.00  0.00     0.180 HD
BRANCH  82  84
ATOM     84  C   UNL     1       2.416  -2.606   3.436  1.00  0.00     0.072 A 
ATOM     85  C   UNL     1       3.250  -1.608   3.966  1.00  0.00     0.029 A 
ATOM     86  C   UNL     1       1.069  -2.343   3.079  1.00  0.00     0.061 A 
ATOM     87  C   UNL     1       2.769  -0.318   4.154  1.00  0.00     0.002 A 
ATOM     88  C   UNL     1       0.631  -1.019   3.271  1.00  0.00     0.028 A 
ATOM     89  C   UNL     1       1.463  -0.020   3.791  1.00  0.00     0.002 A 
BRANCH  86  90
ATOM     90  N   UNL     1       0.159  -3.296   2.601  1.00  0.00    -0.370 N 
ATOM     91  C   UNL     1      -0.585  -2.976   1.375  1.00  0.00     0.116 C 
ATOM     92  C   UNL     1       0.329  -4.720   2.912  1.00  0.00     0.116 C 
ATOM     93  C   UNL     1      -1.907  -3.725   1.294  1.00  0.00     0.021 C 
ATOM     94  C   UNL     1      -0.999  -5.469   2.819  1.00  0.00     0.021 C 
ATOM     95  C   UNL     1      -1.688  -5.220   1.483  1.00  0.00     0.004 C 
ENDBRANCH  86  90
ENDBRANCH  82  84
ENDBRANCH  79  82
ENDBRANCH  76  79
ENDBRANCH  72  74
ENDBRANCH  71  72
ENDBRANCH   1  71
TORSDOF 15
