REMARK SMILES O=C(OCCOC(=O)c1ccc(-n2cc(CSc3nc4ccccc4c(=O)n3-c3ccc(Br)cc3)nn2)cc1)c1ccc(-c2c3nc(c(-c4c(F)c(F)c(F)c(F)c4F)c4ccc([nH]4)c(-c4c(F)c(F)c(F)c(F)c4F)c4nc(c(-c5c(F)c(F)c(F)c(F)c5F)c5ccc2[nH]5)C=C4)C=C3)cc1
REMARK SMILES IDX 6 1 5 2 4 3 3 4 2 5 1 6 40 7 41 8 102 9 42 10 101 11 43 12
REMARK SMILES IDX 44 13 45 14 95 15 46 16 100 17 94 18 96 19 47 20 99 21 93 22
REMARK SMILES IDX 92 23 48 25 80 26 60 27 79 28 61 29 64 30 78 31 97 32 62 33
REMARK SMILES IDX 63 34 77 36 98 37 65 38 49 39 50 40 58 41 51 42 52 43 56 44
REMARK SMILES IDX 59 45 53 46 54 47 57 48 55 49 81 50 82 51 90 52 83 53 84 54
REMARK SMILES IDX 88 55 91 56 85 57 86 58 89 59 87 60 66 61 67 62 75 63 68 64
REMARK SMILES IDX 69 65 73 66 76 67 70 68 71 69 74 70 72 71 7 72 8 73 9 74
REMARK SMILES IDX 10 75 39 76 11 77 38 78 12 79 13 80 14 81 37 82 15 83 36 84
REMARK SMILES IDX 16 85 17 86 18 87 19 88 28 89 20 90 26 91 21 92 25 93 27 94
REMARK SMILES IDX 22 95 24 96 23 97 29 98 30 99 35 100 31 101 34 102 32 103
REMARK SMILES IDX 33 104
REMARK H PARENT 96 24 64 35
REMARK Flexibility Score: inf
ROOT
ATOM      1  O   UNL     1       4.024  -0.690  -1.458  1.00  0.00    -0.458 OA
ENDROOT
BRANCH   1   2
ATOM      2  C   UNL     1       4.533  -1.498  -0.383  1.00  0.00     0.275 C 
BRANCH   2   3
ATOM      3  C   UNL     1       4.709  -0.653   0.880  1.00  0.00     0.275 C 
BRANCH   3   4
ATOM      4  O   UNL     1       3.515  -0.151   1.514  1.00  0.00    -0.458 OA
BRANCH   4   5
ATOM      5  C   UNL     1       2.448   0.188   0.762  1.00  0.00     0.338 C 
ATOM      6  O   UNL     1       1.479  -0.534   0.585  1.00  0.00    -0.246 OA
BRANCH   5   7
ATOM      7  C   UNL     1       2.417   1.633   0.435  1.00  0.00     0.060 A 
ATOM      8  C   UNL     1       3.566   2.383   0.163  1.00  0.00     0.016 A 
ATOM      9  C   UNL     1       1.157   2.242   0.380  1.00  0.00     0.016 A 
ATOM     10  C   UNL     1       3.463   3.752  -0.047  1.00  0.00     0.010 A 
ATOM     11  C   UNL     1       1.050   3.599   0.132  1.00  0.00     0.010 A 
ATOM     12  C   UNL     1       2.206   4.364  -0.016  1.00  0.00    -0.014 A 
BRANCH  12  13
ATOM     13  C   UNL     1       2.113   5.802  -0.263  1.00  0.00     0.031 A 
ATOM     14  C   UNL     1       2.639   6.236  -1.592  1.00  0.00     0.074 A 
ATOM     15  C   UNL     1       1.445   6.640   0.559  1.00  0.00     0.049 A 
ATOM     16  N   UNL     1       3.617   7.042  -1.856  1.00  0.00    -0.248 NA
ATOM     17  C   UNL     1       2.071   5.592  -2.784  1.00  0.00     0.031 C 
ATOM     18  C   UNL     1       0.640   6.316   1.740  1.00  0.00     0.029 A 
ATOM     19  N   UNL     1       1.272   7.986   0.448  1.00  0.00    -0.354 N 
ATOM     20  C   UNL     1       3.667   7.148  -3.249  1.00  0.00     0.074 A 
ATOM     21  C   UNL     1       2.799   6.126  -3.765  1.00  0.00     0.031 C 
ATOM     22  C   UNL     1      -0.110   7.388   2.087  1.00  0.00     0.029 A 
ATOM     23  C   UNL     1       0.268   8.514   1.254  1.00  0.00     0.049 A 
ATOM     24  H   UNL     1       1.815   8.542  -0.155  1.00  0.00     0.167 HD
ATOM     25  C   UNL     1       4.250   8.216  -3.866  1.00  0.00     0.037 A 
ATOM     26  C   UNL     1      -0.231   9.777   1.197  1.00  0.00     0.037 A 
ATOM     27  C   UNL     1       5.135   8.910  -2.972  1.00  0.00     0.049 A 
ATOM     28  C   UNL     1       0.757  10.607   0.462  1.00  0.00     0.074 A 
ATOM     29  C   UNL     1       6.274   8.553  -2.278  1.00  0.00     0.029 A 
ATOM     30  N   UNL     1       4.670  10.048  -2.361  1.00  0.00    -0.354 N 
ATOM     31  N   UNL     1       1.936  10.906   0.932  1.00  0.00    -0.248 NA
ATOM     32  C   UNL     1       0.617  10.684  -0.985  1.00  0.00     0.031 C 
ATOM     33  C   UNL     1       6.109   9.149  -0.994  1.00  0.00     0.029 A 
ATOM     34  C   UNL     1       4.946   9.919  -1.025  1.00  0.00     0.049 A 
ATOM     35  H   UNL     1       4.223  10.809  -2.798  1.00  0.00     0.167 HD
ATOM     36  C   UNL     1       2.787  10.778  -0.154  1.00  0.00     0.074 A 
ATOM     37  C   UNL     1       1.910  10.697  -1.323  1.00  0.00     0.031 C 
ATOM     38  C   UNL     1       4.101  10.453   0.013  1.00  0.00     0.037 A 
BRANCH  25  39
ATOM     39  C   UNL     1       3.745   8.855  -5.138  1.00  0.00     0.064 A 
ATOM     40  C   UNL     1       4.499   9.886  -5.737  1.00  0.00     0.173 A 
ATOM     41  C   UNL     1       2.417   8.728  -5.600  1.00  0.00     0.173 A 
ATOM     42  F   UNL     1       5.771  10.106  -5.370  1.00  0.00    -0.203 F 
ATOM     43  C   UNL     1       3.935  10.777  -6.655  1.00  0.00     0.198 A 
ATOM     44  C   UNL     1       1.874   9.586  -6.555  1.00  0.00     0.198 A 
ATOM     45  F   UNL     1       1.560   7.853  -5.065  1.00  0.00    -0.203 F 
ATOM     46  F   UNL     1       4.650  11.822  -7.095  1.00  0.00    -0.200 F 
ATOM     47  C   UNL     1       2.620  10.632  -7.055  1.00  0.00     0.200 A 
ATOM     48  F   UNL     1       0.593   9.439  -6.920  1.00  0.00    -0.200 F 
ATOM     49  F   UNL     1       2.057  11.523  -7.881  1.00  0.00    -0.200 F 
ENDBRANCH  25  39
BRANCH  26  50
ATOM     50  C   UNL     1      -1.613  10.256   1.453  1.00  0.00     0.064 A 
ATOM     51  C   UNL     1      -1.886  11.623   1.645  1.00  0.00     0.173 A 
ATOM     52  C   UNL     1      -2.726   9.426   1.221  1.00  0.00     0.173 A 
ATOM     53  F   UNL     1      -0.882  12.492   1.829  1.00  0.00    -0.203 F 
ATOM     54  C   UNL     1      -3.189  12.130   1.579  1.00  0.00     0.198 A 
ATOM     55  C   UNL     1      -4.026   9.933   1.159  1.00  0.00     0.198 A 
ATOM     56  F   UNL     1      -2.565   8.122   0.955  1.00  0.00    -0.203 F 
ATOM     57  F   UNL     1      -3.403  13.448   1.706  1.00  0.00    -0.200 F 
ATOM     58  C   UNL     1      -4.257  11.286   1.323  1.00  0.00     0.200 A 
ATOM     59  F   UNL     1      -5.047   9.111   0.874  1.00  0.00    -0.200 F 
ATOM     60  F   UNL     1      -5.497  11.779   1.196  1.00  0.00    -0.200 F 
ENDBRANCH  26  50
BRANCH  38  61
ATOM     61  C   UNL     1       4.662  10.437   1.408  1.00  0.00     0.064 A 
ATOM     62  C   UNL     1       4.215   9.584   2.434  1.00  0.00     0.173 A 
ATOM     63  C   UNL     1       5.818  11.188   1.656  1.00  0.00     0.173 A 
ATOM     64  F   UNL     1       3.183   8.755   2.246  1.00  0.00    -0.203 F 
ATOM     65  C   UNL     1       4.876   9.519   3.660  1.00  0.00     0.198 A 
ATOM     66  C   UNL     1       6.500  11.091   2.865  1.00  0.00     0.198 A 
ATOM     67  F   UNL     1       6.326  11.975   0.694  1.00  0.00    -0.203 F 
ATOM     68  F   UNL     1       4.428   8.701   4.624  1.00  0.00    -0.200 F 
ATOM     69  C   UNL     1       6.024  10.265   3.870  1.00  0.00     0.200 A 
ATOM     70  F   UNL     1       7.641  11.771   3.039  1.00  0.00    -0.200 F 
ATOM     71  F   UNL     1       6.689  10.166   5.029  1.00  0.00    -0.200 F 
ENDBRANCH  38  61
ENDBRANCH  12  13
ENDBRANCH   5   7
ENDBRANCH   4   5
ENDBRANCH   3   4
ENDBRANCH   2   3
ENDBRANCH   1   2
BRANCH   1  72
ATOM     72  C   UNL     1       2.929  -1.184  -2.100  1.00  0.00     0.338 C 
ATOM     73  O   UNL     1       2.374  -2.243  -1.932  1.00  0.00    -0.246 OA
BRANCH  72  74
ATOM     74  C   UNL     1       2.479  -0.145  -3.042  1.00  0.00     0.060 A 
ATOM     75  C   UNL     1       1.368   0.637  -2.721  1.00  0.00     0.018 A 
ATOM     76  C   UNL     1       3.172   0.054  -4.236  1.00  0.00     0.018 A 
ATOM     77  C   UNL     1       0.988   1.683  -3.562  1.00  0.00     0.029 A 
ATOM     78  C   UNL     1       2.745   1.050  -5.120  1.00  0.00     0.029 A 
ATOM     79  C   UNL     1       1.661   1.876  -4.774  1.00  0.00     0.066 A 
BRANCH  79  80
ATOM     80  N   UNL     1       1.202   2.878  -5.659  1.00  0.00    -0.220 N 
ATOM     81  C   UNL     1       1.356   2.934  -7.020  1.00  0.00     0.141 A 
ATOM     82  N   UNL     1       0.498   3.957  -5.246  1.00  0.00    -0.062 NA
ATOM     83  C   UNL     1       0.641   4.047  -7.415  1.00  0.00     0.093 A 
ATOM     84  N   UNL     1       0.195   4.699  -6.304  1.00  0.00    -0.134 NA
BRANCH  83  85
ATOM     85  C   UNL     1       0.416   4.553  -8.783  1.00  0.00     0.138 C 
BRANCH  85  86
ATOM     86  S   UNL     1      -1.244   4.760  -9.443  1.00  0.00    -0.081 SA
BRANCH  86  87
ATOM     87  C   UNL     1      -2.449   4.013  -8.416  1.00  0.00     0.176 A 
ATOM     88  N   UNL     1      -3.547   4.711  -8.374  1.00  0.00    -0.223 NA
ATOM     89  N   UNL     1      -2.314   2.817  -7.722  1.00  0.00    -0.255 N 
ATOM     90  C   UNL     1      -4.566   4.303  -7.510  1.00  0.00     0.079 A 
ATOM     91  C   UNL     1      -2.974   2.792  -6.481  1.00  0.00     0.266 A 
ATOM     92  C   UNL     1      -5.864   4.798  -7.645  1.00  0.00     0.029 A 
ATOM     93  C   UNL     1      -4.276   3.476  -6.436  1.00  0.00     0.066 A 
ATOM     94  O   UNL     1      -2.572   2.256  -5.450  1.00  0.00    -0.268 OA
ATOM     95  C   UNL     1      -6.830   4.519  -6.671  1.00  0.00     0.002 A 
ATOM     96  C   UNL     1      -5.211   3.236  -5.424  1.00  0.00     0.016 A 
ATOM     97  C   UNL     1      -6.492   3.771  -5.541  1.00  0.00     0.001 A 
BRANCH  89  98
ATOM     98  C   UNL     1      -1.552   1.649  -8.126  1.00  0.00     0.051 A 
ATOM     99  C   UNL     1      -1.601   0.464  -7.365  1.00  0.00     0.028 A 
ATOM    100  C   UNL     1      -0.766   1.583  -9.283  1.00  0.00     0.028 A 
ATOM    101  C   UNL     1      -0.724  -0.604  -7.585  1.00  0.00     0.018 A 
ATOM    102  C   UNL     1       0.165   0.552  -9.481  1.00  0.00     0.018 A 
ATOM    103  C   UNL     1       0.216  -0.513  -8.595  1.00  0.00     0.018 A 
ATOM    104  Br  UNL     1       1.572  -1.813  -8.747  1.00  0.00    -0.051 Br
ENDBRANCH  89  98
ENDBRANCH  86  87
ENDBRANCH  85  86
ENDBRANCH  83  85
ENDBRANCH  79  80
ENDBRANCH  72  74
ENDBRANCH   1  72
TORSDOF 16
