REMARK SMILES O=C(OCCOC(=O)c1ccc(N2C(=O)C[C@H]([NH+]3CCN(c4ccc(F)cc4)CC3)C2=O)cc1)c1ccc(-c2c3nc(c(-c4c(F)c(F)c(F)c(F)c4F)c4ccc([nH]4)c(-c4c(F)c(F)c(F)c(F)c4F)c4nc(c(-c5c(F)c(F)c(F)c(F)c5F)c5ccc2[nH]5)C=C4)C=C3)cc1
REMARK SMILES IDX 5 1 4 2 3 3 2 4 1 5 35 6 36 7 97 8 37 9 96 10 38 11 39 12
REMARK SMILES IDX 40 13 90 14 41 15 95 16 89 17 91 18 42 19 94 20 88 21 87 22
REMARK SMILES IDX 43 24 75 25 55 26 74 27 56 28 59 29 73 30 92 31 57 32 58 33
REMARK SMILES IDX 72 35 93 36 60 37 44 38 45 39 53 40 46 41 47 42 51 43 54 44
REMARK SMILES IDX 48 45 49 46 52 47 50 48 76 49 77 50 85 51 78 52 79 53 83 54
REMARK SMILES IDX 86 55 80 56 81 57 84 58 82 59 61 60 62 61 70 62 63 63 64 64
REMARK SMILES IDX 68 65 71 66 65 67 66 68 69 69 67 70 6 71 7 72 8 73 9 74
REMARK SMILES IDX 10 75 34 76 11 77 33 78 12 79 13 80 14 81 31 82 15 83 16 84
REMARK SMILES IDX 17 85 32 86 18 87 19 88 30 89 20 91 29 92 21 93 22 94 23 95
REMARK SMILES IDX 28 96 24 97 27 98 25 99 26 100
REMARK H PARENT 91 23 59 34 18 90
REMARK Flexibility Score: inf
ROOT
ATOM      1  C   UNL     1       4.034  -2.174  -0.364  1.00  0.00     0.275 C 
ENDROOT
BRANCH   1   2
ATOM      2  C   UNL     1       4.330  -1.275   0.843  1.00  0.00     0.275 C 
BRANCH   2   3
ATOM      3  O   UNL     1       3.292  -0.328   1.141  1.00  0.00    -0.458 OA
BRANCH   3   4
ATOM      4  C   UNL     1       3.133   0.944   0.712  1.00  0.00     0.338 C 
ATOM      5  O   UNL     1       2.306   1.654   1.282  1.00  0.00    -0.246 OA
BRANCH   4   6
ATOM      6  C   UNL     1       3.792   1.503  -0.516  1.00  0.00     0.060 A 
ATOM      7  C   UNL     1       4.969   1.053  -1.123  1.00  0.00     0.016 A 
ATOM      8  C   UNL     1       3.114   2.569  -1.132  1.00  0.00     0.016 A 
ATOM      9  C   UNL     1       5.411   1.576  -2.343  1.00  0.00     0.010 A 
ATOM     10  C   UNL     1       3.538   3.082  -2.358  1.00  0.00     0.010 A 
ATOM     11  C   UNL     1       4.691   2.584  -2.975  1.00  0.00    -0.014 A 
BRANCH  11  12
ATOM     12  C   UNL     1       5.238   3.284  -4.157  1.00  0.00     0.031 A 
ATOM     13  C   UNL     1       5.754   4.671  -3.944  1.00  0.00     0.074 A 
ATOM     14  C   UNL     1       5.275   2.711  -5.373  1.00  0.00     0.049 A 
ATOM     15  N   UNL     1       6.183   5.543  -4.815  1.00  0.00    -0.248 NA
ATOM     16  C   UNL     1       5.811   5.130  -2.545  1.00  0.00     0.031 C 
ATOM     17  C   UNL     1       4.931   1.323  -5.660  1.00  0.00     0.029 A 
ATOM     18  N   UNL     1       5.596   3.231  -6.603  1.00  0.00    -0.354 N 
ATOM     19  C   UNL     1       6.570   6.643  -4.065  1.00  0.00     0.074 A 
ATOM     20  C   UNL     1       6.249   6.367  -2.685  1.00  0.00     0.031 C 
ATOM     21  C   UNL     1       4.972   1.120  -6.987  1.00  0.00     0.029 A 
ATOM     22  C   UNL     1       5.341   2.369  -7.644  1.00  0.00     0.049 A 
ATOM     23  H   UNL     1       5.971   4.133  -6.727  1.00  0.00     0.167 HD
ATOM     24  C   UNL     1       7.182   7.770  -4.491  1.00  0.00     0.037 A 
ATOM     25  C   UNL     1       5.372   2.580  -8.975  1.00  0.00     0.037 A 
ATOM     26  C   UNL     1       7.465   8.028  -5.872  1.00  0.00     0.049 A 
ATOM     27  C   UNL     1       5.864   3.925  -9.459  1.00  0.00     0.074 A 
ATOM     28  C   UNL     1       8.080   9.124  -6.441  1.00  0.00     0.029 A 
ATOM     29  N   UNL     1       7.120   7.169  -6.910  1.00  0.00    -0.354 N 
ATOM     30  N   UNL     1       6.250   4.958  -8.746  1.00  0.00    -0.248 NA
ATOM     31  C   UNL     1       5.936   4.142 -10.909  1.00  0.00     0.031 C 
ATOM     32  C   UNL     1       8.047   8.958  -7.830  1.00  0.00     0.029 A 
ATOM     33  C   UNL     1       7.475   7.726  -8.123  1.00  0.00     0.049 A 
ATOM     34  H   UNL     1       6.686   6.292  -6.796  1.00  0.00     0.167 HD
ATOM     35  C   UNL     1       6.697   5.910  -9.653  1.00  0.00     0.074 A 
ATOM     36  C   UNL     1       6.479   5.352 -10.973  1.00  0.00     0.031 C 
ATOM     37  C   UNL     1       7.268   7.119  -9.417  1.00  0.00     0.037 A 
BRANCH  24  38
ATOM     38  C   UNL     1       7.525   8.783  -3.440  1.00  0.00     0.064 A 
ATOM     39  C   UNL     1       8.481   8.516  -2.443  1.00  0.00     0.173 A 
ATOM     40  C   UNL     1       6.824   9.994  -3.367  1.00  0.00     0.173 A 
ATOM     41  F   UNL     1       9.162   7.360  -2.453  1.00  0.00    -0.203 F 
ATOM     42  C   UNL     1       8.672   9.394  -1.380  1.00  0.00     0.198 A 
ATOM     43  C   UNL     1       7.045  10.887  -2.321  1.00  0.00     0.198 A 
ATOM     44  F   UNL     1       5.902  10.299  -4.291  1.00  0.00    -0.203 F 
ATOM     45  F   UNL     1       9.517   9.071  -0.390  1.00  0.00    -0.200 F 
ATOM     46  C   UNL     1       7.953  10.578  -1.319  1.00  0.00     0.200 A 
ATOM     47  F   UNL     1       6.355  12.034  -2.267  1.00  0.00    -0.200 F 
ATOM     48  F   UNL     1       8.120  11.411  -0.283  1.00  0.00    -0.200 F 
ENDBRANCH  24  38
BRANCH  25  49
ATOM     49  C   UNL     1       4.907   1.516  -9.913  1.00  0.00     0.064 A 
ATOM     50  C   UNL     1       5.765   0.916 -10.842  1.00  0.00     0.173 A 
ATOM     51  C   UNL     1       3.575   1.067  -9.896  1.00  0.00     0.173 A 
ATOM     52  F   UNL     1       7.052   1.287 -10.899  1.00  0.00    -0.203 F 
ATOM     53  C   UNL     1       5.304  -0.051 -11.739  1.00  0.00     0.198 A 
ATOM     54  C   UNL     1       3.113   0.100 -10.788  1.00  0.00     0.198 A 
ATOM     55  F   UNL     1       2.710   1.565  -9.002  1.00  0.00    -0.203 F 
ATOM     56  F   UNL     1       6.144  -0.583 -12.637  1.00  0.00    -0.200 F 
ATOM     57  C   UNL     1       3.977  -0.454 -11.716  1.00  0.00     0.200 A 
ATOM     58  F   UNL     1       1.828  -0.277 -10.757  1.00  0.00    -0.200 F 
ATOM     59  F   UNL     1       3.532  -1.369 -12.587  1.00  0.00    -0.200 F 
ENDBRANCH  25  49
BRANCH  37  60
ATOM     60  C   UNL     1       7.788   7.887 -10.596  1.00  0.00     0.064 A 
ATOM     61  C   UNL     1       6.936   8.576 -11.467  1.00  0.00     0.173 A 
ATOM     62  C   UNL     1       9.174   8.037 -10.767  1.00  0.00     0.173 A 
ATOM     63  F   UNL     1       5.606   8.455 -11.348  1.00  0.00    -0.203 F 
ATOM     64  C   UNL     1       7.454   9.392 -12.470  1.00  0.00     0.198 A 
ATOM     65  C   UNL     1       9.687   8.877 -11.749  1.00  0.00     0.198 A 
ATOM     66  F   UNL     1      10.028   7.404  -9.949  1.00  0.00    -0.203 F 
ATOM     67  F   UNL     1       6.625  10.031 -13.306  1.00  0.00    -0.200 F 
ATOM     68  C   UNL     1       8.827   9.554 -12.599  1.00  0.00     0.200 A 
ATOM     69  F   UNL     1      11.012   9.049 -11.856  1.00  0.00    -0.200 F 
ATOM     70  F   UNL     1       9.321  10.368 -13.542  1.00  0.00    -0.200 F 
ENDBRANCH  37  60
ENDBRANCH  11  12
ENDBRANCH   4   6
ENDBRANCH   3   4
ENDBRANCH   2   3
ENDBRANCH   1   2
BRANCH   1  71
ATOM     71  O   UNL     1       3.523  -1.466  -1.508  1.00  0.00    -0.458 OA
BRANCH  71  72
ATOM     72  C   UNL     1       2.164  -1.421  -1.607  1.00  0.00     0.338 C 
ATOM     73  O   UNL     1       1.362  -1.956  -0.875  1.00  0.00    -0.246 OA
BRANCH  72  74
ATOM     74  C   UNL     1       1.786  -0.477  -2.685  1.00  0.00     0.060 A 
ATOM     75  C   UNL     1       0.967   0.610  -2.366  1.00  0.00     0.018 A 
ATOM     76  C   UNL     1       2.235  -0.644  -3.993  1.00  0.00     0.018 A 
ATOM     77  C   UNL     1       0.689   1.593  -3.328  1.00  0.00     0.028 A 
ATOM     78  C   UNL     1       1.867   0.289  -4.974  1.00  0.00     0.028 A 
ATOM     79  C   UNL     1       1.136   1.442  -4.646  1.00  0.00     0.052 A 
BRANCH  79  80
ATOM     80  N   UNL     1       0.772   2.383  -5.642  1.00  0.00    -0.245 N 
ATOM     81  C   UNL     1       0.262   1.997  -6.853  1.00  0.00     0.240 C 
ATOM     82  C   UNL     1       0.802   3.757  -5.494  1.00  0.00     0.292 C 
ATOM     83  O   UNL     1       0.159   0.864  -7.306  1.00  0.00    -0.274 OA
ATOM     84  C   UNL     1      -0.268   3.193  -7.573  1.00  0.00     0.176 C 
ATOM     85  C   UNL     1       0.094   4.382  -6.701  1.00  0.00     0.284 C 
ATOM     86  O   UNL     1       1.278   4.386  -4.556  1.00  0.00    -0.267 OA
BRANCH  85  87
ATOM     87  N   UNL     1       0.769   5.554  -7.300  1.00  0.00    -0.321 N 
ATOM     88  C   UNL     1       2.118   5.368  -7.862  1.00  0.00     0.284 C 
ATOM     89  C   UNL     1      -0.055   6.268  -8.303  1.00  0.00     0.284 C 
ATOM     90  H   UNL     1       0.893   6.116  -6.458  1.00  0.00     0.348 HD
ATOM     91  C   UNL     1       2.195   4.721  -9.261  1.00  0.00     0.178 C 
ATOM     92  C   UNL     1      -0.114   5.654  -9.723  1.00  0.00     0.178 C 
ATOM     93  N   UNL     1       1.216   5.261 -10.213  1.00  0.00    -0.360 N 
BRANCH  93  94
ATOM     94  C   UNL     1       1.312   4.887 -11.551  1.00  0.00     0.037 A 
ATOM     95  C   UNL     1       1.624   3.577 -11.948  1.00  0.00     0.029 A 
ATOM     96  C   UNL     1       1.117   5.842 -12.559  1.00  0.00     0.029 A 
ATOM     97  C   UNL     1       1.787   3.242 -13.296  1.00  0.00     0.041 A 
ATOM     98  C   UNL     1       1.280   5.518 -13.909  1.00  0.00     0.041 A 
ATOM     99  C   UNL     1       1.626   4.222 -14.264  1.00  0.00     0.123 A 
ATOM    100  F   UNL     1       1.805   3.912 -15.555  1.00  0.00    -0.207 F 
ENDBRANCH  93  94
ENDBRANCH  85  87
ENDBRANCH  79  80
ENDBRANCH  72  74
ENDBRANCH  71  72
ENDBRANCH   1  71
TORSDOF 14
