REMARK SMILES C[C@H](CC[NH2+]Cc1cc(C(=O)OCCOC(=O)c2ccc(-c3c4nc(c(-c5c(F)c(F)c(F)c(F)c5F)c5ccc([nH]5)c(-c5c(F)c(F)c(F)c(F)c5F)c5nc(c(-c6c(F)c(F)c(F)c(F)c6F)c6ccc3[nH]6)C=C5)C=C4)cc2)cs1)c1ccccc1
REMARK SMILES IDX 10 1 11 2 9 3 7 4 8 5 82 6 81 7 6 8 5 9 4 12 3 13 2 14 1 15
REMARK SMILES IDX 83 16 84 17 88 18 85 19 87 20 86 21 12 22 13 23 14 24 15 25
REMARK SMILES IDX 16 26 17 27 18 28 19 29 80 30 20 31 79 32 21 33 22 34 23 35
REMARK SMILES IDX 73 36 24 37 78 38 72 39 74 40 25 41 77 42 71 43 70 44 26 46
REMARK SMILES IDX 58 47 38 48 57 49 39 50 42 51 56 52 75 53 40 54 41 55 55 57
REMARK SMILES IDX 76 58 43 59 27 60 28 61 36 62 29 63 30 64 34 65 37 66 31 67
REMARK SMILES IDX 32 68 35 69 33 70 59 71 60 72 68 73 61 74 62 75 66 76 69 77
REMARK SMILES IDX 63 78 64 79 67 80 65 81 44 82 45 83 53 84 46 85 47 86 51 87
REMARK SMILES IDX 54 88 48 89 49 90 52 91 50 92
REMARK H PARENT 5 10 5 11 74 45 42 56
REMARK Flexibility Score: inf
ROOT
ATOM      1  C   UNL     1      -5.438   2.589  -3.188  1.00  0.00     0.339 C 
ATOM      2  O   UNL     1      -6.550   2.760  -2.708  1.00  0.00    -0.246 OA
ENDROOT
BRANCH   1   3
ATOM      3  C   UNL     1      -4.212   2.825  -2.425  1.00  0.00     0.071 A 
ATOM      4  C   UNL     1      -1.928   3.007  -1.877  1.00  0.00     0.059 A 
ATOM      5  C   UNL     1      -2.849   2.691  -2.862  1.00  0.00     0.037 A 
ATOM      6  S   UNL     1      -2.710   3.489  -0.430  1.00  0.00    -0.142 S 
ATOM      7  C   UNL     1      -4.252   3.228  -1.102  1.00  0.00     0.081 A 
BRANCH   4   8
ATOM      8  C   UNL     1      -0.426   3.013  -1.964  1.00  0.00     0.308 C 
BRANCH   8   9
ATOM      9  N   UNL     1       0.231   2.229  -0.911  1.00  0.00    -0.342 N 
ATOM     10  H   UNL     1       1.225   2.459  -0.904  1.00  0.00     0.346 HD
ATOM     11  H   UNL     1      -0.216   2.465  -0.025  1.00  0.00     0.346 HD
BRANCH   9  12
ATOM     12  C   UNL     1       0.085   0.789  -1.111  1.00  0.00     0.261 C 
BRANCH  12  13
ATOM     13  C   UNL     1       0.922  -0.040  -0.123  1.00  0.00     0.069 C 
BRANCH  13  14
ATOM     14  C   UNL     1       0.592   0.055   1.386  1.00  0.00     0.021 C 
ATOM     15  C   UNL     1       1.317   1.222   2.071  1.00  0.00     0.013 C 
BRANCH  14  16
ATOM     16  C   UNL     1      -0.894  -0.062   1.693  1.00  0.00    -0.045 A 
ATOM     17  C   UNL     1      -1.648   0.995   2.224  1.00  0.00     0.004 A 
ATOM     18  C   UNL     1      -1.545  -1.285   1.454  1.00  0.00     0.004 A 
ATOM     19  C   UNL     1      -3.002   0.828   2.524  1.00  0.00     0.000 A 
ATOM     20  C   UNL     1      -2.898  -1.451   1.754  1.00  0.00     0.000 A 
ATOM     21  C   UNL     1      -3.621  -0.398   2.302  1.00  0.00     0.000 A 
ENDBRANCH  14  16
ENDBRANCH  13  14
ENDBRANCH  12  13
ENDBRANCH   9  12
ENDBRANCH   8   9
ENDBRANCH   4   8
ENDBRANCH   1   3
BRANCH   1  22
ATOM     22  O   UNL     1      -5.208   2.153  -4.461  1.00  0.00    -0.458 OA
BRANCH  22  23
ATOM     23  C   UNL     1      -6.385   1.909  -5.255  1.00  0.00     0.275 C 
BRANCH  23  24
ATOM     24  C   UNL     1      -6.775   0.429  -5.263  1.00  0.00     0.275 C 
BRANCH  24  25
ATOM     25  O   UNL     1      -7.223  -0.012  -3.968  1.00  0.00    -0.458 OA
BRANCH  25  26
ATOM     26  C   UNL     1      -6.299  -0.670  -3.230  1.00  0.00     0.338 C 
ATOM     27  O   UNL     1      -5.154  -0.943  -3.545  1.00  0.00    -0.246 OA
BRANCH  26  28
ATOM     28  C   UNL     1      -6.845  -0.942  -1.893  1.00  0.00     0.060 A 
ATOM     29  C   UNL     1      -6.405  -0.152  -0.832  1.00  0.00     0.016 A 
ATOM     30  C   UNL     1      -7.699  -2.022  -1.664  1.00  0.00     0.016 A 
ATOM     31  C   UNL     1      -6.811  -0.444   0.468  1.00  0.00     0.010 A 
ATOM     32  C   UNL     1      -8.109  -2.311  -0.355  1.00  0.00     0.010 A 
ATOM     33  C   UNL     1      -7.652  -1.536   0.726  1.00  0.00    -0.014 A 
BRANCH  33  34
ATOM     34  C   UNL     1      -8.003  -1.886   2.130  1.00  0.00     0.031 A 
ATOM     35  C   UNL     1      -7.491  -3.160   2.747  1.00  0.00     0.074 A 
ATOM     36  C   UNL     1      -8.747  -1.044   2.873  1.00  0.00     0.049 A 
ATOM     37  N   UNL     1      -7.764  -3.685   3.916  1.00  0.00    -0.248 NA
ATOM     38  C   UNL     1      -6.548  -3.950   1.941  1.00  0.00     0.031 C 
ATOM     39  C   UNL     1      -9.266   0.245   2.420  1.00  0.00     0.029 A 
ATOM     40  N   UNL     1      -9.190  -1.146   4.170  1.00  0.00    -0.354 N 
ATOM     41  C   UNL     1      -7.060  -4.881   3.971  1.00  0.00     0.074 A 
ATOM     42  C   UNL     1      -6.350  -5.008   2.715  1.00  0.00     0.031 C 
ATOM     43  C   UNL     1      -9.937   0.826   3.428  1.00  0.00     0.029 A 
ATOM     44  C   UNL     1      -9.951  -0.077   4.575  1.00  0.00     0.049 A 
ATOM     45  H   UNL     1      -8.982  -1.912   4.752  1.00  0.00     0.167 HD
ATOM     46  C   UNL     1      -7.011  -5.789   4.976  1.00  0.00     0.037 A 
ATOM     47  C   UNL     1     -10.614   0.139   5.728  1.00  0.00     0.037 A 
ATOM     48  C   UNL     1      -7.684  -5.646   6.242  1.00  0.00     0.049 A 
ATOM     49  C   UNL     1     -10.577  -0.904   6.812  1.00  0.00     0.074 A 
ATOM     50  C   UNL     1      -7.674  -6.507   7.328  1.00  0.00     0.029 A 
ATOM     51  N   UNL     1      -8.480  -4.568   6.597  1.00  0.00    -0.354 N 
ATOM     52  N   UNL     1      -9.937  -2.047   6.839  1.00  0.00    -0.248 NA
ATOM     53  C   UNL     1     -11.369  -0.631   8.020  1.00  0.00     0.031 C 
ATOM     54  C   UNL     1      -8.496  -5.968   8.324  1.00  0.00     0.029 A 
ATOM     55  C   UNL     1      -8.983  -4.751   7.877  1.00  0.00     0.049 A 
ATOM     56  H   UNL     1      -8.662  -3.788   6.025  1.00  0.00     0.167 HD
ATOM     57  C   UNL     1     -10.241  -2.625   8.064  1.00  0.00     0.074 A 
ATOM     58  C   UNL     1     -11.104  -1.696   8.763  1.00  0.00     0.031 C 
ATOM     59  C   UNL     1      -9.845  -3.822   8.561  1.00  0.00     0.037 A 
BRANCH  46  60
ATOM     60  C   UNL     1      -6.224  -7.046   4.740  1.00  0.00     0.064 A 
ATOM     61  C   UNL     1      -4.822  -7.052   4.726  1.00  0.00     0.173 A 
ATOM     62  C   UNL     1      -6.888  -8.271   4.569  1.00  0.00     0.173 A 
ATOM     63  F   UNL     1      -4.140  -5.906   4.872  1.00  0.00    -0.203 F 
ATOM     64  C   UNL     1      -4.113  -8.235   4.528  1.00  0.00     0.198 A 
ATOM     65  C   UNL     1      -6.176  -9.455   4.398  1.00  0.00     0.198 A 
ATOM     66  F   UNL     1      -8.228  -8.321   4.581  1.00  0.00    -0.203 F 
ATOM     67  F   UNL     1      -2.774  -8.212   4.478  1.00  0.00    -0.200 F 
ATOM     68  C   UNL     1      -4.790  -9.436   4.371  1.00  0.00     0.200 A 
ATOM     69  F   UNL     1      -6.832 -10.616   4.259  1.00  0.00    -0.200 F 
ATOM     70  F   UNL     1      -4.106 -10.574   4.188  1.00  0.00    -0.200 F 
ENDBRANCH  46  60
BRANCH  47  71
ATOM     71  C   UNL     1     -11.399   1.388   5.904  1.00  0.00     0.064 A 
ATOM     72  C   UNL     1     -10.999   2.371   6.818  1.00  0.00     0.173 A 
ATOM     73  C   UNL     1     -12.566   1.622   5.162  1.00  0.00     0.173 A 
ATOM     74  F   UNL     1      -9.907   2.179   7.572  1.00  0.00    -0.203 F 
ATOM     75  C   UNL     1     -11.741   3.538   6.989  1.00  0.00     0.198 A 
ATOM     76  C   UNL     1     -13.291   2.801   5.312  1.00  0.00     0.198 A 
ATOM     77  F   UNL     1     -12.995   0.708   4.277  1.00  0.00    -0.203 F 
ATOM     78  F   UNL     1     -11.359   4.445   7.899  1.00  0.00    -0.200 F 
ATOM     79  C   UNL     1     -12.881   3.756   6.230  1.00  0.00     0.200 A 
ATOM     80  F   UNL     1     -14.385   3.013   4.568  1.00  0.00    -0.200 F 
ATOM     81  F   UNL     1     -13.589   4.883   6.388  1.00  0.00    -0.200 F 
ENDBRANCH  47  71
BRANCH  59  82
ATOM     82  C   UNL     1     -10.328  -4.189   9.933  1.00  0.00     0.064 A 
ATOM     83  C   UNL     1     -11.658  -4.571  10.162  1.00  0.00     0.173 A 
ATOM     84  C   UNL     1      -9.447  -4.185  11.025  1.00  0.00     0.173 A 
ATOM     85  F   UNL     1     -12.543  -4.575   9.154  1.00  0.00    -0.203 F 
ATOM     86  C   UNL     1     -12.094  -4.914  11.440  1.00  0.00     0.198 A 
ATOM     87  C   UNL     1      -9.880  -4.553  12.296  1.00  0.00     0.198 A 
ATOM     88  F   UNL     1      -8.164  -3.831  10.857  1.00  0.00    -0.203 F 
ATOM     89  F   UNL     1     -13.379  -5.234  11.645  1.00  0.00    -0.200 F 
ATOM     90  C   UNL     1     -11.204  -4.910  12.504  1.00  0.00     0.200 A 
ATOM     91  F   UNL     1      -9.017  -4.558  13.321  1.00  0.00    -0.200 F 
ATOM     92  F   UNL     1     -11.624  -5.243  13.732  1.00  0.00    -0.200 F 
ENDBRANCH  59  82
ENDBRANCH  33  34
ENDBRANCH  26  28
ENDBRANCH  25  26
ENDBRANCH  24  25
ENDBRANCH  23  24
ENDBRANCH  22  23
ENDBRANCH   1  22
TORSDOF 17
