REMARK SMILES CC(C)[C@H](NC(=O)OCc1ccccc1)C(=O)NCC(=O)OCCOC(=O)c1ccc(-c2c3nc(c(-c4c(F)c(F)c(F)c(F)c4F)c4ccc([nH]4)c(-c4c(F)c(F)c(F)c(F)c4F)c4nc(c(-c5c(F)c(F)c(F)c(F)c5F)c5ccc2[nH]5)C=C4)C=C3)cc1
REMARK SMILES IDX 20 1 21 2 19 3 18 4 16 5 17 6 4 8 2 9 1 10 3 11 5 12 6 13
REMARK SMILES IDX 7 15 8 16 9 17 10 18 11 19 15 20 12 21 14 22 13 23 22 24
REMARK SMILES IDX 23 25 24 26 25 27 26 28 27 29 28 30 29 31 90 32 30 33 89 34
REMARK SMILES IDX 31 35 32 36 33 37 83 38 34 39 88 40 82 41 84 42 35 43 87 44
REMARK SMILES IDX 81 45 80 46 36 48 68 49 48 50 67 51 49 52 52 53 66 54 85 55
REMARK SMILES IDX 50 56 51 57 65 59 86 60 53 61 37 62 38 63 46 64 39 65 40 66
REMARK SMILES IDX 44 67 47 68 41 69 42 70 45 71 43 72 69 73 70 74 78 75 71 76
REMARK SMILES IDX 72 77 76 78 79 79 73 80 74 81 77 82 75 83 54 84 55 85 63 86
REMARK SMILES IDX 56 87 57 88 61 89 64 90 58 91 59 92 62 93 60 94
REMARK H PARENT 18 7 5 14 84 47 52 58
REMARK Flexibility Score: inf
ROOT
ATOM      1  C   UNL     1       2.424   1.822  -2.424  1.00  0.00     0.325 C 
ATOM      2  O   UNL     1       3.344   1.936  -1.597  1.00  0.00    -0.250 OA
ENDROOT
BRANCH   1   3
ATOM      3  C   UNL     1       0.943   2.430  -1.868  1.00  0.00     0.238 C 
BRANCH   3   4
ATOM      4  N   UNL     1      -0.507   2.471  -2.313  1.00  0.00    -0.343 N 
ATOM      5  C   UNL     1      -1.450   1.462  -2.350  1.00  0.00     0.243 C 
ATOM      6  O   UNL     1      -2.483   1.582  -3.005  1.00  0.00    -0.273 OA
ATOM      7  H   UNL     1      -0.824   3.350  -2.623  1.00  0.00     0.164 HD
BRANCH   5   8
ATOM      8  C   UNL     1      -1.213   0.310  -1.414  1.00  0.00     0.177 C 
BRANCH   8   9
ATOM      9  C   UNL     1      -1.653   0.805   0.028  1.00  0.00     0.015 C 
ATOM     10  C   UNL     1      -0.584   0.958   1.115  1.00  0.00     0.010 C 
ATOM     11  C   UNL     1      -2.511   2.104  -0.002  1.00  0.00     0.010 C 
ENDBRANCH   8   9
BRANCH   8  12
ATOM     12  N   UNL     1       0.161  -0.105  -1.671  1.00  0.00    -0.309 N 
ATOM     13  C   UNL     1       0.686  -0.268  -2.954  1.00  0.00     0.408 C 
ATOM     14  H   UNL     1       0.749  -0.279  -0.901  1.00  0.00     0.167 HD
ATOM     15  O   UNL     1       1.420  -1.229  -3.142  1.00  0.00    -0.225 OA
BRANCH  13  16
ATOM     16  O   UNL     1       0.378   0.621  -3.978  1.00  0.00    -0.445 OA
BRANCH  16  17
ATOM     17  C   UNL     1       0.540   2.151  -4.536  1.00  0.00     0.270 C 
BRANCH  17  18
ATOM     18  C   UNL     1       1.669   3.461  -4.413  1.00  0.00    -0.011 A 
ATOM     19  C   UNL     1       3.042   3.505  -4.862  1.00  0.00     0.007 A 
ATOM     20  C   UNL     1       1.280   4.676  -3.829  1.00  0.00     0.007 A 
ATOM     21  C   UNL     1       3.947   4.558  -4.663  1.00  0.00     0.000 A 
ATOM     22  C   UNL     1       2.189   5.743  -3.609  1.00  0.00     0.000 A 
ATOM     23  C   UNL     1       3.521   5.681  -4.007  1.00  0.00     0.000 A 
ENDBRANCH  17  18
ENDBRANCH  16  17
ENDBRANCH  13  16
ENDBRANCH   8  12
ENDBRANCH   5   8
ENDBRANCH   3   4
ENDBRANCH   1   3
BRANCH   1  24
ATOM     24  O   UNL     1       2.757   1.273  -3.650  1.00  0.00    -0.461 OA
BRANCH  24  25
ATOM     25  C   UNL     1       2.710   0.698  -5.216  1.00  0.00     0.274 C 
BRANCH  25  26
ATOM     26  C   UNL     1       2.174   1.400  -6.738  1.00  0.00     0.275 C 
BRANCH  26  27
ATOM     27  O   UNL     1       1.651   2.837  -6.952  1.00  0.00    -0.458 OA
BRANCH  27  28
ATOM     28  C   UNL     1       0.344   3.157  -7.326  1.00  0.00     0.338 C 
ATOM     29  O   UNL     1      -0.451   2.322  -7.737  1.00  0.00    -0.246 OA
BRANCH  28  30
ATOM     30  C   UNL     1      -0.184   4.549  -6.883  1.00  0.00     0.060 A 
ATOM     31  C   UNL     1      -1.174   4.657  -5.874  1.00  0.00     0.016 A 
ATOM     32  C   UNL     1       0.136   5.750  -7.518  1.00  0.00     0.016 A 
ATOM     33  C   UNL     1      -1.692   5.899  -5.401  1.00  0.00     0.010 A 
ATOM     34  C   UNL     1      -0.465   6.996  -7.115  1.00  0.00     0.010 A 
ATOM     35  C   UNL     1      -1.367   7.102  -6.031  1.00  0.00    -0.014 A 
BRANCH  35  36
ATOM     36  C   UNL     1      -2.135   8.378  -5.715  1.00  0.00     0.031 A 
ATOM     37  C   UNL     1      -3.428   8.657  -6.462  1.00  0.00     0.074 A 
ATOM     38  C   UNL     1      -1.786   9.284  -4.770  1.00  0.00     0.049 A 
ATOM     39  N   UNL     1      -4.197   9.723  -6.458  1.00  0.00    -0.248 NA
ATOM     40  C   UNL     1      -3.921   7.572  -7.320  1.00  0.00     0.031 C 
ATOM     41  C   UNL     1      -0.662   9.168  -3.848  1.00  0.00     0.029 A 
ATOM     42  N   UNL     1      -2.354  10.507  -4.434  1.00  0.00    -0.354 N 
ATOM     43  C   UNL     1      -5.247   9.445  -7.329  1.00  0.00     0.074 A 
ATOM     44  C   UNL     1      -5.016   8.109  -7.838  1.00  0.00     0.031 C 
ATOM     45  C   UNL     1      -0.601  10.275  -3.080  1.00  0.00     0.029 A 
ATOM     46  C   UNL     1      -1.656  11.213  -3.476  1.00  0.00     0.049 A 
ATOM     47  H   UNL     1      -3.184  10.840  -4.844  1.00  0.00     0.167 HD
ATOM     48  C   UNL     1      -6.303  10.220  -7.689  1.00  0.00     0.037 A 
ATOM     49  C   UNL     1      -1.811  12.473  -2.995  1.00  0.00     0.037 A 
ATOM     50  C   UNL     1      -6.577  11.549  -7.203  1.00  0.00     0.049 A 
ATOM     51  C   UNL     1      -2.926  13.370  -3.501  1.00  0.00     0.074 A 
ATOM     52  C   UNL     1      -7.631  12.387  -7.537  1.00  0.00     0.029 A 
ATOM     53  N   UNL     1      -5.800  12.241  -6.290  1.00  0.00    -0.354 N 
ATOM     54  N   UNL     1      -3.892  13.102  -4.345  1.00  0.00    -0.248 NA
ATOM     55  C   UNL     1      -2.967  14.754  -2.988  1.00  0.00     0.031 C 
ATOM     56  C   UNL     1      -7.456  13.607  -6.877  1.00  0.00     0.029 A 
ATOM     57  C   UNL     1      -6.334  13.505  -6.076  1.00  0.00     0.049 A 
ATOM     58  H   UNL     1      -4.989  11.889  -5.857  1.00  0.00     0.167 HD
ATOM     59  C   UNL     1      -4.665  14.258  -4.431  1.00  0.00     0.074 A 
ATOM     60  C   UNL     1      -4.070  15.232  -3.547  1.00  0.00     0.031 C 
ATOM     61  C   UNL     1      -5.772  14.483  -5.181  1.00  0.00     0.037 A 
BRANCH  48  62
ATOM     62  C   UNL     1      -7.244   9.667  -8.723  1.00  0.00     0.064 A 
ATOM     63  C   UNL     1      -8.150   8.638  -8.429  1.00  0.00     0.173 A 
ATOM     64  C   UNL     1      -7.276  10.222 -10.013  1.00  0.00     0.173 A 
ATOM     65  F   UNL     1      -8.155   8.070  -7.214  1.00  0.00    -0.203 F 
ATOM     66  C   UNL     1      -9.034   8.167  -9.397  1.00  0.00     0.198 A 
ATOM     67  C   UNL     1      -8.183   9.771 -10.966  1.00  0.00     0.198 A 
ATOM     68  F   UNL     1      -6.440  11.220 -10.340  1.00  0.00    -0.203 F 
ATOM     69  F   UNL     1      -9.861   7.152  -9.109  1.00  0.00    -0.200 F 
ATOM     70  C   UNL     1      -9.056   8.739 -10.661  1.00  0.00     0.200 A 
ATOM     71  F   UNL     1      -8.216  10.340 -12.180  1.00  0.00    -0.200 F 
ATOM     72  F   UNL     1      -9.915   8.292 -11.586  1.00  0.00    -0.200 F 
ENDBRANCH  48  62
BRANCH  49  73
ATOM     73  C   UNL     1      -0.842  13.035  -2.001  1.00  0.00     0.064 A 
ATOM     74  C   UNL     1      -1.249  13.424  -0.714  1.00  0.00     0.173 A 
ATOM     75  C   UNL     1       0.491  13.294  -2.357  1.00  0.00     0.173 A 
ATOM     76  F   UNL     1      -2.525  13.254  -0.336  1.00  0.00    -0.203 F 
ATOM     77  C   UNL     1      -0.372  14.065   0.163  1.00  0.00     0.198 A 
ATOM     78  C   UNL     1       1.377  13.901  -1.467  1.00  0.00     0.198 A 
ATOM     79  F   UNL     1       0.933  12.973  -3.582  1.00  0.00    -0.203 F 
ATOM     80  F   UNL     1      -0.810  14.489   1.356  1.00  0.00    -0.200 F 
ATOM     81  C   UNL     1       0.943  14.296  -0.211  1.00  0.00     0.200 A 
ATOM     82  F   UNL     1       2.647  14.120  -1.834  1.00  0.00    -0.200 F 
ATOM     83  F   UNL     1       1.784  14.915   0.628  1.00  0.00    -0.200 F 
ENDBRANCH  49  73
BRANCH  61  84
ATOM     84  C   UNL     1      -6.472  15.812  -5.051  1.00  0.00     0.064 A 
ATOM     85  C   UNL     1      -5.913  17.002  -5.539  1.00  0.00     0.173 A 
ATOM     86  C   UNL     1      -7.753  15.886  -4.477  1.00  0.00     0.173 A 
ATOM     87  F   UNL     1      -4.689  16.997  -6.089  1.00  0.00    -0.203 F 
ATOM     88  C   UNL     1      -6.595  18.215  -5.438  1.00  0.00     0.198 A 
ATOM     89  C   UNL     1      -8.445  17.093  -4.405  1.00  0.00     0.198 A 
ATOM     90  F   UNL     1      -8.345  14.780  -4.000  1.00  0.00    -0.203 F 
ATOM     91  F   UNL     1      -6.020  19.344  -5.873  1.00  0.00    -0.200 F 
ATOM     92  C   UNL     1      -7.863  18.258  -4.879  1.00  0.00     0.200 A 
ATOM     93  F   UNL     1      -9.678  17.128  -3.880  1.00  0.00    -0.200 F 
ATOM     94  F   UNL     1      -8.522  19.422  -4.792  1.00  0.00    -0.200 F 
ENDBRANCH  61  84
ENDBRANCH  35  36
ENDBRANCH  28  30
ENDBRANCH  27  28
ENDBRANCH  26  27
ENDBRANCH  25  26
ENDBRANCH  24  25
ENDBRANCH   1  24
TORSDOF 18
