REMARK SMILES [N-]=[N+]=NC[C@@H](Nc1ccccc1Br)C(=O)OCCOC(=O)c1ccc(-c2c3nc(c(-c4c(F)c(F)c(F)c(F)c4F)c4ccc([nH]4)c(-c4c(F)c(F)c(F)c(F)c4F)c4nc(c(-c5c(F)c(F)c(F)c(F)c5F)c5ccc2[nH]5)C=C4)C=C3)cc1
REMARK SMILES IDX 17 1 16 2 14 3 15 4 5 5 4 6 3 7 1 8 2 9 6 10 7 12 8 13 12 14
REMARK SMILES IDX 9 15 11 16 13 17 10 18 18 19 19 20 20 21 21 22 22 23 23 24
REMARK SMILES IDX 84 25 24 26 83 27 25 28 26 29 27 30 77 31 28 32 82 33 76 34
REMARK SMILES IDX 78 35 29 36 81 37 75 38 74 39 30 41 62 42 42 43 61 44 43 45
REMARK SMILES IDX 46 46 60 47 79 48 44 49 45 50 59 52 80 53 47 54 31 55 32 56
REMARK SMILES IDX 40 57 33 58 34 59 38 60 41 61 35 62 36 63 39 64 37 65 63 66
REMARK SMILES IDX 64 67 72 68 65 69 66 70 70 71 73 72 67 73 68 74 71 75 69 76
REMARK SMILES IDX 48 77 49 78 57 79 50 80 51 81 55 82 58 83 52 84 53 85 56 86
REMARK SMILES IDX 54 87
REMARK H PARENT 6 11 78 40 46 51
REMARK Flexibility Score: inf
ROOT
ATOM      1  C   UNL     1       5.314  -5.027   1.442  1.00  0.00     0.274 C 
ENDROOT
BRANCH   1   2
ATOM      2  O   UNL     1       4.528  -3.877   1.058  1.00  0.00    -0.461 OA
BRANCH   2   3
ATOM      3  C   UNL     1       4.213  -3.036   2.084  1.00  0.00     0.328 C 
ATOM      4  O   UNL     1       4.616  -3.204   3.232  1.00  0.00    -0.250 OA
BRANCH   3   5
ATOM      5  C   UNL     1       3.307  -1.855   1.675  1.00  0.00     0.195 C 
BRANCH   5   6
ATOM      6  C   UNL     1       3.591  -1.410   0.227  1.00  0.00     0.127 C 
BRANCH   6   7
ATOM      7  N   UNL     1       3.175  -0.006   0.008  1.00  0.00    -0.091 NA
ATOM      8  N   UNL     1       0.889   0.308  -0.574  1.00  0.00    -0.003 NA
ATOM      9  N   UNL     1       1.986   0.172  -0.312  1.00  0.00     0.001 N 
ENDBRANCH   6   7
ENDBRANCH   5   6
BRANCH   5  10
ATOM     10  N   UNL     1       1.853  -2.042   1.926  1.00  0.00    -0.371 N 
ATOM     11  H   UNL     1       1.240  -1.275   1.855  1.00  0.00     0.161 HD
BRANCH  10  12
ATOM     12  C   UNL     1       1.360  -3.296   2.261  1.00  0.00     0.049 A 
ATOM     13  C   UNL     1       0.735  -4.044   1.257  1.00  0.00     0.027 A 
ATOM     14  C   UNL     1       1.562  -3.902   3.516  1.00  0.00     0.041 A 
ATOM     15  C   UNL     1       0.407  -5.384   1.463  1.00  0.00     0.002 A 
ATOM     16  C   UNL     1       1.286  -5.257   3.706  1.00  0.00     0.018 A 
ATOM     17  Br  UNL     1       2.100  -2.892   5.041  1.00  0.00    -0.049 Br
ATOM     18  C   UNL     1       0.721  -6.001   2.671  1.00  0.00     0.001 A 
ENDBRANCH  10  12
ENDBRANCH   5  10
ENDBRANCH   3   5
ENDBRANCH   2   3
ENDBRANCH   1   2
BRANCH   1  19
ATOM     19  C   UNL     1       6.834  -4.780   1.433  1.00  0.00     0.275 C 
BRANCH  19  20
ATOM     20  O   UNL     1       7.274  -3.838   2.434  1.00  0.00    -0.458 OA
BRANCH  20  21
ATOM     21  C   UNL     1       7.288  -2.550   2.022  1.00  0.00     0.338 C 
ATOM     22  O   UNL     1       7.022  -2.144   0.900  1.00  0.00    -0.246 OA
BRANCH  21  23
ATOM     23  C   UNL     1       7.491  -1.613   3.143  1.00  0.00     0.060 A 
ATOM     24  C   UNL     1       6.482  -0.672   3.363  1.00  0.00     0.016 A 
ATOM     25  C   UNL     1       8.688  -1.527   3.850  1.00  0.00     0.016 A 
ATOM     26  C   UNL     1       6.659   0.377   4.251  1.00  0.00     0.010 A 
ATOM     27  C   UNL     1       8.874  -0.463   4.747  1.00  0.00     0.010 A 
ATOM     28  C   UNL     1       7.874   0.515   4.923  1.00  0.00    -0.014 A 
BRANCH  28  29
ATOM     29  C   UNL     1       8.120   1.776   5.667  1.00  0.00     0.031 A 
ATOM     30  C   UNL     1       9.070   2.792   5.094  1.00  0.00     0.074 A 
ATOM     31  C   UNL     1       7.418   2.060   6.780  1.00  0.00     0.049 A 
ATOM     32  N   UNL     1       9.452   3.944   5.583  1.00  0.00    -0.248 NA
ATOM     33  C   UNL     1       9.672   2.465   3.791  1.00  0.00     0.031 C 
ATOM     34  C   UNL     1       6.406   1.194   7.384  1.00  0.00     0.029 A 
ATOM     35  N   UNL     1       7.442   3.165   7.593  1.00  0.00    -0.354 N 
ATOM     36  C   UNL     1      10.358   4.463   4.666  1.00  0.00     0.074 A 
ATOM     37  C   UNL     1      10.490   3.490   3.604  1.00  0.00     0.031 C 
ATOM     38  C   UNL     1       5.904   1.801   8.472  1.00  0.00     0.029 A 
ATOM     39  C   UNL     1       6.594   3.073   8.669  1.00  0.00     0.049 A 
ATOM     40  H   UNL     1       8.013   3.949   7.422  1.00  0.00     0.167 HD
ATOM     41  C   UNL     1      11.014   5.647   4.705  1.00  0.00     0.037 A 
ATOM     42  C   UNL     1       6.418   3.908   9.711  1.00  0.00     0.037 A 
ATOM     43  C   UNL     1      10.858   6.622   5.754  1.00  0.00     0.049 A 
ATOM     44  C   UNL     1       7.213   5.187   9.764  1.00  0.00     0.074 A 
ATOM     45  C   UNL     1      11.473   7.854   5.887  1.00  0.00     0.029 A 
ATOM     46  N   UNL     1      10.024   6.473   6.854  1.00  0.00    -0.354 N 
ATOM     47  N   UNL     1       8.081   5.664   8.903  1.00  0.00    -0.248 NA
ATOM     48  C   UNL     1       6.999   6.048  10.934  1.00  0.00     0.031 C 
ATOM     49  C   UNL     1      11.060   8.422   7.096  1.00  0.00     0.029 A 
ATOM     50  C   UNL     1      10.129   7.580   7.681  1.00  0.00     0.049 A 
ATOM     51  H   UNL     1       9.444   5.695   7.021  1.00  0.00     0.167 HD
ATOM     52  C   UNL     1       8.486   6.892   9.408  1.00  0.00     0.074 A 
ATOM     53  C   UNL     1       7.753   7.096  10.640  1.00  0.00     0.031 C 
ATOM     54  C   UNL     1       9.384   7.773   8.900  1.00  0.00     0.037 A 
BRANCH  41  55
ATOM     55  C   UNL     1      11.992   5.938   3.602  1.00  0.00     0.064 A 
ATOM     56  C   UNL     1      11.581   6.192   2.285  1.00  0.00     0.173 A 
ATOM     57  C   UNL     1      13.368   5.992   3.879  1.00  0.00     0.173 A 
ATOM     58  F   UNL     1      10.280   6.138   1.961  1.00  0.00    -0.203 F 
ATOM     59  C   UNL     1      12.510   6.460   1.282  1.00  0.00     0.198 A 
ATOM     60  C   UNL     1      14.291   6.295   2.882  1.00  0.00     0.198 A 
ATOM     61  F   UNL     1      13.818   5.761   5.121  1.00  0.00    -0.203 F 
ATOM     62  F   UNL     1      12.098   6.645   0.021  1.00  0.00    -0.200 F 
ATOM     63  C   UNL     1      13.863   6.520   1.583  1.00  0.00     0.200 A 
ATOM     64  F   UNL     1      15.596   6.367   3.179  1.00  0.00    -0.200 F 
ATOM     65  F   UNL     1      14.755   6.787   0.619  1.00  0.00    -0.200 F 
ENDBRANCH  41  55
BRANCH  42  66
ATOM     66  C   UNL     1       5.473   3.554  10.805  1.00  0.00     0.064 A 
ATOM     67  C   UNL     1       4.329   4.325  11.057  1.00  0.00     0.173 A 
ATOM     68  C   UNL     1       5.718   2.460  11.649  1.00  0.00     0.173 A 
ATOM     69  F   UNL     1       4.062   5.397  10.296  1.00  0.00    -0.203 F 
ATOM     70  C   UNL     1       3.486   4.035  12.129  1.00  0.00     0.198 A 
ATOM     71  C   UNL     1       4.855   2.149  12.697  1.00  0.00     0.198 A 
ATOM     72  F   UNL     1       6.800   1.691  11.456  1.00  0.00    -0.203 F 
ATOM     73  F   UNL     1       2.439   4.829  12.388  1.00  0.00    -0.200 F 
ATOM     74  C   UNL     1       3.747   2.944  12.945  1.00  0.00     0.200 A 
ATOM     75  F   UNL     1       5.104   1.086  13.474  1.00  0.00    -0.200 F 
ATOM     76  F   UNL     1       2.939   2.669  13.978  1.00  0.00    -0.200 F 
ENDBRANCH  42  66
BRANCH  54  77
ATOM     77  C   UNL     1       9.577   9.065   9.648  1.00  0.00     0.064 A 
ATOM     78  C   UNL     1      10.171   9.109  10.918  1.00  0.00     0.173 A 
ATOM     79  C   UNL     1       9.164  10.279   9.077  1.00  0.00     0.173 A 
ATOM     80  F   UNL     1      10.575   7.978  11.516  1.00  0.00    -0.203 F 
ATOM     81  C   UNL     1      10.296  10.312  11.610  1.00  0.00     0.198 A 
ATOM     82  C   UNL     1       9.329  11.484   9.753  1.00  0.00     0.198 A 
ATOM     83  F   UNL     1       8.601  10.299   7.859  1.00  0.00    -0.203 F 
ATOM     84  F   UNL     1      10.795  10.319  12.853  1.00  0.00    -0.200 F 
ATOM     85  C   UNL     1       9.880  11.498  11.024  1.00  0.00     0.200 A 
ATOM     86  F   UNL     1       8.946  12.632   9.176  1.00  0.00    -0.200 F 
ATOM     87  F   UNL     1      10.000  12.654  11.691  1.00  0.00    -0.200 F 
ENDBRANCH  54  77
ENDBRANCH  28  29
ENDBRANCH  21  23
ENDBRANCH  20  21
ENDBRANCH  19  20
ENDBRANCH   1  19
TORSDOF 15
