REMARK SMILES C[NH2+]C[C@H](C)C(=O)N1CC[C@@](C(=O)OCCOC(=O)c2ccc(-c3c4nc(c(-c5c(F)c(F)c(F)c(F)c5F)c5ccc([nH]5)c(-c5c(F)c(F)c(F)c(F)c5F)c5nc(c(-c6c(F)c(F)c(F)c(F)c6F)c6ccc3[nH]6)C=C5)C=C4)cc2)(C(F)(F)F)C1
REMARK SMILES IDX 15 1 14 2 12 3 13 4 11 5 8 6 9 7 87 8 10 9 6 10 7 11 4 12
REMARK SMILES IDX 5 13 3 14 2 15 1 16 83 19 84 20 85 21 86 22 16 23 17 24
REMARK SMILES IDX 18 25 19 26 20 27 21 28 82 29 22 30 81 31 23 32 24 33 25 34
REMARK SMILES IDX 75 35 26 36 80 37 74 38 76 39 27 40 79 41 73 42 72 43 28 45
REMARK SMILES IDX 60 46 40 47 59 48 41 49 44 50 58 51 77 52 42 53 43 54 57 56
REMARK SMILES IDX 78 57 45 58 29 59 30 60 38 61 31 62 32 63 36 64 39 65 33 66
REMARK SMILES IDX 34 67 37 68 35 69 61 70 62 71 70 72 63 73 64 74 68 75 71 76
REMARK SMILES IDX 65 77 66 78 69 79 67 80 46 81 47 82 55 83 48 84 49 85 53 86
REMARK SMILES IDX 56 87 50 88 51 89 54 90 52 91
REMARK H PARENT 2 17 2 18 76 44 44 55
REMARK Flexibility Score: inf
ROOT
ATOM      1  C   UNL     1      -4.630   1.884   6.934  1.00  0.00     0.274 C 
ENDROOT
BRANCH   1   2
ATOM      2  O   UNL     1      -4.318   2.194   5.558  1.00  0.00    -0.461 OA
BRANCH   2   3
ATOM      3  C   UNL     1      -5.213   1.845   4.596  1.00  0.00     0.323 C 
ATOM      4  O   UNL     1      -6.286   1.307   4.831  1.00  0.00    -0.251 OA
BRANCH   3   5
ATOM      5  C   UNL     1      -4.696   2.109   3.202  1.00  0.00     0.182 C 
ATOM      6  N   UNL     1      -3.082   0.919   1.921  1.00  0.00    -0.341 N 
ATOM      7  C   UNL     1      -2.641   2.300   1.954  1.00  0.00     0.121 C 
ATOM      8  C   UNL     1      -4.380   0.763   2.561  1.00  0.00     0.148 C 
ATOM      9  C   UNL     1      -3.369   2.889   3.142  1.00  0.00     0.052 C 
BRANCH   6  10
ATOM     10  C   UNL     1      -2.484  -0.176   1.345  1.00  0.00     0.231 C 
ATOM     11  O   UNL     1      -3.132  -1.213   1.165  1.00  0.00    -0.274 OA
BRANCH  10  12
ATOM     12  C   UNL     1      -0.982  -0.188   1.089  1.00  0.00     0.130 C 
ATOM     13  C   UNL     1      -0.504   0.828   0.057  1.00  0.00     0.024 C 
BRANCH  12  14
ATOM     14  C   UNL     1      -0.210  -0.106   2.422  1.00  0.00     0.273 C 
BRANCH  14  15
ATOM     15  N   UNL     1      -0.532  -1.152   3.405  1.00  0.00    -0.348 N 
ATOM     16  C   UNL     1       0.018  -2.451   3.038  1.00  0.00     0.330 C 
ATOM     17  H   UNL     1      -0.151  -0.879   4.311  1.00  0.00     0.346 HD
ATOM     18  H   UNL     1      -1.548  -1.244   3.439  1.00  0.00     0.346 HD
ENDBRANCH  14  15
ENDBRANCH  12  14
ENDBRANCH  10  12
ENDBRANCH   6  10
BRANCH   5  19
ATOM     19  C   UNL     1      -5.765   2.812   2.404  1.00  0.00     0.406 C 
ATOM     20  F   UNL     1      -5.415   2.912   1.098  1.00  0.00    -0.170 F 
ATOM     21  F   UNL     1      -6.963   2.197   2.438  1.00  0.00    -0.170 F 
ATOM     22  F   UNL     1      -5.940   4.079   2.839  1.00  0.00    -0.170 F 
ENDBRANCH   5  19
ENDBRANCH   3   5
ENDBRANCH   2   3
ENDBRANCH   1   2
BRANCH   1  23
ATOM     23  C   UNL     1      -4.730   3.177   7.738  1.00  0.00     0.275 C 
BRANCH  23  24
ATOM     24  O   UNL     1      -5.882   3.903   7.277  1.00  0.00    -0.458 OA
BRANCH  24  25
ATOM     25  C   UNL     1      -5.641   5.069   6.645  1.00  0.00     0.338 C 
ATOM     26  O   UNL     1      -4.571   5.656   6.527  1.00  0.00    -0.246 OA
BRANCH  25  27
ATOM     27  C   UNL     1      -6.882   5.522   6.005  1.00  0.00     0.060 A 
ATOM     28  C   UNL     1      -7.475   4.702   5.048  1.00  0.00     0.016 A 
ATOM     29  C   UNL     1      -7.390   6.796   6.247  1.00  0.00     0.016 A 
ATOM     30  C   UNL     1      -8.502   5.190   4.249  1.00  0.00     0.010 A 
ATOM     31  C   UNL     1      -8.508   7.235   5.529  1.00  0.00     0.010 A 
ATOM     32  C   UNL     1      -9.057   6.452   4.496  1.00  0.00    -0.014 A 
BRANCH  32  33
ATOM     33  C   UNL     1     -10.185   6.951   3.660  1.00  0.00     0.031 A 
ATOM     34  C   UNL     1     -10.067   8.264   2.933  1.00  0.00     0.074 A 
ATOM     35  C   UNL     1     -11.314   6.226   3.530  1.00  0.00     0.049 A 
ATOM     36  N   UNL     1     -11.000   8.975   2.350  1.00  0.00    -0.248 NA
ATOM     37  C   UNL     1      -8.727   8.867   2.865  1.00  0.00     0.031 C 
ATOM     38  C   UNL     1     -11.554   4.910   4.125  1.00  0.00     0.029 A 
ATOM     39  N   UNL     1     -12.473   6.489   2.841  1.00  0.00    -0.354 N 
ATOM     40  C   UNL     1     -10.377  10.138   1.919  1.00  0.00     0.074 A 
ATOM     41  C   UNL     1      -8.982  10.033   2.288  1.00  0.00     0.031 C 
ATOM     42  C   UNL     1     -12.754   4.459   3.733  1.00  0.00     0.029 A 
ATOM     43  C   UNL     1     -13.415   5.495   2.950  1.00  0.00     0.049 A 
ATOM     44  H   UNL     1     -12.616   7.312   2.318  1.00  0.00     0.167 HD
ATOM     45  C   UNL     1     -10.927  11.200   1.283  1.00  0.00     0.037 A 
ATOM     46  C   UNL     1     -14.688   5.439   2.518  1.00  0.00     0.037 A 
ATOM     47  C   UNL     1     -12.297  11.265   0.843  1.00  0.00     0.049 A 
ATOM     48  C   UNL     1     -15.276   6.628   1.815  1.00  0.00     0.074 A 
ATOM     49  C   UNL     1     -12.943  12.290   0.175  1.00  0.00     0.029 A 
ATOM     50  N   UNL     1     -13.224  10.246   1.004  1.00  0.00    -0.354 N 
ATOM     51  N   UNL     1     -14.708   7.766   1.502  1.00  0.00    -0.248 NA
ATOM     52  C   UNL     1     -16.693   6.538   1.437  1.00  0.00     0.031 C 
ATOM     53  C   UNL     1     -14.269  11.901  -0.049  1.00  0.00     0.029 A 
ATOM     54  C   UNL     1     -14.439  10.622   0.453  1.00  0.00     0.049 A 
ATOM     55  H   UNL     1     -13.046   9.384   1.445  1.00  0.00     0.167 HD
ATOM     56  C   UNL     1     -15.695   8.531   0.901  1.00  0.00     0.074 A 
ATOM     57  C   UNL     1     -16.893   7.717   0.864  1.00  0.00     0.031 C 
ATOM     58  C   UNL     1     -15.620   9.801   0.435  1.00  0.00     0.037 A 
BRANCH  45  59
ATOM     59  C   UNL     1     -10.060  12.402   1.057  1.00  0.00     0.064 A 
ATOM     60  C   UNL     1      -9.074  12.434   0.062  1.00  0.00     0.173 A 
ATOM     61  C   UNL     1     -10.257  13.559   1.828  1.00  0.00     0.173 A 
ATOM     62  F   UNL     1      -8.838  11.349  -0.690  1.00  0.00    -0.203 F 
ATOM     63  C   UNL     1      -8.304  13.577  -0.143  1.00  0.00     0.198 A 
ATOM     64  C   UNL     1      -9.501  14.707   1.605  1.00  0.00     0.198 A 
ATOM     65  F   UNL     1     -11.191  13.580   2.790  1.00  0.00    -0.203 F 
ATOM     66  F   UNL     1      -7.343  13.577  -1.077  1.00  0.00    -0.200 F 
ATOM     67  C   UNL     1      -8.523  14.714   0.623  1.00  0.00     0.200 A 
ATOM     68  F   UNL     1      -9.721  15.806   2.340  1.00  0.00    -0.200 F 
ATOM     69  F   UNL     1      -7.786  15.814   0.418  1.00  0.00    -0.200 F 
ENDBRANCH  45  59
BRANCH  46  70
ATOM     70  C   UNL     1     -15.507   4.232   2.797  1.00  0.00     0.064 A 
ATOM     71  C   UNL     1     -15.885   3.363   1.765  1.00  0.00     0.173 A 
ATOM     72  C   UNL     1     -15.907   3.910   4.103  1.00  0.00     0.173 A 
ATOM     73  F   UNL     1     -15.551   3.645   0.497  1.00  0.00    -0.203 F 
ATOM     74  C   UNL     1     -16.633   2.218   2.030  1.00  0.00     0.198 A 
ATOM     75  C   UNL     1     -16.629   2.750   4.370  1.00  0.00     0.198 A 
ATOM     76  F   UNL     1     -15.572   4.713   5.125  1.00  0.00    -0.203 F 
ATOM     77  F   UNL     1     -17.010   1.419   1.022  1.00  0.00    -0.200 F 
ATOM     78  C   UNL     1     -16.995   1.907   3.332  1.00  0.00     0.200 A 
ATOM     79  F   UNL     1     -16.964   2.448   5.631  1.00  0.00    -0.200 F 
ATOM     80  F   UNL     1     -17.702   0.798   3.587  1.00  0.00    -0.200 F 
ENDBRANCH  46  70
BRANCH  58  81
ATOM     81  C   UNL     1     -16.869  10.380  -0.155  1.00  0.00     0.064 A 
ATOM     82  C   UNL     1     -17.919  10.823   0.661  1.00  0.00     0.173 A 
ATOM     83  C   UNL     1     -17.006  10.517  -1.543  1.00  0.00     0.173 A 
ATOM     84  F   UNL     1     -17.838  10.695   1.994  1.00  0.00    -0.203 F 
ATOM     85  C   UNL     1     -19.073  11.367   0.105  1.00  0.00     0.198 A 
ATOM     86  C   UNL     1     -18.153  11.079  -2.095  1.00  0.00     0.198 A 
ATOM     87  F   UNL     1     -16.025  10.108  -2.363  1.00  0.00    -0.203 F 
ATOM     88  F   UNL     1     -20.082  11.750   0.900  1.00  0.00    -0.200 F 
ATOM     89  C   UNL     1     -19.187  11.499  -1.271  1.00  0.00     0.200 A 
ATOM     90  F   UNL     1     -18.260  11.211  -3.424  1.00  0.00    -0.200 F 
ATOM     91  F   UNL     1     -20.299  12.023  -1.805  1.00  0.00    -0.200 F 
ENDBRANCH  58  81
ENDBRANCH  32  33
ENDBRANCH  25  27
ENDBRANCH  24  25
ENDBRANCH  23  24
ENDBRANCH   1  23
TORSDOF 16
