REMARK SMILES COc1cc2cc(C(=O)OCCOC(=O)c3ccc(-c4c5nc(c(-c6c(F)c(F)c(F)c(F)c6F)c6ccc([nH]6)c(-c6c(F)c(F)c(F)c(F)c6F)c6nc(c(-c7c(F)c(F)c(F)c(F)c7F)c7ccc4[nH]7)C=C6)C=C5)cc3)n(Cc3ccccc3)c2c(OC)c1OC
REMARK SMILES IDX 11 1 10 2 8 3 9 4 7 5 3 6 4 7 91 8 5 9 88 10 6 11 87 12
REMARK SMILES IDX 79 13 2 14 1 15 92 16 93 17 89 18 90 19 80 20 81 21 82 22
REMARK SMILES IDX 86 23 83 24 85 25 84 26 12 27 13 28 14 29 15 30 16 31 17 32
REMARK SMILES IDX 78 33 18 34 77 35 19 36 20 37 21 38 71 39 22 40 76 41 70 42
REMARK SMILES IDX 72 43 23 44 75 45 69 46 68 47 24 49 56 50 36 51 55 52 37 53
REMARK SMILES IDX 40 54 54 55 73 56 38 57 39 58 53 60 74 61 41 62 25 63 26 64
REMARK SMILES IDX 34 65 27 66 28 67 32 68 35 69 29 70 30 71 33 72 31 73 57 74
REMARK SMILES IDX 58 75 66 76 59 77 60 78 64 79 67 80 61 81 62 82 65 83 63 84
REMARK SMILES IDX 42 85 43 86 51 87 44 88 45 89 49 90 52 91 46 92 47 93 50 94
REMARK SMILES IDX 48 95
REMARK H PARENT 72 48 40 59
REMARK Flexibility Score: inf
ROOT
ATOM      1  C   UNL     1       0.406  -5.936   8.839  1.00  0.00     0.275 C 
ENDROOT
BRANCH   1   2
ATOM      2  O   UNL     1       1.050  -5.154   7.798  1.00  0.00    -0.457 OA
BRANCH   2   3
ATOM      3  C   UNL     1       0.445  -5.128   6.587  1.00  0.00     0.355 C 
ATOM      4  O   UNL     1      -0.555  -5.803   6.335  1.00  0.00    -0.244 OA
BRANCH   3   5
ATOM      5  C   UNL     1       1.006  -4.141   5.663  1.00  0.00     0.129 A 
ATOM      6  C   UNL     1       1.544  -0.897   2.341  1.00  0.00     0.165 A 
ATOM      7  C   UNL     1       0.577  -1.655   2.983  1.00  0.00     0.061 A 
ATOM      8  C   UNL     1       2.901  -1.118   2.624  1.00  0.00     0.205 A 
ATOM      9  C   UNL     1       0.972  -2.572   3.972  1.00  0.00     0.008 A 
ATOM     10  C   UNL     1       3.302  -2.045   3.643  1.00  0.00     0.189 A 
ATOM     11  C   UNL     1       0.262  -3.516   4.696  1.00  0.00     0.044 A 
ATOM     12  C   UNL     1       2.293  -2.724   4.370  1.00  0.00     0.096 A 
ATOM     13  N   UNL     1       2.279  -3.607   5.473  1.00  0.00    -0.327 N 
BRANCH   6  14
ATOM     14  O   UNL     1       1.169   0.142   1.527  1.00  0.00    -0.493 OA
ATOM     15  C   UNL     1       0.276  -0.210   0.472  1.00  0.00     0.278 C 
ENDBRANCH   6  14
BRANCH   8  16
ATOM     16  O   UNL     1       3.904  -0.424   1.979  1.00  0.00    -0.490 OA
ATOM     17  C   UNL     1       3.689  -0.166   0.591  1.00  0.00     0.278 C 
ENDBRANCH   8  16
BRANCH  10  18
ATOM     18  O   UNL     1       4.613  -2.310   3.950  1.00  0.00    -0.491 OA
ATOM     19  C   UNL     1       5.441  -2.538   2.811  1.00  0.00     0.278 C 
ENDBRANCH  10  18
BRANCH  13  20
ATOM     20  C   UNL     1       3.437  -4.043   6.236  1.00  0.00     0.158 C 
BRANCH  20  21
ATOM     21  C   UNL     1       3.648  -3.315   7.546  1.00  0.00    -0.028 A 
ATOM     22  C   UNL     1       2.607  -2.823   8.352  1.00  0.00     0.005 A 
ATOM     23  C   UNL     1       4.951  -3.273   8.059  1.00  0.00     0.005 A 
ATOM     24  C   UNL     1       2.845  -2.401   9.661  1.00  0.00     0.000 A 
ATOM     25  C   UNL     1       5.196  -2.811   9.353  1.00  0.00     0.000 A 
ATOM     26  C   UNL     1       4.140  -2.404  10.164  1.00  0.00     0.000 A 
ENDBRANCH  20  21
ENDBRANCH  13  20
ENDBRANCH   3   5
ENDBRANCH   2   3
ENDBRANCH   1   2
BRANCH   1  27
ATOM     27  C   UNL     1      -0.309  -5.043   9.866  1.00  0.00     0.275 C 
BRANCH  27  28
ATOM     28  O   UNL     1      -1.585  -4.654   9.336  1.00  0.00    -0.458 OA
BRANCH  28  29
ATOM     29  C   UNL     1      -1.786  -3.344   9.076  1.00  0.00     0.338 C 
ATOM     30  O   UNL     1      -1.187  -2.392   9.562  1.00  0.00    -0.246 OA
BRANCH  29  31
ATOM     31  C   UNL     1      -2.582  -3.304   7.831  1.00  0.00     0.060 A 
ATOM     32  C   UNL     1      -3.414  -4.377   7.474  1.00  0.00     0.016 A 
ATOM     33  C   UNL     1      -2.209  -2.359   6.883  1.00  0.00     0.016 A 
ATOM     34  C   UNL     1      -3.624  -4.669   6.128  1.00  0.00     0.010 A 
ATOM     35  C   UNL     1      -2.489  -2.622   5.551  1.00  0.00     0.010 A 
ATOM     36  C   UNL     1      -3.044  -3.860   5.156  1.00  0.00    -0.014 A 
BRANCH  36  37
ATOM     37  C   UNL     1      -3.141  -4.210   3.720  1.00  0.00     0.031 A 
ATOM     38  C   UNL     1      -4.235  -3.449   3.106  1.00  0.00     0.074 A 
ATOM     39  C   UNL     1      -2.391  -4.992   2.894  1.00  0.00     0.049 A 
ATOM     40  N   UNL     1      -5.439  -3.888   2.972  1.00  0.00    -0.248 NA
ATOM     41  C   UNL     1      -4.058  -2.025   2.807  1.00  0.00     0.031 C 
ATOM     42  C   UNL     1      -1.132  -5.707   3.118  1.00  0.00     0.029 A 
ATOM     43  N   UNL     1      -2.599  -5.243   1.557  1.00  0.00    -0.354 N 
ATOM     44  C   UNL     1      -6.132  -2.854   2.381  1.00  0.00     0.074 A 
ATOM     45  C   UNL     1      -5.319  -1.677   2.545  1.00  0.00     0.031 C 
ATOM     46  C   UNL     1      -0.557  -6.057   1.942  1.00  0.00     0.029 A 
ATOM     47  C   UNL     1      -1.527  -5.839   0.891  1.00  0.00     0.049 A 
ATOM     48  H   UNL     1      -3.444  -5.019   1.103  1.00  0.00     0.167 HD
ATOM     49  C   UNL     1      -7.169  -3.122   1.548  1.00  0.00     0.037 A 
ATOM     50  C   UNL     1      -1.462  -6.224  -0.409  1.00  0.00     0.037 A 
ATOM     51  C   UNL     1      -7.592  -4.502   1.660  1.00  0.00     0.049 A 
ATOM     52  C   UNL     1      -2.854  -6.457  -0.844  1.00  0.00     0.074 A 
ATOM     53  C   UNL     1      -8.011  -5.313   2.700  1.00  0.00     0.029 A 
ATOM     54  N   UNL     1      -7.238  -5.361   0.648  1.00  0.00    -0.354 N 
ATOM     55  N   UNL     1      -3.592  -7.443  -0.420  1.00  0.00    -0.248 NA
ATOM     56  C   UNL     1      -3.565  -5.364  -1.483  1.00  0.00     0.031 C 
ATOM     57  C   UNL     1      -7.462  -6.602   2.424  1.00  0.00     0.029 A 
ATOM     58  C   UNL     1      -6.779  -6.523   1.211  1.00  0.00     0.049 A 
ATOM     59  H   UNL     1      -7.303  -5.173  -0.317  1.00  0.00     0.167 HD
ATOM     60  C   UNL     1      -4.858  -6.896  -0.316  1.00  0.00     0.074 A 
ATOM     61  C   UNL     1      -4.809  -5.673  -1.111  1.00  0.00     0.031 C 
ATOM     62  C   UNL     1      -5.726  -7.333   0.641  1.00  0.00     0.037 A 
BRANCH  49  63
ATOM     63  C   UNL     1      -7.521  -2.257   0.369  1.00  0.00     0.064 A 
ATOM     64  C   UNL     1      -8.726  -2.506  -0.309  1.00  0.00     0.173 A 
ATOM     65  C   UNL     1      -6.622  -1.381  -0.282  1.00  0.00     0.173 A 
ATOM     66  F   UNL     1      -9.633  -3.352   0.202  1.00  0.00    -0.203 F 
ATOM     67  C   UNL     1      -8.983  -1.969  -1.571  1.00  0.00     0.198 A 
ATOM     68  C   UNL     1      -6.912  -0.793  -1.508  1.00  0.00     0.198 A 
ATOM     69  F   UNL     1      -5.384  -1.150   0.169  1.00  0.00    -0.203 F 
ATOM     70  F   UNL     1     -10.083  -2.342  -2.237  1.00  0.00    -0.200 F 
ATOM     71  C   UNL     1      -8.077  -1.112  -2.168  1.00  0.00     0.200 A 
ATOM     72  F   UNL     1      -6.008   0.016  -2.079  1.00  0.00    -0.200 F 
ATOM     73  F   UNL     1      -8.297  -0.639  -3.401  1.00  0.00    -0.200 F 
ENDBRANCH  49  63
BRANCH  50  74
ATOM     74  C   UNL     1      -0.336  -6.299  -1.372  1.00  0.00     0.064 A 
ATOM     75  C   UNL     1      -0.442  -7.051  -2.558  1.00  0.00     0.173 A 
ATOM     76  C   UNL     1       0.717  -5.369  -1.315  1.00  0.00     0.173 A 
ATOM     77  F   UNL     1      -1.435  -7.938  -2.711  1.00  0.00    -0.203 F 
ATOM     78  C   UNL     1       0.416  -6.842  -3.643  1.00  0.00     0.198 A 
ATOM     79  C   UNL     1       1.577  -5.164  -2.400  1.00  0.00     0.198 A 
ATOM     80  F   UNL     1       0.859  -4.566  -0.251  1.00  0.00    -0.203 F 
ATOM     81  F   UNL     1       0.227  -7.518  -4.786  1.00  0.00    -0.200 F 
ATOM     82  C   UNL     1       1.413  -5.886  -3.570  1.00  0.00     0.200 A 
ATOM     83  F   UNL     1       2.514  -4.208  -2.335  1.00  0.00    -0.200 F 
ATOM     84  F   UNL     1       2.182  -5.625  -4.637  1.00  0.00    -0.200 F 
ENDBRANCH  50  74
BRANCH  62  85
ATOM     85  C   UNL     1      -5.424  -8.642   1.322  1.00  0.00     0.064 A 
ATOM     86  C   UNL     1      -4.301  -8.879   2.134  1.00  0.00     0.173 A 
ATOM     87  C   UNL     1      -6.392  -9.653   1.257  1.00  0.00     0.173 A 
ATOM     88  F   UNL     1      -3.365  -7.940   2.312  1.00  0.00    -0.203 F 
ATOM     89  C   UNL     1      -4.149 -10.081   2.828  1.00  0.00     0.198 A 
ATOM     90  C   UNL     1      -6.256 -10.837   1.977  1.00  0.00     0.198 A 
ATOM     91  F   UNL     1      -7.503  -9.472   0.525  1.00  0.00    -0.203 F 
ATOM     92  F   UNL     1      -3.066 -10.285   3.593  1.00  0.00    -0.200 F 
ATOM     93  C   UNL     1      -5.133 -11.053   2.758  1.00  0.00     0.200 A 
ATOM     94  F   UNL     1      -7.229 -11.757   1.937  1.00  0.00    -0.200 F 
ATOM     95  F   UNL     1      -5.011 -12.187   3.463  1.00  0.00    -0.200 F 
ENDBRANCH  62  85
ENDBRANCH  36  37
ENDBRANCH  29  31
ENDBRANCH  28  29
ENDBRANCH  27  28
ENDBRANCH   1  27
TORSDOF 16
