REMARK SMILES [NH3+][C@H](C(=O)OCCOC(=O)c1ccc(-c2c3nc(c(-c4c(F)c(F)c(F)c(F)c4F)c4ccc([nH]4)c(-c4c(F)c(F)c(F)c(F)c4F)c4nc(c(-c5c(F)c(F)c(F)c(F)c5F)c5ccc2[nH]5)C=C4)C=C3)cc1)c1cc2c(cc1Br)OCO2
REMARK SMILES IDX 7 1 6 2 5 3 3 4 4 5 2 6 1 7 74 11 75 12 79 13 76 14 78 15
REMARK SMILES IDX 80 16 77 17 83 18 81 19 82 20 8 21 9 22 10 23 11 24 12 25
REMARK SMILES IDX 73 26 13 27 72 28 14 29 15 30 16 31 66 32 17 33 71 34 65 35
REMARK SMILES IDX 67 36 18 37 70 38 64 39 63 40 19 42 51 43 31 44 50 45 32 46
REMARK SMILES IDX 35 47 49 48 68 49 33 50 34 51 48 53 69 54 36 55 20 56 21 57
REMARK SMILES IDX 29 58 22 59 23 60 27 61 30 62 24 63 25 64 28 65 26 66 52 67
REMARK SMILES IDX 53 68 61 69 54 70 55 71 59 72 62 73 56 74 57 75 60 76 58 77
REMARK SMILES IDX 37 78 38 79 46 80 39 81 40 82 44 83 47 84 41 85 42 86 45 87
REMARK SMILES IDX 43 88
REMARK H PARENT 1 8 1 9 1 10 67 41 35 52
REMARK Flexibility Score: inf
ROOT
ATOM      1  C   UNL     1       3.513  -1.861  -0.032  1.00  0.00     0.275 C 
ENDROOT
BRANCH   1   2
ATOM      2  C   UNL     1       2.020  -2.185   0.075  1.00  0.00     0.274 C 
BRANCH   2   3
ATOM      3  O   UNL     1       1.254  -1.306  -0.768  1.00  0.00    -0.457 OA
BRANCH   3   4
ATOM      4  C   UNL     1       0.494  -0.358  -0.149  1.00  0.00     0.369 C 
ATOM      5  O   UNL     1       0.361  -0.259   1.067  1.00  0.00    -0.245 OA
BRANCH   4   6
ATOM      6  C   UNL     1      -0.153   0.621  -1.153  1.00  0.00     0.324 C 
BRANCH   6   7
ATOM      7  N   UNL     1       0.444   0.574  -2.505  1.00  0.00    -0.342 N 
ATOM      8  H   UNL     1      -0.032   1.243  -3.110  1.00  0.00     0.345 HD
ATOM      9  H   UNL     1       0.341  -0.365  -2.889  1.00  0.00     0.345 HD
ATOM     10  H   UNL     1       1.434   0.811  -2.448  1.00  0.00     0.345 HD
ENDBRANCH   6   7
BRANCH   6  11
ATOM     11  C   UNL     1      -1.667   0.523  -1.150  1.00  0.00     0.039 A 
ATOM     12  C   UNL     1      -2.383   1.593  -0.564  1.00  0.00     0.062 A 
ATOM     13  C   UNL     1      -2.396  -0.596  -1.627  1.00  0.00     0.031 A 
ATOM     14  C   UNL     1      -3.753   1.496  -0.449  1.00  0.00     0.166 A 
ATOM     15  C   UNL     1      -3.792  -0.656  -1.510  1.00  0.00     0.066 A 
ATOM     16  Br  UNL     1      -1.562  -2.104  -2.432  1.00  0.00    -0.050 Br
ATOM     17  C   UNL     1      -4.437   0.399  -0.906  1.00  0.00     0.166 A 
ATOM     18  O   UNL     1      -4.569   2.416   0.128  1.00  0.00    -0.454 OA
ATOM     19  O   UNL     1      -5.773   0.488  -0.673  1.00  0.00    -0.454 OA
ATOM     20  C   UNL     1      -5.839   1.735   0.050  1.00  0.00     0.468 C 
ENDBRANCH   6  11
ENDBRANCH   4   6
ENDBRANCH   3   4
ENDBRANCH   2   3
ENDBRANCH   1   2
BRANCH   1  21
ATOM     21  O   UNL     1       3.833  -0.610   0.608  1.00  0.00    -0.458 OA
BRANCH  21  22
ATOM     22  C   UNL     1       3.665   0.490  -0.162  1.00  0.00     0.338 C 
ATOM     23  O   UNL     1       3.306   0.539  -1.326  1.00  0.00    -0.246 OA
BRANCH  22  24
ATOM     24  C   UNL     1       3.826   1.694   0.665  1.00  0.00     0.060 A 
ATOM     25  C   UNL     1       2.727   2.547   0.787  1.00  0.00     0.016 A 
ATOM     26  C   UNL     1       5.052   2.027   1.240  1.00  0.00     0.016 A 
ATOM     27  C   UNL     1       2.850   3.755   1.460  1.00  0.00     0.010 A 
ATOM     28  C   UNL     1       5.173   3.237   1.929  1.00  0.00     0.010 A 
ATOM     29  C   UNL     1       4.078   4.113   2.028  1.00  0.00    -0.014 A 
BRANCH  29  30
ATOM     30  C   UNL     1       4.222   5.437   2.674  1.00  0.00     0.031 A 
ATOM     31  C   UNL     1       5.004   6.516   1.986  1.00  0.00     0.074 A 
ATOM     32  C   UNL     1       3.630   5.670   3.859  1.00  0.00     0.049 A 
ATOM     33  N   UNL     1       5.346   7.700   2.425  1.00  0.00    -0.248 NA
ATOM     34  C   UNL     1       5.465   6.222   0.621  1.00  0.00     0.031 C 
ATOM     35  C   UNL     1       2.798   4.714   4.588  1.00  0.00     0.029 A 
ATOM     36  N   UNL     1       3.641   6.785   4.657  1.00  0.00    -0.354 N 
ATOM     37  C   UNL     1       6.085   8.280   1.404  1.00  0.00     0.074 A 
ATOM     38  C   UNL     1       6.152   7.317   0.326  1.00  0.00     0.031 C 
ATOM     39  C   UNL     1       2.379   5.282   5.731  1.00  0.00     0.029 A 
ATOM     40  C   UNL     1       2.956   6.619   5.835  1.00  0.00     0.049 A 
ATOM     41  H   UNL     1       4.095   7.623   4.410  1.00  0.00     0.167 HD
ATOM     42  C   UNL     1       6.656   9.508   1.375  1.00  0.00     0.037 A 
ATOM     43  C   UNL     1       2.840   7.442   6.894  1.00  0.00     0.037 A 
ATOM     44  C   UNL     1       6.564  10.467   2.445  1.00  0.00     0.049 A 
ATOM     45  C   UNL     1       3.524   8.781   6.856  1.00  0.00     0.074 A 
ATOM     46  C   UNL     1       7.103  11.739   2.515  1.00  0.00     0.029 A 
ATOM     47  N   UNL     1       5.881  10.255   3.634  1.00  0.00    -0.354 N 
ATOM     48  N   UNL     1       4.247   9.313   5.901  1.00  0.00    -0.248 NA
ATOM     49  C   UNL     1       3.384   9.630   8.047  1.00  0.00     0.031 C 
ATOM     50  C   UNL     1       6.776  12.284   3.762  1.00  0.00     0.029 A 
ATOM     51  C   UNL     1       5.997  11.368   4.451  1.00  0.00     0.049 A 
ATOM     52  H   UNL     1       5.386   9.435   3.864  1.00  0.00     0.167 HD
ATOM     53  C   UNL     1       4.634  10.562   6.365  1.00  0.00     0.074 A 
ATOM     54  C   UNL     1       4.052  10.715   7.683  1.00  0.00     0.031 C 
ATOM     55  C   UNL     1       5.405  11.497   5.758  1.00  0.00     0.037 A 
BRANCH  42  56
ATOM     56  C   UNL     1       7.458   9.869   0.160  1.00  0.00     0.064 A 
ATOM     57  C   UNL     1       6.849  10.162  -1.069  1.00  0.00     0.173 A 
ATOM     58  C   UNL     1       8.857   9.945   0.235  1.00  0.00     0.173 A 
ATOM     59  F   UNL     1       5.516  10.087  -1.196  1.00  0.00    -0.203 F 
ATOM     60  C   UNL     1       7.614  10.496  -2.184  1.00  0.00     0.198 A 
ATOM     61  C   UNL     1       9.617  10.304  -0.875  1.00  0.00     0.198 A 
ATOM     62  F   UNL     1       9.489   9.676   1.388  1.00  0.00    -0.203 F 
ATOM     63  F   UNL     1       7.014  10.729  -3.360  1.00  0.00    -0.200 F 
ATOM     64  C   UNL     1       8.995  10.573  -2.085  1.00  0.00     0.200 A 
ATOM     65  F   UNL     1      10.951  10.386  -0.775  1.00  0.00    -0.200 F 
ATOM     66  F   UNL     1       9.729  10.897  -3.159  1.00  0.00    -0.200 F 
ENDBRANCH  42  56
BRANCH  43  67
ATOM     67  C   UNL     1       2.069   7.006   8.085  1.00  0.00     0.064 A 
ATOM     68  C   UNL     1       0.847   7.607   8.415  1.00  0.00     0.173 A 
ATOM     69  C   UNL     1       2.536   5.975   8.915  1.00  0.00     0.173 A 
ATOM     70  F   UNL     1       0.372   8.614   7.667  1.00  0.00    -0.203 F 
ATOM     71  C   UNL     1       0.126   7.199   9.536  1.00  0.00     0.198 A 
ATOM     72  C   UNL     1       1.801   5.550  10.018  1.00  0.00     0.198 A 
ATOM     73  F   UNL     1       3.701   5.370   8.642  1.00  0.00    -0.203 F 
ATOM     74  F   UNL     1      -1.022   7.816   9.851  1.00  0.00    -0.200 F 
ATOM     75  C   UNL     1       0.599   6.167  10.332  1.00  0.00     0.200 A 
ATOM     76  F   UNL     1       2.256   4.545  10.778  1.00  0.00    -0.200 F 
ATOM     77  F   UNL     1      -0.099   5.771  11.405  1.00  0.00    -0.200 F 
ENDBRANCH  43  67
BRANCH  55  78
ATOM     78  C   UNL     1       5.638  12.777   6.503  1.00  0.00     0.064 A 
ATOM     79  C   UNL     1       6.510  12.838   7.600  1.00  0.00     0.173 A 
ATOM     80  C   UNL     1       5.008  13.962   6.093  1.00  0.00     0.173 A 
ATOM     81  F   UNL     1       7.121  11.728   8.038  1.00  0.00    -0.203 F 
ATOM     82  C   UNL     1       6.727  14.037   8.273  1.00  0.00     0.198 A 
ATOM     83  C   UNL     1       5.247  15.163   6.753  1.00  0.00     0.198 A 
ATOM     84  F   UNL     1       4.169  13.954   5.047  1.00  0.00    -0.203 F 
ATOM     85  F   UNL     1       7.532  14.066   9.344  1.00  0.00    -0.200 F 
ATOM     86  C   UNL     1       6.101  15.199   7.846  1.00  0.00     0.200 A 
ATOM     87  F   UNL     1       4.650  16.287   6.333  1.00  0.00    -0.200 F 
ATOM     88  F   UNL     1       6.315  16.353   8.492  1.00  0.00    -0.200 F 
ENDBRANCH  55  78
ENDBRANCH  29  30
ENDBRANCH  22  24
ENDBRANCH  21  22
ENDBRANCH   1  21
TORSDOF 13
