REMARK SMILES CC1=C([C@H](NC(=O)[C@@H]2[C@H](C)c3cc(F)ccc3N2C)C(=O)OCCOC(=O)c2ccc(-c3c4nc(c(-c5c(F)c(F)c(F)c(F)c5F)c5ccc([nH]5)c(-c5c(F)c(F)c(F)c(F)c5F)c5nc(c(-c6c(F)c(F)c(F)c(F)c6F)c6ccc3[nH]6)C=C5)C=C4)cc2)[C@@H](C)N=N1
REMARK SMILES IDX 23 1 22 2 20 3 21 4 4 5 3 6 1 7 2 8 94 9 91 10 93 11 92 12
REMARK SMILES IDX 5 13 6 14 7 16 8 17 9 18 18 19 11 20 10 21 17 22 19 23 12 24
REMARK SMILES IDX 16 25 13 26 15 27 14 28 24 29 25 30 26 31 27 32 28 33 29 34
REMARK SMILES IDX 90 35 30 36 89 37 31 38 32 39 33 40 83 41 34 42 88 43 82 44
REMARK SMILES IDX 84 45 35 46 87 47 81 48 80 49 36 51 68 52 48 53 67 54 49 55
REMARK SMILES IDX 52 56 66 57 85 58 50 59 51 60 65 62 86 63 53 64 37 65 38 66
REMARK SMILES IDX 46 67 39 68 40 69 44 70 47 71 41 72 42 73 45 74 43 75 69 76
REMARK SMILES IDX 70 77 78 78 71 79 72 80 76 81 79 82 73 83 74 84 77 85 75 86
REMARK SMILES IDX 54 87 55 88 63 89 56 90 57 91 61 92 64 93 58 94 59 95 62 96
REMARK SMILES IDX 60 97
REMARK H PARENT 5 15 84 50 52 61
REMARK Flexibility Score: inf
ROOT
ATOM      1  C   UNL     1      -3.803  -1.168  -4.379  1.00  0.00     0.274 C 
ENDROOT
BRANCH   1   2
ATOM      2  O   UNL     1      -2.415  -1.160  -3.946  1.00  0.00    -0.460 OA
BRANCH   2   3
ATOM      3  C   UNL     1      -1.826   0.065  -4.008  1.00  0.00     0.333 C 
ATOM      4  O   UNL     1      -2.450   1.078  -4.310  1.00  0.00    -0.249 OA
BRANCH   3   5
ATOM      5  C   UNL     1      -0.286   0.075  -3.814  1.00  0.00     0.223 C 
BRANCH   5   6
ATOM      6  C   UNL     1       0.503   0.288  -5.078  1.00  0.00     0.012 C 
ATOM      7  C   UNL     1       2.884   0.783  -4.226  1.00  0.00     0.069 C 
ATOM      8  C   UNL     1       1.795   0.627  -5.229  1.00  0.00     0.064 C 
ATOM      9  N   UNL     1       2.116   0.936  -6.526  1.00  0.00    -0.160 NA
ATOM     10  C   UNL     1      -0.091   0.487  -6.448  1.00  0.00     0.156 C 
ATOM     11  N   UNL     1       1.103   0.848  -7.261  1.00  0.00    -0.181 NA
ATOM     12  C   UNL     1      -1.097   1.624  -6.657  1.00  0.00     0.040 C 
ENDBRANCH   5   6
BRANCH   5  13
ATOM     13  N   UNL     1       0.256  -0.984  -2.927  1.00  0.00    -0.337 N 
ATOM     14  C   UNL     1       0.601  -1.015  -1.581  1.00  0.00     0.244 C 
ATOM     15  H   UNL     1       0.400  -1.843  -3.387  1.00  0.00     0.164 HD
ATOM     16  O   UNL     1       0.866  -2.129  -1.108  1.00  0.00    -0.273 OA
BRANCH  14  17
ATOM     17  C   UNL     1       0.825   0.263  -0.670  1.00  0.00     0.178 C 
ATOM     18  C   UNL     1      -0.025   0.507   0.745  1.00  0.00     0.050 C 
ATOM     19  N   UNL     1       0.823   1.451  -1.578  1.00  0.00    -0.362 N 
ATOM     20  C   UNL     1      -0.948   1.682   0.457  1.00  0.00    -0.016 A 
ATOM     21  C   UNL     1      -0.817  -0.724   1.156  1.00  0.00     0.015 C 
ATOM     22  C   UNL     1      -0.490   1.934  -1.452  1.00  0.00     0.041 A 
ATOM     23  C   UNL     1       2.015   2.285  -1.438  1.00  0.00     0.144 C 
ATOM     24  C   UNL     1      -2.445   2.636   1.286  1.00  0.00     0.045 A 
ATOM     25  C   UNL     1      -1.745   3.117  -2.417  1.00  0.00     0.029 A 
ATOM     26  C   UNL     1      -3.696   3.851   0.324  1.00  0.00     0.123 A 
ATOM     27  C   UNL     1      -3.292   4.033  -1.602  1.00  0.00     0.041 A 
ATOM     28  F   UNL     1      -4.747   4.430   0.919  1.00  0.00    -0.207 F 
ENDBRANCH  14  17
ENDBRANCH   5  13
ENDBRANCH   3   5
ENDBRANCH   2   3
ENDBRANCH   1   2
BRANCH   1  29
ATOM     29  C   UNL     1      -4.791  -1.184  -3.209  1.00  0.00     0.275 C 
BRANCH  29  30
ATOM     30  O   UNL     1      -4.757   0.093  -2.565  1.00  0.00    -0.458 OA
BRANCH  30  31
ATOM     31  C   UNL     1      -4.045   0.143  -1.422  1.00  0.00     0.338 C 
ATOM     32  O   UNL     1      -3.770  -0.757  -0.653  1.00  0.00    -0.246 OA
BRANCH  31  33
ATOM     33  C   UNL     1      -3.435   1.464  -1.484  1.00  0.00     0.060 A 
ATOM     34  C   UNL     1      -3.137   2.337  -0.588  1.00  0.00     0.016 A 
ATOM     35  C   UNL     1      -2.296   1.807  -0.973  1.00  0.00     0.016 A 
ATOM     36  C   UNL     1      -1.923   3.923  -0.229  1.00  0.00     0.010 A 
ATOM     37  C   UNL     1      -1.105   3.381  -0.507  1.00  0.00     0.010 A 
ATOM     38  C   UNL     1      -0.934   4.652  -0.625  1.00  0.00    -0.014 A 
BRANCH  38  39
ATOM     39  C   UNL     1       0.215   5.152  -1.381  1.00  0.00     0.031 A 
ATOM     40  C   UNL     1       0.803   6.012  -0.346  1.00  0.00     0.074 A 
ATOM     41  C   UNL     1       0.935   5.091  -2.552  1.00  0.00     0.049 A 
ATOM     42  N   UNL     1       0.444   7.239  -0.228  1.00  0.00    -0.248 NA
ATOM     43  C   UNL     1       1.441   5.429   0.846  1.00  0.00     0.031 C 
ATOM     44  C   UNL     1       0.875   4.244  -3.761  1.00  0.00     0.029 A 
ATOM     45  N   UNL     1       2.049   5.862  -2.869  1.00  0.00    -0.354 N 
ATOM     46  C   UNL     1       0.939   7.642   0.982  1.00  0.00     0.074 A 
ATOM     47  C   UNL     1       1.332   6.453   1.694  1.00  0.00     0.031 C 
ATOM     48  C   UNL     1       1.977   4.398  -4.541  1.00  0.00     0.029 A 
ATOM     49  C   UNL     1       2.767   5.482  -4.013  1.00  0.00     0.049 A 
ATOM     50  H   UNL     1       2.318   6.633  -2.320  1.00  0.00     0.167 HD
ATOM     51  C   UNL     1       1.218   8.951   1.158  1.00  0.00     0.037 A 
ATOM     52  C   UNL     1       3.851   6.083  -4.579  1.00  0.00     0.037 A 
ATOM     53  C   UNL     1       0.593   9.764   0.134  1.00  0.00     0.049 A 
ATOM     54  C   UNL     1       3.764   7.506  -4.202  1.00  0.00     0.074 A 
ATOM     55  C   UNL     1      -0.723   9.942  -0.265  1.00  0.00     0.029 A 
ATOM     56  N   UNL     1       1.359  10.104  -0.958  1.00  0.00    -0.354 N 
ATOM     57  N   UNL     1       2.845   8.313  -4.644  1.00  0.00    -0.248 NA
ATOM     58  C   UNL     1       4.454   7.924  -2.998  1.00  0.00     0.031 C 
ATOM     59  C   UNL     1      -0.695   9.959  -1.694  1.00  0.00     0.029 A 
ATOM     60  C   UNL     1       0.634   9.871  -2.104  1.00  0.00     0.049 A 
ATOM     61  H   UNL     1       2.277  10.457  -0.924  1.00  0.00     0.167 HD
ATOM     62  C   UNL     1       2.498   9.056  -3.531  1.00  0.00     0.074 A 
ATOM     63  C   UNL     1       3.596   8.858  -2.586  1.00  0.00     0.031 C 
ATOM     64  C   UNL     1       1.225   9.520  -3.378  1.00  0.00     0.037 A 
BRANCH  51  65
ATOM     65  C   UNL     1       2.364   9.365   2.012  1.00  0.00     0.064 A 
ATOM     66  C   UNL     1       2.444  10.687   2.457  1.00  0.00     0.173 A 
ATOM     67  C   UNL     1       3.504   8.556   2.230  1.00  0.00     0.173 A 
ATOM     68  F   UNL     1       1.432  11.539   2.238  1.00  0.00    -0.203 F 
ATOM     69  C   UNL     1       3.597  11.169   3.073  1.00  0.00     0.198 A 
ATOM     70  C   UNL     1       4.621   9.018   2.908  1.00  0.00     0.198 A 
ATOM     71  F   UNL     1       3.624   7.330   1.702  1.00  0.00    -0.203 F 
ATOM     72  F   UNL     1       3.681  12.466   3.394  1.00  0.00    -0.200 F 
ATOM     73  C   UNL     1       4.678  10.333   3.309  1.00  0.00     0.200 A 
ATOM     74  F   UNL     1       5.663   8.196   3.098  1.00  0.00    -0.200 F 
ATOM     75  F   UNL     1       5.796  10.807   3.872  1.00  0.00    -0.200 F 
ENDBRANCH  51  65
BRANCH  52  76
ATOM     76  C   UNL     1       5.092   5.551  -5.215  1.00  0.00     0.064 A 
ATOM     77  C   UNL     1       5.978   6.412  -5.902  1.00  0.00     0.173 A 
ATOM     78  C   UNL     1       5.617   4.300  -4.849  1.00  0.00     0.173 A 
ATOM     79  F   UNL     1       5.582   7.641  -6.263  1.00  0.00    -0.203 F 
ATOM     80  C   UNL     1       7.316   6.070  -6.142  1.00  0.00     0.198 A 
ATOM     81  C   UNL     1       6.953   3.955  -5.098  1.00  0.00     0.198 A 
ATOM     82  F   UNL     1       4.878   3.439  -4.135  1.00  0.00    -0.203 F 
ATOM     83  F   UNL     1       8.145   6.960  -6.707  1.00  0.00    -0.200 F 
ATOM     84  C   UNL     1       7.808   4.848  -5.722  1.00  0.00     0.200 A 
ATOM     85  F   UNL     1       7.432   2.785  -4.652  1.00  0.00    -0.200 F 
ATOM     86  F   UNL     1       9.108   4.553  -5.869  1.00  0.00    -0.200 F 
ENDBRANCH  52  76
BRANCH  64  87
ATOM     87  C   UNL     1       0.321   9.490  -4.591  1.00  0.00     0.064 A 
ATOM     88  C   UNL     1      -0.063   8.332  -5.295  1.00  0.00     0.173 A 
ATOM     89  C   UNL     1      -0.260  10.698  -5.000  1.00  0.00     0.173 A 
ATOM     90  F   UNL     1       0.380   7.122  -4.936  1.00  0.00    -0.203 F 
ATOM     91  C   UNL     1      -0.955   8.392  -6.369  1.00  0.00     0.198 A 
ATOM     92  C   UNL     1      -1.177  10.752  -6.047  1.00  0.00     0.198 A 
ATOM     93  F   UNL     1       0.041  11.837  -4.356  1.00  0.00    -0.203 F 
ATOM     94  F   UNL     1      -1.291   7.274  -7.032  1.00  0.00    -0.200 F 
ATOM     95  C   UNL     1      -1.519   9.601  -6.737  1.00  0.00     0.200 A 
ATOM     96  F   UNL     1      -1.746  11.920  -6.373  1.00  0.00    -0.200 F 
ATOM     97  F   UNL     1      -2.405   9.656  -7.742  1.00  0.00    -0.200 F 
ENDBRANCH  64  87
ENDBRANCH  38  39
ENDBRANCH  31  33
ENDBRANCH  30  31
ENDBRANCH  29  30
ENDBRANCH   1  29
TORSDOF 14
