REMARK SMILES O=C1[NH+]=C(Nc2ccc(C(=O)OCCOC(=O)c3ccc(-c4c5nc(c(-c6c(F)c(F)c(F)c(F)c6F)c6ccc([nH]6)c(-c6c(F)c(F)c(F)c(F)c6F)c6nc(c(-c7c(F)c(F)c(F)c(F)c7F)c7ccc4[nH]7)C=C6)C=C5)cc3)c(O)c2)S/C1=C\c1ccc[nH]1
REMARK SMILES IDX 13 1 12 2 10 3 11 4 9 5 6 6 7 7 83 8 8 9 81 10 5 11 1 12
REMARK SMILES IDX 2 13 3 14 85 15 4 16 84 18 86 19 87 21 88 22 91 23 89 24
REMARK SMILES IDX 90 25 82 27 14 29 15 30 16 31 17 32 18 33 19 34 80 35 20 36
REMARK SMILES IDX 79 37 21 38 22 39 23 40 73 41 24 42 78 43 72 44 74 45 25 46
REMARK SMILES IDX 77 47 71 48 70 49 26 51 58 52 38 53 57 54 39 55 42 56 56 57
REMARK SMILES IDX 75 58 40 59 41 60 55 62 76 63 43 64 27 65 28 66 36 67 29 68
REMARK SMILES IDX 30 69 34 70 37 71 31 72 32 73 35 74 33 75 59 76 60 77 68 78
REMARK SMILES IDX 61 79 62 80 66 81 69 82 63 83 64 84 67 85 65 86 44 87 45 88
REMARK SMILES IDX 53 89 46 90 47 91 51 92 54 93 48 94 49 95 52 96 50 97
REMARK H PARENT 3 17 5 20 91 26 82 28 74 50 42 61
REMARK Flexibility Score: inf
ROOT
ATOM      1  C   UNL     1      -1.278   9.782  -0.781  1.00  0.00     0.275 C 
ENDROOT
BRANCH   1   2
ATOM      2  O   UNL     1      -0.627   8.496  -0.912  1.00  0.00    -0.458 OA
BRANCH   2   3
ATOM      3  C   UNL     1      -0.133   7.958   0.235  1.00  0.00     0.342 C 
ATOM      4  O   UNL     1      -0.182   8.464   1.345  1.00  0.00    -0.246 OA
BRANCH   3   5
ATOM      5  C   UNL     1       0.392   6.587  -0.002  1.00  0.00     0.102 A 
ATOM      6  C   UNL     1       1.214   3.903  -0.311  1.00  0.00     0.129 A 
ATOM      7  C   UNL     1       0.673   4.341   0.897  1.00  0.00     0.053 A 
ATOM      8  C   UNL     1       1.385   4.829  -1.347  1.00  0.00     0.098 A 
ATOM      9  C   UNL     1       0.327   5.681   1.068  1.00  0.00     0.024 A 
ATOM     10  C   UNL     1       0.939   6.149  -1.209  1.00  0.00     0.134 A 
BRANCH   6  11
ATOM     11  N   UNL     1       1.597   2.569  -0.480  1.00  0.00    -0.234 N 
ATOM     12  O   UNL     1      -2.174  -0.121   0.020  1.00  0.00    -0.240 OA
ATOM     13  C   UNL     1      -0.990   0.168  -0.042  1.00  0.00     0.346 C 
ATOM     14  N   UNL     1      -0.491   1.449  -0.148  1.00  0.00    -0.199 N 
ATOM     15  C   UNL     1       0.103  -0.850  -0.033  1.00  0.00     0.111 C 
ATOM     16  C   UNL     1       0.792   1.488  -0.272  1.00  0.00     0.322 C 
ATOM     17  H   UNL     1      -1.058   2.253  -0.131  1.00  0.00     0.316 HD
ATOM     18  S   UNL     1       1.618  -0.054  -0.204  1.00  0.00     0.006 SA
ATOM     19  C   UNL     1      -0.146  -2.163   0.063  1.00  0.00     0.050 C 
ATOM     20  H   UNL     1       2.521   2.397  -0.772  1.00  0.00     0.313 HD
BRANCH  19  21
ATOM     21  C   UNL     1       0.881  -3.131   0.148  1.00  0.00     0.039 A 
ATOM     22  C   UNL     1       1.887  -3.372   1.063  1.00  0.00     0.027 A 
ATOM     23  N   UNL     1       0.977  -4.089  -0.833  1.00  0.00    -0.362 N 
ATOM     24  C   UNL     1       2.629  -4.485   0.604  1.00  0.00     0.020 A 
ATOM     25  C   UNL     1       2.053  -4.901  -0.575  1.00  0.00     0.083 A 
ATOM     26  H   UNL     1       0.368  -4.179  -1.601  1.00  0.00     0.166 HD
ENDBRANCH  19  21
ENDBRANCH   6  11
BRANCH  10  27
ATOM     27  O   UNL     1       1.088   6.951  -2.307  1.00  0.00    -0.507 OA
ATOM     28  H   UNL     1       0.808   7.845  -2.275  1.00  0.00     0.293 HD
ENDBRANCH  10  27
ENDBRANCH   3   5
ENDBRANCH   2   3
ENDBRANCH   1   2
BRANCH   1  29
ATOM     29  C   UNL     1      -2.806   9.668  -0.816  1.00  0.00     0.275 C 
BRANCH  29  30
ATOM     30  O   UNL     1      -3.316   9.052   0.383  1.00  0.00    -0.458 OA
BRANCH  30  31
ATOM     31  C   UNL     1      -3.655   7.752   0.244  1.00  0.00     0.338 C 
ATOM     32  O   UNL     1      -3.592   7.078  -0.771  1.00  0.00    -0.246 OA
BRANCH  31  33
ATOM     33  C   UNL     1      -3.983   7.151   1.545  1.00  0.00     0.060 A 
ATOM     34  C   UNL     1      -2.945   6.501   2.197  1.00  0.00     0.016 A 
ATOM     35  C   UNL     1      -5.291   6.988   1.990  1.00  0.00     0.016 A 
ATOM     36  C   UNL     1      -3.201   5.576   3.200  1.00  0.00     0.010 A 
ATOM     37  C   UNL     1      -5.542   6.133   3.078  1.00  0.00     0.010 A 
ATOM     38  C   UNL     1      -4.508   5.365   3.654  1.00  0.00    -0.014 A 
BRANCH  38  39
ATOM     39  C   UNL     1      -4.777   4.274   4.642  1.00  0.00     0.031 A 
ATOM     40  C   UNL     1      -5.733   3.155   4.298  1.00  0.00     0.074 A 
ATOM     41  C   UNL     1      -4.120   4.233   5.820  1.00  0.00     0.049 A 
ATOM     42  N   UNL     1      -6.187   2.185   5.054  1.00  0.00    -0.248 NA
ATOM     43  C   UNL     1      -6.264   3.134   2.926  1.00  0.00     0.031 C 
ATOM     44  C   UNL     1      -3.129   5.210   6.275  1.00  0.00     0.029 A 
ATOM     45  N   UNL     1      -4.175   3.322   6.849  1.00  0.00    -0.354 N 
ATOM     46  C   UNL     1      -7.093   1.479   4.269  1.00  0.00     0.074 A 
ATOM     47  C   UNL     1      -7.143   2.144   2.986  1.00  0.00     0.031 C 
ATOM     48  C   UNL     1      -2.642   4.827   7.464  1.00  0.00     0.029 A 
ATOM     49  C   UNL     1      -3.348   3.629   7.903  1.00  0.00     0.049 A 
ATOM     50  H   UNL     1      -4.752   2.525   6.832  1.00  0.00     0.167 HD
ATOM     51  C   UNL     1      -7.812   0.374   4.585  1.00  0.00     0.037 A 
ATOM     52  C   UNL     1      -3.200   3.043   9.107  1.00  0.00     0.037 A 
ATOM     53  C   UNL     1      -7.711  -0.331   5.838  1.00  0.00     0.049 A 
ATOM     54  C   UNL     1      -4.029   1.832   9.440  1.00  0.00     0.074 A 
ATOM     55  C   UNL     1      -8.381  -1.475   6.241  1.00  0.00     0.029 A 
ATOM     56  N   UNL     1      -6.876   0.029   6.885  1.00  0.00    -0.354 N 
ATOM     57  N   UNL     1      -4.910   1.199   8.704  1.00  0.00    -0.248 NA
ATOM     58  C   UNL     1      -3.843   1.254  10.779  1.00  0.00     0.031 C 
ATOM     59  C   UNL     1      -7.992  -1.774   7.551  1.00  0.00     0.029 A 
ATOM     60  C   UNL     1      -7.027  -0.860   7.939  1.00  0.00     0.049 A 
ATOM     61  H   UNL     1      -6.265   0.801   6.880  1.00  0.00     0.167 HD
ATOM     62  C   UNL     1      -5.359   0.136   9.476  1.00  0.00     0.074 A 
ATOM     63  C   UNL     1      -4.634   0.194  10.727  1.00  0.00     0.031 C 
ATOM     64  C   UNL     1      -6.291  -0.802   9.176  1.00  0.00     0.037 A 
BRANCH  51  65
ATOM     65  C   UNL     1      -8.803  -0.133   3.573  1.00  0.00     0.064 A 
ATOM     66  C   UNL     1      -8.408  -0.738   2.372  1.00  0.00     0.173 A 
ATOM     67  C   UNL     1     -10.180  -0.051   3.840  1.00  0.00     0.173 A 
ATOM     68  F   UNL     1      -7.107  -0.837   2.062  1.00  0.00    -0.203 F 
ATOM     69  C   UNL     1      -9.351  -1.216   1.464  1.00  0.00     0.198 A 
ATOM     70  C   UNL     1     -11.119  -0.562   2.948  1.00  0.00     0.198 A 
ATOM     71  F   UNL     1     -10.617   0.509   4.979  1.00  0.00    -0.203 F 
ATOM     72  F   UNL     1      -8.951  -1.748   0.300  1.00  0.00    -0.200 F 
ATOM     73  C   UNL     1     -10.704  -1.137   1.757  1.00  0.00     0.200 A 
ATOM     74  F   UNL     1     -12.425  -0.502   3.243  1.00  0.00    -0.200 F 
ATOM     75  F   UNL     1     -11.610  -1.610   0.889  1.00  0.00    -0.200 F 
ENDBRANCH  51  65
BRANCH  52  76
ATOM     76  C   UNL     1      -2.259   3.614  10.110  1.00  0.00     0.064 A 
ATOM     77  C   UNL     1      -1.136   2.897  10.548  1.00  0.00     0.173 A 
ATOM     78  C   UNL     1      -2.485   4.876  10.682  1.00  0.00     0.173 A 
ATOM     79  F   UNL     1      -0.887   1.675  10.053  1.00  0.00    -0.203 F 
ATOM     80  C   UNL     1      -0.297   3.404  11.539  1.00  0.00     0.198 A 
ATOM     81  C   UNL     1      -1.623   5.400  11.642  1.00  0.00     0.198 A 
ATOM     82  F   UNL     1      -3.543   5.607  10.302  1.00  0.00    -0.203 F 
ATOM     83  F   UNL     1       0.728   2.667  11.987  1.00  0.00    -0.200 F 
ATOM     84  C   UNL     1      -0.537   4.657  12.080  1.00  0.00     0.200 A 
ATOM     85  F   UNL     1      -1.849   6.619  12.149  1.00  0.00    -0.200 F 
ATOM     86  F   UNL     1       0.269   5.144  13.033  1.00  0.00    -0.200 F 
ENDBRANCH  52  76
BRANCH  64  87
ATOM     87  C   UNL     1      -6.530  -1.880  10.197  1.00  0.00     0.064 A 
ATOM     88  C   UNL     1      -7.126  -1.611  11.439  1.00  0.00     0.173 A 
ATOM     89  C   UNL     1      -6.150  -3.204   9.928  1.00  0.00     0.173 A 
ATOM     90  F   UNL     1      -7.497  -0.361  11.754  1.00  0.00    -0.203 F 
ATOM     91  C   UNL     1      -7.283  -2.616  12.391  1.00  0.00     0.198 A 
ATOM     92  C   UNL     1      -6.346  -4.214  10.866  1.00  0.00     0.198 A 
ATOM     93  F   UNL     1      -5.586  -3.522   8.752  1.00  0.00    -0.203 F 
ATOM     94  F   UNL     1      -7.781  -2.318  13.599  1.00  0.00    -0.200 F 
ATOM     95  C   UNL     1      -6.897  -3.916  12.102  1.00  0.00     0.200 A 
ATOM     96  F   UNL     1      -5.989  -5.473  10.578  1.00  0.00    -0.200 F 
ATOM     97  F   UNL     1      -7.044  -4.880  13.022  1.00  0.00    -0.200 F 
ENDBRANCH  64  87
ENDBRANCH  38  39
ENDBRANCH  31  33
ENDBRANCH  30  31
ENDBRANCH  29  30
ENDBRANCH   1  29
TORSDOF 14
