REMARK SMILES CC(=O)Oc1ccccc1C(=O)OCCOC(=O)c1ccc(-c2c3nc(c(-c4c(F)c(F)c(F)c(F)c4F)c4ccc([nH]4)c(-c4c(F)c(F)c(F)c(F)c4F)c4nc(c(-c5c(F)c(F)c(F)c(F)c5F)c5ccc2[nH]5)C=C4)C=C3)cc1
REMARK SMILES IDX 14 1 13 2 11 3 12 4 10 5 5 6 6 7 7 8 9 9 8 10 4 11 2 12 1 13
REMARK SMILES IDX 3 14 15 15 16 16 17 17 18 18 19 19 20 20 81 21 21 22 80 23
REMARK SMILES IDX 22 24 23 25 24 26 74 27 25 28 79 29 73 30 75 31 26 32 78 33
REMARK SMILES IDX 72 34 71 35 27 37 59 38 39 39 58 40 40 41 43 42 57 43 76 44
REMARK SMILES IDX 41 45 42 46 56 48 77 49 44 50 28 51 29 52 37 53 30 54 31 55
REMARK SMILES IDX 35 56 38 57 32 58 33 59 36 60 34 61 60 62 61 63 69 64 62 65
REMARK SMILES IDX 63 66 67 67 70 68 64 69 65 70 68 71 66 72 45 73 46 74 54 75
REMARK SMILES IDX 47 76 48 77 52 78 55 79 49 80 50 81 53 82 51 83
REMARK H PARENT 75 36 43 47
REMARK Flexibility Score: inf
ROOT
ATOM      1  C   UNL     1      -1.951   0.098   1.099  1.00  0.00     0.275 C 
ENDROOT
BRANCH   1   2
ATOM      2  O   UNL     1      -1.146  -1.079   1.306  1.00  0.00    -0.458 OA
BRANCH   2   3
ATOM      3  C   UNL     1      -1.168  -1.617   2.552  1.00  0.00     0.342 C 
ATOM      4  O   UNL     1      -1.898  -1.266   3.464  1.00  0.00    -0.246 OA
BRANCH   3   5
ATOM      5  C   UNL     1      -0.249  -2.783   2.667  1.00  0.00     0.102 A 
ATOM      6  C   UNL     1       0.895  -2.984   1.884  1.00  0.00     0.145 A 
ATOM      7  C   UNL     1       1.670  -4.142   2.034  1.00  0.00     0.048 A 
ATOM      8  C   UNL     1       1.319  -5.101   2.984  1.00  0.00     0.004 A 
ATOM      9  C   UNL     1      -0.566  -3.744   3.644  1.00  0.00     0.019 A 
ATOM     10  C   UNL     1       0.201  -4.902   3.790  1.00  0.00     0.001 A 
BRANCH   6  11
ATOM     11  O   UNL     1       1.302  -2.110   0.867  1.00  0.00    -0.426 OA
BRANCH  11  12
ATOM     12  C   UNL     1       1.694  -0.848   1.298  1.00  0.00     0.308 C 
ATOM     13  C   UNL     1       1.928   0.027   0.102  1.00  0.00     0.139 C 
ATOM     14  O   UNL     1       1.839  -0.486   2.457  1.00  0.00    -0.252 OA
ENDBRANCH  11  12
ENDBRANCH   6  11
ENDBRANCH   3   5
ENDBRANCH   2   3
ENDBRANCH   1   2
BRANCH   1  15
ATOM     15  C   UNL     1      -3.171  -0.209   0.233  1.00  0.00     0.275 C 
BRANCH  15  16
ATOM     16  O   UNL     1      -4.100  -1.036   0.954  1.00  0.00    -0.458 OA
BRANCH  16  17
ATOM     17  C   UNL     1      -4.094  -2.340   0.610  1.00  0.00     0.338 C 
ATOM     18  O   UNL     1      -3.463  -2.880  -0.286  1.00  0.00    -0.246 OA
BRANCH  17  19
ATOM     19  C   UNL     1      -4.917  -3.095   1.559  1.00  0.00     0.060 A 
ATOM     20  C   UNL     1      -4.278  -3.682   2.650  1.00  0.00     0.016 A 
ATOM     21  C   UNL     1      -6.262  -3.353   1.300  1.00  0.00     0.016 A 
ATOM     22  C   UNL     1      -4.961  -4.583   3.459  1.00  0.00     0.010 A 
ATOM     23  C   UNL     1      -6.960  -4.231   2.137  1.00  0.00     0.010 A 
ATOM     24  C   UNL     1      -6.303  -4.885   3.198  1.00  0.00    -0.014 A 
BRANCH  24  25
ATOM     25  C   UNL     1      -6.976  -5.977   3.949  1.00  0.00     0.031 A 
ATOM     26  C   UNL     1      -7.373  -7.233   3.220  1.00  0.00     0.074 A 
ATOM     27  C   UNL     1      -7.189  -5.879   5.275  1.00  0.00     0.049 A 
ATOM     28  N   UNL     1      -8.108  -8.236   3.630  1.00  0.00    -0.248 NA
ATOM     29  C   UNL     1      -6.884  -7.373   1.839  1.00  0.00     0.031 C 
ATOM     30  C   UNL     1      -6.788  -4.752   6.116  1.00  0.00     0.029 A 
ATOM     31  N   UNL     1      -7.791  -6.750   6.148  1.00  0.00    -0.354 N 
ATOM     32  C   UNL     1      -8.226  -9.087   2.539  1.00  0.00     0.074 A 
ATOM     33  C   UNL     1      -7.477  -8.494   1.453  1.00  0.00     0.031 C 
ATOM     34  C   UNL     1      -7.132  -5.012   7.388  1.00  0.00     0.029 A 
ATOM     35  C   UNL     1      -7.837  -6.289   7.441  1.00  0.00     0.049 A 
ATOM     36  H   UNL     1      -8.154  -7.623   5.874  1.00  0.00     0.167 HD
ATOM     37  C   UNL     1      -8.905 -10.256   2.453  1.00  0.00     0.037 A 
ATOM     38  C   UNL     1      -8.413  -6.822   8.535  1.00  0.00     0.037 A 
ATOM     39  C   UNL     1      -9.585 -10.880   3.556  1.00  0.00     0.049 A 
ATOM     40  C   UNL     1      -9.157  -8.125   8.415  1.00  0.00     0.074 A 
ATOM     41  C   UNL     1     -10.299 -12.066   3.574  1.00  0.00     0.029 A 
ATOM     42  N   UNL     1      -9.612 -10.378   4.848  1.00  0.00    -0.354 N 
ATOM     43  N   UNL     1      -9.326  -8.888   7.362  1.00  0.00    -0.248 NA
ATOM     44  C   UNL     1      -9.804  -8.633   9.633  1.00  0.00     0.031 C 
ATOM     45  C   UNL     1     -10.774 -12.272   4.873  1.00  0.00     0.029 A 
ATOM     46  C   UNL     1     -10.326 -11.232   5.672  1.00  0.00     0.049 A 
ATOM     47  H   UNL     1      -9.186  -9.539   5.138  1.00  0.00     0.167 HD
ATOM     48  C   UNL     1     -10.078  -9.972   7.794  1.00  0.00     0.074 A 
ATOM     49  C   UNL     1     -10.320  -9.778   9.208  1.00  0.00     0.031 C 
ATOM     50  C   UNL     1     -10.533 -11.031   7.082  1.00  0.00     0.037 A 
BRANCH  37  51
ATOM     51  C   UNL     1      -8.980 -10.920   1.110  1.00  0.00     0.064 A 
ATOM     52  C   UNL     1      -7.888 -11.594   0.550  1.00  0.00     0.173 A 
ATOM     53  C   UNL     1     -10.187 -10.909   0.392  1.00  0.00     0.173 A 
ATOM     54  F   UNL     1      -6.709 -11.618   1.189  1.00  0.00    -0.203 F 
ATOM     55  C   UNL     1      -7.994 -12.220  -0.690  1.00  0.00     0.198 A 
ATOM     56  C   UNL     1     -10.297 -11.557  -0.835  1.00  0.00     0.198 A 
ATOM     57  F   UNL     1     -11.263 -10.280   0.887  1.00  0.00    -0.203 F 
ATOM     58  F   UNL     1      -6.926 -12.827  -1.226  1.00  0.00    -0.200 F 
ATOM     59  C   UNL     1      -9.199 -12.208  -1.377  1.00  0.00     0.200 A 
ATOM     60  F   UNL     1     -11.465 -11.553  -1.492  1.00  0.00    -0.200 F 
ATOM     61  F   UNL     1      -9.302 -12.818  -2.566  1.00  0.00    -0.200 F 
ENDBRANCH  37  51
BRANCH  38  62
ATOM     62  C   UNL     1      -8.335  -6.113   9.839  1.00  0.00     0.064 A 
ATOM     63  C   UNL     1      -7.590  -6.640  10.903  1.00  0.00     0.173 A 
ATOM     64  C   UNL     1      -9.016  -4.905  10.054  1.00  0.00     0.173 A 
ATOM     65  F   UNL     1      -6.946  -7.807  10.755  1.00  0.00    -0.203 F 
ATOM     66  C   UNL     1      -7.542  -5.995  12.137  1.00  0.00     0.198 A 
ATOM     67  C   UNL     1      -8.943  -4.246  11.279  1.00  0.00     0.198 A 
ATOM     68  F   UNL     1      -9.747  -4.362   9.070  1.00  0.00    -0.203 F 
ATOM     69  F   UNL     1      -6.861  -6.545  13.152  1.00  0.00    -0.200 F 
ATOM     70  C   UNL     1      -8.212  -4.795  12.322  1.00  0.00     0.200 A 
ATOM     71  F   UNL     1      -9.585  -3.082  11.450  1.00  0.00    -0.200 F 
ATOM     72  F   UNL     1      -8.164  -4.174  13.508  1.00  0.00    -0.200 F 
ENDBRANCH  38  62
BRANCH  50  73
ATOM     73  C   UNL     1     -11.292 -12.084   7.831  1.00  0.00     0.064 A 
ATOM     74  C   UNL     1     -12.613 -11.878   8.253  1.00  0.00     0.173 A 
ATOM     75  C   UNL     1     -10.697 -13.325   8.103  1.00  0.00     0.173 A 
ATOM     76  F   UNL     1     -13.217 -10.702   8.028  1.00  0.00    -0.203 F 
ATOM     77  C   UNL     1     -13.305 -12.870   8.942  1.00  0.00     0.198 A 
ATOM     78  C   UNL     1     -11.400 -14.323   8.771  1.00  0.00     0.198 A 
ATOM     79  F   UNL     1      -9.437 -13.571   7.714  1.00  0.00    -0.203 F 
ATOM     80  F   UNL     1     -14.552 -12.639   9.373  1.00  0.00    -0.200 F 
ATOM     81  C   UNL     1     -12.700 -14.093   9.196  1.00  0.00     0.200 A 
ATOM     82  F   UNL     1     -10.818 -15.507   9.009  1.00  0.00    -0.200 F 
ATOM     83  F   UNL     1     -13.368 -15.047   9.858  1.00  0.00    -0.200 F 
ENDBRANCH  50  73
ENDBRANCH  24  25
ENDBRANCH  17  19
ENDBRANCH  16  17
ENDBRANCH  15  16
ENDBRANCH   1  15
TORSDOF 13
