REMARK SMILES O=C(OCCOC(=O)C1CCN(S(=O)(=O)c2ccc3nc(O)sc3c2)CC1)c1ccc(-c2c3nc(c(-c4c(F)c(F)c(F)c(F)c4F)c4ccc([nH]4)c(-c4c(F)c(F)c(F)c(F)c4F)c4nc(c(-c5c(F)c(F)c(F)c(F)c5F)c5ccc2[nH]5)C=C4)C=C3)cc1
REMARK SMILES IDX 5 1 4 2 3 3 2 4 1 5 28 6 29 7 90 8 30 9 89 10 31 11 32 12
REMARK SMILES IDX 33 13 83 14 34 15 88 16 82 17 84 18 35 19 87 20 81 21 80 22
REMARK SMILES IDX 36 24 68 25 48 26 67 27 49 28 52 29 66 30 85 31 50 32 51 33
REMARK SMILES IDX 65 35 86 36 53 37 37 38 38 39 46 40 39 41 40 42 44 43 47 44
REMARK SMILES IDX 41 45 42 46 45 47 43 48 69 49 70 50 78 51 71 52 72 53 76 54
REMARK SMILES IDX 79 55 73 56 74 57 77 58 75 59 54 60 55 61 63 62 56 63 57 64
REMARK SMILES IDX 61 65 64 66 58 67 59 68 62 69 60 70 6 71 7 72 8 73 9 74
REMARK SMILES IDX 10 75 27 76 11 77 26 78 12 79 13 80 14 81 15 82 16 83 17 84
REMARK SMILES IDX 25 85 18 86 24 87 19 88 23 89 20 90 21 91 22 92
REMARK H PARENT 84 23 52 34 22 93
REMARK Flexibility Score: inf
ROOT
ATOM      1  C   UNL     1       3.682   1.490   1.293  1.00  0.00     0.274 C 
ENDROOT
BRANCH   1   2
ATOM      2  C   UNL     1       4.848   0.993   0.428  1.00  0.00     0.275 C 
BRANCH   2   3
ATOM      3  O   UNL     1       4.550  -0.185  -0.338  1.00  0.00    -0.458 OA
BRANCH   3   4
ATOM      4  C   UNL     1       4.756  -1.487  -0.026  1.00  0.00     0.338 C 
ATOM      5  O   UNL     1       4.696  -2.321  -0.928  1.00  0.00    -0.246 OA
BRANCH   4   6
ATOM      6  C   UNL     1       4.859  -2.006   1.380  1.00  0.00     0.060 A 
ATOM      7  C   UNL     1       4.505  -3.361   1.556  1.00  0.00     0.016 A 
ATOM      8  C   UNL     1       5.087  -1.247   2.530  1.00  0.00     0.016 A 
ATOM      9  C   UNL     1       4.193  -3.872   2.820  1.00  0.00     0.010 A 
ATOM     10  C   UNL     1       4.734  -1.738   3.791  1.00  0.00     0.010 A 
ATOM     11  C   UNL     1       4.238  -3.039   3.938  1.00  0.00    -0.014 A 
BRANCH  11  12
ATOM     12  C   UNL     1       4.037  -3.657   5.265  1.00  0.00     0.031 A 
ATOM     13  C   UNL     1       5.358  -3.677   5.961  1.00  0.00     0.074 A 
ATOM     14  C   UNL     1       2.966  -3.529   6.078  1.00  0.00     0.049 A 
ATOM     15  N   UNL     1       5.815  -2.619   6.567  1.00  0.00    -0.248 NA
ATOM     16  C   UNL     1       6.377  -4.657   5.593  1.00  0.00     0.031 C 
ATOM     17  C   UNL     1       2.084  -2.362   6.147  1.00  0.00     0.029 A 
ATOM     18  N   UNL     1       2.616  -4.291   7.180  1.00  0.00    -0.354 N 
ATOM     19  C   UNL     1       7.187  -2.701   6.494  1.00  0.00     0.074 A 
ATOM     20  C   UNL     1       7.494  -4.001   5.932  1.00  0.00     0.031 C 
ATOM     21  C   UNL     1       1.432  -2.389   7.329  1.00  0.00     0.029 A 
ATOM     22  C   UNL     1       1.744  -3.629   8.041  1.00  0.00     0.049 A 
ATOM     23  H   UNL     1       2.949  -5.203   7.339  1.00  0.00     0.167 HD
ATOM     24  C   UNL     1       8.007  -1.666   6.804  1.00  0.00     0.037 A 
ATOM     25  C   UNL     1       1.746  -3.770   9.397  1.00  0.00     0.037 A 
ATOM     26  C   UNL     1       7.392  -0.458   7.259  1.00  0.00     0.049 A 
ATOM     27  C   UNL     1       2.920  -2.910   9.787  1.00  0.00     0.074 A 
ATOM     28  C   UNL     1       7.111   0.794   6.754  1.00  0.00     0.029 A 
ATOM     29  N   UNL     1       6.882  -0.443   8.535  1.00  0.00    -0.354 N 
ATOM     30  N   UNL     1       2.926  -1.613   9.941  1.00  0.00    -0.248 NA
ATOM     31  C   UNL     1       4.248  -3.520   9.688  1.00  0.00     0.031 C 
ATOM     32  C   UNL     1       6.080   1.329   7.591  1.00  0.00     0.029 A 
ATOM     33  C   UNL     1       5.761   0.348   8.527  1.00  0.00     0.049 A 
ATOM     34  H   UNL     1       7.254  -0.916   9.315  1.00  0.00     0.167 HD
ATOM     35  C   UNL     1       4.243  -1.225   9.674  1.00  0.00     0.074 A 
ATOM     36  C   UNL     1       5.015  -2.444   9.609  1.00  0.00     0.031 C 
ATOM     37  C   UNL     1       4.585   0.042   9.306  1.00  0.00     0.037 A 
BRANCH  24  38
ATOM     38  C   UNL     1       9.461  -1.835   6.847  1.00  0.00     0.064 A 
ATOM     39  C   UNL     1      10.029  -2.165   8.083  1.00  0.00     0.173 A 
ATOM     40  C   UNL     1      10.300  -1.611   5.755  1.00  0.00     0.173 A 
ATOM     41  F   UNL     1       9.235  -2.390   9.144  1.00  0.00    -0.203 F 
ATOM     42  C   UNL     1      11.403  -2.246   8.235  1.00  0.00     0.198 A 
ATOM     43  C   UNL     1      11.682  -1.698   5.908  1.00  0.00     0.198 A 
ATOM     44  F   UNL     1       9.787  -1.300   4.555  1.00  0.00    -0.203 F 
ATOM     45  F   UNL     1      11.921  -2.546   9.432  1.00  0.00    -0.200 F 
ATOM     46  C   UNL     1      12.230  -2.007   7.148  1.00  0.00     0.200 A 
ATOM     47  F   UNL     1      12.487  -1.474   4.861  1.00  0.00    -0.200 F 
ATOM     48  F   UNL     1      13.560  -2.074   7.298  1.00  0.00    -0.200 F 
ENDBRANCH  24  38
BRANCH  25  49
ATOM     49  C   UNL     1       1.511  -5.146   9.944  1.00  0.00     0.064 A 
ATOM     50  C   UNL     1       0.350  -5.834   9.533  1.00  0.00     0.173 A 
ATOM     51  C   UNL     1       2.332  -5.829  10.856  1.00  0.00     0.173 A 
ATOM     52  F   UNL     1      -0.557  -5.218   8.758  1.00  0.00    -0.203 F 
ATOM     53  C   UNL     1       0.094  -7.155   9.910  1.00  0.00     0.198 A 
ATOM     54  C   UNL     1       2.097  -7.162  11.205  1.00  0.00     0.198 A 
ATOM     55  F   UNL     1       3.382  -5.231  11.431  1.00  0.00    -0.203 F 
ATOM     56  F   UNL     1      -1.012  -7.773   9.476  1.00  0.00    -0.200 F 
ATOM     57  C   UNL     1       0.988  -7.830  10.720  1.00  0.00     0.200 A 
ATOM     58  F   UNL     1       2.965  -7.801  12.003  1.00  0.00    -0.200 F 
ATOM     59  F   UNL     1       0.779  -9.114  11.040  1.00  0.00    -0.200 F 
ENDBRANCH  25  49
BRANCH  37  60
ATOM     60  C   UNL     1       3.529   1.068   9.516  1.00  0.00     0.064 A 
ATOM     61  C   UNL     1       3.234   1.499  10.816  1.00  0.00     0.173 A 
ATOM     62  C   UNL     1       2.830   1.651   8.450  1.00  0.00     0.173 A 
ATOM     63  F   UNL     1       3.882   0.970  11.867  1.00  0.00    -0.203 F 
ATOM     64  C   UNL     1       2.292   2.497  11.041  1.00  0.00     0.198 A 
ATOM     65  C   UNL     1       1.904   2.665   8.678  1.00  0.00     0.198 A 
ATOM     66  F   UNL     1       3.053   1.259   7.186  1.00  0.00    -0.203 F 
ATOM     67  F   UNL     1       2.033   2.903  12.292  1.00  0.00    -0.200 F 
ATOM     68  C   UNL     1       1.638   3.089   9.971  1.00  0.00     0.200 A 
ATOM     69  F   UNL     1       1.283   3.247   7.641  1.00  0.00    -0.200 F 
ATOM     70  F   UNL     1       0.760   4.078  10.186  1.00  0.00    -0.200 F 
ENDBRANCH  37  60
ENDBRANCH  11  12
ENDBRANCH   4   6
ENDBRANCH   3   4
ENDBRANCH   2   3
ENDBRANCH   1   2
BRANCH   1  71
ATOM     71  O   UNL     1       2.872   0.427   1.833  1.00  0.00    -0.462 OA
BRANCH  71  72
ATOM     72  C   UNL     1       1.532   0.485   1.604  1.00  0.00     0.309 C 
ATOM     73  O   UNL     1       0.977   1.394   0.998  1.00  0.00    -0.252 OA
BRANCH  72  74
ATOM     74  C   UNL     1       0.760  -0.646   2.305  1.00  0.00     0.102 C 
ATOM     75  C   UNL     1       1.438  -2.005   2.270  1.00  0.00     0.032 C 
ATOM     76  C   UNL     1      -0.634  -0.797   1.729  1.00  0.00     0.032 C 
ATOM     77  C   UNL     1       0.931  -3.083   1.317  1.00  0.00     0.103 C 
ATOM     78  C   UNL     1      -0.546  -1.299   0.299  1.00  0.00     0.103 C 
ATOM     79  N   UNL     1       0.110  -2.614   0.195  1.00  0.00    -0.198 NA
BRANCH  79  80
ATOM     80  S   UNL     1       0.541  -3.176  -1.363  1.00  0.00     0.243 S 
ATOM     81  O   UNL     1       1.266  -2.126  -2.044  1.00  0.00    -0.207 OA
ATOM     82  O   UNL     1       1.071  -4.517  -1.233  1.00  0.00    -0.207 OA
BRANCH  80  83
ATOM     83  C   UNL     1      -1.057  -3.314  -2.142  1.00  0.00     0.084 A 
ATOM     84  C   UNL     1      -1.716  -2.144  -2.521  1.00  0.00     0.024 A 
ATOM     85  C   UNL     1      -1.650  -4.574  -2.289  1.00  0.00     0.043 A 
ATOM     86  C   UNL     1      -3.054  -2.193  -2.908  1.00  0.00     0.031 A 
ATOM     87  C   UNL     1      -2.989  -4.604  -2.711  1.00  0.00     0.059 A 
ATOM     88  C   UNL     1      -3.711  -3.436  -2.986  1.00  0.00     0.085 A 
ATOM     89  S   UNL     1      -4.027  -5.961  -2.951  1.00  0.00    -0.077 S 
ATOM     90  N   UNL     1      -5.045  -3.620  -3.304  1.00  0.00    -0.203 NA
ATOM     91  C   UNL     1      -5.303  -4.898  -3.296  1.00  0.00     0.271 A 
BRANCH  91  92
ATOM     92  O   UNL     1      -6.535  -5.299  -3.542  1.00  0.00    -0.486 OA
ATOM     93  H   UNL     1      -7.204  -4.670  -3.728  1.00  0.00     0.296 HD
ENDBRANCH  91  92
ENDBRANCH  80  83
ENDBRANCH  79  80
ENDBRANCH  72  74
ENDBRANCH  71  72
ENDBRANCH   1  71
TORSDOF 14
