REMARK SMILES Cc1cc(C(=O)N[C@H]2C=C[C@H](C(=O)OCCOC(=O)c3ccc(-c4c5nc(c(-c6c(F)c(F)c(F)c(F)c6F)c6ccc([nH]6)c(-c6c(F)c(F)c(F)c(F)c6F)c6nc(c(-c7c(F)c(F)c(F)c(F)c7F)c7ccc4[nH]7)C=C6)C=C5)cc3)C2)ccc1F
REMARK SMILES IDX 15 1 14 2 12 3 13 4 11 5 8 6 9 7 83 8 10 9 7 10 5 11 6 12
REMARK SMILES IDX 4 14 1 15 2 16 3 17 86 18 85 19 87 20 84 21 16 22 17 23
REMARK SMILES IDX 18 24 19 25 20 26 21 27 82 28 22 29 81 30 23 31 24 32 25 33
REMARK SMILES IDX 75 34 26 35 80 36 74 37 76 38 27 39 79 40 73 41 72 42 28 44
REMARK SMILES IDX 60 45 40 46 59 47 41 48 44 49 58 50 77 51 42 52 43 53 57 55
REMARK SMILES IDX 78 56 45 57 29 58 30 59 38 60 31 61 32 62 36 63 39 64 33 65
REMARK SMILES IDX 34 66 37 67 35 68 61 69 62 70 70 71 63 72 64 73 68 74 71 75
REMARK SMILES IDX 65 76 66 77 69 78 67 79 46 80 47 81 55 82 48 83 49 84 53 85
REMARK SMILES IDX 56 86 50 87 51 88 54 89 52 90
REMARK H PARENT 7 13 76 43 44 54
REMARK Flexibility Score: inf
ROOT
ATOM      1  C   UNL     1       2.080   6.458  -0.051  1.00  0.00     0.274 C 
ENDROOT
BRANCH   1   2
ATOM      2  O   UNL     1       0.693   6.473   0.341  1.00  0.00    -0.462 OA
BRANCH   2   3
ATOM      3  C   UNL     1       0.018   5.314   0.111  1.00  0.00     0.312 C 
ATOM      4  O   UNL     1       0.459   4.382  -0.560  1.00  0.00    -0.252 OA
BRANCH   3   5
ATOM      5  C   UNL     1      -1.319   5.269   0.853  1.00  0.00     0.124 C 
ATOM      6  C   UNL     1      -2.515   3.600  -0.401  1.00  0.00     0.106 C 
ATOM      7  C   UNL     1      -3.155   4.943  -0.578  1.00  0.00    -0.006 C 
ATOM      8  C   UNL     1      -1.796   3.808   0.934  1.00  0.00     0.048 C 
ATOM      9  C   UNL     1      -2.451   5.880   0.078  1.00  0.00    -0.014 C 
BRANCH   6  10
ATOM     10  N   UNL     1      -3.467   2.529  -0.400  1.00  0.00    -0.346 N 
ATOM     11  C   UNL     1      -3.288   1.166  -0.427  1.00  0.00     0.251 C 
ATOM     12  O   UNL     1      -4.306   0.472  -0.480  1.00  0.00    -0.269 OA
ATOM     13  H   UNL     1      -4.408   2.817  -0.374  1.00  0.00     0.164 HD
BRANCH  11  14
ATOM     14  C   UNL     1      -1.957   0.473  -0.337  1.00  0.00     0.040 A 
ATOM     15  C   UNL     1       1.811   0.985  -0.708  1.00  0.00     0.047 C 
ATOM     16  C   UNL     1       0.487   0.319  -0.475  1.00  0.00    -0.015 A 
ATOM     17  C   UNL     1      -0.713   1.028  -0.667  1.00  0.00     0.020 A 
ATOM     18  C   UNL     1       0.427  -0.987   0.004  1.00  0.00     0.126 A 
ATOM     19  C   UNL     1      -0.794  -1.589   0.277  1.00  0.00     0.040 A 
ATOM     20  F   UNL     1       1.556  -1.681   0.205  1.00  0.00    -0.207 F 
ATOM     21  C   UNL     1      -1.976  -0.860   0.113  1.00  0.00     0.017 A 
ENDBRANCH  11  14
ENDBRANCH   6  10
ENDBRANCH   3   5
ENDBRANCH   2   3
ENDBRANCH   1   2
BRANCH   1  22
ATOM     22  C   UNL     1       2.999   6.066   1.110  1.00  0.00     0.275 C 
BRANCH  22  23
ATOM     23  O   UNL     1       2.788   4.721   1.572  1.00  0.00    -0.458 OA
BRANCH  23  24
ATOM     24  C   UNL     1       1.816   4.613   2.505  1.00  0.00     0.338 C 
ATOM     25  O   UNL     1       1.037   5.484   2.862  1.00  0.00    -0.246 OA
BRANCH  24  26
ATOM     26  C   UNL     1       1.862   3.334   3.218  1.00  0.00     0.060 A 
ATOM     27  C   UNL     1       0.661   2.872   3.781  1.00  0.00     0.016 A 
ATOM     28  C   UNL     1       3.104   2.894   3.675  1.00  0.00     0.016 A 
ATOM     29  C   UNL     1       0.701   2.120   4.944  1.00  0.00     0.010 A 
ATOM     30  C   UNL     1       3.140   2.158   4.843  1.00  0.00     0.010 A 
ATOM     31  C   UNL     1       1.944   1.868   5.519  1.00  0.00    -0.014 A 
BRANCH  31  32
ATOM     32  C   UNL     1       2.083   1.523   6.925  1.00  0.00     0.031 A 
ATOM     33  C   UNL     1       2.127   0.123   7.375  1.00  0.00     0.074 A 
ATOM     34  C   UNL     1       2.194   2.537   7.812  1.00  0.00     0.049 A 
ATOM     35  N   UNL     1       2.019  -0.248   8.607  1.00  0.00    -0.248 NA
ATOM     36  C   UNL     1       2.182  -0.992   6.437  1.00  0.00     0.031 C 
ATOM     37  C   UNL     1       2.680   2.470   9.184  1.00  0.00     0.029 A 
ATOM     38  N   UNL     1       1.651   3.830   7.687  1.00  0.00    -0.354 N 
ATOM     39  C   UNL     1       2.259  -1.599   8.658  1.00  0.00     0.074 A 
ATOM     40  C   UNL     1       2.199  -2.027   7.283  1.00  0.00     0.031 C 
ATOM     41  C   UNL     1       2.208   3.529   9.859  1.00  0.00     0.029 A 
ATOM     42  C   UNL     1       1.249   4.194   8.992  1.00  0.00     0.049 A 
ATOM     43  H   UNL     1       1.569   4.366   6.866  1.00  0.00     0.167 HD
ATOM     44  C   UNL     1       2.616  -2.153   9.852  1.00  0.00     0.037 A 
ATOM     45  C   UNL     1      -0.066   4.389   9.303  1.00  0.00     0.037 A 
ATOM     46  C   UNL     1       2.306  -1.247  10.962  1.00  0.00     0.049 A 
ATOM     47  C   UNL     1      -0.603   3.512  10.412  1.00  0.00     0.074 A 
ATOM     48  C   UNL     1       3.052  -0.401  11.765  1.00  0.00     0.029 A 
ATOM     49  N   UNL     1       0.976  -0.944  11.214  1.00  0.00    -0.354 N 
ATOM     50  N   UNL     1       0.018   2.470  10.886  1.00  0.00    -0.248 NA
ATOM     51  C   UNL     1      -1.939   3.680  10.988  1.00  0.00     0.031 C 
ATOM     52  C   UNL     1       2.148   0.457  12.460  1.00  0.00     0.029 A 
ATOM     53  C   UNL     1       0.860   0.118  12.090  1.00  0.00     0.049 A 
ATOM     54  H   UNL     1       0.213  -1.424  10.819  1.00  0.00     0.167 HD
ATOM     55  C   UNL     1      -0.803   1.825  11.765  1.00  0.00     0.074 A 
ATOM     56  C   UNL     1      -2.018   2.614  11.802  1.00  0.00     0.031 C 
ATOM     57  C   UNL     1      -0.453   0.662  12.376  1.00  0.00     0.037 A 
BRANCH  44  58
ATOM     58  C   UNL     1       3.436  -3.424  10.028  1.00  0.00     0.064 A 
ATOM     59  C   UNL     1       3.938  -3.764  11.307  1.00  0.00     0.173 A 
ATOM     60  C   UNL     1       3.880  -4.277   8.995  1.00  0.00     0.173 A 
ATOM     61  F   UNL     1       3.586  -3.076  12.402  1.00  0.00    -0.203 F 
ATOM     62  C   UNL     1       4.843  -4.813  11.513  1.00  0.00     0.198 A 
ATOM     63  C   UNL     1       4.763  -5.340   9.206  1.00  0.00     0.198 A 
ATOM     64  F   UNL     1       3.516  -4.123   7.722  1.00  0.00    -0.203 F 
ATOM     65  F   UNL     1       5.324  -5.044  12.743  1.00  0.00    -0.200 F 
ATOM     66  C   UNL     1       5.261  -5.599  10.461  1.00  0.00     0.200 A 
ATOM     67  F   UNL     1       5.145  -6.096   8.165  1.00  0.00    -0.200 F 
ATOM     68  F   UNL     1       6.138  -6.592  10.651  1.00  0.00    -0.200 F 
ENDBRANCH  44  58
BRANCH  45  69
ATOM     69  C   UNL     1      -0.899   4.855   8.166  1.00  0.00     0.064 A 
ATOM     70  C   UNL     1      -0.650   6.115   7.593  1.00  0.00     0.173 A 
ATOM     71  C   UNL     1      -1.728   3.973   7.463  1.00  0.00     0.173 A 
ATOM     72  F   UNL     1       0.140   6.996   8.228  1.00  0.00    -0.203 F 
ATOM     73  C   UNL     1      -1.150   6.448   6.336  1.00  0.00     0.198 A 
ATOM     74  C   UNL     1      -2.228   4.310   6.206  1.00  0.00     0.198 A 
ATOM     75  F   UNL     1      -1.995   2.754   7.954  1.00  0.00    -0.203 F 
ATOM     76  F   UNL     1      -0.849   7.634   5.789  1.00  0.00    -0.200 F 
ATOM     77  C   UNL     1      -1.922   5.536   5.634  1.00  0.00     0.200 A 
ATOM     78  F   UNL     1      -2.961   3.421   5.522  1.00  0.00    -0.200 F 
ATOM     79  F   UNL     1      -2.357   5.826   4.400  1.00  0.00    -0.200 F 
ENDBRANCH  45  69
BRANCH  57  80
ATOM     80  C   UNL     1      -1.370  -0.041  13.313  1.00  0.00     0.064 A 
ATOM     81  C   UNL     1      -1.869   0.586  14.464  1.00  0.00     0.173 A 
ATOM     82  C   UNL     1      -1.686  -1.397  13.129  1.00  0.00     0.173 A 
ATOM     83  F   UNL     1      -1.598   1.877  14.707  1.00  0.00    -0.203 F 
ATOM     84  C   UNL     1      -2.651  -0.112  15.383  1.00  0.00     0.198 A 
ATOM     85  C   UNL     1      -2.441  -2.099  14.064  1.00  0.00     0.198 A 
ATOM     86  F   UNL     1      -1.279  -2.053  12.030  1.00  0.00    -0.203 F 
ATOM     87  F   UNL     1      -3.136   0.521  16.461  1.00  0.00    -0.200 F 
ATOM     88  C   UNL     1      -2.925  -1.456  15.190  1.00  0.00     0.200 A 
ATOM     89  F   UNL     1      -2.698  -3.401  13.870  1.00  0.00    -0.200 F 
ATOM     90  F   UNL     1      -3.660  -2.130  16.084  1.00  0.00    -0.200 F 
ENDBRANCH  57  80
ENDBRANCH  31  32
ENDBRANCH  24  26
ENDBRANCH  23  24
ENDBRANCH  22  23
ENDBRANCH   1  22
TORSDOF 13
