REMARK SMILES CC[NH2+]C(C)(C)C(=O)NC[C@@H]1CC[C@H](C(=O)OCCOC(=O)c2ccc(-c3c4nc(c(-c5c(F)c(F)c(F)c(F)c5F)c5ccc([nH]5)c(-c5c(F)c(F)c(F)c(F)c5F)c5nc(c(-c6c(F)c(F)c(F)c(F)c6F)c6ccc3[nH]6)C=C5)C=C4)cc2)O1
REMARK SMILES IDX 17 1 15 2 16 3 14 4 11 5 12 6 86 7 13 8 10 9 9 10 7 11 8 12
REMARK SMILES IDX 4 14 5 15 6 16 3 17 2 20 1 21 18 22 19 23 20 24 21 25 22 26
REMARK SMILES IDX 23 27 24 28 85 29 25 30 84 31 26 32 27 33 28 34 78 35 29 36
REMARK SMILES IDX 83 37 77 38 79 39 30 40 82 41 76 42 75 43 31 45 63 46 43 47
REMARK SMILES IDX 62 48 44 49 47 50 61 51 80 52 45 53 46 54 60 56 81 57 48 58
REMARK SMILES IDX 32 59 33 60 41 61 34 62 35 63 39 64 42 65 36 66 37 67 40 68
REMARK SMILES IDX 38 69 64 70 65 71 73 72 66 73 67 74 71 75 74 76 68 77 69 78
REMARK SMILES IDX 72 79 70 80 49 81 50 82 58 83 51 84 52 85 56 86 59 87 53 88
REMARK SMILES IDX 54 89 57 90 55 91
REMARK H PARENT 9 13 3 18 3 19 79 44 47 55
REMARK Flexibility Score: inf
ROOT
ATOM      1  O   UNL     1       0.794   9.113  -2.705  1.00  0.00    -0.460 OA
ENDROOT
BRANCH   1   2
ATOM      2  C   UNL     1      -0.543   9.367  -2.667  1.00  0.00     0.335 C 
ATOM      3  O   UNL     1      -1.075  10.159  -1.897  1.00  0.00    -0.249 OA
BRANCH   2   4
ATOM      4  C   UNL     1      -1.339   8.545  -3.697  1.00  0.00     0.228 C 
ATOM      5  C   UNL     1      -1.478   6.275  -3.196  1.00  0.00     0.138 C 
ATOM      6  C   UNL     1      -0.248   6.497  -4.070  1.00  0.00     0.037 C 
ATOM      7  O   UNL     1      -2.123   7.551  -3.036  1.00  0.00    -0.361 OA
ATOM      8  C   UNL     1      -0.536   7.810  -4.751  1.00  0.00     0.047 C 
BRANCH   5   9
ATOM      9  C   UNL     1      -1.165   5.722  -1.798  1.00  0.00     0.148 C 
BRANCH   9  10
ATOM     10  N   UNL     1      -1.566   4.338  -1.665  1.00  0.00    -0.348 N 
ATOM     11  C   UNL     1      -0.882   3.173  -1.520  1.00  0.00     0.280 C 
ATOM     12  O   UNL     1      -1.595   2.163  -1.546  1.00  0.00    -0.268 OA
ATOM     13  H   UNL     1      -2.542   4.213  -1.683  1.00  0.00     0.163 HD
BRANCH  11  14
ATOM     14  C   UNL     1       0.682   3.113  -1.360  1.00  0.00     0.169 C 
ATOM     15  C   UNL     1       1.208   3.967  -0.194  1.00  0.00     0.090 C 
ATOM     16  C   UNL     1       1.336   3.550  -2.680  1.00  0.00     0.090 C 
BRANCH  14  17
ATOM     17  N   UNL     1       1.118   1.697  -1.172  1.00  0.00    -0.334 N 
ATOM     18  H   UNL     1       0.731   1.144  -1.937  1.00  0.00     0.347 HD
ATOM     19  H   UNL     1       2.138   1.716  -1.157  1.00  0.00     0.347 HD
BRANCH  17  20
ATOM     20  C   UNL     1       0.706   1.078   0.088  1.00  0.00     0.257 C 
ATOM     21  C   UNL     1       1.130  -0.383   0.078  1.00  0.00     0.071 C 
ENDBRANCH  17  20
ENDBRANCH  14  17
ENDBRANCH  11  14
ENDBRANCH   9  10
ENDBRANCH   5   9
ENDBRANCH   2   4
ENDBRANCH   1   2
BRANCH   1  22
ATOM     22  C   UNL     1       1.622   9.884  -1.812  1.00  0.00     0.274 C 
BRANCH  22  23
ATOM     23  C   UNL     1       2.423  10.931  -2.586  1.00  0.00     0.275 C 
BRANCH  23  24
ATOM     24  O   UNL     1       1.540  11.856  -3.248  1.00  0.00    -0.458 OA
BRANCH  24  25
ATOM     25  C   UNL     1       1.379  11.654  -4.576  1.00  0.00     0.338 C 
ATOM     26  O   UNL     1       1.923  10.823  -5.280  1.00  0.00    -0.246 OA
BRANCH  25  27
ATOM     27  C   UNL     1       0.307  12.530  -5.063  1.00  0.00     0.060 A 
ATOM     28  C   UNL     1      -1.000  12.050  -5.015  1.00  0.00     0.016 A 
ATOM     29  C   UNL     1       0.586  13.763  -5.647  1.00  0.00     0.016 A 
ATOM     30  C   UNL     1      -2.042  12.781  -5.567  1.00  0.00     0.010 A 
ATOM     31  C   UNL     1      -0.469  14.523  -6.166  1.00  0.00     0.010 A 
ATOM     32  C   UNL     1      -1.788  14.032  -6.137  1.00  0.00    -0.014 A 
BRANCH  32  33
ATOM     33  C   UNL     1      -2.910  14.811  -6.710  1.00  0.00     0.031 A 
ATOM     34  C   UNL     1      -2.997  15.025  -8.191  1.00  0.00     0.074 A 
ATOM     35  C   UNL     1      -3.868  15.295  -5.896  1.00  0.00     0.049 A 
ATOM     36  N   UNL     1      -3.821  15.781  -8.870  1.00  0.00    -0.248 NA
ATOM     37  C   UNL     1      -2.028  14.292  -9.020  1.00  0.00     0.031 C 
ATOM     38  C   UNL     1      -3.925  15.095  -4.447  1.00  0.00     0.029 A 
ATOM     39  N   UNL     1      -4.978  16.052  -6.173  1.00  0.00    -0.354 N 
ATOM     40  C   UNL     1      -3.448  15.645 -10.200  1.00  0.00     0.074 A 
ATOM     41  C   UNL     1      -2.324  14.734 -10.235  1.00  0.00     0.031 C 
ATOM     42  C   UNL     1      -5.021  15.701  -3.964  1.00  0.00     0.029 A 
ATOM     43  C   UNL     1      -5.702  16.388  -5.056  1.00  0.00     0.049 A 
ATOM     44  H   UNL     1      -5.231  16.327  -7.083  1.00  0.00     0.167 HD
ATOM     45  C   UNL     1      -3.997  16.234 -11.288  1.00  0.00     0.037 A 
ATOM     46  C   UNL     1      -6.771  17.194  -4.922  1.00  0.00     0.037 A 
ATOM     47  C   UNL     1      -5.136  17.113 -11.247  1.00  0.00     0.049 A 
ATOM     48  C   UNL     1      -7.325  17.880  -6.139  1.00  0.00     0.074 A 
ATOM     49  C   UNL     1      -5.773  17.753 -12.296  1.00  0.00     0.029 A 
ATOM     50  N   UNL     1      -5.813  17.470 -10.090  1.00  0.00    -0.354 N 
ATOM     51  N   UNL     1      -6.936  17.786  -7.387  1.00  0.00    -0.248 NA
ATOM     52  C   UNL     1      -8.450  18.799  -5.926  1.00  0.00     0.031 C 
ATOM     53  C   UNL     1      -6.817  18.523 -11.769  1.00  0.00     0.029 A 
ATOM     54  C   UNL     1      -6.850  18.335 -10.397  1.00  0.00     0.049 A 
ATOM     55  H   UNL     1      -5.590  17.154  -9.185  1.00  0.00     0.167 HD
ATOM     56  C   UNL     1      -7.767  18.630  -8.109  1.00  0.00     0.074 A 
ATOM     57  C   UNL     1      -8.697  19.211  -7.161  1.00  0.00     0.031 C 
ATOM     58  C   UNL     1      -7.756  18.907  -9.435  1.00  0.00     0.037 A 
BRANCH  45  59
ATOM     59  C   UNL     1      -3.350  15.975 -12.615  1.00  0.00     0.064 A 
ATOM     60  C   UNL     1      -3.510  14.758 -13.291  1.00  0.00     0.173 A 
ATOM     61  C   UNL     1      -2.585  16.977 -13.232  1.00  0.00     0.173 A 
ATOM     62  F   UNL     1      -4.218  13.765 -12.733  1.00  0.00    -0.203 F 
ATOM     63  C   UNL     1      -2.915  14.547 -14.532  1.00  0.00     0.198 A 
ATOM     64  C   UNL     1      -2.009  16.770 -14.482  1.00  0.00     0.198 A 
ATOM     65  F   UNL     1      -2.402  18.159 -12.625  1.00  0.00    -0.203 F 
ATOM     66  F   UNL     1      -3.052  13.364 -15.147  1.00  0.00    -0.200 F 
ATOM     67  C   UNL     1      -2.171  15.554 -15.129  1.00  0.00     0.200 A 
ATOM     68  F   UNL     1      -1.295  17.746 -15.060  1.00  0.00    -0.200 F 
ATOM     69  F   UNL     1      -1.603  15.350 -16.326  1.00  0.00    -0.200 F 
ENDBRANCH  45  59
BRANCH  46  70
ATOM     70  C   UNL     1      -7.353  17.430  -3.577  1.00  0.00     0.064 A 
ATOM     71  C   UNL     1      -8.611  16.920  -3.235  1.00  0.00     0.173 A 
ATOM     72  C   UNL     1      -6.657  18.163  -2.604  1.00  0.00     0.173 A 
ATOM     73  F   UNL     1      -9.325  16.236  -4.141  1.00  0.00    -0.203 F 
ATOM     74  C   UNL     1      -9.155  17.138  -1.970  1.00  0.00     0.198 A 
ATOM     75  C   UNL     1      -7.189  18.359  -1.333  1.00  0.00     0.198 A 
ATOM     76  F   UNL     1      -5.450  18.676  -2.885  1.00  0.00    -0.203 F 
ATOM     77  F   UNL     1     -10.375  16.669  -1.678  1.00  0.00    -0.200 F 
ATOM     78  C   UNL     1      -8.440  17.850  -1.018  1.00  0.00     0.200 A 
ATOM     79  F   UNL     1      -6.491  19.038  -0.413  1.00  0.00    -0.200 F 
ATOM     80  F   UNL     1      -8.960  18.053   0.200  1.00  0.00    -0.200 F 
ENDBRANCH  46  70
BRANCH  58  81
ATOM     81  C   UNL     1      -8.784  19.875  -9.934  1.00  0.00     0.064 A 
ATOM     82  C   UNL     1      -8.651  21.254  -9.715  1.00  0.00     0.173 A 
ATOM     83  C   UNL     1      -9.895  19.425 -10.661  1.00  0.00     0.173 A 
ATOM     84  F   UNL     1      -7.613  21.727  -9.008  1.00  0.00    -0.203 F 
ATOM     85  C   UNL     1      -9.605  22.147 -10.192  1.00  0.00     0.198 A 
ATOM     86  C   UNL     1     -10.836  20.324 -11.155  1.00  0.00     0.198 A 
ATOM     87  F   UNL     1     -10.063  18.116 -10.897  1.00  0.00    -0.203 F 
ATOM     88  F   UNL     1      -9.479  23.457  -9.940  1.00  0.00    -0.200 F 
ATOM     89  C   UNL     1     -10.693  21.683 -10.916  1.00  0.00     0.200 A 
ATOM     90  F   UNL     1     -11.883  19.875 -11.861  1.00  0.00    -0.200 F 
ATOM     91  F   UNL     1     -11.609  22.545 -11.377  1.00  0.00    -0.200 F 
ENDBRANCH  58  81
ENDBRANCH  32  33
ENDBRANCH  25  27
ENDBRANCH  24  25
ENDBRANCH  23  24
ENDBRANCH  22  23
ENDBRANCH   1  22
TORSDOF 16
