REMARK SMILES O=C(C[C@@H]([NH2+]Cc1cccnc1)C(=O)OCCOC(=O)c1ccc(-c2c3nc(c(-c4c(F)c(F)c(F)c(F)c4F)c4ccc([nH]4)c(-c4c(F)c(F)c(F)c(F)c4F)c4nc(c(-c5c(F)c(F)c(F)c(F)c5F)c5ccc2[nH]5)C=C4)C=C3)cc1)Nc1ccc2ccccc2c1
REMARK SMILES IDX 16 1 15 2 13 3 14 4 4 5 3 6 2 7 1 8 84 9 85 11 86 12 94 13
REMARK SMILES IDX 87 14 93 15 88 16 92 17 89 18 91 19 90 20 5 21 6 24 7 25
REMARK SMILES IDX 8 26 12 27 9 28 11 29 10 30 17 31 18 32 19 33 20 34 21 35
REMARK SMILES IDX 22 36 83 37 23 38 82 39 24 40 25 41 26 42 76 43 27 44 81 45
REMARK SMILES IDX 75 46 77 47 28 48 80 49 74 50 73 51 29 53 61 54 41 55 60 56
REMARK SMILES IDX 42 57 45 58 59 59 78 60 43 61 44 62 58 64 79 65 46 66 30 67
REMARK SMILES IDX 31 68 39 69 32 70 33 71 37 72 40 73 34 74 35 75 38 76 36 77
REMARK SMILES IDX 62 78 63 79 71 80 64 81 65 82 69 83 72 84 66 85 67 86 70 87
REMARK SMILES IDX 68 88 47 89 48 90 56 91 49 92 50 93 54 94 57 95 51 96 52 97
REMARK SMILES IDX 55 98 53 99
REMARK H PARENT 84 10 5 22 5 23 77 52 45 63
REMARK Flexibility Score: inf
ROOT
ATOM      1  C   UNL     1       6.015  -4.189   0.655  1.00  0.00     0.274 C 
ENDROOT
BRANCH   1   2
ATOM      2  O   UNL     1       5.359  -2.906   0.571  1.00  0.00    -0.458 OA
BRANCH   2   3
ATOM      3  C   UNL     1       5.074  -2.483  -0.689  1.00  0.00     0.365 C 
ATOM      4  O   UNL     1       5.371  -3.124  -1.694  1.00  0.00    -0.245 OA
BRANCH   3   5
ATOM      5  C   UNL     1       4.348  -1.124  -0.750  1.00  0.00     0.303 C 
BRANCH   5   6
ATOM      6  C   UNL     1       3.703  -0.744   0.603  1.00  0.00     0.177 C 
BRANCH   6   7
ATOM      7  C   UNL     1       2.685   0.378   0.466  1.00  0.00     0.231 C 
ATOM      8  O   UNL     1       1.478   0.178   0.545  1.00  0.00    -0.274 OA
ATOM      9  N   UNL     1       3.286   1.585   0.153  1.00  0.00    -0.326 N 
ATOM     10  H   UNL     1       4.261   1.653   0.266  1.00  0.00     0.169 HD
BRANCH   9  11
ATOM     11  C   UNL     1       2.604   2.718  -0.314  1.00  0.00     0.041 A 
ATOM     12  C   UNL     1       3.074   3.305  -1.488  1.00  0.00     0.027 A 
ATOM     13  C   UNL     1       1.541   3.299   0.377  1.00  0.00     0.034 A 
ATOM     14  C   UNL     1       2.452   4.434  -2.013  1.00  0.00     0.011 A 
ATOM     15  C   UNL     1       0.987   4.515  -0.076  1.00  0.00    -0.016 A 
ATOM     16  C   UNL     1       1.428   5.066  -1.304  1.00  0.00    -0.018 A 
ATOM     17  C   UNL     1       0.029   5.223   0.670  1.00  0.00     0.009 A 
ATOM     18  C   UNL     1       0.865   6.259  -1.780  1.00  0.00     0.009 A 
ATOM     19  C   UNL     1      -0.483   6.439   0.209  1.00  0.00     0.001 A 
ATOM     20  C   UNL     1      -0.079   6.948  -1.022  1.00  0.00     0.001 A 
ENDBRANCH   9  11
ENDBRANCH   6   7
ENDBRANCH   5   6
BRANCH   5  21
ATOM     21  N   UNL     1       5.221  -0.017  -1.266  1.00  0.00    -0.330 N 
ATOM     22  H   UNL     1       5.881   0.228  -0.528  1.00  0.00     0.347 HD
ATOM     23  H   UNL     1       4.583   0.736  -1.524  1.00  0.00     0.347 HD
BRANCH  21  24
ATOM     24  C   UNL     1       5.996  -0.315  -2.484  1.00  0.00     0.299 C 
BRANCH  24  25
ATOM     25  C   UNL     1       5.164  -0.483  -3.727  1.00  0.00     0.024 A 
ATOM     26  C   UNL     1       5.091  -1.702  -4.402  1.00  0.00     0.013 A 
ATOM     27  C   UNL     1       4.447   0.578  -4.274  1.00  0.00     0.120 A 
ATOM     28  C   UNL     1       4.298  -1.822  -5.539  1.00  0.00     0.021 A 
ATOM     29  N   UNL     1       3.659   0.489  -5.370  1.00  0.00    -0.264 NA
ATOM     30  C   UNL     1       3.594  -0.714  -5.973  1.00  0.00     0.111 A 
ENDBRANCH  24  25
ENDBRANCH  21  24
ENDBRANCH   5  21
ENDBRANCH   3   5
ENDBRANCH   2   3
ENDBRANCH   1   2
BRANCH   1  31
ATOM     31  C   UNL     1       5.030  -5.361   0.785  1.00  0.00     0.275 C 
BRANCH  31  32
ATOM     32  O   UNL     1       4.246  -5.580  -0.405  1.00  0.00    -0.458 OA
BRANCH  32  33
ATOM     33  C   UNL     1       3.077  -4.896  -0.450  1.00  0.00     0.338 C 
ATOM     34  O   UNL     1       2.639  -4.147   0.407  1.00  0.00    -0.246 OA
BRANCH  33  35
ATOM     35  C   UNL     1       2.441  -5.037  -1.772  1.00  0.00     0.060 A 
ATOM     36  C   UNL     1       2.115  -3.862  -2.457  1.00  0.00     0.016 A 
ATOM     37  C   UNL     1       2.085  -6.279  -2.300  1.00  0.00     0.016 A 
ATOM     38  C   UNL     1       1.444  -3.915  -3.673  1.00  0.00     0.010 A 
ATOM     39  C   UNL     1       1.389  -6.333  -3.515  1.00  0.00     0.010 A 
ATOM     40  C   UNL     1       1.060  -5.151  -4.202  1.00  0.00    -0.014 A 
BRANCH  40  41
ATOM     41  C   UNL     1       0.251  -5.177  -5.441  1.00  0.00     0.031 A 
ATOM     42  C   UNL     1      -1.240  -5.299  -5.351  1.00  0.00     0.074 A 
ATOM     43  C   UNL     1       0.851  -5.022  -6.634  1.00  0.00     0.049 A 
ATOM     44  N   UNL     1      -2.123  -5.378  -6.313  1.00  0.00    -0.248 NA
ATOM     45  C   UNL     1      -1.813  -5.341  -3.998  1.00  0.00     0.031 C 
ATOM     46  C   UNL     1       2.287  -4.844  -6.830  1.00  0.00     0.029 A 
ATOM     47  N   UNL     1       0.330  -4.977  -7.902  1.00  0.00    -0.354 N 
ATOM     48  C   UNL     1      -3.353  -5.502  -5.684  1.00  0.00     0.074 A 
ATOM     49  C   UNL     1      -3.104  -5.491  -4.258  1.00  0.00     0.031 C 
ATOM     50  C   UNL     1       2.534  -4.682  -8.140  1.00  0.00     0.029 A 
ATOM     51  C   UNL     1       1.279  -4.805  -8.879  1.00  0.00     0.049 A 
ATOM     52  H   UNL     1      -0.632  -5.059  -8.092  1.00  0.00     0.167 HD
ATOM     53  C   UNL     1      -4.577  -5.622  -6.251  1.00  0.00     0.037 A 
ATOM     54  C   UNL     1       1.148  -4.780 -10.219  1.00  0.00     0.037 A 
ATOM     55  C   UNL     1      -4.815  -5.626  -7.671  1.00  0.00     0.049 A 
ATOM     56  C   UNL     1      -0.219  -4.967 -10.823  1.00  0.00     0.074 A 
ATOM     57  C   UNL     1      -6.016  -5.757  -8.346  1.00  0.00     0.029 A 
ATOM     58  N   UNL     1      -3.827  -5.491  -8.635  1.00  0.00    -0.354 N 
ATOM     59  N   UNL     1      -1.376  -5.112 -10.223  1.00  0.00    -0.248 NA
ATOM     60  C   UNL     1      -0.295  -5.004 -12.290  1.00  0.00     0.031 C 
ATOM     61  C   UNL     1      -5.749  -5.744  -9.720  1.00  0.00     0.029 A 
ATOM     62  C   UNL     1      -4.388  -5.557  -9.901  1.00  0.00     0.049 A 
ATOM     63  H   UNL     1      -2.868  -5.367  -8.448  1.00  0.00     0.167 HD
ATOM     64  C   UNL     1      -2.317  -5.246 -11.235  1.00  0.00     0.074 A 
ATOM     65  C   UNL     1      -1.599  -5.142 -12.488  1.00  0.00     0.031 C 
ATOM     66  C   UNL     1      -3.654  -5.448 -11.136  1.00  0.00     0.037 A 
BRANCH  53  67
ATOM     67  C   UNL     1      -5.747  -5.812  -5.332  1.00  0.00     0.064 A 
ATOM     68  C   UNL     1      -6.256  -4.762  -4.554  1.00  0.00     0.173 A 
ATOM     69  C   UNL     1      -6.378  -7.062  -5.244  1.00  0.00     0.173 A 
ATOM     70  F   UNL     1      -5.678  -3.552  -4.591  1.00  0.00    -0.203 F 
ATOM     71  C   UNL     1      -7.342  -4.963  -3.705  1.00  0.00     0.198 A 
ATOM     72  C   UNL     1      -7.478  -7.253  -4.413  1.00  0.00     0.198 A 
ATOM     73  F   UNL     1      -5.930  -8.098  -5.968  1.00  0.00    -0.203 F 
ATOM     74  F   UNL     1      -7.787  -3.958  -2.938  1.00  0.00    -0.200 F 
ATOM     75  C   UNL     1      -7.955  -6.206  -3.639  1.00  0.00     0.200 A 
ATOM     76  F   UNL     1      -8.075  -8.452  -4.359  1.00  0.00    -0.200 F 
ATOM     77  F   UNL     1      -9.001  -6.397  -2.824  1.00  0.00    -0.200 F 
ENDBRANCH  53  67
BRANCH  54  78
ATOM     78  C   UNL     1       2.345  -4.605 -11.082  1.00  0.00     0.064 A 
ATOM     79  C   UNL     1       2.515  -3.450 -11.857  1.00  0.00     0.173 A 
ATOM     80  C   UNL     1       3.338  -5.594 -11.161  1.00  0.00     0.173 A 
ATOM     81  F   UNL     1       1.581  -2.487 -11.837  1.00  0.00    -0.203 F 
ATOM     82  C   UNL     1       3.623  -3.296 -12.689  1.00  0.00     0.198 A 
ATOM     83  C   UNL     1       4.460  -5.426 -11.969  1.00  0.00     0.198 A 
ATOM     84  F   UNL     1       3.223  -6.720 -10.442  1.00  0.00    -0.203 F 
ATOM     85  F   UNL     1       3.738  -2.202 -13.453  1.00  0.00    -0.200 F 
ATOM     86  C   UNL     1       4.598  -4.281 -12.738  1.00  0.00     0.200 A 
ATOM     87  F   UNL     1       5.405  -6.375 -12.003  1.00  0.00    -0.200 F 
ATOM     88  F   UNL     1       5.666  -4.131 -13.533  1.00  0.00    -0.200 F 
ENDBRANCH  54  78
BRANCH  66  89
ATOM     89  C   UNL     1      -4.428  -5.548 -12.417  1.00  0.00     0.064 A 
ATOM     90  C   UNL     1      -4.351  -6.686 -13.233  1.00  0.00     0.173 A 
ATOM     91  C   UNL     1      -5.289  -4.512 -12.811  1.00  0.00     0.173 A 
ATOM     92  F   UNL     1      -3.530  -7.696 -12.907  1.00  0.00    -0.203 F 
ATOM     93  C   UNL     1      -5.092  -6.775 -14.408  1.00  0.00     0.198 A 
ATOM     94  C   UNL     1      -6.048  -4.616 -13.973  1.00  0.00     0.198 A 
ATOM     95  F   UNL     1      -5.402  -3.405 -12.062  1.00  0.00    -0.203 F 
ATOM     96  F   UNL     1      -4.971  -7.853 -15.194  1.00  0.00    -0.200 F 
ATOM     97  C   UNL     1      -5.945  -5.744 -14.773  1.00  0.00     0.200 A 
ATOM     98  F   UNL     1      -6.880  -3.624 -14.318  1.00  0.00    -0.200 F 
ATOM     99  F   UNL     1      -6.662  -5.834 -15.901  1.00  0.00    -0.200 F 
ENDBRANCH  66  89
ENDBRANCH  40  41
ENDBRANCH  33  35
ENDBRANCH  32  33
ENDBRANCH  31  32
ENDBRANCH   1  31
TORSDOF 17
