REMARK SMILES C[C@H](NC(=O)NCCc1ccccc1F)C(=O)OCCOC(=O)c1ccc(-c2c3nc(c(-c4c(F)c(F)c(F)c(F)c4F)c4ccc([nH]4)c(-c4c(F)c(F)c(F)c(F)c4F)c4nc(c(-c5c(F)c(F)c(F)c(F)c5F)c5ccc2[nH]5)C=C4)C=C3)cc1
REMARK SMILES IDX 19 1 18 2 16 3 17 4 2 5 1 6 3 7 4 8 5 10 6 11 7 13 8 14 9 15
REMARK SMILES IDX 10 16 14 17 11 18 13 19 15 20 12 21 20 22 21 23 22 24 23 25
REMARK SMILES IDX 24 26 25 27 86 28 26 29 85 30 27 31 28 32 29 33 79 34 30 35
REMARK SMILES IDX 84 36 78 37 80 38 31 39 83 40 77 41 76 42 32 44 64 45 44 46
REMARK SMILES IDX 63 47 45 48 48 49 62 50 81 51 46 52 47 53 61 55 82 56 49 57
REMARK SMILES IDX 33 58 34 59 42 60 35 61 36 62 40 63 43 64 37 65 38 66 41 67
REMARK SMILES IDX 39 68 65 69 66 70 74 71 67 72 68 73 72 74 75 75 69 76 70 77
REMARK SMILES IDX 73 78 71 79 50 80 51 81 59 82 52 83 53 84 57 85 60 86 54 87
REMARK SMILES IDX 55 88 58 89 56 90
REMARK H PARENT 3 9 6 12 80 43 48 54
REMARK Flexibility Score: inf
ROOT
ATOM      1  C   UNL     1      -2.977  -0.555   1.386  1.00  0.00     0.274 C 
ENDROOT
BRANCH   1   2
ATOM      2  O   UNL     1      -1.578  -0.364   1.094  1.00  0.00    -0.461 OA
BRANCH   2   3
ATOM      3  C   UNL     1      -0.816  -1.493   1.111  1.00  0.00     0.328 C 
ATOM      4  O   UNL     1      -1.244  -2.619   1.348  1.00  0.00    -0.250 OA
BRANCH   3   5
ATOM      5  C   UNL     1       0.673  -1.217   0.859  1.00  0.00     0.190 C 
ATOM      6  C   UNL     1       1.428  -1.553   2.145  1.00  0.00     0.043 C 
BRANCH   5   7
ATOM      7  N   UNL     1       0.997   0.153   0.452  1.00  0.00    -0.325 N 
ATOM      8  C   UNL     1       1.809   0.555  -0.549  1.00  0.00     0.315 C 
ATOM      9  H   UNL     1       0.570   0.871   0.974  1.00  0.00     0.166 HD
ATOM     10  O   UNL     1       2.482   1.573  -0.411  1.00  0.00    -0.249 OA
ATOM     11  N   UNL     1       1.879  -0.145  -1.702  1.00  0.00    -0.338 N 
ATOM     12  H   UNL     1       2.747  -0.133  -2.167  1.00  0.00     0.165 HD
BRANCH  11  13
ATOM     13  C   UNL     1       0.823  -0.912  -2.332  1.00  0.00     0.122 C 
BRANCH  13  14
ATOM     14  C   UNL     1       0.287  -0.263  -3.614  1.00  0.00     0.060 C 
BRANCH  14  15
ATOM     15  C   UNL     1       0.980  -0.479  -4.938  1.00  0.00    -0.010 A 
ATOM     16  C   UNL     1       0.412   0.154  -6.062  1.00  0.00     0.007 A 
ATOM     17  C   UNL     1       2.100  -1.286  -5.145  1.00  0.00     0.126 A 
ATOM     18  C   UNL     1       0.960  -0.004  -7.337  1.00  0.00     0.000 A 
ATOM     19  C   UNL     1       2.651  -1.449  -6.418  1.00  0.00     0.039 A 
ATOM     20  F   UNL     1       2.675  -1.942  -4.130  1.00  0.00    -0.207 F 
ATOM     21  C   UNL     1       2.087  -0.800  -7.514  1.00  0.00     0.003 A 
ENDBRANCH  14  15
ENDBRANCH  13  14
ENDBRANCH  11  13
ENDBRANCH   5   7
ENDBRANCH   3   5
ENDBRANCH   2   3
ENDBRANCH   1   2
BRANCH   1  22
ATOM     22  C   UNL     1      -3.797  -0.633   0.102  1.00  0.00     0.275 C 
BRANCH  22  23
ATOM     23  O   UNL     1      -3.320  -1.712  -0.723  1.00  0.00    -0.458 OA
BRANCH  23  24
ATOM     24  C   UNL     1      -3.107  -1.394  -2.019  1.00  0.00     0.338 C 
ATOM     25  O   UNL     1      -3.317  -0.322  -2.561  1.00  0.00    -0.246 OA
BRANCH  24  26
ATOM     26  C   UNL     1      -2.543  -2.541  -2.759  1.00  0.00     0.060 A 
ATOM     27  C   UNL     1      -1.453  -3.256  -2.261  1.00  0.00     0.016 A 
ATOM     28  C   UNL     1      -3.007  -2.787  -4.053  1.00  0.00     0.016 A 
ATOM     29  C   UNL     1      -0.773  -4.150  -3.092  1.00  0.00     0.010 A 
ATOM     30  C   UNL     1      -2.389  -3.760  -4.843  1.00  0.00     0.010 A 
ATOM     31  C   UNL     1      -1.249  -4.436  -4.382  1.00  0.00    -0.014 A 
BRANCH  31  32
ATOM     32  C   UNL     1      -0.632  -5.513  -5.204  1.00  0.00     0.031 A 
ATOM     33  C   UNL     1      -0.034  -5.246  -6.559  1.00  0.00     0.074 A 
ATOM     34  C   UNL     1      -0.675  -6.779  -4.743  1.00  0.00     0.049 A 
ATOM     35  N   UNL     1       0.481  -6.099  -7.411  1.00  0.00    -0.248 NA
ATOM     36  C   UNL     1       0.008  -3.851  -7.019  1.00  0.00     0.031 C 
ATOM     37  C   UNL     1      -1.220  -7.190  -3.448  1.00  0.00     0.029 A 
ATOM     38  N   UNL     1      -0.296  -7.961  -5.334  1.00  0.00    -0.354 N 
ATOM     39  C   UNL     1       0.968  -5.340  -8.466  1.00  0.00     0.074 A 
ATOM     40  C   UNL     1       0.614  -3.967  -8.195  1.00  0.00     0.031 C 
ATOM     41  C   UNL     1      -1.182  -8.526  -3.359  1.00  0.00     0.029 A 
ATOM     42  C   UNL     1      -0.684  -9.067  -4.619  1.00  0.00     0.049 A 
ATOM     43  H   UNL     1       0.203  -8.009  -6.181  1.00  0.00     0.167 HD
ATOM     44  C   UNL     1       1.674  -5.753  -9.545  1.00  0.00     0.037 A 
ATOM     45  C   UNL     1      -0.726 -10.368  -4.961  1.00  0.00     0.037 A 
ATOM     46  C   UNL     1       1.951  -7.129  -9.859  1.00  0.00     0.049 A 
ATOM     47  C   UNL     1      -0.217 -10.800  -6.301  1.00  0.00     0.074 A 
ATOM     48  C   UNL     1       2.716  -7.645 -10.891  1.00  0.00     0.029 A 
ATOM     49  N   UNL     1       1.416  -8.207  -9.178  1.00  0.00    -0.354 N 
ATOM     50  N   UNL     1       0.362 -10.079  -7.228  1.00  0.00    -0.248 NA
ATOM     51  C   UNL     1      -0.379 -12.217  -6.654  1.00  0.00     0.031 C 
ATOM     52  C   UNL     1       2.567  -9.037 -10.887  1.00  0.00     0.029 A 
ATOM     53  C   UNL     1       1.747  -9.384  -9.827  1.00  0.00     0.049 A 
ATOM     54  H   UNL     1       0.879  -8.147  -8.354  1.00  0.00     0.167 HD
ATOM     55  C   UNL     1       0.648 -10.952  -8.267  1.00  0.00     0.074 A 
ATOM     56  C   UNL     1       0.178 -12.259  -7.859  1.00  0.00     0.031 C 
ATOM     57  C   UNL     1       1.257 -10.682  -9.446  1.00  0.00     0.037 A 
BRANCH  44  58
ATOM     58  C   UNL     1       2.223  -4.723 -10.481  1.00  0.00     0.064 A 
ATOM     59  C   UNL     1       1.625  -4.495 -11.727  1.00  0.00     0.173 A 
ATOM     60  C   UNL     1       3.442  -4.085 -10.204  1.00  0.00     0.173 A 
ATOM     61  F   UNL     1       0.462  -5.089 -12.036  1.00  0.00    -0.203 F 
ATOM     62  C   UNL     1       2.241  -3.683 -12.676  1.00  0.00     0.198 A 
ATOM     63  C   UNL     1       4.052  -3.270 -11.154  1.00  0.00     0.198 A 
ATOM     64  F   UNL     1       4.051  -4.273  -9.024  1.00  0.00    -0.203 F 
ATOM     65  F   UNL     1       1.669  -3.503 -13.875  1.00  0.00    -0.200 F 
ATOM     66  C   UNL     1       3.457  -3.079 -12.393  1.00  0.00     0.200 A 
ATOM     67  F   UNL     1       5.225  -2.684 -10.878  1.00  0.00    -0.200 F 
ATOM     68  F   UNL     1       4.059  -2.317 -13.316  1.00  0.00    -0.200 F 
ENDBRANCH  44  58
BRANCH  45  69
ATOM     69  C   UNL     1      -1.381 -11.321  -4.032  1.00  0.00     0.064 A 
ATOM     70  C   UNL     1      -2.766 -11.247  -3.800  1.00  0.00     0.173 A 
ATOM     71  C   UNL     1      -0.644 -12.261  -3.308  1.00  0.00     0.173 A 
ATOM     72  F   UNL     1      -3.514 -10.360  -4.472  1.00  0.00    -0.203 F 
ATOM     73  C   UNL     1      -3.378 -12.051  -2.844  1.00  0.00     0.198 A 
ATOM     74  C   UNL     1      -1.264 -13.086  -2.371  1.00  0.00     0.198 A 
ATOM     75  F   UNL     1       0.676 -12.381  -3.514  1.00  0.00    -0.203 F 
ATOM     76  F   UNL     1      -4.690 -11.921  -2.603  1.00  0.00    -0.200 F 
ATOM     77  C   UNL     1      -2.627 -12.970  -2.130  1.00  0.00     0.200 A 
ATOM     78  F   UNL     1      -0.541 -13.989  -1.695  1.00  0.00    -0.200 F 
ATOM     79  F   UNL     1      -3.215 -13.744  -1.208  1.00  0.00    -0.200 F 
ENDBRANCH  45  69
BRANCH  57  80
ATOM     80  C   UNL     1       1.443 -11.810 -10.411  1.00  0.00     0.064 A 
ATOM     81  C   UNL     1       2.714 -12.356 -10.640  1.00  0.00     0.173 A 
ATOM     82  C   UNL     1       0.369 -12.296 -11.169  1.00  0.00     0.173 A 
ATOM     83  F   UNL     1       3.774 -11.919  -9.942  1.00  0.00    -0.203 F 
ATOM     84  C   UNL     1       2.908 -13.334 -11.611  1.00  0.00     0.198 A 
ATOM     85  C   UNL     1       0.562 -13.292 -12.123  1.00  0.00     0.198 A 
ATOM     86  F   UNL     1      -0.868 -11.816 -10.973  1.00  0.00    -0.203 F 
ATOM     87  F   UNL     1       4.138 -13.816 -11.838  1.00  0.00    -0.200 F 
ATOM     88  C   UNL     1       1.832 -13.802 -12.350  1.00  0.00     0.200 A 
ATOM     89  F   UNL     1      -0.481 -13.758 -12.822  1.00  0.00    -0.200 F 
ATOM     90  F   UNL     1       2.019 -14.746 -13.282  1.00  0.00    -0.200 F 
ENDBRANCH  57  80
ENDBRANCH  31  32
ENDBRANCH  24  26
ENDBRANCH  23  24
ENDBRANCH  22  23
ENDBRANCH   1  22
TORSDOF 15
