REMARK SMILES O=C1O[C@@H](c2ccc(O)c(O)c2)[C@H](C(=O)OCCOC(=O)c2ccc(-c3c4nc(c(-c5c(F)c(F)c(F)c(F)c5F)c5ccc([nH]5)c(-c5c(F)c(F)c(F)c(F)c5F)c5nc(c(-c6c(F)c(F)c(F)c(F)c6F)c6ccc3[nH]6)C=C5)C=C4)cc2)/C1=C\c1ccc(O)c(O)c1
REMARK SMILES IDX 17 1 16 2 14 3 15 4 13 5 1 6 2 7 3 8 85 9 4 10 86 11 5 12
REMARK SMILES IDX 6 13 12 14 7 15 10 16 8 17 11 18 9 20 87 22 88 23 94 24
REMARK SMILES IDX 89 25 92 26 90 27 93 28 91 30 18 32 19 33 20 34 21 35 22 36
REMARK SMILES IDX 23 37 84 38 24 39 83 40 25 41 26 42 27 43 77 44 28 45 82 46
REMARK SMILES IDX 76 47 78 48 29 49 81 50 75 51 74 52 30 54 62 55 42 56 61 57
REMARK SMILES IDX 43 58 46 59 60 60 79 61 44 62 45 63 59 65 80 66 47 67 31 68
REMARK SMILES IDX 32 69 40 70 33 71 34 72 38 73 41 74 35 75 36 76 39 77 37 78
REMARK SMILES IDX 63 79 64 80 72 81 65 82 66 83 70 84 73 85 67 86 68 87 71 88
REMARK SMILES IDX 69 89 48 90 49 91 57 92 50 93 51 94 55 95 58 96 52 97 53 98
REMARK SMILES IDX 56 99 54 100
REMARK H PARENT 11 19 9 21 93 29 91 31 78 53 46 64
REMARK Flexibility Score: inf
ROOT
ATOM      1  C   UNL     1       2.973   1.563   3.626  1.00  0.00     0.274 C 
ENDROOT
BRANCH   1   2
ATOM      2  O   UNL     1       2.870   1.536   2.183  1.00  0.00    -0.461 OA
BRANCH   2   3
ATOM      3  C   UNL     1       1.707   1.042   1.669  1.00  0.00     0.318 C 
ATOM      4  O   UNL     1       0.812   0.556   2.346  1.00  0.00    -0.251 OA
BRANCH   3   5
ATOM      5  C   UNL     1       1.720   1.088   0.144  1.00  0.00     0.182 C 
ATOM      6  O   UNL     1      -1.491  -0.220  -0.538  1.00  0.00    -0.247 OA
ATOM      7  C   UNL     1      -0.305  -0.019  -0.440  1.00  0.00     0.335 C 
ATOM      8  O   UNL     1       0.667  -0.966  -0.279  1.00  0.00    -0.453 OA
ATOM      9  C   UNL     1       0.376   1.302  -0.464  1.00  0.00     0.056 C 
ATOM     10  C   UNL     1       1.971  -0.347  -0.315  1.00  0.00     0.226 C 
ATOM     11  C   UNL     1      -0.203   2.338  -1.094  1.00  0.00     0.020 C 
BRANCH  10  12
ATOM     12  C   UNL     1       2.581  -0.463  -1.706  1.00  0.00    -0.002 A 
ATOM     13  C   UNL     1       3.728   0.282  -2.041  1.00  0.00     0.012 A 
ATOM     14  C   UNL     1       2.029  -1.317  -2.676  1.00  0.00     0.057 A 
ATOM     15  C   UNL     1       4.271   0.231  -3.328  1.00  0.00     0.050 A 
ATOM     16  C   UNL     1       2.577  -1.366  -3.950  1.00  0.00     0.157 A 
ATOM     17  C   UNL     1       3.682  -0.590  -4.280  1.00  0.00     0.157 A 
BRANCH  16  18
ATOM     18  O   UNL     1       2.011  -2.183  -4.885  1.00  0.00    -0.504 OA
ATOM     19  H   UNL     1       2.371  -2.226  -5.749  1.00  0.00     0.293 HD
ENDBRANCH  16  18
BRANCH  17  20
ATOM     20  O   UNL     1       4.157  -0.669  -5.558  1.00  0.00    -0.504 OA
ATOM     21  H   UNL     1       4.901  -0.160  -5.815  1.00  0.00     0.293 HD
ENDBRANCH  17  20
ENDBRANCH  10  12
BRANCH  11  22
ATOM     22  C   UNL     1       0.348   3.689  -1.253  1.00  0.00    -0.021 A 
ATOM     23  C   UNL     1       1.227   4.049  -2.276  1.00  0.00     0.012 A 
ATOM     24  C   UNL     1      -0.070   4.682  -0.370  1.00  0.00     0.058 A 
ATOM     25  C   UNL     1       1.689   5.375  -2.384  1.00  0.00     0.051 A 
ATOM     26  C   UNL     1       0.430   5.970  -0.431  1.00  0.00     0.157 A 
ATOM     27  C   UNL     1       1.295   6.326  -1.446  1.00  0.00     0.157 A 
BRANCH  26  28
ATOM     28  O   UNL     1       0.056   6.881   0.517  1.00  0.00    -0.504 OA
ATOM     29  H   UNL     1       0.390   7.756   0.483  1.00  0.00     0.293 HD
ENDBRANCH  26  28
BRANCH  27  30
ATOM     30  O   UNL     1       1.710   7.626  -1.480  1.00  0.00    -0.504 OA
ATOM     31  H   UNL     1       2.298   7.913  -2.152  1.00  0.00     0.293 HD
ENDBRANCH  27  30
ENDBRANCH  11  22
ENDBRANCH   3   5
ENDBRANCH   2   3
ENDBRANCH   1   2
BRANCH   1  32
ATOM     32  C   UNL     1       2.580   2.925   4.211  1.00  0.00     0.275 C 
BRANCH  32  33
ATOM     33  O   UNL     1       1.149   3.131   4.203  1.00  0.00    -0.458 OA
BRANCH  33  34
ATOM     34  C   UNL     1       0.709   3.712   3.067  1.00  0.00     0.338 C 
ATOM     35  O   UNL     1       1.411   4.032   2.119  1.00  0.00    -0.246 OA
BRANCH  34  36
ATOM     36  C   UNL     1      -0.758   3.859   3.003  1.00  0.00     0.060 A 
ATOM     37  C   UNL     1      -1.463   2.888   2.294  1.00  0.00     0.016 A 
ATOM     38  C   UNL     1      -1.326   5.123   3.195  1.00  0.00     0.016 A 
ATOM     39  C   UNL     1      -2.636   3.242   1.624  1.00  0.00     0.010 A 
ATOM     40  C   UNL     1      -2.567   5.437   2.608  1.00  0.00     0.010 A 
ATOM     41  C   UNL     1      -3.208   4.524   1.754  1.00  0.00    -0.014 A 
BRANCH  41  42
ATOM     42  C   UNL     1      -4.443   4.876   0.980  1.00  0.00     0.031 A 
ATOM     43  C   UNL     1      -4.523   6.064   0.038  1.00  0.00     0.074 A 
ATOM     44  C   UNL     1      -5.515   4.066   1.071  1.00  0.00     0.049 A 
ATOM     45  N   UNL     1      -5.558   6.552  -0.611  1.00  0.00    -0.248 NA
ATOM     46  C   UNL     1      -3.279   6.792  -0.228  1.00  0.00     0.031 C 
ATOM     47  C   UNL     1      -5.581   2.846   1.877  1.00  0.00     0.029 A 
ATOM     48  N   UNL     1      -6.750   4.135   0.474  1.00  0.00    -0.354 N 
ATOM     49  C   UNL     1      -5.089   7.649  -1.334  1.00  0.00     0.074 A 
ATOM     50  C   UNL     1      -3.674   7.753  -1.053  1.00  0.00     0.031 C 
ATOM     51  C   UNL     1      -6.763   2.255   1.685  1.00  0.00     0.029 A 
ATOM     52  C   UNL     1      -7.594   3.130   0.870  1.00  0.00     0.049 A 
ATOM     53  H   UNL     1      -7.003   4.834  -0.171  1.00  0.00     0.167 HD
ATOM     54  C   UNL     1      -5.777   8.495  -2.144  1.00  0.00     0.037 A 
ATOM     55  C   UNL     1      -8.915   2.958   0.686  1.00  0.00     0.037 A 
ATOM     56  C   UNL     1      -7.188   8.380  -2.432  1.00  0.00     0.049 A 
ATOM     57  C   UNL     1      -9.682   3.965  -0.108  1.00  0.00     0.074 A 
ATOM     58  C   UNL     1      -7.977   9.186  -3.238  1.00  0.00     0.029 A 
ATOM     59  N   UNL     1      -8.022   7.398  -1.921  1.00  0.00    -0.354 N 
ATOM     60  N   UNL     1      -9.248   5.038  -0.720  1.00  0.00    -0.248 NA
ATOM     61  C   UNL     1     -11.127   3.744  -0.223  1.00  0.00     0.031 C 
ATOM     62  C   UNL     1      -9.297   8.730  -3.163  1.00  0.00     0.029 A 
ATOM     63  C   UNL     1      -9.322   7.599  -2.365  1.00  0.00     0.049 A 
ATOM     64  H   UNL     1      -7.735   6.665  -1.329  1.00  0.00     0.167 HD
ATOM     65  C   UNL     1     -10.363   5.620  -1.300  1.00  0.00     0.074 A 
ATOM     66  C   UNL     1     -11.491   4.766  -0.984  1.00  0.00     0.031 C 
ATOM     67  C   UNL     1     -10.443   6.760  -2.028  1.00  0.00     0.037 A 
BRANCH  54  68
ATOM     68  C   UNL     1      -5.049   9.666  -2.754  1.00  0.00     0.064 A 
ATOM     69  C   UNL     1      -4.146   9.518  -3.817  1.00  0.00     0.173 A 
ATOM     70  C   UNL     1      -5.354  10.975  -2.339  1.00  0.00     0.173 A 
ATOM     71  F   UNL     1      -3.816   8.295  -4.258  1.00  0.00    -0.203 F 
ATOM     72  C   UNL     1      -3.574  10.631  -4.435  1.00  0.00     0.198 A 
ATOM     73  C   UNL     1      -4.802  12.084  -2.976  1.00  0.00     0.198 A 
ATOM     74  F   UNL     1      -6.222  11.181  -1.337  1.00  0.00    -0.203 F 
ATOM     75  F   UNL     1      -2.699  10.465  -5.437  1.00  0.00    -0.200 F 
ATOM     76  C   UNL     1      -3.910  11.912  -4.022  1.00  0.00     0.200 A 
ATOM     77  F   UNL     1      -5.146  13.320  -2.588  1.00  0.00    -0.200 F 
ATOM     78  F   UNL     1      -3.378  12.979  -4.634  1.00  0.00    -0.200 F 
ENDBRANCH  54  68
BRANCH  55  79
ATOM     79  C   UNL     1      -9.580   1.821   1.371  1.00  0.00     0.064 A 
ATOM     80  C   UNL     1     -10.085   0.733   0.652  1.00  0.00     0.173 A 
ATOM     81  C   UNL     1      -9.639   1.768   2.774  1.00  0.00     0.173 A 
ATOM     82  F   UNL     1     -10.076   0.752  -0.689  1.00  0.00    -0.203 F 
ATOM     83  C   UNL     1     -10.611  -0.376   1.313  1.00  0.00     0.198 A 
ATOM     84  C   UNL     1     -10.125   0.644   3.432  1.00  0.00     0.198 A 
ATOM     85  F   UNL     1      -9.166   2.789   3.506  1.00  0.00    -0.203 F 
ATOM     86  F   UNL     1     -11.110  -1.398   0.606  1.00  0.00    -0.200 F 
ATOM     87  C   UNL     1     -10.613  -0.427   2.700  1.00  0.00     0.200 A 
ATOM     88  F   UNL     1     -10.098   0.591   4.770  1.00  0.00    -0.200 F 
ATOM     89  F   UNL     1     -11.085  -1.509   3.333  1.00  0.00    -0.200 F 
ENDBRANCH  55  79
BRANCH  67  90
ATOM     90  C   UNL     1     -11.799   7.129  -2.553  1.00  0.00     0.064 A 
ATOM     91  C   UNL     1     -12.820   7.576  -1.700  1.00  0.00     0.173 A 
ATOM     92  C   UNL     1     -12.089   7.008  -3.920  1.00  0.00     0.173 A 
ATOM     93  F   UNL     1     -12.597   7.691  -0.382  1.00  0.00    -0.203 F 
ATOM     94  C   UNL     1     -14.094   7.844  -2.192  1.00  0.00     0.198 A 
ATOM     95  C   UNL     1     -13.356   7.308  -4.412  1.00  0.00     0.198 A 
ATOM     96  F   UNL     1     -11.146   6.591  -4.778  1.00  0.00    -0.203 F 
ATOM     97  F   UNL     1     -15.074   8.200  -1.349  1.00  0.00    -0.200 F 
ATOM     98  C   UNL     1     -14.361   7.712  -3.546  1.00  0.00     0.200 A 
ATOM     99  F   UNL     1     -13.608   7.190  -5.723  1.00  0.00    -0.200 F 
ATOM    100  F   UNL     1     -15.591   7.959  -4.016  1.00  0.00    -0.200 F 
ENDBRANCH  67  90
ENDBRANCH  41  42
ENDBRANCH  34  36
ENDBRANCH  33  34
ENDBRANCH  32  33
ENDBRANCH   1  32
TORSDOF 17
