REMARK SMILES C[C@H](NC(=O)N(CC(=O)OCCOC(=O)c1ccc(-c2c3nc(c(-c4c(F)c(F)c(F)c(F)c4F)c4ccc([nH]4)c(-c4c(F)c(F)c(F)c(F)c4F)c4nc(c(-c5c(F)c(F)c(F)c(F)c5F)c5ccc2[nH]5)C=C4)C=C3)cc1)C(C)(C)C)c1ccccc1
REMARK SMILES IDX 11 1 10 2 8 3 9 4 7 5 6 6 4 7 3 8 5 10 2 11 1 12 83 13 84 14
REMARK SMILES IDX 88 15 85 16 87 17 86 18 79 19 80 20 81 21 82 22 12 23 13 24
REMARK SMILES IDX 14 25 15 26 16 27 17 28 78 29 18 30 77 31 19 32 20 33 21 34
REMARK SMILES IDX 71 35 22 36 76 37 70 38 72 39 23 40 75 41 69 42 68 43 24 45
REMARK SMILES IDX 56 46 36 47 55 48 37 49 40 50 54 51 73 52 38 53 39 54 53 56
REMARK SMILES IDX 74 57 41 58 25 59 26 60 34 61 27 62 28 63 32 64 35 65 29 66
REMARK SMILES IDX 30 67 33 68 31 69 57 70 58 71 66 72 59 73 60 74 64 75 67 76
REMARK SMILES IDX 61 77 62 78 65 79 63 80 42 81 43 82 51 83 44 84 45 85 49 86
REMARK SMILES IDX 52 87 46 88 47 89 50 90 48 91
REMARK H PARENT 3 9 72 44 40 55
REMARK Flexibility Score: inf
ROOT
ATOM      1  C   UNL     1       2.835   4.852   0.296  1.00  0.00     0.274 C 
ENDROOT
BRANCH   1   2
ATOM      2  O   UNL     1       3.003   3.442   0.057  1.00  0.00    -0.461 OA
BRANCH   2   3
ATOM      3  C   UNL     1       2.546   3.022  -1.153  1.00  0.00     0.325 C 
ATOM      4  O   UNL     1       1.947   3.732  -1.958  1.00  0.00    -0.250 OA
BRANCH   3   5
ATOM      5  C   UNL     1       3.052   1.639  -1.545  1.00  0.00     0.244 C 
BRANCH   5   6
ATOM      6  N   UNL     1       3.246   0.638  -0.500  1.00  0.00    -0.309 N 
BRANCH   6   7
ATOM      7  C   UNL     1       2.185   0.120   0.210  1.00  0.00     0.318 C 
ATOM      8  N   UNL     1       0.906   0.198  -0.201  1.00  0.00    -0.331 N 
ATOM      9  H   UNL     1       0.287  -0.043   0.526  1.00  0.00     0.165 HD
ATOM     10  O   UNL     1       2.331  -0.473   1.283  1.00  0.00    -0.249 OA
BRANCH   8  11
ATOM     11  C   UNL     1       0.173   0.538  -1.418  1.00  0.00     0.111 C 
ATOM     12  C   UNL     1       0.445  -0.454  -2.557  1.00  0.00     0.036 C 
BRANCH  11  13
ATOM     13  C   UNL     1      -1.317   0.628  -1.113  1.00  0.00    -0.026 A 
ATOM     14  C   UNL     1      -1.945   1.882  -1.047  1.00  0.00     0.006 A 
ATOM     15  C   UNL     1      -2.090  -0.521  -0.875  1.00  0.00     0.006 A 
ATOM     16  C   UNL     1      -3.314   1.980  -0.784  1.00  0.00     0.000 A 
ATOM     17  C   UNL     1      -3.458  -0.422  -0.618  1.00  0.00     0.000 A 
ATOM     18  C   UNL     1      -4.070   0.828  -0.578  1.00  0.00     0.000 A 
ENDBRANCH  11  13
ENDBRANCH   8  11
ENDBRANCH   6   7
BRANCH   6  19
ATOM     19  C   UNL     1       4.656   0.215  -0.124  1.00  0.00     0.037 C 
ATOM     20  C   UNL     1       5.048   0.760   1.265  1.00  0.00     0.034 C 
ATOM     21  C   UNL     1       4.767  -1.331  -0.139  1.00  0.00     0.034 C 
ATOM     22  C   UNL     1       5.757   0.701  -1.106  1.00  0.00     0.034 C 
ENDBRANCH   6  19
ENDBRANCH   5   6
ENDBRANCH   3   5
ENDBRANCH   2   3
ENDBRANCH   1   2
BRANCH   1  23
ATOM     23  C   UNL     1       4.087   5.624  -0.133  1.00  0.00     0.275 C 
BRANCH  23  24
ATOM     24  O   UNL     1       4.497   5.232  -1.460  1.00  0.00    -0.458 OA
BRANCH  24  25
ATOM     25  C   UNL     1       5.801   4.892  -1.590  1.00  0.00     0.338 C 
ATOM     26  O   UNL     1       6.659   4.958  -0.725  1.00  0.00    -0.246 OA
BRANCH  25  27
ATOM     27  C   UNL     1       6.099   4.375  -2.950  1.00  0.00     0.060 A 
ATOM     28  C   UNL     1       5.158   3.679  -3.712  1.00  0.00     0.016 A 
ATOM     29  C   UNL     1       7.408   4.494  -3.423  1.00  0.00     0.016 A 
ATOM     30  C   UNL     1       5.551   3.009  -4.877  1.00  0.00     0.010 A 
ATOM     31  C   UNL     1       7.772   3.915  -4.642  1.00  0.00     0.010 A 
ATOM     32  C   UNL     1       6.860   3.130  -5.367  1.00  0.00    -0.014 A 
BRANCH  32  33
ATOM     33  C   UNL     1       7.305   2.454  -6.621  1.00  0.00     0.031 A 
ATOM     34  C   UNL     1       8.498   1.531  -6.606  1.00  0.00     0.074 A 
ATOM     35  C   UNL     1       6.687   2.702  -7.794  1.00  0.00     0.049 A 
ATOM     36  N   UNL     1       9.203   1.067  -7.608  1.00  0.00    -0.248 NA
ATOM     37  C   UNL     1       8.972   1.086  -5.286  1.00  0.00     0.031 C 
ATOM     38  C   UNL     1       5.505   3.544  -7.973  1.00  0.00     0.029 A 
ATOM     39  N   UNL     1       6.987   2.279  -9.068  1.00  0.00    -0.354 N 
ATOM     40  C   UNL     1      10.240   0.337  -7.039  1.00  0.00     0.074 A 
ATOM     41  C   UNL     1      10.066   0.406  -5.604  1.00  0.00     0.031 C 
ATOM     42  C   UNL     1       5.167   3.561  -9.271  1.00  0.00     0.029 A 
ATOM     43  C   UNL     1       6.156   2.802 -10.028  1.00  0.00     0.049 A 
ATOM     44  H   UNL     1       7.725   1.660  -9.271  1.00  0.00     0.167 HD
ATOM     45  C   UNL     1      11.249  -0.322  -7.659  1.00  0.00     0.037 A 
ATOM     46  C   UNL     1       6.208   2.727 -11.372  1.00  0.00     0.037 A 
ATOM     47  C   UNL     1      11.388  -0.454  -9.086  1.00  0.00     0.049 A 
ATOM     48  C   UNL     1       7.335   1.989 -12.035  1.00  0.00     0.074 A 
ATOM     49  C   UNL     1      12.362  -1.132  -9.800  1.00  0.00     0.029 A 
ATOM     50  N   UNL     1      10.514   0.085 -10.017  1.00  0.00    -0.354 N 
ATOM     51  N   UNL     1       8.341   1.354 -11.489  1.00  0.00    -0.248 NA
ATOM     52  C   UNL     1       7.342   1.976 -13.505  1.00  0.00     0.031 C 
ATOM     53  C   UNL     1      12.089  -0.986 -11.165  1.00  0.00     0.029 A 
ATOM     54  C   UNL     1      10.928  -0.244 -11.298  1.00  0.00     0.049 A 
ATOM     55  H   UNL     1       9.718   0.621  -9.800  1.00  0.00     0.167 HD
ATOM     56  C   UNL     1       9.094   0.857 -12.543  1.00  0.00     0.074 A 
ATOM     57  C   UNL     1       8.421   1.250 -13.763  1.00  0.00     0.031 C 
ATOM     58  C   UNL     1      10.244   0.143 -12.502  1.00  0.00     0.037 A 
BRANCH  45  59
ATOM     59  C   UNL     1      12.311  -0.943  -6.801  1.00  0.00     0.064 A 
ATOM     60  C   UNL     1      12.097  -2.143  -6.111  1.00  0.00     0.173 A 
ATOM     61  C   UNL     1      13.588  -0.362  -6.734  1.00  0.00     0.173 A 
ATOM     62  F   UNL     1      10.892  -2.730  -6.136  1.00  0.00    -0.203 F 
ATOM     63  C   UNL     1      13.121  -2.736  -5.375  1.00  0.00     0.198 A 
ATOM     64  C   UNL     1      14.614  -0.968  -6.014  1.00  0.00     0.198 A 
ATOM     65  F   UNL     1      13.843   0.784  -7.383  1.00  0.00    -0.203 F 
ATOM     66  F   UNL     1      12.889  -3.871  -4.702  1.00  0.00    -0.200 F 
ATOM     67  C   UNL     1      14.380  -2.152  -5.334  1.00  0.00     0.200 A 
ATOM     68  F   UNL     1      15.832  -0.408  -5.986  1.00  0.00    -0.200 F 
ATOM     69  F   UNL     1      15.367  -2.732  -4.637  1.00  0.00    -0.200 F 
ENDBRANCH  45  59
BRANCH  46  70
ATOM     70  C   UNL     1       5.169   3.408 -12.186  1.00  0.00     0.064 A 
ATOM     71  C   UNL     1       4.202   2.667 -12.877  1.00  0.00     0.173 A 
ATOM     72  C   UNL     1       5.120   4.806 -12.284  1.00  0.00     0.173 A 
ATOM     73  F   UNL     1       4.228   1.327 -12.833  1.00  0.00    -0.203 F 
ATOM     74  C   UNL     1       3.226   3.300 -13.642  1.00  0.00     0.198 A 
ATOM     75  C   UNL     1       4.128   5.438 -13.028  1.00  0.00     0.198 A 
ATOM     76  F   UNL     1       6.026   5.557 -11.640  1.00  0.00    -0.203 F 
ATOM     77  F   UNL     1       2.332   2.569 -14.322  1.00  0.00    -0.200 F 
ATOM     78  C   UNL     1       3.185   4.685 -13.711  1.00  0.00     0.200 A 
ATOM     79  F   UNL     1       4.085   6.776 -13.083  1.00  0.00    -0.200 F 
ATOM     80  F   UNL     1       2.240   5.293 -14.441  1.00  0.00    -0.200 F 
ENDBRANCH  46  70
BRANCH  58  81
ATOM     81  C   UNL     1      10.824  -0.293 -13.812  1.00  0.00     0.064 A 
ATOM     82  C   UNL     1      11.512   0.604 -14.642  1.00  0.00     0.173 A 
ATOM     83  C   UNL     1      10.710  -1.626 -14.231  1.00  0.00     0.173 A 
ATOM     84  F   UNL     1      11.631   1.893 -14.290  1.00  0.00    -0.203 F 
ATOM     85  C   UNL     1      12.048   0.184 -15.857  1.00  0.00     0.198 A 
ATOM     86  C   UNL     1      11.264  -2.046 -15.437  1.00  0.00     0.198 A 
ATOM     87  F   UNL     1      10.062  -2.520 -13.469  1.00  0.00    -0.203 F 
ATOM     88  F   UNL     1      12.668   1.066 -16.654  1.00  0.00    -0.200 F 
ATOM     89  C   UNL     1      11.927  -1.140 -16.251  1.00  0.00     0.200 A 
ATOM     90  F   UNL     1      11.150  -3.327 -15.814  1.00  0.00    -0.200 F 
ATOM     91  F   UNL     1      12.442  -1.542 -17.421  1.00  0.00    -0.200 F 
ENDBRANCH  58  81
ENDBRANCH  32  33
ENDBRANCH  25  27
ENDBRANCH  24  25
ENDBRANCH  23  24
ENDBRANCH   1  23
TORSDOF 16
