REMARK SMILES C[C@@]([NH2+]CC(=O)NC1CCOCC1)(C(=O)OCCOC(=O)c1ccc(-c2c3nc(c(-c4c(F)c(F)c(F)c(F)c4F)c4ccc([nH]4)c(-c4c(F)c(F)c(F)c(F)c4F)c4nc(c(-c5c(F)c(F)c(F)c(F)c5F)c5ccc2[nH]5)C=C4)C=C3)cc1)C(F)(F)F
REMARK SMILES IDX 17 1 16 2 14 3 15 4 2 5 1 6 3 7 4 10 5 11 6 12 7 13 8 15
REMARK SMILES IDX 9 16 13 17 10 18 12 19 11 20 85 21 86 22 87 23 88 24 18 25
REMARK SMILES IDX 19 26 20 27 21 28 22 29 23 30 84 31 24 32 83 33 25 34 26 35
REMARK SMILES IDX 27 36 77 37 28 38 82 39 76 40 78 41 29 42 81 43 75 44 74 45
REMARK SMILES IDX 30 47 62 48 42 49 61 50 43 51 46 52 60 53 79 54 44 55 45 56
REMARK SMILES IDX 59 58 80 59 47 60 31 61 32 62 40 63 33 64 34 65 38 66 41 67
REMARK SMILES IDX 35 68 36 69 39 70 37 71 63 72 64 73 72 74 65 75 66 76 70 77
REMARK SMILES IDX 73 78 67 79 68 80 71 81 69 82 48 83 49 84 57 85 50 86 51 87
REMARK SMILES IDX 55 88 58 89 52 90 53 91 56 92 54 93
REMARK H PARENT 3 8 3 9 7 14 78 46 46 57
REMARK Flexibility Score: inf
ROOT
ATOM      1  C   UNL     1      -2.595   0.593   1.446  1.00  0.00     0.274 C 
ENDROOT
BRANCH   1   2
ATOM      2  O   UNL     1      -1.139   0.804   1.303  1.00  0.00    -0.457 OA
BRANCH   2   3
ATOM      3  C   UNL     1      -0.380  -0.049   2.067  1.00  0.00     0.377 C 
ATOM      4  O   UNL     1      -0.978  -0.925   2.691  1.00  0.00    -0.244 OA
BRANCH   3   5
ATOM      5  C   UNL     1       1.246   0.250   2.209  1.00  0.00     0.287 C 
ATOM      6  C   UNL     1       1.351   1.771   1.940  1.00  0.00     0.103 C 
BRANCH   5   7
ATOM      7  N   UNL     1       1.459  -0.194   3.628  1.00  0.00    -0.317 N 
ATOM      8  H   UNL     1       0.808   0.311   4.230  1.00  0.00     0.347 HD
ATOM      9  H   UNL     1       2.428   0.006   3.874  1.00  0.00     0.347 HD
BRANCH   7  10
ATOM     10  C   UNL     1       1.231  -1.700   3.811  1.00  0.00     0.363 C 
BRANCH  10  11
ATOM     11  C   UNL     1       0.728  -2.682   2.624  1.00  0.00     0.275 C 
ATOM     12  O   UNL     1       0.145  -3.733   2.915  1.00  0.00    -0.268 OA
ATOM     13  N   UNL     1       1.187  -2.527   1.316  1.00  0.00    -0.348 N 
ATOM     14  H   UNL     1       2.162  -2.430   1.230  1.00  0.00     0.163 HD
BRANCH  13  15
ATOM     15  C   UNL     1       0.428  -2.485   0.010  1.00  0.00     0.086 C 
ATOM     16  C   UNL     1       1.148  -3.252  -1.098  1.00  0.00     0.053 C 
ATOM     17  C   UNL     1      -0.021  -1.113  -0.518  1.00  0.00     0.053 C 
ATOM     18  C   UNL     1       0.485  -3.043  -2.456  1.00  0.00     0.162 C 
ATOM     19  C   UNL     1      -0.388  -0.949  -1.977  1.00  0.00     0.162 C 
ATOM     20  O   UNL     1       0.501  -1.666  -2.803  1.00  0.00    -0.381 OA
ENDBRANCH  13  15
ENDBRANCH  10  11
ENDBRANCH   7  10
ENDBRANCH   5   7
BRANCH   5  21
ATOM     21  C   UNL     1       2.579  -0.287   1.455  1.00  0.00     0.455 C 
ATOM     22  F   UNL     1       2.539  -0.449   0.125  1.00  0.00    -0.164 F 
ATOM     23  F   UNL     1       3.600   0.607   1.663  1.00  0.00    -0.164 F 
ATOM     24  F   UNL     1       3.107  -1.426   1.992  1.00  0.00    -0.164 F 
ENDBRANCH   5  21
ENDBRANCH   3   5
ENDBRANCH   2   3
ENDBRANCH   1   2
BRANCH   1  25
ATOM     25  C   UNL     1      -3.301  -0.371   0.433  1.00  0.00     0.275 C 
BRANCH  25  26
ATOM     26  O   UNL     1      -2.979  -1.787   0.551  1.00  0.00    -0.458 OA
BRANCH  26  27
ATOM     27  C   UNL     1      -3.535  -2.592  -0.424  1.00  0.00     0.338 C 
ATOM     28  O   UNL     1      -4.314  -2.211  -1.270  1.00  0.00    -0.246 OA
BRANCH  27  29
ATOM     29  C   UNL     1      -2.915  -3.969  -0.473  1.00  0.00     0.060 A 
ATOM     30  C   UNL     1      -2.114  -4.435   0.554  1.00  0.00     0.016 A 
ATOM     31  C   UNL     1      -2.978  -4.743  -1.646  1.00  0.00     0.016 A 
ATOM     32  C   UNL     1      -1.198  -5.474   0.303  1.00  0.00     0.010 A 
ATOM     33  C   UNL     1      -2.180  -5.907  -1.812  1.00  0.00     0.010 A 
ATOM     34  C   UNL     1      -1.226  -6.277  -0.854  1.00  0.00    -0.014 A 
BRANCH  34  35
ATOM     35  C   UNL     1      -0.310  -7.482  -1.000  1.00  0.00     0.031 A 
ATOM     36  C   UNL     1       0.414  -7.833  -2.297  1.00  0.00     0.074 A 
ATOM     37  C   UNL     1      -0.093  -8.300   0.058  1.00  0.00     0.049 A 
ATOM     38  N   UNL     1       0.999  -8.959  -2.652  1.00  0.00    -0.248 NA
ATOM     39  C   UNL     1       0.514  -6.787  -3.325  1.00  0.00     0.031 C 
ATOM     40  C   UNL     1      -0.631  -8.110   1.407  1.00  0.00     0.029 A 
ATOM     41  N   UNL     1       0.641  -9.465   0.177  1.00  0.00    -0.354 N 
ATOM     42  C   UNL     1       1.475  -8.774  -3.951  1.00  0.00     0.074 A 
ATOM     43  C   UNL     1       1.144  -7.412  -4.314  1.00  0.00     0.031 C 
ATOM     44  C   UNL     1      -0.153  -9.050   2.224  1.00  0.00     0.029 A 
ATOM     45  C   UNL     1       0.534 -10.044   1.421  1.00  0.00     0.049 A 
ATOM     46  H   UNL     1       1.184  -9.841  -0.553  1.00  0.00     0.167 HD
ATOM     47  C   UNL     1       2.105  -9.663  -4.766  1.00  0.00     0.037 A 
ATOM     48  C   UNL     1       0.815 -11.281   1.873  1.00  0.00     0.037 A 
ATOM     49  C   UNL     1       2.473 -11.009  -4.381  1.00  0.00     0.049 A 
ATOM     50  C   UNL     1       1.384 -12.290   0.929  1.00  0.00     0.074 A 
ATOM     51  C   UNL     1       3.109 -11.985  -5.135  1.00  0.00     0.029 A 
ATOM     52  N   UNL     1       2.244 -11.568  -3.133  1.00  0.00    -0.354 N 
ATOM     53  N   UNL     1       1.712 -12.146  -0.330  1.00  0.00    -0.248 NA
ATOM     54  C   UNL     1       1.594 -13.642   1.460  1.00  0.00     0.031 C 
ATOM     55  C   UNL     1       3.206 -13.149  -4.366  1.00  0.00     0.029 A 
ATOM     56  C   UNL     1       2.697 -12.881  -3.108  1.00  0.00     0.049 A 
ATOM     57  H   UNL     1       1.823 -11.102  -2.375  1.00  0.00     0.167 HD
ATOM     58  C   UNL     1       2.179 -13.383  -0.741  1.00  0.00     0.074 A 
ATOM     59  C   UNL     1       2.111 -14.261   0.410  1.00  0.00     0.031 C 
ATOM     60  C   UNL     1       2.622 -13.754  -1.966  1.00  0.00     0.037 A 
BRANCH  47  61
ATOM     61  C   UNL     1       2.401  -9.267  -6.196  1.00  0.00     0.064 A 
ATOM     62  C   UNL     1       3.425  -8.373  -6.538  1.00  0.00     0.173 A 
ATOM     63  C   UNL     1       1.719  -9.903  -7.251  1.00  0.00     0.173 A 
ATOM     64  F   UNL     1       4.116  -7.739  -5.580  1.00  0.00    -0.203 F 
ATOM     65  C   UNL     1       3.747  -8.122  -7.875  1.00  0.00     0.198 A 
ATOM     66  C   UNL     1       2.062  -9.673  -8.582  1.00  0.00     0.198 A 
ATOM     67  F   UNL     1       0.744 -10.786  -6.989  1.00  0.00    -0.203 F 
ATOM     68  F   UNL     1       4.717  -7.248  -8.178  1.00  0.00    -0.200 F 
ATOM     69  C   UNL     1       3.073  -8.779  -8.894  1.00  0.00     0.200 A 
ATOM     70  F   UNL     1       1.425 -10.330  -9.562  1.00  0.00    -0.200 F 
ATOM     71  F   UNL     1       3.400  -8.555 -10.175  1.00  0.00    -0.200 F 
ENDBRANCH  47  61
BRANCH  48  72
ATOM     72  C   UNL     1       0.414 -11.655   3.258  1.00  0.00     0.064 A 
ATOM     73  C   UNL     1       1.365 -11.946   4.243  1.00  0.00     0.173 A 
ATOM     74  C   UNL     1      -0.942 -11.675   3.635  1.00  0.00     0.173 A 
ATOM     75  F   UNL     1       2.667 -11.976   3.928  1.00  0.00    -0.203 F 
ATOM     76  C   UNL     1       0.977 -12.229   5.552  1.00  0.00     0.198 A 
ATOM     77  C   UNL     1      -1.323 -11.909   4.952  1.00  0.00     0.198 A 
ATOM     78  F   UNL     1      -1.896 -11.410   2.729  1.00  0.00    -0.203 F 
ATOM     79  F   UNL     1       1.903 -12.540   6.469  1.00  0.00    -0.200 F 
ATOM     80  C   UNL     1      -0.363 -12.191   5.909  1.00  0.00     0.200 A 
ATOM     81  F   UNL     1      -2.617 -11.841   5.295  1.00  0.00    -0.200 F 
ATOM     82  F   UNL     1      -0.730 -12.431   7.176  1.00  0.00    -0.200 F 
ENDBRANCH  48  72
BRANCH  60  83
ATOM     83  C   UNL     1       3.120 -15.163  -2.101  1.00  0.00     0.064 A 
ATOM     84  C   UNL     1       2.247 -16.261  -2.066  1.00  0.00     0.173 A 
ATOM     85  C   UNL     1       4.492 -15.417  -2.239  1.00  0.00     0.173 A 
ATOM     86  F   UNL     1       0.928 -16.071  -1.910  1.00  0.00    -0.203 F 
ATOM     87  C   UNL     1       2.736 -17.563  -2.121  1.00  0.00     0.198 A 
ATOM     88  C   UNL     1       4.974 -16.719  -2.329  1.00  0.00     0.198 A 
ATOM     89  F   UNL     1       5.368 -14.402  -2.278  1.00  0.00    -0.203 F 
ATOM     90  F   UNL     1       1.892 -18.599  -2.013  1.00  0.00    -0.200 F 
ATOM     91  C   UNL     1       4.098 -17.791  -2.257  1.00  0.00     0.200 A 
ATOM     92  F   UNL     1       6.289 -16.937  -2.468  1.00  0.00    -0.200 F 
ATOM     93  F   UNL     1       4.567 -19.046  -2.302  1.00  0.00    -0.200 F 
ENDBRANCH  60  83
ENDBRANCH  34  35
ENDBRANCH  27  29
ENDBRANCH  26  27
ENDBRANCH  25  26
ENDBRANCH   1  25
TORSDOF 16
