REMARK SMILES O=C(OCCOC(=O)[C@@]1(CCc2ccccc2)CCC[N@@H+](Cc2cccnc2)C1)c1ccc(-c2c3nc(c(-c4c(F)c(F)c(F)c(F)c4F)c4ccc([nH]4)c(-c4c(F)c(F)c(F)c(F)c4F)c4nc(c(-c5c(F)c(F)c(F)c(F)c5F)c5ccc2[nH]5)C=C4)C=C3)cc1
REMARK SMILES IDX 5 1 4 2 3 3 2 4 1 5 30 6 31 7 92 8 32 9 91 10 33 11 34 12
REMARK SMILES IDX 35 13 85 14 36 15 90 16 84 17 86 18 37 19 89 20 83 21 82 22
REMARK SMILES IDX 38 24 70 25 50 26 69 27 51 28 54 29 68 30 87 31 52 32 53 33
REMARK SMILES IDX 67 35 88 36 55 37 39 38 40 39 48 40 41 41 42 42 46 43 49 44
REMARK SMILES IDX 43 45 44 46 47 47 45 48 71 49 72 50 80 51 73 52 74 53 78 54
REMARK SMILES IDX 81 55 75 56 76 57 79 58 77 59 56 60 57 61 65 62 58 63 59 64
REMARK SMILES IDX 63 65 66 66 60 67 61 68 64 69 62 70 6 71 7 72 8 73 9 74
REMARK SMILES IDX 18 75 29 76 19 77 21 78 20 79 10 81 11 82 12 83 13 84 17 85
REMARK SMILES IDX 14 86 16 87 15 88 22 89 23 90 24 91 28 92 25 93 27 94 26 95
REMARK H PARENT 86 23 54 34 21 80
REMARK Flexibility Score: inf
ROOT
ATOM      1  C   UNL     1      -0.469   2.739   3.771  1.00  0.00     0.274 C 
ENDROOT
BRANCH   1   2
ATOM      2  C   UNL     1      -1.072   3.862   2.922  1.00  0.00     0.275 C 
BRANCH   2   3
ATOM      3  O   UNL     1      -1.308   3.587   1.527  1.00  0.00    -0.458 OA
BRANCH   3   4
ATOM      4  C   UNL     1      -0.418   3.100   0.632  1.00  0.00     0.338 C 
ATOM      5  O   UNL     1      -0.770   2.261  -0.184  1.00  0.00    -0.246 OA
BRANCH   4   6
ATOM      6  C   UNL     1       0.984   3.614   0.606  1.00  0.00     0.060 A 
ATOM      7  C   UNL     1       1.423   4.751   1.285  1.00  0.00     0.016 A 
ATOM      8  C   UNL     1       1.922   2.866  -0.120  1.00  0.00     0.016 A 
ATOM      9  C   UNL     1       2.785   5.047   1.374  1.00  0.00     0.010 A 
ATOM     10  C   UNL     1       3.289   3.131   0.004  1.00  0.00     0.010 A 
ATOM     11  C   UNL     1       3.733   4.225   0.756  1.00  0.00    -0.014 A 
BRANCH  11  12
ATOM     12  C   UNL     1       5.156   4.641   0.738  1.00  0.00     0.031 A 
ATOM     13  C   UNL     1       5.715   5.141  -0.562  1.00  0.00     0.074 A 
ATOM     14  C   UNL     1       5.905   4.660   1.859  1.00  0.00     0.049 A 
ATOM     15  N   UNL     1       6.860   5.726  -0.800  1.00  0.00    -0.248 NA
ATOM     16  C   UNL     1       4.869   4.972  -1.755  1.00  0.00     0.031 C 
ATOM     17  C   UNL     1       5.470   4.202   3.178  1.00  0.00     0.029 A 
ATOM     18  N   UNL     1       7.188   5.101   2.075  1.00  0.00    -0.354 N 
ATOM     19  C   UNL     1       6.835   6.036  -2.151  1.00  0.00     0.074 A 
ATOM     20  C   UNL     1       5.638   5.458  -2.710  1.00  0.00     0.031 C 
ATOM     21  C   UNL     1       6.468   4.378   4.064  1.00  0.00     0.029 A 
ATOM     22  C   UNL     1       7.603   4.992   3.382  1.00  0.00     0.049 A 
ATOM     23  H   UNL     1       7.759   5.462   1.358  1.00  0.00     0.167 HD
ATOM     24  C   UNL     1       7.687   6.813  -2.854  1.00  0.00     0.037 A 
ATOM     25  C   UNL     1       8.756   5.382   3.961  1.00  0.00     0.037 A 
ATOM     26  C   UNL     1       8.879   7.381  -2.303  1.00  0.00     0.049 A 
ATOM     27  C   UNL     1       9.756   6.147   3.127  1.00  0.00     0.074 A 
ATOM     28  C   UNL     1       9.834   8.162  -2.924  1.00  0.00     0.029 A 
ATOM     29  N   UNL     1       9.281   7.212  -0.986  1.00  0.00    -0.354 N 
ATOM     30  N   UNL     1       9.672   6.523   1.873  1.00  0.00    -0.248 NA
ATOM     31  C   UNL     1      10.990   6.580   3.798  1.00  0.00     0.031 C 
ATOM     32  C   UNL     1      10.836   8.437  -1.988  1.00  0.00     0.029 A 
ATOM     33  C   UNL     1      10.483   7.862  -0.775  1.00  0.00     0.049 A 
ATOM     34  H   UNL     1       8.785   6.705  -0.303  1.00  0.00     0.167 HD
ATOM     35  C   UNL     1      10.809   7.280   1.622  1.00  0.00     0.074 A 
ATOM     36  C   UNL     1      11.568   7.311   2.855  1.00  0.00     0.031 C 
ATOM     37  C   UNL     1      11.192   7.900   0.478  1.00  0.00     0.037 A 
BRANCH  24  38
ATOM     38  C   UNL     1       7.308   7.084  -4.277  1.00  0.00     0.064 A 
ATOM     39  C   UNL     1       6.202   7.894  -4.587  1.00  0.00     0.173 A 
ATOM     40  C   UNL     1       7.983   6.458  -5.332  1.00  0.00     0.173 A 
ATOM     41  F   UNL     1       5.501   8.484  -3.605  1.00  0.00    -0.203 F 
ATOM     42  C   UNL     1       5.755   8.024  -5.897  1.00  0.00     0.198 A 
ATOM     43  C   UNL     1       7.551   6.615  -6.646  1.00  0.00     0.198 A 
ATOM     44  F   UNL     1       9.037   5.666  -5.085  1.00  0.00    -0.203 F 
ATOM     45  F   UNL     1       4.646   8.730  -6.159  1.00  0.00    -0.200 F 
ATOM     46  C   UNL     1       6.430   7.385  -6.926  1.00  0.00     0.200 A 
ATOM     47  F   UNL     1       8.200   5.996  -7.641  1.00  0.00    -0.200 F 
ATOM     48  F   UNL     1       5.985   7.490  -8.185  1.00  0.00    -0.200 F 
ENDBRANCH  24  38
BRANCH  25  49
ATOM     49  C   UNL     1       9.019   5.126   5.406  1.00  0.00     0.064 A 
ATOM     50  C   UNL     1       9.095   6.178   6.332  1.00  0.00     0.173 A 
ATOM     51  C   UNL     1       9.272   3.830   5.879  1.00  0.00     0.173 A 
ATOM     52  F   UNL     1       8.881   7.439   5.929  1.00  0.00    -0.203 F 
ATOM     53  C   UNL     1       9.453   5.949   7.661  1.00  0.00     0.198 A 
ATOM     54  C   UNL     1       9.607   3.599   7.214  1.00  0.00     0.198 A 
ATOM     55  F   UNL     1       9.213   2.785   5.040  1.00  0.00    -0.203 F 
ATOM     56  F   UNL     1       9.581   6.982   8.505  1.00  0.00    -0.200 F 
ATOM     57  C   UNL     1       9.710   4.660   8.101  1.00  0.00     0.200 A 
ATOM     58  F   UNL     1       9.849   2.350   7.636  1.00  0.00    -0.200 F 
ATOM     59  F   UNL     1      10.072   4.443   9.372  1.00  0.00    -0.200 F 
ENDBRANCH  25  49
BRANCH  37  60
ATOM     60  C   UNL     1      12.455   8.706   0.517  1.00  0.00     0.064 A 
ATOM     61  C   UNL     1      13.715   8.096   0.570  1.00  0.00     0.173 A 
ATOM     62  C   UNL     1      12.400  10.105   0.417  1.00  0.00     0.173 A 
ATOM     63  F   UNL     1      13.816   6.762   0.680  1.00  0.00    -0.203 F 
ATOM     64  C   UNL     1      14.878   8.859   0.537  1.00  0.00     0.198 A 
ATOM     65  C   UNL     1      13.565  10.862   0.351  1.00  0.00     0.198 A 
ATOM     66  F   UNL     1      11.216  10.733   0.355  1.00  0.00    -0.203 F 
ATOM     67  F   UNL     1      16.073   8.259   0.625  1.00  0.00    -0.200 F 
ATOM     68  C   UNL     1      14.802  10.239   0.415  1.00  0.00     0.200 A 
ATOM     69  F   UNL     1      13.490  12.193   0.216  1.00  0.00    -0.200 F 
ATOM     70  F   UNL     1      15.924  10.970   0.362  1.00  0.00    -0.200 F 
ENDBRANCH  37  60
ENDBRANCH  11  12
ENDBRANCH   4   6
ENDBRANCH   3   4
ENDBRANCH   2   3
ENDBRANCH   1   2
BRANCH   1  71
ATOM     71  O   UNL     1       0.775   2.207   3.284  1.00  0.00    -0.461 OA
BRANCH  71  72
ATOM     72  C   UNL     1       1.401   1.372   4.170  1.00  0.00     0.317 C 
ATOM     73  O   UNL     1       1.064   1.300   5.349  1.00  0.00    -0.251 OA
BRANCH  72  74
ATOM     74  C   UNL     1       2.520   0.475   3.567  1.00  0.00     0.117 C 
ATOM     75  C   UNL     1       3.826   0.768   4.352  1.00  0.00     0.030 C 
ATOM     76  C   UNL     1       2.115  -0.957   3.924  1.00  0.00     0.281 C 
ATOM     77  C   UNL     1       4.900  -0.297   4.108  1.00  0.00     0.063 C 
ATOM     78  N   UNL     1       3.144  -1.933   3.553  1.00  0.00    -0.330 N 
ATOM     79  C   UNL     1       4.371  -1.724   4.319  1.00  0.00     0.262 C 
ATOM     80  H   UNL     1       3.404  -1.769   2.581  1.00  0.00     0.348 HD
BRANCH  74  81
ATOM     81  C   UNL     1       2.745   0.694   2.044  1.00  0.00     0.029 C 
BRANCH  81  82
ATOM     82  C   UNL     1       2.785  -0.438   0.994  1.00  0.00     0.037 C 
BRANCH  82  83
ATOM     83  C   UNL     1       1.496  -1.108   0.559  1.00  0.00    -0.048 A 
ATOM     84  C   UNL     1       0.237  -0.811   1.092  1.00  0.00     0.004 A 
ATOM     85  C   UNL     1       1.566  -2.080  -0.454  1.00  0.00     0.004 A 
ATOM     86  C   UNL     1      -0.900  -1.522   0.698  1.00  0.00     0.000 A 
ATOM     87  C   UNL     1       0.424  -2.766  -0.876  1.00  0.00     0.000 A 
ATOM     88  C   UNL     1      -0.806  -2.503  -0.283  1.00  0.00     0.000 A 
ENDBRANCH  82  83
ENDBRANCH  81  82
ENDBRANCH  74  81
BRANCH  78  89
ATOM     89  C   UNL     1       2.638  -3.316   3.538  1.00  0.00     0.300 C 
BRANCH  89  90
ATOM     90  C   UNL     1       1.898  -3.729   4.782  1.00  0.00     0.025 A 
ATOM     91  C   UNL     1       0.546  -3.409   4.964  1.00  0.00     0.013 A 
ATOM     92  C   UNL     1       2.563  -4.322   5.845  1.00  0.00     0.120 A 
ATOM     93  C   UNL     1      -0.045  -3.588   6.207  1.00  0.00     0.021 A 
ATOM     94  N   UNL     1       2.004  -4.545   7.055  1.00  0.00    -0.264 NA
ATOM     95  C   UNL     1       0.722  -4.147   7.213  1.00  0.00     0.111 A 
ENDBRANCH  89  90
ENDBRANCH  78  89
ENDBRANCH  72  74
ENDBRANCH  71  72
ENDBRANCH   1  71
TORSDOF 16
