REMARK SMILES C[C@@H](O)C[C@H](C(=O)OCCOC(=O)c1ccc(-c2c3nc(c(-c4c(F)c(F)c(F)c(F)c4F)c4ccc([nH]4)c(-c4c(F)c(F)c(F)c(F)c4F)c4nc(c(-c5c(F)c(F)c(F)c(F)c5F)c5ccc2[nH]5)C=C4)C=C3)cc1)c1ccc(Br)cc1
REMARK SMILES IDX 9 1 8 2 6 3 7 4 5 5 4 6 2 7 1 8 3 9 77 11 78 12 83 13 79 14
REMARK SMILES IDX 82 15 80 16 81 17 10 18 11 19 12 20 13 21 14 22 15 23 76 24
REMARK SMILES IDX 16 25 75 26 17 27 18 28 19 29 69 30 20 31 74 32 68 33 70 34
REMARK SMILES IDX 21 35 73 36 67 37 66 38 22 40 54 41 34 42 53 43 35 44 38 45
REMARK SMILES IDX 52 46 71 47 36 48 37 49 51 51 72 52 39 53 23 54 24 55 32 56
REMARK SMILES IDX 25 57 26 58 30 59 33 60 27 61 28 62 31 63 29 64 55 65 56 66
REMARK SMILES IDX 64 67 57 68 58 69 62 70 65 71 59 72 60 73 63 74 61 75 40 76
REMARK SMILES IDX 41 77 49 78 42 79 43 80 47 81 50 82 44 83 45 84 48 85 46 86
REMARK H PARENT 3 10 70 39 38 50
REMARK Flexibility Score: inf
ROOT
ATOM      1  C   UNL     1       0.331   2.506   2.149  1.00  0.00     0.274 C 
ENDROOT
BRANCH   1   2
ATOM      2  O   UNL     1      -0.467   1.374   2.545  1.00  0.00    -0.462 OA
BRANCH   2   3
ATOM      3  C   UNL     1      -1.421   0.979   1.663  1.00  0.00     0.313 C 
ATOM      4  O   UNL     1      -1.734   1.615   0.660  1.00  0.00    -0.252 OA
BRANCH   3   5
ATOM      5  C   UNL     1      -2.005  -0.406   1.981  1.00  0.00     0.132 C 
BRANCH   5   6
ATOM      6  C   UNL     1      -1.466  -1.055   3.271  1.00  0.00     0.051 C 
BRANCH   6   7
ATOM      7  C   UNL     1      -1.455  -2.593   3.278  1.00  0.00     0.112 C 
ATOM      8  C   UNL     1      -0.563  -3.207   2.200  1.00  0.00     0.038 C 
BRANCH   7   9
ATOM      9  O   UNL     1      -0.955  -3.003   4.552  1.00  0.00    -0.393 OA
ATOM     10  H   UNL     1      -0.052  -2.670   4.668  1.00  0.00     0.210 HD
ENDBRANCH   7   9
ENDBRANCH   6   7
ENDBRANCH   5   6
BRANCH   5  11
ATOM     11  C   UNL     1      -3.528  -0.434   1.883  1.00  0.00    -0.034 A 
ATOM     12  C   UNL     1      -4.312   0.680   2.224  1.00  0.00     0.006 A 
ATOM     13  C   UNL     1      -4.178  -1.588   1.412  1.00  0.00     0.006 A 
ATOM     14  C   UNL     1      -5.701   0.651   2.072  1.00  0.00     0.016 A 
ATOM     15  C   UNL     1      -5.569  -1.627   1.285  1.00  0.00     0.016 A 
ATOM     16  C   UNL     1      -6.323  -0.503   1.607  1.00  0.00     0.017 A 
ATOM     17  Br  UNL     1      -8.201  -0.542   1.402  1.00  0.00    -0.051 Br
ENDBRANCH   5  11
ENDBRANCH   3   5
ENDBRANCH   2   3
ENDBRANCH   1   2
BRANCH   1  18
ATOM     18  C   UNL     1       1.649   2.020   1.550  1.00  0.00     0.275 C 
BRANCH  18  19
ATOM     19  O   UNL     1       1.386   1.155   0.427  1.00  0.00    -0.458 OA
BRANCH  19  20
ATOM     20  C   UNL     1       1.837  -0.115   0.543  1.00  0.00     0.338 C 
ATOM     21  O   UNL     1       2.487  -0.590   1.459  1.00  0.00    -0.246 OA
BRANCH  20  22
ATOM     22  C   UNL     1       1.439  -0.911  -0.634  1.00  0.00     0.060 A 
ATOM     23  C   UNL     1       0.127  -0.897  -1.113  1.00  0.00     0.016 A 
ATOM     24  C   UNL     1       2.381  -1.768  -1.205  1.00  0.00     0.016 A 
ATOM     25  C   UNL     1      -0.262  -1.793  -2.110  1.00  0.00     0.010 A 
ATOM     26  C   UNL     1       2.012  -2.595  -2.269  1.00  0.00     0.010 A 
ATOM     27  C   UNL     1       0.680  -2.636  -2.716  1.00  0.00    -0.014 A 
BRANCH  27  28
ATOM     28  C   UNL     1       0.300  -3.557  -3.822  1.00  0.00     0.031 A 
ATOM     29  C   UNL     1       0.508  -5.040  -3.681  1.00  0.00     0.074 A 
ATOM     30  C   UNL     1      -0.187  -3.061  -4.976  1.00  0.00     0.049 A 
ATOM     31  N   UNL     1       0.460  -5.976  -4.596  1.00  0.00    -0.248 NA
ATOM     32  C   UNL     1       0.829  -5.536  -2.333  1.00  0.00     0.031 C 
ATOM     33  C   UNL     1      -0.466  -1.650  -5.244  1.00  0.00     0.029 A 
ATOM     34  N   UNL     1      -0.521  -3.693  -6.149  1.00  0.00    -0.354 N 
ATOM     35  C   UNL     1       0.799  -7.157  -3.950  1.00  0.00     0.074 A 
ATOM     36  C   UNL     1       1.044  -6.825  -2.562  1.00  0.00     0.031 C 
ATOM     37  C   UNL     1      -0.945  -1.524  -6.490  1.00  0.00     0.029 A 
ATOM     38  C   UNL     1      -0.932  -2.832  -7.136  1.00  0.00     0.049 A 
ATOM     39  H   UNL     1      -0.471  -4.669  -6.270  1.00  0.00     0.167 HD
ATOM     40  C   UNL     1       0.902  -8.404  -4.471  1.00  0.00     0.037 A 
ATOM     41  C   UNL     1      -1.222  -3.057  -8.431  1.00  0.00     0.037 A 
ATOM     42  C   UNL     1       0.607  -8.743  -5.839  1.00  0.00     0.049 A 
ATOM     43  C   UNL     1      -1.089  -4.444  -8.988  1.00  0.00     0.074 A 
ATOM     44  C   UNL     1       0.653  -9.984  -6.451  1.00  0.00     0.029 A 
ATOM     45  N   UNL     1       0.198  -7.836  -6.805  1.00  0.00    -0.354 N 
ATOM     46  N   UNL     1      -0.722  -5.545  -8.381  1.00  0.00    -0.248 NA
ATOM     47  C   UNL     1      -1.390  -4.615 -10.417  1.00  0.00     0.031 C 
ATOM     48  C   UNL     1       0.295  -9.824  -7.795  1.00  0.00     0.029 A 
ATOM     49  C   UNL     1      -0.004  -8.489  -8.011  1.00  0.00     0.049 A 
ATOM     50  H   UNL     1       0.070  -6.872  -6.657  1.00  0.00     0.167 HD
ATOM     51  C   UNL     1      -0.753  -6.540  -9.347  1.00  0.00     0.074 A 
ATOM     52  C   UNL     1      -1.192  -5.916 -10.579  1.00  0.00     0.031 C 
ATOM     53  C   UNL     1      -0.439  -7.852  -9.226  1.00  0.00     0.037 A 
BRANCH  40  54
ATOM     54  C   UNL     1       1.378  -9.499  -3.565  1.00  0.00     0.064 A 
ATOM     55  C   UNL     1       0.548 -10.065  -2.588  1.00  0.00     0.173 A 
ATOM     56  C   UNL     1       2.672 -10.024  -3.714  1.00  0.00     0.173 A 
ATOM     57  F   UNL     1      -0.691  -9.588  -2.397  1.00  0.00    -0.203 F 
ATOM     58  C   UNL     1       1.001 -11.106  -1.780  1.00  0.00     0.198 A 
ATOM     59  C   UNL     1       3.114 -11.078  -2.920  1.00  0.00     0.198 A 
ATOM     60  F   UNL     1       3.503  -9.519  -4.638  1.00  0.00    -0.203 F 
ATOM     61  F   UNL     1       0.203 -11.610  -0.829  1.00  0.00    -0.200 F 
ATOM     62  C   UNL     1       2.280 -11.616  -1.952  1.00  0.00     0.200 A 
ATOM     63  F   UNL     1       4.347 -11.575  -3.093  1.00  0.00    -0.200 F 
ATOM     64  F   UNL     1       2.711 -12.622  -1.179  1.00  0.00    -0.200 F 
ENDBRANCH  40  54
BRANCH  41  65
ATOM     65  C   UNL     1      -1.633  -1.923  -9.297  1.00  0.00     0.064 A 
ATOM     66  C   UNL     1      -2.959  -1.796  -9.730  1.00  0.00     0.173 A 
ATOM     67  C   UNL     1      -0.717  -0.935  -9.686  1.00  0.00     0.173 A 
ATOM     68  F   UNL     1      -3.862  -2.731  -9.402  1.00  0.00    -0.203 F 
ATOM     69  C   UNL     1      -3.354  -0.722 -10.524  1.00  0.00     0.198 A 
ATOM     70  C   UNL     1      -1.119   0.151 -10.459  1.00  0.00     0.198 A 
ATOM     71  F   UNL     1       0.563  -1.015  -9.296  1.00  0.00    -0.203 F 
ATOM     72  F   UNL     1      -4.622  -0.637 -10.950  1.00  0.00    -0.200 F 
ATOM     73  C   UNL     1      -2.436   0.255 -10.881  1.00  0.00     0.200 A 
ATOM     74  F   UNL     1      -0.232   1.099 -10.792  1.00  0.00    -0.200 F 
ATOM     75  F   UNL     1      -2.819   1.294 -11.635  1.00  0.00    -0.200 F 
ENDBRANCH  41  65
BRANCH  53  76
ATOM     76  C   UNL     1      -0.580  -8.701 -10.452  1.00  0.00     0.064 A 
ATOM     77  C   UNL     1       0.370  -8.657 -11.482  1.00  0.00     0.173 A 
ATOM     78  C   UNL     1      -1.662  -9.583 -10.586  1.00  0.00     0.173 A 
ATOM     79  F   UNL     1       1.412  -7.815 -11.404  1.00  0.00    -0.203 F 
ATOM     80  C   UNL     1       0.231  -9.455 -12.614  1.00  0.00     0.198 A 
ATOM     81  C   UNL     1      -1.787 -10.393 -11.710  1.00  0.00     0.198 A 
ATOM     82  F   UNL     1      -2.594  -9.660  -9.624  1.00  0.00    -0.203 F 
ATOM     83  F   UNL     1       1.130  -9.371 -13.605  1.00  0.00    -0.200 F 
ATOM     84  C   UNL     1      -0.844 -10.325 -12.725  1.00  0.00     0.200 A 
ATOM     85  F   UNL     1      -2.823 -11.237 -11.815  1.00  0.00    -0.200 F 
ATOM     86  F   UNL     1      -0.976 -11.092 -13.816  1.00  0.00    -0.200 F 
ENDBRANCH  53  76
ENDBRANCH  27  28
ENDBRANCH  20  22
ENDBRANCH  19  20
ENDBRANCH  18  19
ENDBRANCH   1  18
TORSDOF 15
