REMARK SMILES O=C(OCCOC(=O)c1ccc(C[NH2+]C[C@H]2C[C@H](O)C2)nc1)c1ccc(-c2c3nc(c(-c4c(F)c(F)c(F)c(F)c4F)c4ccc([nH]4)c(-c4c(F)c(F)c(F)c(F)c4F)c4nc(c(-c5c(F)c(F)c(F)c(F)c5F)c5ccc2[nH]5)C=C4)C=C3)cc1
REMARK SMILES IDX 6 1 5 2 4 3 3 4 2 5 1 6 23 7 24 8 85 9 25 10 84 11 26 12
REMARK SMILES IDX 27 13 28 14 78 15 29 16 83 17 77 18 79 19 30 20 82 21 76 22
REMARK SMILES IDX 75 23 31 25 63 26 43 27 62 28 44 29 47 30 61 31 80 32 45 33
REMARK SMILES IDX 46 34 60 36 81 37 48 38 32 39 33 40 41 41 34 42 35 43 39 44
REMARK SMILES IDX 42 45 36 46 37 47 40 48 38 49 64 50 65 51 73 52 66 53 67 54
REMARK SMILES IDX 71 55 74 56 68 57 69 58 72 59 70 60 49 61 50 62 58 63 51 64
REMARK SMILES IDX 52 65 56 66 59 67 53 68 54 69 57 70 55 71 7 72 8 73 9 74
REMARK SMILES IDX 10 75 22 76 11 77 21 78 12 79 13 80 14 81 15 84 16 85 20 86
REMARK SMILES IDX 17 87 18 88 19 89
REMARK H PARENT 79 24 47 35 14 82 14 83 19 90
REMARK Flexibility Score: inf
ROOT
ATOM      1  O   UNL     1       3.332  -0.294  -2.228  1.00  0.00    -0.458 OA
ENDROOT
BRANCH   1   2
ATOM      2  C   UNL     1       3.824  -1.542  -1.718  1.00  0.00     0.275 C 
BRANCH   2   3
ATOM      3  C   UNL     1       4.079  -1.512  -0.210  1.00  0.00     0.275 C 
BRANCH   3   4
ATOM      4  O   UNL     1       3.027  -0.895   0.551  1.00  0.00    -0.458 OA
BRANCH   4   5
ATOM      5  C   UNL     1       2.966   0.367   1.036  1.00  0.00     0.338 C 
ATOM      6  O   UNL     1       2.223   0.615   1.984  1.00  0.00    -0.246 OA
BRANCH   5   7
ATOM      7  C   UNL     1       3.615   1.524   0.352  1.00  0.00     0.060 A 
ATOM      8  C   UNL     1       4.914   1.546  -0.161  1.00  0.00     0.016 A 
ATOM      9  C   UNL     1       2.860   2.709   0.293  1.00  0.00     0.016 A 
ATOM     10  C   UNL     1       5.429   2.699  -0.767  1.00  0.00     0.010 A 
ATOM     11  C   UNL     1       3.367   3.863  -0.311  1.00  0.00     0.010 A 
ATOM     12  C   UNL     1       4.663   3.865  -0.837  1.00  0.00    -0.014 A 
BRANCH  12  13
ATOM     13  C   UNL     1       5.274   5.130  -1.301  1.00  0.00     0.031 A 
ATOM     14  C   UNL     1       5.756   6.109  -0.273  1.00  0.00     0.074 A 
ATOM     15  C   UNL     1       5.408   5.397  -2.611  1.00  0.00     0.049 A 
ATOM     16  N   UNL     1       6.345   7.263  -0.443  1.00  0.00    -0.248 NA
ATOM     17  C   UNL     1       5.571   5.724   1.135  1.00  0.00     0.031 C 
ATOM     18  C   UNL     1       5.040   4.493  -3.696  1.00  0.00     0.029 A 
ATOM     19  N   UNL     1       5.871   6.516  -3.253  1.00  0.00    -0.354 N 
ATOM     20  C   UNL     1       6.641   7.719   0.833  1.00  0.00     0.074 A 
ATOM     21  C   UNL     1       6.102   6.757   1.769  1.00  0.00     0.031 C 
ATOM     22  C   UNL     1       5.215   5.120  -4.871  1.00  0.00     0.029 A 
ATOM     23  C   UNL     1       5.731   6.463  -4.618  1.00  0.00     0.049 A 
ATOM     24  H   UNL     1       6.265   7.285  -2.781  1.00  0.00     0.167 HD
ATOM     25  C   UNL     1       7.336   8.823   1.190  1.00  0.00     0.037 A 
ATOM     26  C   UNL     1       5.988   7.397  -5.553  1.00  0.00     0.037 A 
ATOM     27  C   UNL     1       7.833   9.796   0.257  1.00  0.00     0.049 A 
ATOM     28  C   UNL     1       6.637   8.686  -5.128  1.00  0.00     0.074 A 
ATOM     29  C   UNL     1       8.544  10.954   0.506  1.00  0.00     0.029 A 
ATOM     30  N   UNL     1       7.643   9.727  -1.117  1.00  0.00    -0.354 N 
ATOM     31  N   UNL     1       6.978   9.077  -3.924  1.00  0.00    -0.248 NA
ATOM     32  C   UNL     1       6.973   9.644  -6.189  1.00  0.00     0.031 C 
ATOM     33  C   UNL     1       8.748  11.608  -0.714  1.00  0.00     0.029 A 
ATOM     34  C   UNL     1       8.201  10.836  -1.728  1.00  0.00     0.049 A 
ATOM     35  H   UNL     1       7.181   8.996  -1.587  1.00  0.00     0.167 HD
ATOM     36  C   UNL     1       7.617  10.299  -4.085  1.00  0.00     0.074 A 
ATOM     37  C   UNL     1       7.600  10.592  -5.505  1.00  0.00     0.031 C 
ATOM     38  C   UNL     1       8.184  11.095  -3.146  1.00  0.00     0.037 A 
BRANCH  25  39
ATOM     39  C   UNL     1       7.578   9.018   2.656  1.00  0.00     0.064 A 
ATOM     40  C   UNL     1       8.473   8.196   3.360  1.00  0.00     0.173 A 
ATOM     41  C   UNL     1       6.881   9.999   3.374  1.00  0.00     0.173 A 
ATOM     42  F   UNL     1       9.147   7.228   2.720  1.00  0.00    -0.203 F 
ATOM     43  C   UNL     1       8.632   8.325   4.737  1.00  0.00     0.198 A 
ATOM     44  C   UNL     1       7.061  10.141   4.748  1.00  0.00     0.198 A 
ATOM     45  F   UNL     1       6.013  10.806   2.748  1.00  0.00    -0.203 F 
ATOM     46  F   UNL     1       9.444   7.488   5.398  1.00  0.00    -0.200 F 
ATOM     47  C   UNL     1       7.926   9.297   5.429  1.00  0.00     0.200 A 
ATOM     48  F   UNL     1       6.381  11.082   5.417  1.00  0.00    -0.200 F 
ATOM     49  F   UNL     1       8.069   9.411   6.757  1.00  0.00    -0.200 F 
ENDBRANCH  25  39
BRANCH  26  50
ATOM     50  C   UNL     1       5.657   7.130  -6.976  1.00  0.00     0.064 A 
ATOM     51  C   UNL     1       6.661   6.887  -7.923  1.00  0.00     0.173 A 
ATOM     52  C   UNL     1       4.324   7.101  -7.413  1.00  0.00     0.173 A 
ATOM     53  F   UNL     1       7.949   6.917  -7.554  1.00  0.00    -0.203 F 
ATOM     54  C   UNL     1       6.346   6.641  -9.259  1.00  0.00     0.198 A 
ATOM     55  C   UNL     1       4.010   6.832  -8.744  1.00  0.00     0.198 A 
ATOM     56  F   UNL     1       3.324   7.321  -6.544  1.00  0.00    -0.203 F 
ATOM     57  F   UNL     1       7.326   6.441 -10.150  1.00  0.00    -0.200 F 
ATOM     58  C   UNL     1       5.020   6.608  -9.667  1.00  0.00     0.200 A 
ATOM     59  F   UNL     1       2.728   6.780  -9.128  1.00  0.00    -0.200 F 
ATOM     60  F   UNL     1       4.718   6.361 -10.949  1.00  0.00    -0.200 F 
ENDBRANCH  26  50
BRANCH  38  61
ATOM     61  C   UNL     1       8.880  12.333  -3.626  1.00  0.00     0.064 A 
ATOM     62  C   UNL     1       8.166  13.459  -4.056  1.00  0.00     0.173 A 
ATOM     63  C   UNL     1      10.281  12.409  -3.596  1.00  0.00     0.173 A 
ATOM     64  F   UNL     1       6.827  13.426  -4.118  1.00  0.00    -0.203 F 
ATOM     65  C   UNL     1       8.832  14.615  -4.454  1.00  0.00     0.198 A 
ATOM     66  C   UNL     1      10.942  13.574  -3.970  1.00  0.00     0.198 A 
ATOM     67  F   UNL     1      11.006  11.356  -3.188  1.00  0.00    -0.203 F 
ATOM     68  F   UNL     1       8.133  15.670  -4.896  1.00  0.00    -0.200 F 
ATOM     69  C   UNL     1      10.217  14.675  -4.402  1.00  0.00     0.200 A 
ATOM     70  F   UNL     1      12.279  13.633  -3.909  1.00  0.00    -0.200 F 
ATOM     71  F   UNL     1      10.855  15.793  -4.774  1.00  0.00    -0.200 F 
ENDBRANCH  38  61
ENDBRANCH  12  13
ENDBRANCH   5   7
ENDBRANCH   4   5
ENDBRANCH   3   4
ENDBRANCH   2   3
ENDBRANCH   1   2
BRANCH   1  72
ATOM     72  C   UNL     1       1.979  -0.221  -2.342  1.00  0.00     0.339 C 
ATOM     73  O   UNL     1       1.172  -1.104  -2.108  1.00  0.00    -0.246 OA
BRANCH  72  74
ATOM     74  C   UNL     1       1.598   1.157  -2.666  1.00  0.00     0.078 A 
ATOM     75  C   UNL     1       2.218   1.899  -3.667  1.00  0.00     0.019 A 
ATOM     76  C   UNL     1       0.612   1.762  -1.906  1.00  0.00     0.127 A 
ATOM     77  C   UNL     1       1.854   3.235  -3.836  1.00  0.00     0.031 A 
ATOM     78  N   UNL     1       0.282   3.071  -2.020  1.00  0.00    -0.254 NA
ATOM     79  C   UNL     1       0.918   3.803  -2.970  1.00  0.00     0.094 A 
BRANCH  79  80
ATOM     80  C   UNL     1       0.624   5.295  -3.038  1.00  0.00     0.317 C 
BRANCH  80  81
ATOM     81  N   UNL     1      -0.770   5.565  -3.376  1.00  0.00    -0.341 N 
ATOM     82  H   UNL     1      -1.357   5.213  -2.619  1.00  0.00     0.346 HD
ATOM     83  H   UNL     1      -0.951   5.100  -4.266  1.00  0.00     0.346 HD
BRANCH  81  84
ATOM     84  C   UNL     1      -1.077   6.977  -3.572  1.00  0.00     0.264 C 
BRANCH  84  85
ATOM     85  C   UNL     1      -0.448   7.546  -4.838  1.00  0.00     0.049 C 
ATOM     86  C   UNL     1      -1.154   8.790  -5.438  1.00  0.00     0.041 C 
ATOM     87  C   UNL     1      -0.733   6.827  -6.183  1.00  0.00     0.041 C 
ATOM     88  C   UNL     1      -0.863   8.216  -6.842  1.00  0.00     0.115 C 
BRANCH  88  89
ATOM     89  O   UNL     1       0.309   8.722  -7.511  1.00  0.00    -0.393 OA
ATOM     90  H   UNL     1       1.073   8.661  -6.915  1.00  0.00     0.210 HD
ENDBRANCH  88  89
ENDBRANCH  84  85
ENDBRANCH  81  84
ENDBRANCH  80  81
ENDBRANCH  79  80
ENDBRANCH  72  74
ENDBRANCH   1  72
TORSDOF 16
