REMARK SMILES O=C(OCCOC(=O)c1cccc(CS(=O)(=O)NCc2ccccc2)c1)c1ccc(-c2c3nc(c(-c4c(F)c(F)c(F)c(F)c4F)c4ccc([nH]4)c(-c4c(F)c(F)c(F)c(F)c4F)c4nc(c(-c5c(F)c(F)c(F)c(F)c5F)c5ccc2[nH]5)C=C4)C=C3)cc1
REMARK SMILES IDX 6 1 5 2 4 3 3 4 2 5 1 6 27 7 28 8 89 9 29 10 88 11 30 12
REMARK SMILES IDX 31 13 32 14 82 15 33 16 87 17 81 18 83 19 34 20 86 21 80 22
REMARK SMILES IDX 79 23 35 25 67 26 47 27 66 28 48 29 51 30 65 31 84 32 49 33
REMARK SMILES IDX 50 34 64 36 85 37 52 38 36 39 37 40 45 41 38 42 39 43 43 44
REMARK SMILES IDX 46 45 40 46 41 47 44 48 42 49 68 50 69 51 77 52 70 53 71 54
REMARK SMILES IDX 75 55 78 56 72 57 73 58 76 59 74 60 53 61 54 62 62 63 55 64
REMARK SMILES IDX 56 65 60 66 63 67 57 68 58 69 61 70 59 71 7 72 8 73 9 74
REMARK SMILES IDX 10 75 26 76 11 77 13 78 12 79 14 80 15 81 16 82 17 83 18 84
REMARK SMILES IDX 19 86 20 87 21 88 25 89 22 90 24 91 23 92
REMARK H PARENT 83 24 51 35 18 85
REMARK Flexibility Score: inf
ROOT
ATOM      1  O   UNL     1       3.703   0.081   1.992  1.00  0.00    -0.458 OA
ENDROOT
BRANCH   1   2
ATOM      2  C   UNL     1       4.122   1.401   1.613  1.00  0.00     0.275 C 
BRANCH   2   3
ATOM      3  C   UNL     1       4.217   1.603   0.096  1.00  0.00     0.275 C 
BRANCH   3   4
ATOM      4  O   UNL     1       3.127   1.044  -0.658  1.00  0.00    -0.458 OA
BRANCH   4   5
ATOM      5  C   UNL     1       2.959  -0.196  -1.175  1.00  0.00     0.338 C 
ATOM      6  O   UNL     1       2.022  -0.388  -1.949  1.00  0.00    -0.246 OA
BRANCH   5   7
ATOM      7  C   UNL     1       3.757  -1.394  -0.755  1.00  0.00     0.060 A 
ATOM      8  C   UNL     1       5.042  -1.383  -0.209  1.00  0.00     0.016 A 
ATOM      9  C   UNL     1       3.126  -2.643  -0.899  1.00  0.00     0.016 A 
ATOM     10  C   UNL     1       5.643  -2.551   0.265  1.00  0.00     0.010 A 
ATOM     11  C   UNL     1       3.710  -3.815  -0.406  1.00  0.00     0.010 A 
ATOM     12  C   UNL     1       4.978  -3.772   0.188  1.00  0.00    -0.014 A 
BRANCH  12  13
ATOM     13  C   UNL     1       5.682  -5.017   0.564  1.00  0.00     0.031 A 
ATOM     14  C   UNL     1       6.143  -5.921  -0.535  1.00  0.00     0.074 A 
ATOM     15  C   UNL     1       6.000  -5.299   1.842  1.00  0.00     0.049 A 
ATOM     16  N   UNL     1       6.791  -7.051  -0.450  1.00  0.00    -0.248 NA
ATOM     17  C   UNL     1       5.904  -5.460  -1.913  1.00  0.00     0.031 C 
ATOM     18  C   UNL     1       5.809  -4.409   2.982  1.00  0.00     0.029 A 
ATOM     19  N   UNL     1       6.535  -6.432   2.404  1.00  0.00    -0.354 N 
ATOM     20  C   UNL     1       7.110  -7.388  -1.755  1.00  0.00     0.074 A 
ATOM     21  C   UNL     1       6.489  -6.412  -2.620  1.00  0.00     0.031 C 
ATOM     22  C   UNL     1       6.111  -5.068   4.116  1.00  0.00     0.029 A 
ATOM     23  C   UNL     1       6.495  -6.426   3.779  1.00  0.00     0.049 A 
ATOM     24  H   UNL     1       6.909  -7.174   1.876  1.00  0.00     0.167 HD
ATOM     25  C   UNL     1       7.913  -8.388  -2.181  1.00  0.00     0.037 A 
ATOM     26  C   UNL     1       6.704  -7.419   4.660  1.00  0.00     0.037 A 
ATOM     27  C   UNL     1       8.497  -9.367  -1.308  1.00  0.00     0.049 A 
ATOM     28  C   UNL     1       7.319  -8.685   4.146  1.00  0.00     0.074 A 
ATOM     29  C   UNL     1       9.315 -10.433  -1.629  1.00  0.00     0.029 A 
ATOM     30  N   UNL     1       8.300  -9.410   0.067  1.00  0.00    -0.354 N 
ATOM     31  N   UNL     1       7.642  -8.992   2.914  1.00  0.00    -0.248 NA
ATOM     32  C   UNL     1       7.684  -9.697   5.142  1.00  0.00     0.031 C 
ATOM     33  C   UNL     1       9.553 -11.163  -0.459  1.00  0.00     0.029 A 
ATOM     34  C   UNL     1       8.940 -10.515   0.602  1.00  0.00     0.049 A 
ATOM     35  H   UNL     1       7.781  -8.752   0.584  1.00  0.00     0.167 HD
ATOM     36  C   UNL     1       8.330 -10.190   2.992  1.00  0.00     0.074 A 
ATOM     37  C   UNL     1       8.342 -10.571   4.392  1.00  0.00     0.031 C 
ATOM     38  C   UNL     1       8.937 -10.883   1.997  1.00  0.00     0.037 A 
BRANCH  25  39
ATOM     39  C   UNL     1       8.178  -8.456  -3.654  1.00  0.00     0.064 A 
ATOM     40  C   UNL     1       8.961  -7.488  -4.304  1.00  0.00     0.173 A 
ATOM     41  C   UNL     1       7.619  -9.479  -4.428  1.00  0.00     0.173 A 
ATOM     42  F   UNL     1       9.494  -6.470  -3.611  1.00  0.00    -0.203 F 
ATOM     43  C   UNL     1       9.147  -7.527  -5.683  1.00  0.00     0.198 A 
ATOM     44  C   UNL     1       7.831  -9.531  -5.803  1.00  0.00     0.198 A 
ATOM     45  F   UNL     1       6.854 -10.420  -3.855  1.00  0.00    -0.203 F 
ATOM     46  F   UNL     1       9.845  -6.558  -6.292  1.00  0.00    -0.200 F 
ATOM     47  C   UNL     1       8.586  -8.552  -6.430  1.00  0.00     0.200 A 
ATOM     48  F   UNL     1       7.290 -10.523  -6.524  1.00  0.00    -0.200 F 
ATOM     49  F   UNL     1       8.760  -8.586  -7.758  1.00  0.00    -0.200 F 
ENDBRANCH  25  39
BRANCH  26  50
ATOM     50  C   UNL     1       6.337  -7.269   6.093  1.00  0.00     0.064 A 
ATOM     51  C   UNL     1       7.300  -7.072   7.089  1.00  0.00     0.173 A 
ATOM     52  C   UNL     1       4.999  -7.400   6.497  1.00  0.00     0.173 A 
ATOM     53  F   UNL     1       8.594  -6.974   6.754  1.00  0.00    -0.203 F 
ATOM     54  C   UNL     1       6.943  -7.035   8.437  1.00  0.00     0.198 A 
ATOM     55  C   UNL     1       4.641  -7.360   7.845  1.00  0.00     0.198 A 
ATOM     56  F   UNL     1       4.043  -7.595   5.576  1.00  0.00    -0.203 F 
ATOM     57  F   UNL     1       7.892  -6.898   9.373  1.00  0.00    -0.200 F 
ATOM     58  C   UNL     1       5.615  -7.181   8.815  1.00  0.00     0.200 A 
ATOM     59  F   UNL     1       3.362  -7.530   8.208  1.00  0.00    -0.200 F 
ATOM     60  F   UNL     1       5.283  -7.178  10.114  1.00  0.00    -0.200 F 
ENDBRANCH  26  50
BRANCH  38  61
ATOM     61  C   UNL     1       9.719 -12.095   2.399  1.00  0.00     0.064 A 
ATOM     62  C   UNL     1       9.093 -13.263   2.855  1.00  0.00     0.173 A 
ATOM     63  C   UNL     1      11.119 -12.090   2.302  1.00  0.00     0.173 A 
ATOM     64  F   UNL     1       7.759 -13.307   2.986  1.00  0.00    -0.203 F 
ATOM     65  C   UNL     1       9.844 -14.373   3.228  1.00  0.00     0.198 A 
ATOM     66  C   UNL     1      11.863 -13.215   2.637  1.00  0.00     0.198 A 
ATOM     67  F   UNL     1      11.764 -10.995   1.869  1.00  0.00    -0.203 F 
ATOM     68  F   UNL     1       9.230 -15.459   3.719  1.00  0.00    -0.200 F 
ATOM     69  C   UNL     1      11.226 -14.352   3.109  1.00  0.00     0.200 A 
ATOM     70  F   UNL     1      13.197 -13.197   2.506  1.00  0.00    -0.200 F 
ATOM     71  F   UNL     1      11.946 -15.427   3.459  1.00  0.00    -0.200 F 
ENDBRANCH  38  61
ENDBRANCH  12  13
ENDBRANCH   5   7
ENDBRANCH   4   5
ENDBRANCH   3   4
ENDBRANCH   2   3
ENDBRANCH   1   2
BRANCH   1  72
ATOM     72  C   UNL     1       2.365  -0.066   2.167  1.00  0.00     0.338 C 
ATOM     73  O   UNL     1       1.515   0.807   2.113  1.00  0.00    -0.246 OA
BRANCH  72  74
ATOM     74  C   UNL     1       2.046  -1.499   2.308  1.00  0.00     0.060 A 
ATOM     75  C   UNL     1       1.056  -2.047   1.488  1.00  0.00     0.016 A 
ATOM     76  C   UNL     1       2.696  -2.296   3.254  1.00  0.00     0.020 A 
ATOM     77  C   UNL     1       0.791  -3.415   1.544  1.00  0.00     0.001 A 
ATOM     78  C   UNL     1       2.352  -3.655   3.387  1.00  0.00    -0.031 A 
ATOM     79  C   UNL     1       1.456  -4.220   2.471  1.00  0.00     0.005 A 
BRANCH  78  80
ATOM     80  C   UNL     1       2.980  -4.481   4.466  1.00  0.00     0.189 C 
BRANCH  80  81
ATOM     81  S   UNL     1       2.082  -4.716   5.998  1.00  0.00     0.216 S 
ATOM     82  O   UNL     1       1.396  -5.987   5.950  1.00  0.00    -0.212 OA
ATOM     83  O   UNL     1       3.056  -4.518   7.059  1.00  0.00    -0.212 OA
BRANCH  81  84
ATOM     84  N   UNL     1       0.950  -3.547   6.270  1.00  0.00    -0.211 NA
ATOM     85  H   UNL     1       1.482  -2.763   6.649  1.00  0.00     0.141 HD
BRANCH  84  86
ATOM     86  C   UNL     1       0.014  -2.928   5.331  1.00  0.00     0.134 C 
BRANCH  86  87
ATOM     87  C   UNL     1      -1.099  -3.694   4.660  1.00  0.00    -0.033 A 
ATOM     88  C   UNL     1      -2.202  -2.953   4.195  1.00  0.00     0.005 A 
ATOM     89  C   UNL     1      -1.076  -5.056   4.352  1.00  0.00     0.005 A 
ATOM     90  C   UNL     1      -3.246  -3.559   3.492  1.00  0.00     0.000 A 
ATOM     91  C   UNL     1      -2.112  -5.668   3.641  1.00  0.00     0.000 A 
ATOM     92  C   UNL     1      -3.202  -4.921   3.219  1.00  0.00     0.000 A 
ENDBRANCH  86  87
ENDBRANCH  84  86
ENDBRANCH  81  84
ENDBRANCH  80  81
ENDBRANCH  78  80
ENDBRANCH  72  74
ENDBRANCH   1  72
TORSDOF 16
