REMARK SMILES CCC[NH+]1CCC([NH2+]CC(C)(C)C(=O)OCCOC(=O)c2ccc(-c3c4nc(c(-c5c(F)c(F)c(F)c(F)c5F)c5ccc([nH]5)c(-c5c(F)c(F)c(F)c(F)c5F)c5nc(c(-c6c(F)c(F)c(F)c(F)c6F)c6ccc3[nH]6)C=C5)C=C4)cc2)CC1
REMARK SMILES IDX 15 1 13 2 14 3 10 4 11 5 12 6 9 7 8 8 7 11 4 12 5 13 85 14
REMARK SMILES IDX 6 16 84 17 3 18 2 19 1 20 16 21 17 22 18 23 19 24 20 25
REMARK SMILES IDX 21 26 22 27 83 28 23 29 82 30 24 31 25 32 26 33 76 34 27 35
REMARK SMILES IDX 81 36 75 37 77 38 28 39 80 40 74 41 73 42 29 44 61 45 41 46
REMARK SMILES IDX 60 47 42 48 45 49 59 50 78 51 43 52 44 53 58 55 79 56 46 57
REMARK SMILES IDX 30 58 31 59 39 60 32 61 33 62 37 63 40 64 34 65 35 66 38 67
REMARK SMILES IDX 36 68 62 69 63 70 71 71 64 72 65 73 69 74 72 75 66 76 67 77
REMARK SMILES IDX 70 78 68 79 47 80 48 81 56 82 49 83 50 84 54 85 57 86 51 87
REMARK SMILES IDX 52 88 55 89 53 90
REMARK H PARENT 8 9 8 10 4 15 77 43 45 54
REMARK Flexibility Score: inf
ROOT
ATOM      1  O   UNL     1      -4.069   1.715   1.128  1.00  0.00    -0.461 OA
ENDROOT
BRANCH   1   2
ATOM      2  C   UNL     1      -3.158   2.672   1.423  1.00  0.00     0.317 C 
ATOM      3  O   UNL     1      -2.038   2.619   0.942  1.00  0.00    -0.251 OA
BRANCH   2   4
ATOM      4  C   UNL     1      -3.601   3.811   2.345  1.00  0.00     0.111 C 
ATOM      5  C   UNL     1      -4.257   3.344   3.651  1.00  0.00     0.029 C 
ATOM      6  C   UNL     1      -4.670   4.574   1.528  1.00  0.00     0.029 C 
BRANCH   4   7
ATOM      7  C   UNL     1      -2.396   4.797   2.674  1.00  0.00     0.279 C 
BRANCH   7   8
ATOM      8  N   UNL     1      -1.179   4.457   3.473  1.00  0.00    -0.343 N 
ATOM      9  H   UNL     1      -0.563   5.271   3.467  1.00  0.00     0.346 HD
ATOM     10  H   UNL     1      -1.519   4.200   4.399  1.00  0.00     0.346 HD
BRANCH   8  11
ATOM     11  C   UNL     1      -0.402   3.300   2.997  1.00  0.00     0.193 C 
ATOM     12  N   UNL     1       1.088   0.759   3.027  1.00  0.00    -0.335 N 
ATOM     13  C   UNL     1       1.731   2.011   2.598  1.00  0.00     0.268 C 
ATOM     14  C   UNL     1      -0.363   0.802   2.937  1.00  0.00     0.268 C 
ATOM     15  H   UNL     1       1.338   0.695   4.013  1.00  0.00     0.348 HD
ATOM     16  C   UNL     1       1.116   3.286   3.253  1.00  0.00     0.126 C 
ATOM     17  C   UNL     1      -0.940   2.016   3.634  1.00  0.00     0.126 C 
BRANCH  12  18
ATOM     18  C   UNL     1       1.626  -0.465   2.405  1.00  0.00     0.261 C 
BRANCH  18  19
ATOM     19  C   UNL     1       1.014  -1.000   1.089  1.00  0.00     0.058 C 
ATOM     20  C   UNL     1       1.273  -0.143  -0.139  1.00  0.00     0.010 C 
ENDBRANCH  18  19
ENDBRANCH  12  18
ENDBRANCH   8  11
ENDBRANCH   7   8
ENDBRANCH   4   7
ENDBRANCH   2   4
ENDBRANCH   1   2
BRANCH   1  21
ATOM     21  C   UNL     1      -3.491   0.548   0.478  1.00  0.00     0.274 C 
BRANCH  21  22
ATOM     22  C   UNL     1      -3.084   0.670  -1.017  1.00  0.00     0.275 C 
BRANCH  22  23
ATOM     23  O   UNL     1      -1.915   1.488  -1.286  1.00  0.00    -0.458 OA
BRANCH  23  24
ATOM     24  C   UNL     1      -2.156   2.698  -1.859  1.00  0.00     0.338 C 
ATOM     25  O   UNL     1      -3.234   3.094  -2.279  1.00  0.00    -0.246 OA
BRANCH  24  26
ATOM     26  C   UNL     1      -0.991   3.615  -1.753  1.00  0.00     0.060 A 
ATOM     27  C   UNL     1      -1.115   4.684  -0.860  1.00  0.00     0.016 A 
ATOM     28  C   UNL     1       0.125   3.558  -2.585  1.00  0.00     0.016 A 
ATOM     29  C   UNL     1      -0.125   5.657  -0.732  1.00  0.00     0.010 A 
ATOM     30  C   UNL     1       1.100   4.576  -2.507  1.00  0.00     0.010 A 
ATOM     31  C   UNL     1       0.979   5.635  -1.583  1.00  0.00    -0.014 A 
BRANCH  31  32
ATOM     32  C   UNL     1       1.877   6.823  -1.625  1.00  0.00     0.031 A 
ATOM     33  C   UNL     1       1.641   7.869  -2.682  1.00  0.00     0.074 A 
ATOM     34  C   UNL     1       2.826   7.034  -0.694  1.00  0.00     0.049 A 
ATOM     35  N   UNL     1       2.353   8.923  -2.992  1.00  0.00    -0.248 NA
ATOM     36  C   UNL     1       0.422   7.708  -3.490  1.00  0.00     0.031 C 
ATOM     37  C   UNL     1       3.071   6.187   0.470  1.00  0.00     0.029 A 
ATOM     38  N   UNL     1       3.763   8.036  -0.582  1.00  0.00    -0.354 N 
ATOM     39  C   UNL     1       1.683   9.536  -4.043  1.00  0.00     0.074 A 
ATOM     40  C   UNL     1       0.510   8.735  -4.322  1.00  0.00     0.031 C 
ATOM     41  C   UNL     1       4.106   6.690   1.167  1.00  0.00     0.029 A 
ATOM     42  C   UNL     1       4.632   7.863   0.469  1.00  0.00     0.049 A 
ATOM     43  H   UNL     1       3.807   8.804  -1.196  1.00  0.00     0.167 HD
ATOM     44  C   UNL     1       2.018  10.661  -4.718  1.00  0.00     0.037 A 
ATOM     45  C   UNL     1       5.748   8.545   0.800  1.00  0.00     0.037 A 
ATOM     46  C   UNL     1       3.183  11.460  -4.436  1.00  0.00     0.049 A 
ATOM     47  C   UNL     1       6.179   9.717  -0.052  1.00  0.00     0.074 A 
ATOM     48  C   UNL     1       3.632  12.594  -5.091  1.00  0.00     0.029 A 
ATOM     49  N   UNL     1       4.082  11.209  -3.411  1.00  0.00    -0.354 N 
ATOM     50  N   UNL     1       5.579  10.259  -1.085  1.00  0.00    -0.248 NA
ATOM     51  C   UNL     1       7.450  10.368   0.303  1.00  0.00     0.031 C 
ATOM     52  C   UNL     1       4.832  12.996  -4.498  1.00  0.00     0.029 A 
ATOM     53  C   UNL     1       5.096  12.153  -3.430  1.00  0.00     0.049 A 
ATOM     54  H   UNL     1       4.011  10.469  -2.766  1.00  0.00     0.167 HD
ATOM     55  C   UNL     1       6.376  11.330  -1.475  1.00  0.00     0.074 A 
ATOM     56  C   UNL     1       7.497  11.371  -0.562  1.00  0.00     0.031 C 
ATOM     57  C   UNL     1       6.194  12.200  -2.499  1.00  0.00     0.037 A 
BRANCH  44  58
ATOM     58  C   UNL     1       1.145  11.065  -5.871  1.00  0.00     0.064 A 
ATOM     59  C   UNL     1      -0.142  11.589  -5.682  1.00  0.00     0.173 A 
ATOM     60  C   UNL     1       1.621  10.951  -7.187  1.00  0.00     0.173 A 
ATOM     61  F   UNL     1      -0.650  11.704  -4.445  1.00  0.00    -0.203 F 
ATOM     62  C   UNL     1      -0.930  11.960  -6.769  1.00  0.00     0.198 A 
ATOM     63  C   UNL     1       0.843  11.353  -8.269  1.00  0.00     0.198 A 
ATOM     64  F   UNL     1       2.847  10.461  -7.423  1.00  0.00    -0.203 F 
ATOM     65  F   UNL     1      -2.175  12.414  -6.568  1.00  0.00    -0.200 F 
ATOM     66  C   UNL     1      -0.434  11.850  -8.060  1.00  0.00     0.200 A 
ATOM     67  F   UNL     1       1.330  11.259  -9.514  1.00  0.00    -0.200 F 
ATOM     68  F   UNL     1      -1.191  12.215  -9.104  1.00  0.00    -0.200 F 
ENDBRANCH  44  58
BRANCH  45  69
ATOM     69  C   UNL     1       6.590   8.112   1.952  1.00  0.00     0.064 A 
ATOM     70  C   UNL     1       6.795   8.947   3.062  1.00  0.00     0.173 A 
ATOM     71  C   UNL     1       7.269   6.884   1.934  1.00  0.00     0.173 A 
ATOM     72  F   UNL     1       6.201  10.148   3.114  1.00  0.00    -0.203 F 
ATOM     73  C   UNL     1       7.665   8.583   4.089  1.00  0.00     0.198 A 
ATOM     74  C   UNL     1       8.111   6.505   2.978  1.00  0.00     0.198 A 
ATOM     75  F   UNL     1       7.126   6.051   0.892  1.00  0.00    -0.203 F 
ATOM     76  F   UNL     1       7.897   9.432   5.099  1.00  0.00    -0.200 F 
ATOM     77  C   UNL     1       8.318   7.361   4.049  1.00  0.00     0.200 A 
ATOM     78  F   UNL     1       8.734   5.320   2.938  1.00  0.00    -0.200 F 
ATOM     79  F   UNL     1       9.162   7.016   5.031  1.00  0.00    -0.200 F 
ENDBRANCH  45  69
BRANCH  57  80
ATOM     80  C   UNL     1       7.192  13.315  -2.654  1.00  0.00     0.064 A 
ATOM     81  C   UNL     1       8.504  13.083  -3.091  1.00  0.00     0.173 A 
ATOM     82  C   UNL     1       6.809  14.644  -2.410  1.00  0.00     0.173 A 
ATOM     83  F   UNL     1       8.927  11.832  -3.326  1.00  0.00    -0.203 F 
ATOM     84  C   UNL     1       9.402  14.136  -3.252  1.00  0.00     0.198 A 
ATOM     85  C   UNL     1       7.698  15.696  -2.605  1.00  0.00     0.198 A 
ATOM     86  F   UNL     1       5.562  14.924  -1.999  1.00  0.00    -0.203 F 
ATOM     87  F   UNL     1      10.666  13.885  -3.623  1.00  0.00    -0.200 F 
ATOM     88  C   UNL     1       8.996  15.441  -3.018  1.00  0.00     0.200 A 
ATOM     89  F   UNL     1       7.298  16.958  -2.396  1.00  0.00    -0.200 F 
ATOM     90  F   UNL     1       9.859  16.453  -3.185  1.00  0.00    -0.200 F 
ENDBRANCH  57  80
ENDBRANCH  31  32
ENDBRANCH  24  26
ENDBRANCH  23  24
ENDBRANCH  22  23
ENDBRANCH  21  22
ENDBRANCH   1  21
TORSDOF 16
