REMARK SMILES CS(=O)(=O)c1ccc(/C=C(/C(=O)OCCOC(=O)c2ccc(-c3c4nc(c(-c5c(F)c(F)c(F)c(F)c5F)c5ccc([nH]5)c(-c5c(F)c(F)c(F)c(F)c5F)c5nc(c(-c6c(F)c(F)c(F)c(F)c6F)c6ccc3[nH]6)C=C5)C=C4)cc2)c2cccc(-c3ccc(S(C)(=O)=O)cc3)c2)cc1
REMARK SMILES IDX 14 1 13 2 11 3 12 4 10 5 9 6 8 7 5 8 6 9 99 10 7 11 98 12
REMARK SMILES IDX 2 13 1 14 3 15 4 16 82 17 83 18 97 19 84 20 86 21 85 22
REMARK SMILES IDX 87 23 88 24 96 25 89 26 95 27 90 28 91 29 92 30 93 31 94 32
REMARK SMILES IDX 15 33 16 34 17 35 18 36 19 37 20 38 81 39 21 40 80 41 22 42
REMARK SMILES IDX 23 43 24 44 74 45 25 46 79 47 73 48 75 49 26 50 78 51 72 52
REMARK SMILES IDX 71 53 27 55 59 56 39 57 58 58 40 59 43 60 57 61 76 62 41 63
REMARK SMILES IDX 42 64 56 66 77 67 44 68 28 69 29 70 37 71 30 72 31 73 35 74
REMARK SMILES IDX 38 75 32 76 33 77 36 78 34 79 60 80 61 81 69 82 62 83 63 84
REMARK SMILES IDX 67 85 70 86 64 87 65 88 68 89 66 90 45 91 46 92 54 93 47 94
REMARK SMILES IDX 48 95 52 96 55 97 49 98 50 99 53 100 51 101
REMARK H PARENT 75 54 43 65
REMARK Flexibility Score: inf
ROOT
ATOM      1  C   UNL     1       2.939   4.217   9.680  1.00  0.00     0.275 C 
ENDROOT
BRANCH   1   2
ATOM      2  O   UNL     1       2.293   3.773   8.468  1.00  0.00    -0.458 OA
BRANCH   2   3
ATOM      3  C   UNL     1       2.919   2.764   7.812  1.00  0.00     0.338 C 
ATOM      4  O   UNL     1       3.977   2.244   8.143  1.00  0.00    -0.246 OA
BRANCH   3   5
ATOM      5  C   UNL     1       2.137   2.301   6.629  1.00  0.00     0.067 C 
ATOM      6  C   UNL     1       1.616   3.223   5.786  1.00  0.00     0.024 C 
BRANCH   6   7
ATOM      7  C   UNL     1       1.066   2.968   4.434  1.00  0.00    -0.025 A 
ATOM      8  C   UNL     1       0.416   2.389   1.768  1.00  0.00     0.067 A 
ATOM      9  C   UNL     1      -0.053   1.563   2.787  1.00  0.00     0.021 A 
ATOM     10  C   UNL     1       1.119   3.556   2.070  1.00  0.00     0.021 A 
ATOM     11  C   UNL     1       0.249   1.875   4.114  1.00  0.00     0.009 A 
ATOM     12  C   UNL     1       1.444   3.838   3.400  1.00  0.00     0.009 A 
BRANCH   8  13
ATOM     13  S   UNL     1       0.117   1.933   0.078  1.00  0.00     0.175 S 
ATOM     14  C   UNL     1       1.009   0.408  -0.117  1.00  0.00     0.163 C 
ATOM     15  O   UNL     1       0.755   2.927  -0.764  1.00  0.00    -0.224 OA
ATOM     16  O   UNL     1      -1.301   1.653  -0.037  1.00  0.00    -0.224 OA
ENDBRANCH   8  13
ENDBRANCH   6   7
BRANCH   5  17
ATOM     17  C   UNL     1       2.107   0.854   6.340  1.00  0.00    -0.010 A 
ATOM     18  C   UNL     1       1.115   0.058   6.928  1.00  0.00     0.009 A 
ATOM     19  C   UNL     1       2.956   0.296   5.376  1.00  0.00     0.017 A 
ATOM     20  C   UNL     1       0.983  -1.280   6.563  1.00  0.00     0.001 A 
ATOM     21  C   UNL     1       2.798  -1.036   4.953  1.00  0.00    -0.018 A 
ATOM     22  C   UNL     1       1.823  -1.822   5.591  1.00  0.00     0.009 A 
BRANCH  21  23
ATOM     23  C   UNL     1       3.526  -1.531   3.770  1.00  0.00    -0.018 A 
ATOM     24  C   UNL     1       2.820  -2.179   2.738  1.00  0.00     0.010 A 
ATOM     25  C   UNL     1       4.896  -1.279   3.577  1.00  0.00     0.010 A 
ATOM     26  C   UNL     1       3.441  -2.526   1.541  1.00  0.00     0.021 A 
ATOM     27  C   UNL     1       5.531  -1.625   2.379  1.00  0.00     0.021 A 
ATOM     28  C   UNL     1       4.794  -2.240   1.365  1.00  0.00     0.067 A 
BRANCH  28  29
ATOM     29  S   UNL     1       5.541  -2.581  -0.208  1.00  0.00     0.175 S 
ATOM     30  C   UNL     1       5.560  -4.352  -0.293  1.00  0.00     0.163 C 
ATOM     31  O   UNL     1       4.617  -2.085  -1.216  1.00  0.00    -0.224 OA
ATOM     32  O   UNL     1       6.911  -2.120  -0.160  1.00  0.00    -0.224 OA
ENDBRANCH  28  29
ENDBRANCH  21  23
ENDBRANCH   5  17
ENDBRANCH   3   5
ENDBRANCH   2   3
ENDBRANCH   1   2
BRANCH   1  33
ATOM     33  C   UNL     1       2.268   3.601  10.906  1.00  0.00     0.275 C 
BRANCH  33  34
ATOM     34  O   UNL     1       2.447   2.172  10.895  1.00  0.00    -0.458 OA
BRANCH  34  35
ATOM     35  C   UNL     1       1.315   1.433  10.895  1.00  0.00     0.338 C 
ATOM     36  O   UNL     1       0.165   1.840  10.962  1.00  0.00    -0.246 OA
BRANCH  35  37
ATOM     37  C   UNL     1       1.631  -0.003  10.762  1.00  0.00     0.060 A 
ATOM     38  C   UNL     1       2.515  -0.439   9.782  1.00  0.00     0.016 A 
ATOM     39  C   UNL     1       0.900  -0.938  11.497  1.00  0.00     0.016 A 
ATOM     40  C   UNL     1       2.554  -1.790   9.437  1.00  0.00     0.010 A 
ATOM     41  C   UNL     1       1.038  -2.306  11.226  1.00  0.00     0.010 A 
ATOM     42  C   UNL     1       1.817  -2.753  10.145  1.00  0.00    -0.014 A 
BRANCH  42  43
ATOM     43  C   UNL     1       1.807  -4.191   9.720  1.00  0.00     0.031 A 
ATOM     44  C   UNL     1       0.500  -4.929   9.524  1.00  0.00     0.074 A 
ATOM     45  C   UNL     1       2.955  -4.855   9.470  1.00  0.00     0.049 A 
ATOM     46  N   UNL     1       0.283  -6.217   9.396  1.00  0.00    -0.248 NA
ATOM     47  C   UNL     1      -0.727  -4.118   9.480  1.00  0.00     0.031 C 
ATOM     48  C   UNL     1       4.302  -4.290   9.550  1.00  0.00     0.029 A 
ATOM     49  N   UNL     1       3.172  -6.159   9.084  1.00  0.00    -0.354 N 
ATOM     50  C   UNL     1      -1.098  -6.373   9.353  1.00  0.00     0.074 A 
ATOM     51  C   UNL     1      -1.672  -5.048   9.442  1.00  0.00     0.031 C 
ATOM     52  C   UNL     1       5.194  -5.209   9.157  1.00  0.00     0.029 A 
ATOM     53  C   UNL     1       4.501  -6.470   8.922  1.00  0.00     0.049 A 
ATOM     54  H   UNL     1       2.445  -6.806   8.937  1.00  0.00     0.167 HD
ATOM     55  C   UNL     1      -1.820  -7.517   9.258  1.00  0.00     0.037 A 
ATOM     56  C   UNL     1       5.113  -7.644   8.675  1.00  0.00     0.037 A 
ATOM     57  C   UNL     1      -1.254  -8.830   9.071  1.00  0.00     0.049 A 
ATOM     58  C   UNL     1       4.297  -8.900   8.577  1.00  0.00     0.074 A 
ATOM     59  C   UNL     1      -1.910 -10.043   8.939  1.00  0.00     0.029 A 
ATOM     60  N   UNL     1       0.101  -9.097   8.958  1.00  0.00    -0.354 N 
ATOM     61  N   UNL     1       2.998  -9.048   8.650  1.00  0.00    -0.248 NA
ATOM     62  C   UNL     1       5.037 -10.156   8.399  1.00  0.00     0.031 C 
ATOM     63  C   UNL     1      -0.951 -11.048   8.773  1.00  0.00     0.029 A 
ATOM     64  C   UNL     1       0.300 -10.456   8.761  1.00  0.00     0.049 A 
ATOM     65  H   UNL     1       0.817  -8.423   9.010  1.00  0.00     0.167 HD
ATOM     66  C   UNL     1       2.765 -10.411   8.534  1.00  0.00     0.074 A 
ATOM     67  C   UNL     1       4.054 -11.044   8.352  1.00  0.00     0.031 C 
ATOM     68  C   UNL     1       1.586 -11.077   8.587  1.00  0.00     0.037 A 
BRANCH  55  69
ATOM     69  C   UNL     1      -3.313  -7.421   9.390  1.00  0.00     0.064 A 
ATOM     70  C   UNL     1      -4.125  -6.916   8.366  1.00  0.00     0.173 A 
ATOM     71  C   UNL     1      -3.945  -7.914  10.545  1.00  0.00     0.173 A 
ATOM     72  F   UNL     1      -3.571  -6.423   7.248  1.00  0.00    -0.203 F 
ATOM     73  C   UNL     1      -5.512  -6.891   8.499  1.00  0.00     0.198 A 
ATOM     74  C   UNL     1      -5.332  -7.912  10.663  1.00  0.00     0.198 A 
ATOM     75  F   UNL     1      -3.215  -8.418  11.551  1.00  0.00    -0.203 F 
ATOM     76  F   UNL     1      -6.267  -6.372   7.520  1.00  0.00    -0.200 F 
ATOM     77  C   UNL     1      -6.115  -7.397   9.642  1.00  0.00     0.200 A 
ATOM     78  F   UNL     1      -5.911  -8.416  11.761  1.00  0.00    -0.200 F 
ATOM     79  F   UNL     1      -7.449  -7.385   9.760  1.00  0.00    -0.200 F 
ENDBRANCH  55  69
BRANCH  56  80
ATOM     80  C   UNL     1       6.595  -7.690   8.571  1.00  0.00     0.064 A 
ATOM     81  C   UNL     1       7.222  -7.953   7.346  1.00  0.00     0.173 A 
ATOM     82  C   UNL     1       7.411  -7.448   9.686  1.00  0.00     0.173 A 
ATOM     83  F   UNL     1       6.484  -8.221   6.259  1.00  0.00    -0.203 F 
ATOM     84  C   UNL     1       8.611  -7.970   7.241  1.00  0.00     0.198 A 
ATOM     85  C   UNL     1       8.799  -7.431   9.572  1.00  0.00     0.198 A 
ATOM     86  F   UNL     1       6.858  -7.195  10.881  1.00  0.00    -0.203 F 
ATOM     87  F   UNL     1       9.188  -8.256   6.066  1.00  0.00    -0.200 F 
ATOM     88  C   UNL     1       9.398  -7.697   8.351  1.00  0.00     0.200 A 
ATOM     89  F   UNL     1       9.553  -7.149  10.643  1.00  0.00    -0.200 F 
ATOM     90  F   UNL     1      10.733  -7.694   8.244  1.00  0.00    -0.200 F 
ENDBRANCH  56  80
BRANCH  68  91
ATOM     91  C   UNL     1       1.637 -12.567   8.429  1.00  0.00     0.064 A 
ATOM     92  C   UNL     1       2.098 -13.396   9.461  1.00  0.00     0.173 A 
ATOM     93  C   UNL     1       1.207 -13.172   7.239  1.00  0.00     0.173 A 
ATOM     94  F   UNL     1       2.538 -12.861  10.611  1.00  0.00    -0.203 F 
ATOM     95  C   UNL     1       2.148 -14.778   9.299  1.00  0.00     0.198 A 
ATOM     96  C   UNL     1       1.237 -14.555   7.089  1.00  0.00     0.198 A 
ATOM     97  F   UNL     1       0.756 -12.421   6.223  1.00  0.00    -0.203 F 
ATOM     98  F   UNL     1       2.635 -15.549  10.282  1.00  0.00    -0.200 F 
ATOM     99  C   UNL     1       1.714 -15.357   8.116  1.00  0.00     0.200 A 
ATOM    100  F   UNL     1       0.811 -15.113   5.947  1.00  0.00    -0.200 F 
ATOM    101  F   UNL     1       1.765 -16.687   7.961  1.00  0.00    -0.200 F 
ENDBRANCH  68  91
ENDBRANCH  42  43
ENDBRANCH  35  37
ENDBRANCH  34  35
ENDBRANCH  33  34
ENDBRANCH   1  33
TORSDOF 16
