REMARK SMILES Cc1ccc(C(=O)OCCOC(=O)c2ccc(-c3c4nc(c(-c5c(F)c(F)c(F)c(F)c5F)c5ccc([nH]5)c(-c5c(F)c(F)c(F)c(F)c5F)c5nc(c(-c6c(F)c(F)c(F)c(F)c6F)c6ccc3[nH]6)C=C5)C=C4)cc2)cc1/[NH+]=C1\NCCS1
REMARK SMILES IDX 10 1 9 2 8 3 6 4 7 5 5 6 1 7 2 8 3 9 78 10 4 11 77 12 79 13
REMARK SMILES IDX 80 14 81 16 84 17 82 18 83 20 11 21 12 22 13 23 14 24 15 25
REMARK SMILES IDX 76 26 16 27 75 28 17 29 18 30 19 31 69 32 20 33 74 34 68 35
REMARK SMILES IDX 70 36 21 37 73 38 67 39 66 40 22 42 54 43 34 44 53 45 35 46
REMARK SMILES IDX 38 47 52 48 71 49 36 50 37 51 51 53 72 54 39 55 23 56 24 57
REMARK SMILES IDX 32 58 25 59 26 60 30 61 33 62 27 63 28 64 31 65 29 66 55 67
REMARK SMILES IDX 56 68 64 69 57 70 58 71 62 72 65 73 59 74 60 75 63 76 61 77
REMARK SMILES IDX 40 78 41 79 49 80 42 81 43 82 47 83 50 84 44 85 45 86 48 87
REMARK SMILES IDX 46 88
REMARK H PARENT 79 15 81 19 70 41 38 52
REMARK Flexibility Score: inf
ROOT
ATOM      1  C   UNL     1      -5.607   0.886  -2.988  1.00  0.00     0.275 C 
ENDROOT
BRANCH   1   2
ATOM      2  C   UNL     1      -4.597   1.710  -2.173  1.00  0.00     0.275 C 
BRANCH   2   3
ATOM      3  O   UNL     1      -3.297   1.121  -2.011  1.00  0.00    -0.458 OA
BRANCH   3   4
ATOM      4  C   UNL     1      -2.603   1.743  -1.017  1.00  0.00     0.338 C 
ATOM      5  O   UNL     1      -3.016   2.702  -0.376  1.00  0.00    -0.246 OA
BRANCH   4   6
ATOM      6  C   UNL     1      -1.243   1.205  -0.782  1.00  0.00     0.064 A 
ATOM      7  C   UNL     1       2.772  -0.067   0.199  1.00  0.00     0.049 C 
ATOM      8  C   UNL     1       1.378   0.388  -0.136  1.00  0.00    -0.004 A 
ATOM      9  C   UNL     1       0.441  -0.534  -0.621  1.00  0.00     0.008 A 
ATOM     10  C   UNL     1       1.008   1.741  -0.062  1.00  0.00     0.129 A 
ATOM     11  C   UNL     1      -0.841  -0.113  -1.007  1.00  0.00     0.016 A 
ATOM     12  C   UNL     1      -0.315   2.119  -0.288  1.00  0.00     0.067 A 
BRANCH  10  13
ATOM     13  N   UNL     1       1.952   2.776   0.007  1.00  0.00    -0.235 N 
ATOM     14  C   UNL     1       2.551   3.023  -1.111  1.00  0.00     0.309 C 
ATOM     15  H   UNL     1       2.141   3.272   0.836  1.00  0.00     0.313 HD
ATOM     16  N   UNL     1       2.455   2.382  -2.314  1.00  0.00    -0.268 N 
ATOM     17  S   UNL     1       3.700   4.342  -1.226  1.00  0.00    -0.035 SA
ATOM     18  C   UNL     1       3.304   2.818  -3.388  1.00  0.00     0.246 C 
ATOM     19  H   UNL     1       1.821   1.641  -2.442  1.00  0.00     0.305 HD
ATOM     20  C   UNL     1       4.413   3.654  -2.755  1.00  0.00     0.128 C 
ENDBRANCH  10  13
ENDBRANCH   4   6
ENDBRANCH   3   4
ENDBRANCH   2   3
ENDBRANCH   1   2
BRANCH   1  21
ATOM     21  O   UNL     1      -5.591  -0.569  -3.006  1.00  0.00    -0.458 OA
BRANCH  21  22
ATOM     22  C   UNL     1      -4.881  -1.399  -2.216  1.00  0.00     0.338 C 
ATOM     23  O   UNL     1      -4.330  -2.409  -2.643  1.00  0.00    -0.246 OA
BRANCH  22  24
ATOM     24  C   UNL     1      -4.819  -1.057  -0.793  1.00  0.00     0.060 A 
ATOM     25  C   UNL     1      -3.685  -1.441  -0.056  1.00  0.00     0.016 A 
ATOM     26  C   UNL     1      -5.811  -0.256  -0.240  1.00  0.00     0.016 A 
ATOM     27  C   UNL     1      -3.481  -0.934   1.214  1.00  0.00     0.010 A 
ATOM     28  C   UNL     1      -5.551   0.362   0.951  1.00  0.00     0.010 A 
ATOM     29  C   UNL     1      -4.429  -0.042   1.696  1.00  0.00    -0.014 A 
BRANCH  29  30
ATOM     30  C   UNL     1      -4.616   0.187   3.111  1.00  0.00     0.031 A 
ATOM     31  C   UNL     1      -3.965   1.317   3.776  1.00  0.00     0.074 A 
ATOM     32  C   UNL     1      -5.637  -0.590   3.543  1.00  0.00     0.049 A 
ATOM     33  N   UNL     1      -3.815   1.417   5.048  1.00  0.00    -0.248 NA
ATOM     34  C   UNL     1      -3.354   2.432   3.054  1.00  0.00     0.031 C 
ATOM     35  C   UNL     1      -6.552  -0.481   4.657  1.00  0.00     0.029 A 
ATOM     36  N   UNL     1      -6.007  -1.812   2.935  1.00  0.00    -0.354 N 
ATOM     37  C   UNL     1      -3.529   2.746   5.303  1.00  0.00     0.074 A 
ATOM     38  C   UNL     1      -3.046   3.269   4.053  1.00  0.00     0.031 C 
ATOM     39  C   UNL     1      -7.120  -1.690   4.859  1.00  0.00     0.029 A 
ATOM     40  C   UNL     1      -6.466  -2.638   3.958  1.00  0.00     0.049 A 
ATOM     41  H   UNL     1      -5.950  -2.035   1.978  1.00  0.00     0.167 HD
ATOM     42  C   UNL     1      -4.002   3.286   6.467  1.00  0.00     0.037 A 
ATOM     43  C   UNL     1      -5.650  -3.669   4.330  1.00  0.00     0.037 A 
ATOM     44  C   UNL     1      -4.700   2.241   7.220  1.00  0.00     0.049 A 
ATOM     45  C   UNL     1      -5.111  -3.401   5.712  1.00  0.00     0.074 A 
ATOM     46  C   UNL     1      -6.046   1.917   7.288  1.00  0.00     0.029 A 
ATOM     47  N   UNL     1      -3.999   1.121   7.658  1.00  0.00    -0.354 N 
ATOM     48  N   UNL     1      -4.791  -2.216   6.160  1.00  0.00    -0.248 NA
ATOM     49  C   UNL     1      -5.021  -4.444   6.724  1.00  0.00     0.031 C 
ATOM     50  C   UNL     1      -6.146   0.563   7.699  1.00  0.00     0.029 A 
ATOM     51  C   UNL     1      -4.865   0.061   7.857  1.00  0.00     0.049 A 
ATOM     52  H   UNL     1      -3.026   1.089   7.804  1.00  0.00     0.167 HD
ATOM     53  C   UNL     1      -4.572  -2.303   7.509  1.00  0.00     0.074 A 
ATOM     54  C   UNL     1      -4.689  -3.722   7.806  1.00  0.00     0.031 C 
ATOM     55  C   UNL     1      -4.370  -1.222   8.320  1.00  0.00     0.037 A 
BRANCH  42  56
ATOM     56  C   UNL     1      -4.192   4.766   6.758  1.00  0.00     0.064 A 
ATOM     57  C   UNL     1      -5.154   5.183   7.711  1.00  0.00     0.173 A 
ATOM     58  C   UNL     1      -3.506   5.823   6.130  1.00  0.00     0.173 A 
ATOM     59  F   UNL     1      -5.821   4.302   8.468  1.00  0.00    -0.203 F 
ATOM     60  C   UNL     1      -5.470   6.525   7.939  1.00  0.00     0.198 A 
ATOM     61  C   UNL     1      -3.836   7.170   6.344  1.00  0.00     0.198 A 
ATOM     62  F   UNL     1      -2.460   5.601   5.329  1.00  0.00    -0.203 F 
ATOM     63  F   UNL     1      -6.411   6.841   8.840  1.00  0.00    -0.200 F 
ATOM     64  C   UNL     1      -4.826   7.520   7.239  1.00  0.00     0.200 A 
ATOM     65  F   UNL     1      -3.179   8.130   5.678  1.00  0.00    -0.200 F 
ATOM     66  F   UNL     1      -5.137   8.806   7.447  1.00  0.00    -0.200 F 
ENDBRANCH  42  56
BRANCH  43  67
ATOM     67  C   UNL     1      -4.883  -4.278   3.187  1.00  0.00     0.064 A 
ATOM     68  C   UNL     1      -5.604  -4.728   2.054  1.00  0.00     0.173 A 
ATOM     69  C   UNL     1      -3.494  -4.171   3.040  1.00  0.00     0.173 A 
ATOM     70  F   UNL     1      -6.940  -4.858   2.119  1.00  0.00    -0.203 F 
ATOM     71  C   UNL     1      -4.988  -4.950   0.821  1.00  0.00     0.198 A 
ATOM     72  C   UNL     1      -2.875  -4.417   1.805  1.00  0.00     0.198 A 
ATOM     73  F   UNL     1      -2.732  -3.752   4.058  1.00  0.00    -0.203 F 
ATOM     74  F   UNL     1      -5.730  -5.257  -0.253  1.00  0.00    -0.200 F 
ATOM     75  C   UNL     1      -3.623  -4.781   0.694  1.00  0.00     0.200 A 
ATOM     76  F   UNL     1      -1.556  -4.214   1.665  1.00  0.00    -0.200 F 
ATOM     77  F   UNL     1      -3.033  -4.912  -0.503  1.00  0.00    -0.200 F 
ENDBRANCH  43  67
BRANCH  55  78
ATOM     78  C   UNL     1      -3.784  -1.291   9.703  1.00  0.00     0.064 A 
ATOM     79  C   UNL     1      -2.896  -2.299  10.105  1.00  0.00     0.173 A 
ATOM     80  C   UNL     1      -3.959  -0.222  10.616  1.00  0.00     0.173 A 
ATOM     81  F   UNL     1      -2.545  -3.293   9.278  1.00  0.00    -0.203 F 
ATOM     82  C   UNL     1      -2.291  -2.284  11.360  1.00  0.00     0.198 A 
ATOM     83  C   UNL     1      -3.288  -0.170  11.832  1.00  0.00     0.198 A 
ATOM     84  F   UNL     1      -4.755   0.822  10.343  1.00  0.00    -0.203 F 
ATOM     85  F   UNL     1      -1.500  -3.303  11.722  1.00  0.00    -0.200 F 
ATOM     86  C   UNL     1      -2.473  -1.214  12.215  1.00  0.00     0.200 A 
ATOM     87  F   UNL     1      -3.421   0.907  12.618  1.00  0.00    -0.200 F 
ATOM     88  F   UNL     1      -1.847  -1.179  13.397  1.00  0.00    -0.200 F 
ENDBRANCH  55  78
ENDBRANCH  29  30
ENDBRANCH  22  24
ENDBRANCH  21  22
ENDBRANCH   1  21
TORSDOF 12
