REMARK SMILES C[C@H]1[C@H](C)CC[C@@]2(C(=O)OCCOC(=O)c3ccc(-c4c5nc(c(-c6c(F)c(F)c(F)c(F)c6F)c6ccc([nH]6)c(-c6c(F)c(F)c(F)c(F)c6F)c6nc(c(-c7c(F)c(F)c(F)c(F)c7F)c7ccc4[nH]7)C=C6)C=C5)cc3)CC[C@@]3(C)C(=CC[C@@H]4[C@@]5(C)CC[C@H](O)C(C)(C)[C@@H]5CC[C@]43C)[C@H]12
REMARK SMILES IDX 12 1 11 2 10 3 8 4 9 5 7 6 1 7 2 8 3 9 101 10 4 11 5 12
REMARK SMILES IDX 83 13 6 14 79 15 81 16 84 17 80 18 82 19 99 20 85 21 86 22
REMARK SMILES IDX 98 23 100 24 87 25 97 26 88 27 89 28 96 29 90 30 93 31 91 32
REMARK SMILES IDX 94 33 95 34 92 35 13 37 14 38 15 39 16 40 17 41 78 42 18 43
REMARK SMILES IDX 77 44 19 45 20 46 21 47 71 48 22 49 76 50 70 51 72 52 23 53
REMARK SMILES IDX 75 54 69 55 68 56 24 58 56 59 36 60 55 61 37 62 40 63 54 64
REMARK SMILES IDX 73 65 38 66 39 67 53 69 74 70 41 71 25 72 26 73 34 74 27 75
REMARK SMILES IDX 28 76 32 77 35 78 29 79 30 80 33 81 31 82 57 83 58 84 66 85
REMARK SMILES IDX 59 86 60 87 64 88 67 89 61 90 62 91 65 92 63 93 42 94 43 95
REMARK SMILES IDX 51 96 44 97 45 98 49 99 52 100 46 101 47 102 50 103 48 104
REMARK H PARENT 92 36 72 57 40 68
REMARK Flexibility Score: inf
ROOT
ATOM      1  C   UNL     1      -3.522   2.463  -1.424  1.00  0.00     0.275 C 
ENDROOT
BRANCH   1   2
ATOM      2  C   UNL     1      -2.299   1.669  -0.926  1.00  0.00     0.274 C 
BRANCH   2   3
ATOM      3  O   UNL     1      -1.345   2.330  -0.065  1.00  0.00    -0.462 OA
BRANCH   3   4
ATOM      4  C   UNL     1      -0.432   3.084  -0.732  1.00  0.00     0.312 C 
ATOM      5  O   UNL     1      -0.675   3.543  -1.821  1.00  0.00    -0.252 OA
BRANCH   4   6
ATOM      6  C   UNL     1       0.987   3.139  -0.118  1.00  0.00     0.075 C 
ATOM      7  C   UNL     1       2.173  -0.602   0.106  1.00  0.00     0.008 C 
ATOM      8  C   UNL     1       1.270   0.618   0.357  1.00  0.00    -0.003 C 
ATOM      9  C   UNL     1       1.237   0.933   1.889  1.00  0.00    -0.011 C 
ATOM     10  C   UNL     1       1.751   1.839  -0.513  1.00  0.00     0.036 C 
ATOM     11  C   UNL     1       0.590  -0.194   2.710  1.00  0.00     0.008 C 
ATOM     12  C   UNL     1       0.490   2.224   2.233  1.00  0.00     0.005 C 
ATOM     13  C   UNL     1       1.662   1.756  -2.078  1.00  0.00    -0.063 C 
ATOM     14  C   UNL     1       0.940   3.403   1.396  1.00  0.00     0.020 C 
ATOM     15  C   UNL     1       1.785   4.327  -0.743  1.00  0.00     0.020 C 
ATOM     16  C   UNL     1       2.335   2.908  -2.905  1.00  0.00    -0.006 C 
ATOM     17  C   UNL     1       0.816   0.886  -2.667  1.00  0.00    -0.027 C 
ATOM     18  C   UNL     1       1.959   4.286  -2.271  1.00  0.00     0.013 C 
ATOM     19  C   UNL     1       3.873   2.777  -2.752  1.00  0.00     0.017 C 
ATOM     20  C   UNL     1       1.917   2.857  -4.522  1.00  0.00    -0.020 C 
ATOM     21  C   UNL     1       0.226   1.051  -4.040  1.00  0.00     0.032 C 
ATOM     22  C   UNL     1       0.393   2.477  -4.609  1.00  0.00     0.006 C 
ATOM     23  C   UNL     1       2.128   4.207  -5.250  1.00  0.00     0.008 C 
ATOM     24  C   UNL     1       2.804   1.821  -5.263  1.00  0.00     0.012 C 
ATOM     25  C   UNL     1      -0.434   2.768  -5.950  1.00  0.00    -0.025 C 
ATOM     26  C   UNL     1       1.486   4.293  -6.649  1.00  0.00     0.005 C 
ATOM     27  C   UNL     1      -0.267   1.613  -6.956  1.00  0.00     0.012 C 
ATOM     28  C   UNL     1      -1.953   2.862  -5.587  1.00  0.00     0.010 C 
ATOM     29  C   UNL     1      -0.043   4.176  -6.530  1.00  0.00     0.003 C 
ATOM     30  C   UNL     1      -2.860   3.331  -6.728  1.00  0.00     0.033 C 
ATOM     31  C   UNL     1      -0.890   4.679  -7.774  1.00  0.00    -0.006 C 
ATOM     32  C   UNL     1      -2.398   4.633  -7.379  1.00  0.00     0.120 C 
ATOM     33  C   UNL     1      -0.628   3.916  -9.086  1.00  0.00     0.014 C 
ATOM     34  C   UNL     1      -0.557   6.162  -8.103  1.00  0.00     0.014 C 
BRANCH  32  35
ATOM     35  O   UNL     1      -3.257   4.946  -8.474  1.00  0.00    -0.393 OA
ATOM     36  H   UNL     1      -3.184   4.255  -9.151  1.00  0.00     0.210 HD
ENDBRANCH  32  35
ENDBRANCH   4   6
ENDBRANCH   3   4
ENDBRANCH   2   3
ENDBRANCH   1   2
BRANCH   1  37
ATOM     37  O   UNL     1      -3.221   3.590  -2.268  1.00  0.00    -0.458 OA
BRANCH  37  38
ATOM     38  C   UNL     1      -3.049   4.776  -1.624  1.00  0.00     0.338 C 
ATOM     39  O   UNL     1      -3.267   4.997  -0.443  1.00  0.00    -0.246 OA
BRANCH  38  40
ATOM     40  C   UNL     1      -2.363   5.745  -2.517  1.00  0.00     0.060 A 
ATOM     41  C   UNL     1      -1.162   6.333  -2.082  1.00  0.00     0.016 A 
ATOM     42  C   UNL     1      -2.862   6.062  -3.771  1.00  0.00     0.016 A 
ATOM     43  C   UNL     1      -0.413   7.181  -2.912  1.00  0.00     0.010 A 
ATOM     44  C   UNL     1      -2.139   6.947  -4.578  1.00  0.00     0.010 A 
ATOM     45  C   UNL     1      -0.902   7.511  -4.171  1.00  0.00    -0.014 A 
BRANCH  45  46
ATOM     46  C   UNL     1      -0.359   8.630  -4.998  1.00  0.00     0.031 A 
ATOM     47  C   UNL     1      -1.281   9.795  -5.171  1.00  0.00     0.074 A 
ATOM     48  C   UNL     1       0.809   8.628  -5.668  1.00  0.00     0.049 A 
ATOM     49  N   UNL     1      -1.379  10.663  -6.138  1.00  0.00    -0.248 NA
ATOM     50  C   UNL     1      -2.279   9.948  -4.099  1.00  0.00     0.031 C 
ATOM     51  C   UNL     1       1.901   7.684  -5.502  1.00  0.00     0.029 A 
ATOM     52  N   UNL     1       1.228   9.429  -6.711  1.00  0.00    -0.354 N 
ATOM     53  C   UNL     1      -2.491  11.425  -5.820  1.00  0.00     0.074 A 
ATOM     54  C   UNL     1      -3.075  10.862  -4.622  1.00  0.00     0.031 C 
ATOM     55  C   UNL     1       2.803   7.863  -6.485  1.00  0.00     0.029 A 
ATOM     56  C   UNL     1       2.346   8.944  -7.353  1.00  0.00     0.049 A 
ATOM     57  H   UNL     1       0.773  10.263  -6.970  1.00  0.00     0.167 HD
ATOM     58  C   UNL     1      -2.961  12.529  -6.444  1.00  0.00     0.037 A 
ATOM     59  C   UNL     1       2.906   9.309  -8.524  1.00  0.00     0.037 A 
ATOM     60  C   UNL     1      -2.322  13.131  -7.577  1.00  0.00     0.049 A 
ATOM     61  C   UNL     1       2.332  10.487  -9.272  1.00  0.00     0.074 A 
ATOM     62  C   UNL     1      -2.671  14.280  -8.261  1.00  0.00     0.029 A 
ATOM     63  N   UNL     1      -1.171  12.636  -8.174  1.00  0.00    -0.354 N 
ATOM     64  N   UNL     1       1.270  11.204  -8.995  1.00  0.00    -0.248 NA
ATOM     65  C   UNL     1       3.058  10.936 -10.471  1.00  0.00     0.031 C 
ATOM     66  C   UNL     1      -1.728  14.481  -9.275  1.00  0.00     0.029 A 
ATOM     67  C   UNL     1      -0.779  13.471  -9.204  1.00  0.00     0.049 A 
ATOM     68  H   UNL     1      -0.704  11.813  -7.905  1.00  0.00     0.167 HD
ATOM     69  C   UNL     1       1.253  12.237  -9.923  1.00  0.00     0.074 A 
ATOM     70  C   UNL     1       2.385  12.030 -10.802  1.00  0.00     0.031 C 
ATOM     71  C   UNL     1       0.393  13.280 -10.018  1.00  0.00     0.037 A 
BRANCH  58  72
ATOM     72  C   UNL     1      -4.209  13.128  -5.874  1.00  0.00     0.064 A 
ATOM     73  C   UNL     1      -4.221  13.713  -4.597  1.00  0.00     0.173 A 
ATOM     74  C   UNL     1      -5.425  13.019  -6.561  1.00  0.00     0.173 A 
ATOM     75  F   UNL     1      -3.084  13.815  -3.890  1.00  0.00    -0.203 F 
ATOM     76  C   UNL     1      -5.416  14.092  -3.996  1.00  0.00     0.198 A 
ATOM     77  C   UNL     1      -6.615  13.439  -5.973  1.00  0.00     0.198 A 
ATOM     78  F   UNL     1      -5.466  12.472  -7.785  1.00  0.00    -0.203 F 
ATOM     79  F   UNL     1      -5.416  14.539  -2.733  1.00  0.00    -0.200 F 
ATOM     80  C   UNL     1      -6.612  13.953  -4.684  1.00  0.00     0.200 A 
ATOM     81  F   UNL     1      -7.770  13.315  -6.639  1.00  0.00    -0.200 F 
ATOM     82  F   UNL     1      -7.766  14.294  -4.095  1.00  0.00    -0.200 F 
ENDBRANCH  58  72
BRANCH  59  83
ATOM     83  C   UNL     1       4.088   8.586  -9.069  1.00  0.00     0.064 A 
ATOM     84  C   UNL     1       5.362   9.171  -9.049  1.00  0.00     0.173 A 
ATOM     85  C   UNL     1       3.958   7.333  -9.688  1.00  0.00     0.173 A 
ATOM     86  F   UNL     1       5.532  10.382  -8.498  1.00  0.00    -0.203 F 
ATOM     87  C   UNL     1       6.454   8.547  -9.652  1.00  0.00     0.198 A 
ATOM     88  C   UNL     1       5.055   6.702 -10.275  1.00  0.00     0.198 A 
ATOM     89  F   UNL     1       2.761   6.732  -9.744  1.00  0.00    -0.203 F 
ATOM     90  F   UNL     1       7.647   9.157  -9.668  1.00  0.00    -0.200 F 
ATOM     91  C   UNL     1       6.300   7.314 -10.266  1.00  0.00     0.200 A 
ATOM     92  F   UNL     1       4.903   5.510 -10.870  1.00  0.00    -0.200 F 
ATOM     93  F   UNL     1       7.345   6.724 -10.862  1.00  0.00    -0.200 F 
ENDBRANCH  59  83
BRANCH  71  94
ATOM     94  C   UNL     1       0.710  14.357 -11.011  1.00  0.00     0.064 A 
ATOM     95  C   UNL     1       0.485  14.197 -12.383  1.00  0.00     0.173 A 
ATOM     96  C   UNL     1       1.165  15.605 -10.555  1.00  0.00     0.173 A 
ATOM     97  F   UNL     1       0.069  13.017 -12.867  1.00  0.00    -0.203 F 
ATOM     98  C   UNL     1       0.705  15.250 -13.267  1.00  0.00     0.198 A 
ATOM     99  C   UNL     1       1.359  16.662 -11.437  1.00  0.00     0.198 A 
ATOM    100  F   UNL     1       1.394  15.805  -9.248  1.00  0.00    -0.203 F 
ATOM    101  F   UNL     1       0.505  15.073 -14.580  1.00  0.00    -0.200 F 
ATOM    102  C   UNL     1       1.129  16.484 -12.793  1.00  0.00     0.200 A 
ATOM    103  F   UNL     1       1.758  17.855 -10.975  1.00  0.00    -0.200 F 
ATOM    104  F   UNL     1       1.318  17.502 -13.643  1.00  0.00    -0.200 F 
ENDBRANCH  71  94
ENDBRANCH  45  46
ENDBRANCH  38  40
ENDBRANCH  37  38
ENDBRANCH   1  37
TORSDOF 12
