REMARK SMILES O=C(OCCOC(=O)[C@H]1C[C@H](O)CN1S(=O)(=O)c1ccc2c(c1)OCCO2)c1ccc(-c2c3nc(c(-c4c(F)c(F)c(F)c(F)c4F)c4ccc([nH]4)c(-c4c(F)c(F)c(F)c(F)c4F)c4nc(c(-c5c(F)c(F)c(F)c(F)c5F)c5ccc2[nH]5)C=C4)C=C3)cc1
REMARK SMILES IDX 4 1 3 2 2 3 1 4 28 5 29 6 90 7 30 8 89 9 31 10 32 11 33 12
REMARK SMILES IDX 83 13 34 14 88 15 82 16 84 17 35 18 87 19 81 20 80 21 36 23
REMARK SMILES IDX 68 24 48 25 67 26 49 27 52 28 66 29 85 30 50 31 51 32 65 34
REMARK SMILES IDX 86 35 53 36 37 37 38 38 46 39 39 40 40 41 44 42 47 43 41 44
REMARK SMILES IDX 42 45 45 46 43 47 69 48 70 49 78 50 71 51 72 52 76 53 79 54
REMARK SMILES IDX 73 55 74 56 77 57 75 58 54 59 55 60 63 61 56 62 57 63 61 64
REMARK SMILES IDX 64 65 58 66 59 67 62 68 60 69 5 70 6 71 7 72 8 73 9 74 10 75
REMARK SMILES IDX 14 76 11 77 13 78 15 79 16 80 17 81 18 82 19 83 23 84 20 85
REMARK SMILES IDX 22 86 21 87 24 88 27 89 25 90 26 91 12 92
REMARK H PARENT 84 22 52 33 12 93
REMARK Flexibility Score: inf
ROOT
ATOM      1  C   UNL     1       3.656   1.413  -1.605  1.00  0.00     0.275 C 
ENDROOT
BRANCH   1   2
ATOM      2  O   UNL     1       2.313   0.896  -1.520  1.00  0.00    -0.458 OA
BRANCH   2   3
ATOM      3  C   UNL     1       1.841  -0.086  -0.716  1.00  0.00     0.338 C 
ATOM      4  O   UNL     1       0.730  -0.575  -0.904  1.00  0.00    -0.246 OA
BRANCH   3   5
ATOM      5  C   UNL     1       2.561  -0.541   0.503  1.00  0.00     0.060 A 
ATOM      6  C   UNL     1       4.187   0.040   1.068  1.00  0.00     0.016 A 
ATOM      7  C   UNL     1       1.795  -1.869   1.458  1.00  0.00     0.016 A 
ATOM      8  C   UNL     1       4.886  -0.471   2.608  1.00  0.00     0.010 A 
ATOM      9  C   UNL     1       2.638  -2.499   2.987  1.00  0.00     0.010 A 
ATOM     10  C   UNL     1       4.133  -1.735   3.586  1.00  0.00    -0.014 A 
BRANCH  10  11
ATOM     11  C   UNL     1       4.918  -2.112   4.819  1.00  0.00     0.031 A 
ATOM     12  C   UNL     1       5.638  -3.433   4.948  1.00  0.00     0.074 A 
ATOM     13  C   UNL     1       5.214  -1.153   5.721  1.00  0.00     0.049 A 
ATOM     14  N   UNL     1       6.570  -3.825   5.787  1.00  0.00    -0.248 NA
ATOM     15  C   UNL     1       5.291  -4.451   3.967  1.00  0.00     0.031 C 
ATOM     16  C   UNL     1       4.704   0.216   5.697  1.00  0.00     0.029 A 
ATOM     17  N   UNL     1       6.052  -1.165   6.814  1.00  0.00    -0.354 N 
ATOM     18  C   UNL     1       6.963  -5.094   5.356  1.00  0.00     0.074 A 
ATOM     19  C   UNL     1       6.170  -5.410   4.196  1.00  0.00     0.031 C 
ATOM     20  C   UNL     1       5.261   0.920   6.694  1.00  0.00     0.029 A 
ATOM     21  C   UNL     1       6.117   0.037   7.479  1.00  0.00     0.049 A 
ATOM     22  H   UNL     1       6.558  -1.962   7.093  1.00  0.00     0.167 HD
ATOM     23  C   UNL     1       7.874  -5.946   5.887  1.00  0.00     0.037 A 
ATOM     24  C   UNL     1       6.763   0.383   8.611  1.00  0.00     0.037 A 
ATOM     25  C   UNL     1       8.568  -5.707   7.120  1.00  0.00     0.049 A 
ATOM     26  C   UNL     1       7.625  -0.645   9.302  1.00  0.00     0.074 A 
ATOM     27  C   UNL     1       9.394  -6.557   7.832  1.00  0.00     0.029 A 
ATOM     28  N   UNL     1       8.483  -4.528   7.841  1.00  0.00    -0.354 N 
ATOM     29  N   UNL     1       7.952  -1.852   8.910  1.00  0.00    -0.248 NA
ATOM     30  C   UNL     1       8.199  -0.264  10.600  1.00  0.00     0.031 C 
ATOM     31  C   UNL     1       9.763  -5.910   9.017  1.00  0.00     0.029 A 
ATOM     32  C   UNL     1       9.223  -4.634   9.005  1.00  0.00     0.049 A 
ATOM     33  H   UNL     1       7.973  -3.732   7.566  1.00  0.00     0.167 HD
ATOM     34  C   UNL     1       8.786  -2.363   9.896  1.00  0.00     0.074 A 
ATOM     35  C   UNL     1       8.938  -1.324  10.892  1.00  0.00     0.031 C 
ATOM     36  C   UNL     1       9.369  -3.584   9.978  1.00  0.00     0.037 A 
BRANCH  23  37
ATOM     37  C   UNL     1       8.085  -7.256   5.179  1.00  0.00     0.064 A 
ATOM     38  C   UNL     1       8.777  -7.332   3.959  1.00  0.00     0.173 A 
ATOM     39  C   UNL     1       7.574  -8.448   5.715  1.00  0.00     0.173 A 
ATOM     40  F   UNL     1       9.269  -6.220   3.392  1.00  0.00    -0.203 F 
ATOM     41  C   UNL     1       8.925  -8.547   3.293  1.00  0.00     0.198 A 
ATOM     42  C   UNL     1       7.747  -9.664   5.059  1.00  0.00     0.198 A 
ATOM     43  F   UNL     1       6.900  -8.433   6.875  1.00  0.00    -0.203 F 
ATOM     44  F   UNL     1       9.545  -8.588   2.105  1.00  0.00    -0.200 F 
ATOM     45  C   UNL     1       8.414  -9.712   3.845  1.00  0.00     0.200 A 
ATOM     46  F   UNL     1       7.257 -10.790   5.598  1.00  0.00    -0.200 F 
ATOM     47  F   UNL     1       8.553 -10.879   3.201  1.00  0.00    -0.200 F 
ENDBRANCH  23  37
BRANCH  24  48
ATOM     48  C   UNL     1       6.553   1.730   9.222  1.00  0.00     0.064 A 
ATOM     49  C   UNL     1       7.615   2.619   9.446  1.00  0.00     0.173 A 
ATOM     50  C   UNL     1       5.280   2.123   9.668  1.00  0.00     0.173 A 
ATOM     51  F   UNL     1       8.858   2.288   9.067  1.00  0.00    -0.203 F 
ATOM     52  C   UNL     1       7.418   3.823  10.123  1.00  0.00     0.198 A 
ATOM     53  C   UNL     1       5.077   3.345  10.304  1.00  0.00     0.198 A 
ATOM     54  F   UNL     1       4.224   1.315   9.488  1.00  0.00    -0.203 F 
ATOM     55  F   UNL     1       8.464   4.617  10.392  1.00  0.00    -0.200 F 
ATOM     56  C   UNL     1       6.149   4.187  10.547  1.00  0.00     0.200 A 
ATOM     57  F   UNL     1       3.844   3.696  10.694  1.00  0.00    -0.200 F 
ATOM     58  F   UNL     1       5.962   5.340  11.203  1.00  0.00    -0.200 F 
ENDBRANCH  24  48
BRANCH  36  59
ATOM     59  C   UNL     1      10.254  -3.852  11.160  1.00  0.00     0.064 A 
ATOM     60  C   UNL     1       9.736  -3.990  12.456  1.00  0.00     0.173 A 
ATOM     61  C   UNL     1      11.637  -4.018  10.984  1.00  0.00     0.173 A 
ATOM     62  F   UNL     1       8.422  -3.830  12.679  1.00  0.00    -0.203 F 
ATOM     63  C   UNL     1      10.573  -4.249  13.537  1.00  0.00     0.198 A 
ATOM     64  C   UNL     1      12.466  -4.315  12.061  1.00  0.00     0.198 A 
ATOM     65  F   UNL     1      12.181  -3.908   9.763  1.00  0.00    -0.203 F 
ATOM     66  F   UNL     1      10.063  -4.319  14.774  1.00  0.00    -0.200 F 
ATOM     67  C   UNL     1      11.935  -4.420  13.338  1.00  0.00     0.200 A 
ATOM     68  F   UNL     1      13.778  -4.499  11.863  1.00  0.00    -0.200 F 
ATOM     69  F   UNL     1      12.738  -4.679  14.378  1.00  0.00    -0.200 F 
ENDBRANCH  36  59
ENDBRANCH  10  11
ENDBRANCH   3   5
ENDBRANCH   2   3
ENDBRANCH   1   2
BRANCH   1  70
ATOM     70  C   UNL     1       3.879   2.703  -0.776  1.00  0.00     0.274 C 
BRANCH  70  71
ATOM     71  O   UNL     1       3.791   2.520   0.655  1.00  0.00    -0.461 OA
BRANCH  71  72
ATOM     72  C   UNL     1       2.564   2.178   1.141  1.00  0.00     0.324 C 
ATOM     73  O   UNL     1       1.520   2.510   0.595  1.00  0.00    -0.250 OA
BRANCH  72  74
ATOM     74  C   UNL     1       2.671   1.289   2.401  1.00  0.00     0.185 C 
ATOM     75  C   UNL     1       1.364   1.634   3.199  1.00  0.00     0.065 C 
ATOM     76  N   UNL     1       2.810  -0.535   2.503  1.00  0.00    -0.181 NA
ATOM     77  C   UNL     1       0.464   0.436   3.118  1.00  0.00     0.131 C 
ATOM     78  C   UNL     1       1.391  -0.679   3.563  1.00  0.00     0.135 C 
BRANCH  76  79
ATOM     79  S   UNL     1       4.005  -2.231   1.185  1.00  0.00     0.244 S 
ATOM     80  O   UNL     1       4.002  -2.012  -0.279  1.00  0.00    -0.207 OA
ATOM     81  O   UNL     1       5.365  -2.517   1.677  1.00  0.00    -0.207 OA
BRANCH  79  82
ATOM     82  C   UNL     1       3.361  -4.143   1.080  1.00  0.00     0.086 A 
ATOM     83  C   UNL     1       4.411  -5.027   0.738  1.00  0.00     0.026 A 
ATOM     84  C   UNL     1       2.097  -4.686   1.354  1.00  0.00     0.072 A 
ATOM     85  C   UNL     1       4.233  -6.412   0.807  1.00  0.00     0.052 A 
ATOM     86  C   UNL     1       1.943  -6.070   1.468  1.00  0.00     0.162 A 
ATOM     87  C   UNL     1       3.005  -6.934   1.199  1.00  0.00     0.161 A 
ATOM     88  O   UNL     1       0.711  -6.500   1.895  1.00  0.00    -0.486 OA
ATOM     89  O   UNL     1       2.914  -8.294   1.328  1.00  0.00    -0.486 OA
ATOM     90  C   UNL     1       0.774  -7.839   2.398  1.00  0.00     0.271 C 
ATOM     91  C   UNL     1       1.552  -8.727   1.442  1.00  0.00     0.271 C 
ENDBRANCH  79  82
ENDBRANCH  76  79
BRANCH  77  92
ATOM     92  O   UNL     1      -0.678   0.580   3.951  1.00  0.00    -0.392 OA
ATOM     93  H   UNL     1      -0.394   0.741   4.865  1.00  0.00     0.211 HD
ENDBRANCH  77  92
ENDBRANCH  72  74
ENDBRANCH  71  72
ENDBRANCH  70  71
ENDBRANCH   1  70
TORSDOF 14
