REMARK SMILES CC(C)C[C@H](NC(=O)CNC(=O)[C@@H]([NH3+])C(C)C)C(=O)OCCOC(=O)c1ccc(-c2c3nc(c(-c4c(F)c(F)c(F)c(F)c4F)c4ccc([nH]4)c(-c4c(F)c(F)c(F)c(F)c4F)c4nc(c(-c5c(F)c(F)c(F)c(F)c5F)c5ccc2[nH]5)C=C4)C=C3)cc1
REMARK SMILES IDX 20 1 18 2 19 3 5 4 4 5 2 6 1 7 3 8 6 9 7 10 8 12 9 13 10 14
REMARK SMILES IDX 11 15 12 17 13 18 14 19 15 23 16 24 17 25 21 26 22 27 23 28
REMARK SMILES IDX 24 29 25 30 26 31 27 32 88 33 28 34 87 35 29 36 30 37 31 38
REMARK SMILES IDX 81 39 32 40 86 41 80 42 82 43 33 44 85 45 79 46 78 47 34 49
REMARK SMILES IDX 66 50 46 51 65 52 47 53 50 54 64 55 83 56 48 57 49 58 63 60
REMARK SMILES IDX 84 61 51 62 35 63 36 64 44 65 37 66 38 67 42 68 45 69 39 70
REMARK SMILES IDX 40 71 43 72 41 73 67 74 68 75 76 76 69 77 70 78 74 79 77 80
REMARK SMILES IDX 71 81 72 82 75 83 73 84 52 85 53 86 61 87 54 88 55 89 59 90
REMARK SMILES IDX 62 91 56 92 57 93 60 94 58 95
REMARK H PARENT 6 11 10 16 14 20 14 21 14 22 82 48 50 59
REMARK Flexibility Score: inf
ROOT
ATOM      1  O   UNL     1      -3.956  -0.013   2.125  1.00  0.00    -0.461 OA
ENDROOT
BRANCH   1   2
ATOM      2  C   UNL     1      -3.436  -1.066   1.438  1.00  0.00     0.328 C 
ATOM      3  O   UNL     1      -4.094  -1.792   0.698  1.00  0.00    -0.250 OA
BRANCH   2   4
ATOM      4  C   UNL     1      -1.963  -1.351   1.771  1.00  0.00     0.192 C 
BRANCH   4   5
ATOM      5  C   UNL     1      -1.876  -2.437   2.859  1.00  0.00     0.040 C 
BRANCH   5   6
ATOM      6  C   UNL     1      -2.685  -3.737   2.645  1.00  0.00    -0.015 C 
ATOM      7  C   UNL     1      -2.505  -4.406   1.283  1.00  0.00     0.007 C 
ATOM      8  C   UNL     1      -2.310  -4.750   3.731  1.00  0.00     0.007 C 
ENDBRANCH   5   6
ENDBRANCH   4   5
BRANCH   4   9
ATOM      9  N   UNL     1      -1.213  -0.162   2.186  1.00  0.00    -0.341 N 
ATOM     10  C   UNL     1       0.084   0.182   1.913  1.00  0.00     0.240 C 
ATOM     11  H   UNL     1      -1.713   0.481   2.739  1.00  0.00     0.164 HD
ATOM     12  O   UNL     1       0.507   1.255   2.351  1.00  0.00    -0.273 OA
BRANCH  10  13
ATOM     13  C   UNL     1       0.985  -0.725   1.049  1.00  0.00     0.216 C 
BRANCH  13  14
ATOM     14  N   UNL     1       1.257  -1.994   1.707  1.00  0.00    -0.342 N 
ATOM     15  C   UNL     1       1.222  -3.283   1.280  1.00  0.00     0.278 C 
ATOM     16  H   UNL     1       1.518  -1.900   2.651  1.00  0.00     0.164 HD
ATOM     17  O   UNL     1       1.422  -4.148   2.142  1.00  0.00    -0.268 OA
BRANCH  15  18
ATOM     18  C   UNL     1       0.995  -3.716  -0.194  1.00  0.00     0.273 C 
BRANCH  18  19
ATOM     19  N   UNL     1      -0.037  -2.899  -0.864  1.00  0.00    -0.347 N 
ATOM     20  H   UNL     1       0.276  -1.929  -0.914  1.00  0.00     0.345 HD
ATOM     21  H   UNL     1      -0.907  -2.948  -0.333  1.00  0.00     0.345 HD
ATOM     22  H   UNL     1      -0.194  -3.256  -1.806  1.00  0.00     0.345 HD
ENDBRANCH  18  19
BRANCH  18  23
ATOM     23  C   UNL     1       2.322  -3.795  -0.983  1.00  0.00     0.051 C 
ATOM     24  C   UNL     1       3.200  -4.929  -0.430  1.00  0.00     0.014 C 
ATOM     25  C   UNL     1       2.095  -4.057  -2.480  1.00  0.00     0.014 C 
ENDBRANCH  18  23
ENDBRANCH  15  18
ENDBRANCH  13  14
ENDBRANCH  10  13
ENDBRANCH   4   9
ENDBRANCH   2   4
ENDBRANCH   1   2
BRANCH   1  26
ATOM     26  C   UNL     1      -5.374   0.170   1.941  1.00  0.00     0.274 C 
BRANCH  26  27
ATOM     27  C   UNL     1      -5.720   1.138   0.802  1.00  0.00     0.275 C 
BRANCH  27  28
ATOM     28  O   UNL     1      -5.296   0.671  -0.494  1.00  0.00    -0.458 OA
BRANCH  28  29
ATOM     29  C   UNL     1      -4.030   1.015  -0.834  1.00  0.00     0.338 C 
ATOM     30  O   UNL     1      -3.247   1.668  -0.165  1.00  0.00    -0.246 OA
BRANCH  29  31
ATOM     31  C   UNL     1      -3.635   0.370  -2.100  1.00  0.00     0.060 A 
ATOM     32  C   UNL     1      -2.407  -0.302  -2.130  1.00  0.00     0.016 A 
ATOM     33  C   UNL     1      -4.398   0.494  -3.262  1.00  0.00     0.016 A 
ATOM     34  C   UNL     1      -1.935  -0.849  -3.321  1.00  0.00     0.010 A 
ATOM     35  C   UNL     1      -3.918  -0.048  -4.461  1.00  0.00     0.010 A 
ATOM     36  C   UNL     1      -2.679  -0.713  -4.499  1.00  0.00    -0.014 A 
BRANCH  36  37
ATOM     37  C   UNL     1      -2.128  -1.204  -5.784  1.00  0.00     0.031 A 
ATOM     38  C   UNL     1      -1.498  -0.234  -6.741  1.00  0.00     0.074 A 
ATOM     39  C   UNL     1      -2.183  -2.513  -6.091  1.00  0.00     0.049 A 
ATOM     40  N   UNL     1      -1.070  -0.433  -7.962  1.00  0.00    -0.248 NA
ATOM     41  C   UNL     1      -1.323   1.143  -6.255  1.00  0.00     0.031 C 
ATOM     42  C   UNL     1      -2.713  -3.561  -5.222  1.00  0.00     0.029 A 
ATOM     43  N   UNL     1      -1.802  -3.179  -7.230  1.00  0.00    -0.354 N 
ATOM     44  C   UNL     1      -0.596   0.796  -8.399  1.00  0.00     0.074 A 
ATOM     45  C   UNL     1      -0.790   1.736  -7.314  1.00  0.00     0.031 C 
ATOM     46  C   UNL     1      -2.643  -4.738  -5.867  1.00  0.00     0.029 A 
ATOM     47  C   UNL     1      -2.109  -4.516  -7.210  1.00  0.00     0.049 A 
ATOM     48  H   UNL     1      -1.351  -2.739  -7.987  1.00  0.00     0.167 HD
ATOM     49  C   UNL     1      -0.052   1.110  -9.598  1.00  0.00     0.037 A 
ATOM     50  C   UNL     1      -2.014  -5.446  -8.181  1.00  0.00     0.037 A 
ATOM     51  C   UNL     1       0.154   0.172 -10.670  1.00  0.00     0.049 A 
ATOM     52  C   UNL     1      -1.485  -5.052  -9.536  1.00  0.00     0.074 A 
ATOM     53  C   UNL     1       0.724   0.392 -11.912  1.00  0.00     0.029 A 
ATOM     54  N   UNL     1      -0.209  -1.165 -10.627  1.00  0.00    -0.354 N 
ATOM     55  N   UNL     1      -1.041  -3.889  -9.944  1.00  0.00    -0.248 NA
ATOM     56  C   UNL     1      -1.458  -6.098 -10.569  1.00  0.00     0.031 C 
ATOM     57  C   UNL     1       0.665  -0.803 -12.638  1.00  0.00     0.029 A 
ATOM     58  C   UNL     1       0.097  -1.776 -11.833  1.00  0.00     0.049 A 
ATOM     59  H   UNL     1      -0.622  -1.615  -9.855  1.00  0.00     0.167 HD
ATOM     60  C   UNL     1      -0.668  -4.066 -11.270  1.00  0.00     0.074 A 
ATOM     61  C   UNL     1      -0.924  -5.453 -11.596  1.00  0.00     0.031 C 
ATOM     62  C   UNL     1      -0.162  -3.159 -12.141  1.00  0.00     0.037 A 
BRANCH  49  63
ATOM     63  C   UNL     1       0.328   2.541  -9.835  1.00  0.00     0.064 A 
ATOM     64  C   UNL     1       1.467   3.109  -9.249  1.00  0.00     0.173 A 
ATOM     65  C   UNL     1      -0.439   3.339 -10.697  1.00  0.00     0.173 A 
ATOM     66  F   UNL     1       2.224   2.389  -8.407  1.00  0.00    -0.203 F 
ATOM     67  C   UNL     1       1.817   4.433  -9.505  1.00  0.00     0.198 A 
ATOM     68  C   UNL     1      -0.074   4.654 -10.969  1.00  0.00     0.198 A 
ATOM     69  F   UNL     1      -1.536   2.838 -11.285  1.00  0.00    -0.203 F 
ATOM     70  F   UNL     1       2.891   4.968  -8.909  1.00  0.00    -0.200 F 
ATOM     71  C   UNL     1       1.050   5.201 -10.370  1.00  0.00     0.200 A 
ATOM     72  F   UNL     1      -0.810   5.391 -11.812  1.00  0.00    -0.200 F 
ATOM     73  F   UNL     1       1.392   6.472 -10.621  1.00  0.00    -0.200 F 
ENDBRANCH  49  63
BRANCH  50  74
ATOM     74  C   UNL     1      -2.481  -6.833  -7.928  1.00  0.00     0.064 A 
ATOM     75  C   UNL     1      -1.576  -7.902  -7.868  1.00  0.00     0.173 A 
ATOM     76  C   UNL     1      -3.844  -7.121  -7.764  1.00  0.00     0.173 A 
ATOM     77  F   UNL     1      -0.266  -7.680  -8.048  1.00  0.00    -0.203 F 
ATOM     78  C   UNL     1      -2.019  -9.208  -7.667  1.00  0.00     0.198 A 
ATOM     79  C   UNL     1      -4.283  -8.422  -7.537  1.00  0.00     0.198 A 
ATOM     80  F   UNL     1      -4.750  -6.133  -7.820  1.00  0.00    -0.203 F 
ATOM     81  F   UNL     1      -1.139 -10.217  -7.658  1.00  0.00    -0.200 F 
ATOM     82  C   UNL     1      -3.372  -9.466  -7.496  1.00  0.00     0.200 A 
ATOM     83  F   UNL     1      -5.589  -8.666  -7.362  1.00  0.00    -0.200 F 
ATOM     84  F   UNL     1      -3.796 -10.722  -7.301  1.00  0.00    -0.200 F 
ENDBRANCH  50  74
BRANCH  62  85
ATOM     85  C   UNL     1       0.169  -3.638 -13.523  1.00  0.00     0.064 A 
ATOM     86  C   UNL     1      -0.834  -3.894 -14.469  1.00  0.00     0.173 A 
ATOM     87  C   UNL     1       1.506  -3.791 -13.922  1.00  0.00     0.173 A 
ATOM     88  F   UNL     1      -2.127  -3.778 -14.129  1.00  0.00    -0.203 F 
ATOM     89  C   UNL     1      -0.511  -4.300 -15.761  1.00  0.00     0.198 A 
ATOM     90  C   UNL     1       1.825  -4.173 -15.222  1.00  0.00     0.198 A 
ATOM     91  F   UNL     1       2.501  -3.554 -13.056  1.00  0.00    -0.203 F 
ATOM     92  F   UNL     1      -1.486  -4.572 -16.640  1.00  0.00    -0.200 F 
ATOM     93  C   UNL     1       0.817  -4.431 -16.139  1.00  0.00     0.200 A 
ATOM     94  F   UNL     1       3.109  -4.289 -15.589  1.00  0.00    -0.200 F 
ATOM     95  F   UNL     1       1.126  -4.811 -17.387  1.00  0.00    -0.200 F 
ENDBRANCH  62  85
ENDBRANCH  36  37
ENDBRANCH  29  31
ENDBRANCH  28  29
ENDBRANCH  27  28
ENDBRANCH  26  27
ENDBRANCH   1  26
TORSDOF 19
