REMARK SMILES COC(=O)c1ccc(NC(=O)[C@@H]2CC=CC[C@@H]2C(=O)OCCOC(=O)c2ccc(-c3c4nc(c(-c5c(F)c(F)c(F)c(F)c5F)c5ccc([nH]5)c(-c5c(F)c(F)c(F)c(F)c5F)c5nc(c(-c6c(F)c(F)c(F)c(F)c6F)c6ccc3[nH]6)C=C5)C=C4)cc2)c(C)c1
REMARK SMILES IDX 21 1 20 2 18 3 19 4 17 5 12 6 13 7 14 8 16 9 15 10 10 11
REMARK SMILES IDX 9 12 11 14 8 15 5 16 6 17 91 18 7 19 89 20 90 21 3 22 4 23
REMARK SMILES IDX 2 24 1 25 22 26 23 27 24 28 25 29 26 30 27 31 88 32 28 33
REMARK SMILES IDX 87 34 29 35 30 36 31 37 81 38 32 39 86 40 80 41 82 42 33 43
REMARK SMILES IDX 85 44 79 45 78 46 34 48 66 49 46 50 65 51 47 52 50 53 64 54
REMARK SMILES IDX 83 55 48 56 49 57 63 59 84 60 51 61 35 62 36 63 44 64 37 65
REMARK SMILES IDX 38 66 42 67 45 68 39 69 40 70 43 71 41 72 67 73 68 74 76 75
REMARK SMILES IDX 69 76 70 77 74 78 77 79 71 80 72 81 75 82 73 83 52 84 53 85
REMARK SMILES IDX 61 86 54 87 55 88 59 89 62 90 56 91 57 92 60 93 58 94
REMARK H PARENT 9 13 82 47 50 58
REMARK Flexibility Score: inf
ROOT
ATOM      1  C   UNL     1       2.160  -0.981   6.386  1.00  0.00     0.274 C 
ENDROOT
BRANCH   1   2
ATOM      2  O   UNL     1       3.468  -0.419   6.149  1.00  0.00    -0.462 OA
BRANCH   2   3
ATOM      3  C   UNL     1       3.497   0.491   5.119  1.00  0.00     0.310 C 
ATOM      4  O   UNL     1       2.485   0.945   4.595  1.00  0.00    -0.252 OA
BRANCH   3   5
ATOM      5  C   UNL     1       4.904   0.671   4.545  1.00  0.00     0.116 C 
ATOM      6  C   UNL     1       5.833   1.794   5.061  1.00  0.00     0.097 C 
ATOM      7  C   UNL     1       5.317   3.214   4.766  1.00  0.00     0.041 C 
ATOM      8  C   UNL     1       4.681   3.334   3.414  1.00  0.00    -0.030 C 
ATOM      9  C   UNL     1       4.744   0.860   3.014  1.00  0.00     0.043 C 
ATOM     10  C   UNL     1       4.449   2.283   2.615  1.00  0.00    -0.030 C 
BRANCH   6  11
ATOM     11  C   UNL     1       6.279   1.662   6.506  1.00  0.00     0.228 C 
ATOM     12  N   UNL     1       7.312   0.881   6.926  1.00  0.00    -0.326 N 
ATOM     13  H   UNL     1       7.266   0.596   7.867  1.00  0.00     0.169 HD
ATOM     14  O   UNL     1       5.771   2.358   7.386  1.00  0.00    -0.274 OA
BRANCH  12  15
ATOM     15  C   UNL     1       8.433   0.424   6.216  1.00  0.00     0.044 A 
ATOM     16  C   UNL     1      10.730  -0.011   4.690  1.00  0.00     0.060 A 
ATOM     17  C   UNL     1       9.480  -0.250   4.133  1.00  0.00     0.018 A 
ATOM     18  C   UNL     1      10.847   0.368   6.032  1.00  0.00     0.021 A 
ATOM     19  C   UNL     1       8.344  -0.060   4.909  1.00  0.00     0.027 A 
ATOM     20  C   UNL     1       9.701   0.550   6.823  1.00  0.00    -0.027 A 
ATOM     21  C   UNL     1       9.883   0.997   8.251  1.00  0.00     0.046 C 
BRANCH  16  22
ATOM     22  C   UNL     1      11.915  -0.124   3.818  1.00  0.00     0.337 C 
ATOM     23  O   UNL     1      11.953   0.433   2.729  1.00  0.00    -0.246 OA
BRANCH  22  24
ATOM     24  O   UNL     1      12.945  -0.833   4.335  1.00  0.00    -0.465 OA
ATOM     25  C   UNL     1      12.638  -2.087   4.959  1.00  0.00     0.282 C 
ENDBRANCH  22  24
ENDBRANCH  16  22
ENDBRANCH  12  15
ENDBRANCH   6  11
ENDBRANCH   3   5
ENDBRANCH   2   3
ENDBRANCH   1   2
BRANCH   1  26
ATOM     26  C   UNL     1       1.880  -1.433   7.828  1.00  0.00     0.275 C 
BRANCH  26  27
ATOM     27  O   UNL     1       2.726  -0.891   8.862  1.00  0.00    -0.458 OA
BRANCH  27  28
ATOM     28  C   UNL     1       2.761   0.403   9.261  1.00  0.00     0.338 C 
ATOM     29  O   UNL     1       3.488   0.797  10.160  1.00  0.00    -0.246 OA
BRANCH  28  30
ATOM     30  C   UNL     1       1.972   1.354   8.466  1.00  0.00     0.060 A 
ATOM     31  C   UNL     1       2.678   2.250   7.671  1.00  0.00     0.016 A 
ATOM     32  C   UNL     1       0.582   1.320   8.429  1.00  0.00     0.016 A 
ATOM     33  C   UNL     1       2.025   3.015   6.720  1.00  0.00     0.010 A 
ATOM     34  C   UNL     1      -0.081   2.089   7.479  1.00  0.00     0.010 A 
ATOM     35  C   UNL     1       0.642   2.907   6.598  1.00  0.00    -0.014 A 
BRANCH  35  36
ATOM     36  C   UNL     1      -0.075   3.889   5.792  1.00  0.00     0.031 A 
ATOM     37  C   UNL     1      -0.093   3.881   4.308  1.00  0.00     0.074 A 
ATOM     38  C   UNL     1      -0.471   4.989   6.470  1.00  0.00     0.049 A 
ATOM     39  N   UNL     1       0.005   4.955   3.590  1.00  0.00    -0.248 NA
ATOM     40  C   UNL     1      -0.192   2.665   3.504  1.00  0.00     0.031 C 
ATOM     41  C   UNL     1      -1.175   6.153   5.967  1.00  0.00     0.029 A 
ATOM     42  N   UNL     1      -0.018   5.375   7.738  1.00  0.00    -0.354 N 
ATOM     43  C   UNL     1      -0.299   4.618   2.291  1.00  0.00     0.074 A 
ATOM     44  C   UNL     1      -0.327   3.172   2.268  1.00  0.00     0.031 C 
ATOM     45  C   UNL     1      -0.843   7.201   6.741  1.00  0.00     0.029 A 
ATOM     46  C   UNL     1       0.163   6.757   7.697  1.00  0.00     0.049 A 
ATOM     47  H   UNL     1       0.142   4.785   8.509  1.00  0.00     0.167 HD
ATOM     48  C   UNL     1      -0.654   5.591   1.403  1.00  0.00     0.037 A 
ATOM     49  C   UNL     1       1.352   7.359   7.982  1.00  0.00     0.037 A 
ATOM     50  C   UNL     1      -0.577   6.922   1.990  1.00  0.00     0.049 A 
ATOM     51  C   UNL     1       1.880   8.189   6.835  1.00  0.00     0.074 A 
ATOM     52  C   UNL     1      -1.511   7.722   2.628  1.00  0.00     0.029 A 
ATOM     53  N   UNL     1       0.659   7.475   2.270  1.00  0.00    -0.354 N 
ATOM     54  N   UNL     1       1.348   8.207   5.645  1.00  0.00    -0.248 NA
ATOM     55  C   UNL     1       3.116   8.969   6.902  1.00  0.00     0.031 C 
ATOM     56  C   UNL     1      -0.822   8.762   3.303  1.00  0.00     0.029 A 
ATOM     57  C   UNL     1       0.529   8.598   3.070  1.00  0.00     0.049 A 
ATOM     58  H   UNL     1       1.517   7.118   1.945  1.00  0.00     0.167 HD
ATOM     59  C   UNL     1       2.093   9.007   4.825  1.00  0.00     0.074 A 
ATOM     60  C   UNL     1       3.221   9.415   5.639  1.00  0.00     0.031 C 
ATOM     61  C   UNL     1       1.717   9.283   3.544  1.00  0.00     0.037 A 
BRANCH  48  62
ATOM     62  C   UNL     1      -1.365   5.294   0.108  1.00  0.00     0.064 A 
ATOM     63  C   UNL     1      -2.502   6.037  -0.276  1.00  0.00     0.173 A 
ATOM     64  C   UNL     1      -0.998   4.257  -0.766  1.00  0.00     0.173 A 
ATOM     65  F   UNL     1      -2.929   7.085   0.439  1.00  0.00    -0.203 F 
ATOM     66  C   UNL     1      -3.267   5.712  -1.397  1.00  0.00     0.198 A 
ATOM     67  C   UNL     1      -1.783   3.913  -1.876  1.00  0.00     0.198 A 
ATOM     68  F   UNL     1       0.128   3.557  -0.564  1.00  0.00    -0.203 F 
ATOM     69  F   UNL     1      -4.354   6.439  -1.694  1.00  0.00    -0.200 F 
ATOM     70  C   UNL     1      -2.924   4.632  -2.182  1.00  0.00     0.200 A 
ATOM     71  F   UNL     1      -1.436   2.867  -2.641  1.00  0.00    -0.200 F 
ATOM     72  F   UNL     1      -3.688   4.288  -3.228  1.00  0.00    -0.200 F 
ENDBRANCH  48  62
BRANCH  49  73
ATOM     73  C   UNL     1       2.207   6.651   8.973  1.00  0.00     0.064 A 
ATOM     74  C   UNL     1       1.701   6.425  10.269  1.00  0.00     0.173 A 
ATOM     75  C   UNL     1       3.372   5.967   8.612  1.00  0.00     0.173 A 
ATOM     76  F   UNL     1       0.605   7.078  10.685  1.00  0.00    -0.203 F 
ATOM     77  C   UNL     1       2.263   5.469  11.113  1.00  0.00     0.198 A 
ATOM     78  C   UNL     1       3.958   5.041   9.478  1.00  0.00     0.198 A 
ATOM     79  F   UNL     1       3.902   6.127   7.391  1.00  0.00    -0.203 F 
ATOM     80  F   UNL     1       1.693   5.203  12.297  1.00  0.00    -0.200 F 
ATOM     81  C   UNL     1       3.380   4.761  10.707  1.00  0.00     0.200 A 
ATOM     82  F   UNL     1       5.059   4.383   9.097  1.00  0.00    -0.200 F 
ATOM     83  F   UNL     1       3.889   3.802  11.492  1.00  0.00    -0.200 F 
ENDBRANCH  49  73
BRANCH  61  84
ATOM     84  C   UNL     1       2.403  10.283   2.660  1.00  0.00     0.064 A 
ATOM     85  C   UNL     1       2.920  11.495   3.146  1.00  0.00     0.173 A 
ATOM     86  C   UNL     1       2.434  10.117   1.258  1.00  0.00     0.173 A 
ATOM     87  F   UNL     1       2.839  11.810   4.447  1.00  0.00    -0.203 F 
ATOM     88  C   UNL     1       3.500  12.441   2.300  1.00  0.00     0.198 A 
ATOM     89  C   UNL     1       2.961  11.089   0.410  1.00  0.00     0.198 A 
ATOM     90  F   UNL     1       1.962   9.007   0.674  1.00  0.00    -0.203 F 
ATOM     91  F   UNL     1       4.034  13.555   2.818  1.00  0.00    -0.200 F 
ATOM     92  C   UNL     1       3.512  12.242   0.932  1.00  0.00     0.200 A 
ATOM     93  F   UNL     1       2.930  10.900  -0.917  1.00  0.00    -0.200 F 
ATOM     94  F   UNL     1       4.046  13.163   0.119  1.00  0.00    -0.200 F 
ENDBRANCH  61  84
ENDBRANCH  35  36
ENDBRANCH  28  30
ENDBRANCH  27  28
ENDBRANCH  26  27
ENDBRANCH   1  26
TORSDOF 15
