REMARK SMILES Cc1ccc(C)c(N2C(=O)S[C@H](CC(=O)Nc3ccc(C(=O)OCCOC(=O)c4ccc(-c5c6nc(c(-c7c(F)c(F)c(F)c(F)c7F)c7ccc([nH]7)c(-c7c(F)c(F)c(F)c(F)c7F)c7nc(c(-c8c(F)c(F)c(F)c(F)c8F)c8ccc5[nH]8)C=C7)C=C6)cc4)c(O)c3)C2=O)c1
REMARK SMILES IDX 24 1 23 2 21 3 22 4 20 5 17 6 18 7 94 8 19 9 92 10 16 11
REMARK SMILES IDX 14 12 15 13 13 15 12 16 8 17 9 18 95 19 10 20 11 21 96 22
REMARK SMILES IDX 7 23 1 24 2 25 3 26 97 27 4 28 5 29 6 30 93 31 25 33 26 34
REMARK SMILES IDX 27 35 28 36 29 37 30 38 91 39 31 40 90 41 32 42 33 43 34 44
REMARK SMILES IDX 84 45 35 46 89 47 83 48 85 49 36 50 88 51 82 52 81 53 37 55
REMARK SMILES IDX 69 56 49 57 68 58 50 59 53 60 67 61 86 62 51 63 52 64 66 66
REMARK SMILES IDX 87 67 54 68 38 69 39 70 47 71 40 72 41 73 45 74 48 75 42 76
REMARK SMILES IDX 43 77 46 78 44 79 70 80 71 81 79 82 72 83 73 84 77 85 80 86
REMARK SMILES IDX 74 87 75 88 78 89 76 90 55 91 56 92 64 93 57 94 58 95 62 96
REMARK SMILES IDX 65 97 59 98 60 99 63 100 61 101
REMARK H PARENT 16 14 93 32 85 54 53 65
REMARK Flexibility Score: inf
ROOT
ATOM      1  C   UNL     1       3.535   5.529  -2.977  1.00  0.00     0.275 C 
ENDROOT
BRANCH   1   2
ATOM      2  O   UNL     1       2.324   5.779  -2.265  1.00  0.00    -0.458 OA
BRANCH   2   3
ATOM      3  C   UNL     1       1.655   6.873  -2.696  1.00  0.00     0.342 C 
ATOM      4  O   UNL     1       2.006   7.679  -3.539  1.00  0.00    -0.246 OA
BRANCH   3   5
ATOM      5  C   UNL     1       0.491   7.076  -1.839  1.00  0.00     0.101 A 
ATOM      6  C   UNL     1      -1.600   7.336  -0.026  1.00  0.00     0.044 A 
ATOM      7  C   UNL     1      -1.632   6.357  -1.018  1.00  0.00     0.027 A 
ATOM      8  C   UNL     1      -0.589   8.296  -0.048  1.00  0.00     0.073 A 
ATOM      9  C   UNL     1      -0.572   6.186  -1.894  1.00  0.00     0.022 A 
ATOM     10  C   UNL     1       0.451   8.169  -0.970  1.00  0.00     0.132 A 
BRANCH   6  11
ATOM     11  N   UNL     1      -2.595   7.373   0.961  1.00  0.00    -0.326 N 
ATOM     12  C   UNL     1      -3.218   6.296   1.556  1.00  0.00     0.226 C 
ATOM     13  O   UNL     1      -4.296   6.445   2.130  1.00  0.00    -0.275 OA
ATOM     14  H   UNL     1      -2.882   8.266   1.261  1.00  0.00     0.169 HD
BRANCH  12  15
ATOM     15  C   UNL     1      -2.438   4.992   1.674  1.00  0.00     0.125 C 
BRANCH  15  16
ATOM     16  C   UNL     1      -3.220   3.723   1.358  1.00  0.00     0.156 C 
ATOM     17  N   UNL     1      -1.807   2.083   0.317  1.00  0.00    -0.240 N 
ATOM     18  C   UNL     1      -2.412   2.568  -0.824  1.00  0.00     0.293 C 
ATOM     19  C   UNL     1      -2.281   2.540   1.533  1.00  0.00     0.248 C 
ATOM     20  O   UNL     1      -2.166   2.349  -1.984  1.00  0.00    -0.261 OA
ATOM     21  S   UNL     1      -3.769   3.593  -0.365  1.00  0.00    -0.050 SA
ATOM     22  O   UNL     1      -1.989   2.099   2.641  1.00  0.00    -0.273 OA
BRANCH  17  23
ATOM     23  C   UNL     1      -0.968   0.947   0.243  1.00  0.00     0.056 A 
ATOM     24  C   UNL     1       2.769   0.143   0.097  1.00  0.00     0.044 C 
ATOM     25  C   UNL     1       1.276  -0.005   0.144  1.00  0.00    -0.049 A 
ATOM     26  C   UNL     1       0.713  -1.282   0.065  1.00  0.00     0.004 A 
ATOM     27  C   UNL     1       0.427   1.108   0.254  1.00  0.00     0.030 A 
ATOM     28  C   UNL     1      -0.672  -1.447   0.069  1.00  0.00     0.006 A 
ATOM     29  C   UNL     1      -1.529  -0.340   0.147  1.00  0.00    -0.027 A 
ATOM     30  C   UNL     1      -3.010  -0.599   0.143  1.00  0.00     0.046 C 
ENDBRANCH  17  23
ENDBRANCH  15  16
ENDBRANCH  12  15
ENDBRANCH   6  11
BRANCH  10  31
ATOM     31  O   UNL     1       1.420   9.134  -0.964  1.00  0.00    -0.507 OA
ATOM     32  H   UNL     1       2.135   9.085  -1.567  1.00  0.00     0.293 HD
ENDBRANCH  10  31
ENDBRANCH   3   5
ENDBRANCH   2   3
ENDBRANCH   1   2
BRANCH   1  33
ATOM     33  C   UNL     1       4.066   4.121  -2.683  1.00  0.00     0.275 C 
BRANCH  33  34
ATOM     34  O   UNL     1       3.131   3.003  -2.605  1.00  0.00    -0.458 OA
BRANCH  34  35
ATOM     35  C   UNL     1       1.837   3.051  -3.013  1.00  0.00     0.338 C 
ATOM     36  O   UNL     1       0.906   2.817  -2.259  1.00  0.00    -0.246 OA
BRANCH  35  37
ATOM     37  C   UNL     1       1.622   3.455  -4.421  1.00  0.00     0.060 A 
ATOM     38  C   UNL     1       0.391   4.010  -4.796  1.00  0.00     0.016 A 
ATOM     39  C   UNL     1       2.702   3.504  -5.288  1.00  0.00     0.016 A 
ATOM     40  C   UNL     1       0.312   4.816  -5.932  1.00  0.00     0.010 A 
ATOM     41  C   UNL     1       2.655   4.404  -6.332  1.00  0.00     0.010 A 
ATOM     42  C   UNL     1       1.470   5.071  -6.672  1.00  0.00    -0.014 A 
BRANCH  42  43
ATOM     43  C   UNL     1       1.469   6.043  -7.771  1.00  0.00     0.031 A 
ATOM     44  C   UNL     1       0.853   7.401  -7.572  1.00  0.00     0.074 A 
ATOM     45  C   UNL     1       2.168   5.840  -8.908  1.00  0.00     0.049 A 
ATOM     46  N   UNL     1      -0.171   7.912  -8.185  1.00  0.00    -0.248 NA
ATOM     47  C   UNL     1       1.458   8.314  -6.597  1.00  0.00     0.031 C 
ATOM     48  C   UNL     1       3.052   4.727  -9.281  1.00  0.00     0.029 A 
ATOM     49  N   UNL     1       2.272   6.677  -9.975  1.00  0.00    -0.354 N 
ATOM     50  C   UNL     1      -0.281   9.245  -7.767  1.00  0.00     0.074 A 
ATOM     51  C   UNL     1       0.699   9.407  -6.723  1.00  0.00     0.031 C 
ATOM     52  C   UNL     1       3.769   5.061 -10.373  1.00  0.00     0.029 A 
ATOM     53  C   UNL     1       3.229   6.298 -10.893  1.00  0.00     0.049 A 
ATOM     54  H   UNL     1       1.715   7.482 -10.082  1.00  0.00     0.167 HD
ATOM     55  C   UNL     1      -1.081  10.153  -8.406  1.00  0.00     0.037 A 
ATOM     56  C   UNL     1       3.539   6.915 -12.050  1.00  0.00     0.037 A 
ATOM     57  C   UNL     1      -2.009   9.503  -9.291  1.00  0.00     0.049 A 
ATOM     58  C   UNL     1       2.347   7.687 -12.466  1.00  0.00     0.074 A 
ATOM     59  C   UNL     1      -3.054   8.614  -9.130  1.00  0.00     0.029 A 
ATOM     60  N   UNL     1      -1.738   9.491 -10.636  1.00  0.00    -0.354 N 
ATOM     61  N   UNL     1       1.213   7.133 -12.803  1.00  0.00    -0.248 NA
ATOM     62  C   UNL     1       2.272   9.088 -12.090  1.00  0.00     0.031 C 
ATOM     63  C   UNL     1      -2.960   7.741 -10.256  1.00  0.00     0.029 A 
ATOM     64  C   UNL     1      -1.896   8.191 -11.041  1.00  0.00     0.049 A 
ATOM     65  H   UNL     1      -1.483  10.259 -11.197  1.00  0.00     0.167 HD
ATOM     66  C   UNL     1       0.237   7.981 -12.299  1.00  0.00     0.074 A 
ATOM     67  C   UNL     1       0.948   9.212 -11.962  1.00  0.00     0.031 C 
ATOM     68  C   UNL     1      -1.005   7.523 -11.962  1.00  0.00     0.037 A 
BRANCH  55  69
ATOM     69  C   UNL     1      -0.902  11.657  -8.450  1.00  0.00     0.064 A 
ATOM     70  C   UNL     1      -1.922  12.468  -9.003  1.00  0.00     0.173 A 
ATOM     71  C   UNL     1       0.330  12.306  -8.239  1.00  0.00     0.173 A 
ATOM     72  F   UNL     1      -3.138  11.962  -9.261  1.00  0.00    -0.203 F 
ATOM     73  C   UNL     1      -1.698  13.795  -9.386  1.00  0.00     0.198 A 
ATOM     74  C   UNL     1       0.535  13.648  -8.575  1.00  0.00     0.198 A 
ATOM     75  F   UNL     1       1.408  11.644  -7.803  1.00  0.00    -0.203 F 
ATOM     76  F   UNL     1      -2.663  14.480 -10.016  1.00  0.00    -0.200 F 
ATOM     77  C   UNL     1      -0.467  14.383  -9.177  1.00  0.00     0.200 A 
ATOM     78  F   UNL     1       1.741  14.201  -8.379  1.00  0.00    -0.200 F 
ATOM     79  F   UNL     1      -0.229  15.633  -9.596  1.00  0.00    -0.200 F 
ENDBRANCH  55  69
BRANCH  56  80
ATOM     80  C   UNL     1       4.892   7.063 -12.608  1.00  0.00     0.064 A 
ATOM     81  C   UNL     1       5.105   7.284 -13.972  1.00  0.00     0.173 A 
ATOM     82  C   UNL     1       6.005   7.214 -11.754  1.00  0.00     0.173 A 
ATOM     83  F   UNL     1       4.084   7.191 -14.835  1.00  0.00    -0.203 F 
ATOM     84  C   UNL     1       6.363   7.652 -14.457  1.00  0.00     0.198 A 
ATOM     85  C   UNL     1       7.258   7.579 -12.238  1.00  0.00     0.198 A 
ATOM     86  F   UNL     1       5.871   7.088 -10.424  1.00  0.00    -0.203 F 
ATOM     87  F   UNL     1       6.527   7.900 -15.763  1.00  0.00    -0.200 F 
ATOM     88  C   UNL     1       7.434   7.809 -13.589  1.00  0.00     0.200 A 
ATOM     89  F   UNL     1       8.276   7.757 -11.384  1.00  0.00    -0.200 F 
ATOM     90  F   UNL     1       8.625   8.215 -14.050  1.00  0.00    -0.200 F 
ENDBRANCH  56  80
BRANCH  68  91
ATOM     91  C   UNL     1      -1.374   6.112 -12.335  1.00  0.00     0.064 A 
ATOM     92  C   UNL     1      -0.742   4.979 -11.795  1.00  0.00     0.173 A 
ATOM     93  C   UNL     1      -2.521   5.894 -13.107  1.00  0.00     0.173 A 
ATOM     94  F   UNL     1       0.294   5.102 -10.962  1.00  0.00    -0.203 F 
ATOM     95  C   UNL     1      -1.212   3.691 -12.045  1.00  0.00     0.198 A 
ATOM     96  C   UNL     1      -3.010   4.608 -13.331  1.00  0.00     0.198 A 
ATOM     97  F   UNL     1      -3.209   6.938 -13.597  1.00  0.00    -0.203 F 
ATOM     98  F   UNL     1      -0.585   2.631 -11.512  1.00  0.00    -0.200 F 
ATOM     99  C   UNL     1      -2.351   3.507 -12.806  1.00  0.00     0.200 A 
ATOM    100  F   UNL     1      -4.143   4.438 -14.025  1.00  0.00    -0.200 F 
ATOM    101  F   UNL     1      -2.833   2.273 -13.010  1.00  0.00    -0.200 F 
ENDBRANCH  68  91
ENDBRANCH  42  43
ENDBRANCH  35  37
ENDBRANCH  34  35
ENDBRANCH  33  34
ENDBRANCH   1  33
TORSDOF 16
