REMARK SMILES COc1ccc([C@H]2C[NH2+]C[C@@H]2C(=O)OCCOC(=O)c2ccc(-c3c4nc(c(-c5c(F)c(F)c(F)c(F)c5F)c5ccc([nH]5)c(-c5c(F)c(F)c(F)c(F)c5F)c5nc(c(-c6c(F)c(F)c(F)c(F)c6F)c6ccc3[nH]6)C=C5)C=C4)cc2)cc1OC
REMARK SMILES IDX 15 1 14 2 12 3 13 4 11 5 7 6 8 7 9 8 10 9 6 12 3 13 4 14
REMARK SMILES IDX 84 15 5 16 83 17 2 18 1 19 85 20 86 21 16 22 17 23 18 24
REMARK SMILES IDX 19 25 20 26 21 27 82 28 22 29 81 30 23 31 24 32 25 33 75 34
REMARK SMILES IDX 26 35 80 36 74 37 76 38 27 39 79 40 73 41 72 42 28 44 60 45
REMARK SMILES IDX 40 46 59 47 41 48 44 49 58 50 77 51 42 52 43 53 57 55 78 56
REMARK SMILES IDX 45 57 29 58 30 59 38 60 31 61 32 62 36 63 39 64 33 65 34 66
REMARK SMILES IDX 37 67 35 68 61 69 62 70 70 71 63 72 64 73 68 74 71 75 65 76
REMARK SMILES IDX 66 77 69 78 67 79 46 80 47 81 55 82 48 83 49 84 53 85 56 86
REMARK SMILES IDX 50 87 51 88 54 89 52 90
REMARK H PARENT 9 10 9 11 76 43 44 54
REMARK Flexibility Score: inf
ROOT
ATOM      1  C   UNL     1       4.843  -0.947   5.820  1.00  0.00     0.274 C 
ENDROOT
BRANCH   1   2
ATOM      2  O   UNL     1       4.043  -0.087   6.660  1.00  0.00    -0.462 OA
BRANCH   2   3
ATOM      3  C   UNL     1       4.043   1.240   6.345  1.00  0.00     0.315 C 
ATOM      4  O   UNL     1       4.673   1.739   5.423  1.00  0.00    -0.252 OA
BRANCH   3   5
ATOM      5  C   UNL     1       3.153   2.018   7.303  1.00  0.00     0.167 C 
ATOM      6  C   UNL     1       2.328   3.090   6.566  1.00  0.00     0.094 C 
ATOM      7  C   UNL     1       3.282   4.293   6.639  1.00  0.00     0.269 C 
ATOM      8  N   UNL     1       3.864   4.230   7.986  1.00  0.00    -0.345 N 
ATOM      9  C   UNL     1       4.034   2.796   8.275  1.00  0.00     0.276 C 
ATOM     10  H   UNL     1       3.236   4.658   8.666  1.00  0.00     0.346 HD
ATOM     11  H   UNL     1       4.749   4.734   8.039  1.00  0.00     0.346 HD
BRANCH   6  12
ATOM     12  C   UNL     1       0.922   3.404   7.079  1.00  0.00    -0.034 A 
ATOM     13  C   UNL     1      -1.725   4.011   7.905  1.00  0.00     0.160 A 
ATOM     14  C   UNL     1      -1.083   4.796   6.944  1.00  0.00     0.051 A 
ATOM     15  C   UNL     1      -1.074   2.890   8.424  1.00  0.00     0.161 A 
ATOM     16  C   UNL     1       0.220   4.494   6.535  1.00  0.00     0.008 A 
ATOM     17  C   UNL     1       0.236   2.600   8.001  1.00  0.00     0.054 A 
BRANCH  13  18
ATOM     18  O   UNL     1      -3.021   4.294   8.242  1.00  0.00    -0.493 OA
ATOM     19  C   UNL     1      -3.150   5.576   8.857  1.00  0.00     0.278 C 
ENDBRANCH  13  18
BRANCH  15  20
ATOM     20  O   UNL     1      -1.556   1.968   9.316  1.00  0.00    -0.493 OA
ATOM     21  C   UNL     1      -2.679   2.331  10.106  1.00  0.00     0.278 C 
ENDBRANCH  15  20
ENDBRANCH   6  12
ENDBRANCH   3   5
ENDBRANCH   2   3
ENDBRANCH   1   2
BRANCH   1  22
ATOM     22  C   UNL     1       3.959  -1.694   4.824  1.00  0.00     0.275 C 
BRANCH  22  23
ATOM     23  O   UNL     1       3.358  -0.742   3.929  1.00  0.00    -0.458 OA
BRANCH  23  24
ATOM     24  C   UNL     1       2.034  -0.877   3.702  1.00  0.00     0.338 C 
ATOM     25  O   UNL     1       1.302  -1.776   4.098  1.00  0.00    -0.246 OA
BRANCH  24  26
ATOM     26  C   UNL     1       1.555   0.260   2.892  1.00  0.00     0.060 A 
ATOM     27  C   UNL     1       1.996   1.550   3.172  1.00  0.00     0.016 A 
ATOM     28  C   UNL     1       0.595   0.063   1.900  1.00  0.00     0.016 A 
ATOM     29  C   UNL     1       1.414   2.649   2.546  1.00  0.00     0.010 A 
ATOM     30  C   UNL     1       0.108   1.160   1.177  1.00  0.00     0.010 A 
ATOM     31  C   UNL     1       0.491   2.474   1.507  1.00  0.00    -0.014 A 
BRANCH  31  32
ATOM     32  C   UNL     1      -0.063   3.650   0.772  1.00  0.00     0.031 A 
ATOM     33  C   UNL     1      -1.552   3.838   0.640  1.00  0.00     0.074 A 
ATOM     34  C   UNL     1       0.761   4.565   0.217  1.00  0.00     0.049 A 
ATOM     35  N   UNL     1      -2.219   4.646  -0.147  1.00  0.00    -0.248 NA
ATOM     36  C   UNL     1      -2.406   2.997   1.494  1.00  0.00     0.031 C 
ATOM     37  C   UNL     1       2.223   4.552   0.292  1.00  0.00     0.029 A 
ATOM     38  N   UNL     1       0.484   5.695  -0.517  1.00  0.00    -0.354 N 
ATOM     39  C   UNL     1      -3.562   4.359   0.062  1.00  0.00     0.074 A 
ATOM     40  C   UNL     1      -3.620   3.314   1.062  1.00  0.00     0.031 C 
ATOM     41  C   UNL     1       2.709   5.645  -0.312  1.00  0.00     0.029 A 
ATOM     42  C   UNL     1       1.606   6.378  -0.921  1.00  0.00     0.049 A 
ATOM     43  H   UNL     1      -0.431   5.986  -0.734  1.00  0.00     0.167 HD
ATOM     44  C   UNL     1      -4.646   4.915  -0.531  1.00  0.00     0.037 A 
ATOM     45  C   UNL     1       1.748   7.441  -1.735  1.00  0.00     0.037 A 
ATOM     46  C   UNL     1      -4.593   6.007  -1.470  1.00  0.00     0.049 A 
ATOM     47  C   UNL     1       0.534   8.028  -2.395  1.00  0.00     0.074 A 
ATOM     48  C   UNL     1      -5.639   6.645  -2.113  1.00  0.00     0.029 A 
ATOM     49  N   UNL     1      -3.429   6.640  -1.878  1.00  0.00    -0.354 N 
ATOM     50  N   UNL     1      -0.724   7.685  -2.264  1.00  0.00    -0.248 NA
ATOM     51  C   UNL     1       0.763   9.124  -3.348  1.00  0.00     0.031 C 
ATOM     52  C   UNL     1      -5.107   7.650  -2.929  1.00  0.00     0.029 A 
ATOM     53  C   UNL     1      -3.732   7.658  -2.769  1.00  0.00     0.049 A 
ATOM     54  H   UNL     1      -2.521   6.402  -1.579  1.00  0.00     0.167 HD
ATOM     55  C   UNL     1      -1.433   8.512  -3.122  1.00  0.00     0.074 A 
ATOM     56  C   UNL     1      -0.472   9.398  -3.744  1.00  0.00     0.031 C 
ATOM     57  C   UNL     1      -2.762   8.523  -3.384  1.00  0.00     0.037 A 
BRANCH  44  58
ATOM     58  C   UNL     1      -5.993   4.339  -0.211  1.00  0.00     0.064 A 
ATOM     59  C   UNL     1      -6.643   4.603   1.002  1.00  0.00     0.173 A 
ATOM     60  C   UNL     1      -6.670   3.566  -1.168  1.00  0.00     0.173 A 
ATOM     61  F   UNL     1      -6.033   5.328   1.950  1.00  0.00    -0.203 F 
ATOM     62  C   UNL     1      -7.920   4.103   1.251  1.00  0.00     0.198 A 
ATOM     63  C   UNL     1      -7.955   3.087  -0.924  1.00  0.00     0.198 A 
ATOM     64  F   UNL     1      -6.093   3.292  -2.348  1.00  0.00    -0.203 F 
ATOM     65  F   UNL     1      -8.514   4.345   2.427  1.00  0.00    -0.200 F 
ATOM     66  C   UNL     1      -8.577   3.353   0.286  1.00  0.00     0.200 A 
ATOM     67  F   UNL     1      -8.593   2.375  -1.863  1.00  0.00    -0.200 F 
ATOM     68  F   UNL     1      -9.811   2.887   0.522  1.00  0.00    -0.200 F 
ENDBRANCH  44  58
BRANCH  45  69
ATOM     69  C   UNL     1       3.104   7.976  -2.027  1.00  0.00     0.064 A 
ATOM     70  C   UNL     1       3.498   9.236  -1.559  1.00  0.00     0.173 A 
ATOM     71  C   UNL     1       4.034   7.236  -2.774  1.00  0.00     0.173 A 
ATOM     72  F   UNL     1       2.634   9.993  -0.868  1.00  0.00    -0.203 F 
ATOM     73  C   UNL     1       4.769   9.738  -1.830  1.00  0.00     0.198 A 
ATOM     74  C   UNL     1       5.315   7.725  -3.017  1.00  0.00     0.198 A 
ATOM     75  F   UNL     1       3.703   6.027  -3.250  1.00  0.00    -0.203 F 
ATOM     76  F   UNL     1       5.109  10.962  -1.404  1.00  0.00    -0.200 F 
ATOM     77  C   UNL     1       5.680   8.978  -2.550  1.00  0.00     0.200 A 
ATOM     78  F   UNL     1       6.194   6.981  -3.701  1.00  0.00    -0.200 F 
ATOM     79  F   UNL     1       6.906   9.456  -2.800  1.00  0.00    -0.200 F 
ENDBRANCH  45  69
BRANCH  57  80
ATOM     80  C   UNL     1      -3.247   9.527  -4.384  1.00  0.00     0.064 A 
ATOM     81  C   UNL     1      -3.044   9.338  -5.759  1.00  0.00     0.173 A 
ATOM     82  C   UNL     1      -3.937  10.675  -3.969  1.00  0.00     0.173 A 
ATOM     83  F   UNL     1      -2.373   8.264  -6.201  1.00  0.00    -0.203 F 
ATOM     84  C   UNL     1      -3.498  10.276  -6.682  1.00  0.00     0.198 A 
ATOM     85  C   UNL     1      -4.407  11.599  -4.896  1.00  0.00     0.198 A 
ATOM     86  F   UNL     1      -4.155  10.897  -2.664  1.00  0.00    -0.203 F 
ATOM     87  F   UNL     1      -3.258  10.097  -7.989  1.00  0.00    -0.200 F 
ATOM     88  C   UNL     1      -4.183  11.402  -6.251  1.00  0.00     0.200 A 
ATOM     89  F   UNL     1      -5.073  12.685  -4.479  1.00  0.00    -0.200 F 
ATOM     90  F   UNL     1      -4.619  12.304  -7.141  1.00  0.00    -0.200 F 
ENDBRANCH  57  80
ENDBRANCH  31  32
ENDBRANCH  24  26
ENDBRANCH  23  24
ENDBRANCH  22  23
ENDBRANCH   1  22
TORSDOF 14
