REMARK SMILES Cc1ccc(N2CCC[C@@H](Cn3cc(C(=O)OCCOC(=O)c4ccc(-c5c6nc(c(-c7c(F)c(F)c(F)c(F)c7F)c7ccc([nH]7)c(-c7c(F)c(F)c(F)c(F)c7F)c7nc(c(-c8c(F)c(F)c(F)c(F)c8F)c8ccc5[nH]8)C=C7)C=C6)cc4)nn3)C2)nn1
REMARK SMILES IDX 18 1 17 2 15 3 16 4 14 5 12 6 13 7 87 8 86 9 11 10 10 11
REMARK SMILES IDX 6 12 7 13 88 14 8 15 9 16 5 17 1 18 2 19 3 20 90 21 4 22
REMARK SMILES IDX 89 23 19 24 20 25 21 26 22 27 23 28 24 29 85 30 25 31 84 32
REMARK SMILES IDX 26 33 27 34 28 35 78 36 29 37 83 38 77 39 79 40 30 41 82 42
REMARK SMILES IDX 76 43 75 44 31 46 63 47 43 48 62 49 44 50 47 51 61 52 80 53
REMARK SMILES IDX 45 54 46 55 60 57 81 58 48 59 32 60 33 61 41 62 34 63 35 64
REMARK SMILES IDX 39 65 42 66 36 67 37 68 40 69 38 70 64 71 65 72 73 73 66 74
REMARK SMILES IDX 67 75 71 76 74 77 68 78 69 79 72 80 70 81 49 82 50 83 58 84
REMARK SMILES IDX 51 85 52 86 56 87 59 88 53 89 54 90 57 91 55 92
REMARK H PARENT 79 45 47 56
REMARK Flexibility Score: inf
ROOT
ATOM      1  C   UNL     1       3.226   8.816  -2.901  1.00  0.00     0.275 C 
ENDROOT
BRANCH   1   2
ATOM      2  O   UNL     1       1.940   8.642  -2.280  1.00  0.00    -0.457 OA
BRANCH   2   3
ATOM      3  C   UNL     1       1.364   9.774  -1.750  1.00  0.00     0.360 C 
ATOM      4  O   UNL     1       1.951  10.824  -1.579  1.00  0.00    -0.244 OA
BRANCH   3   5
ATOM      5  C   UNL     1      -0.057   9.584  -1.482  1.00  0.00     0.190 A 
ATOM      6  N   UNL     1      -2.005   8.737  -1.131  1.00  0.00    -0.251 N 
ATOM      7  C   UNL     1      -0.839   8.488  -1.782  1.00  0.00     0.146 A 
ATOM      8  N   UNL     1      -2.054  10.006  -0.691  1.00  0.00    -0.067 NA
ATOM      9  N   UNL     1      -0.850  10.533  -0.879  1.00  0.00    -0.123 NA
BRANCH   6  10
ATOM     10  C   UNL     1      -2.949   7.757  -0.635  1.00  0.00     0.151 C 
BRANCH  10  11
ATOM     11  C   UNL     1      -2.405   6.924   0.547  1.00  0.00     0.030 C 
ATOM     12  N   UNL     1      -0.914   5.152   1.261  1.00  0.00    -0.355 N 
ATOM     13  C   UNL     1      -0.227   5.946   2.275  1.00  0.00     0.118 C 
ATOM     14  C   UNL     1      -1.346   5.903   0.091  1.00  0.00     0.123 C 
ATOM     15  C   UNL     1      -1.230   6.960   2.824  1.00  0.00     0.022 C 
ATOM     16  C   UNL     1      -1.866   7.793   1.707  1.00  0.00     0.009 C 
BRANCH  12  17
ATOM     17  C   UNL     1      -0.334   3.918   0.977  1.00  0.00     0.151 A 
ATOM     18  C   UNL     1       1.138   0.104  -0.108  1.00  0.00     0.069 C 
ATOM     19  C   UNL     1       0.624   1.436   0.334  1.00  0.00     0.060 A 
ATOM     20  C   UNL     1      -0.350   1.542   1.310  1.00  0.00     0.029 A 
ATOM     21  N   UNL     1       1.100   2.531  -0.297  1.00  0.00    -0.154 NA
ATOM     22  C   UNL     1      -0.820   2.804   1.645  1.00  0.00     0.051 A 
ATOM     23  N   UNL     1       0.609   3.777   0.022  1.00  0.00    -0.133 NA
ENDBRANCH  12  17
ENDBRANCH  10  11
ENDBRANCH   6  10
ENDBRANCH   3   5
ENDBRANCH   2   3
ENDBRANCH   1   2
BRANCH   1  24
ATOM     24  C   UNL     1       3.075   9.150  -4.381  1.00  0.00     0.275 C 
BRANCH  24  25
ATOM     25  O   UNL     1       2.451  10.423  -4.536  1.00  0.00    -0.458 OA
BRANCH  25  26
ATOM     26  C   UNL     1       1.103  10.377  -4.616  1.00  0.00     0.338 C 
ATOM     27  O   UNL     1       0.392   9.390  -4.502  1.00  0.00    -0.246 OA
BRANCH  26  28
ATOM     28  C   UNL     1       0.585  11.675  -5.044  1.00  0.00     0.060 A 
ATOM     29  C   UNL     1      -0.806  11.825  -5.012  1.00  0.00     0.016 A 
ATOM     30  C   UNL     1       1.409  12.439  -5.878  1.00  0.00     0.016 A 
ATOM     31  C   UNL     1      -1.396  12.528  -6.035  1.00  0.00     0.010 A 
ATOM     32  C   UNL     1       0.819  13.110  -6.914  1.00  0.00     0.010 A 
ATOM     33  C   UNL     1      -0.568  13.049  -7.032  1.00  0.00    -0.014 A 
BRANCH  33  34
ATOM     34  C   UNL     1      -1.181  13.524  -8.248  1.00  0.00     0.031 A 
ATOM     35  C   UNL     1      -1.691  14.907  -8.150  1.00  0.00     0.074 A 
ATOM     36  C   UNL     1      -1.141  12.793  -9.377  1.00  0.00     0.049 A 
ATOM     37  N   UNL     1      -2.913  15.312  -8.240  1.00  0.00    -0.248 NA
ATOM     38  C   UNL     1      -0.732  15.950  -7.751  1.00  0.00     0.031 C 
ATOM     39  C   UNL     1      -0.395  11.561  -9.653  1.00  0.00     0.029 A 
ATOM     40  N   UNL     1      -1.701  13.083 -10.578  1.00  0.00    -0.354 N 
ATOM     41  C   UNL     1      -2.859  16.689  -8.064  1.00  0.00     0.074 A 
ATOM     42  C   UNL     1      -1.535  17.000  -7.594  1.00  0.00     0.031 C 
ATOM     43  C   UNL     1      -0.365  11.351 -10.991  1.00  0.00     0.029 A 
ATOM     44  C   UNL     1      -1.190  12.354 -11.641  1.00  0.00     0.049 A 
ATOM     45  H   UNL     1      -2.411  13.755 -10.685  1.00  0.00     0.167 HD
ATOM     46  C   UNL     1      -3.833  17.509  -8.537  1.00  0.00     0.037 A 
ATOM     47  C   UNL     1      -1.364  12.675 -12.948  1.00  0.00     0.037 A 
ATOM     48  C   UNL     1      -5.041  16.789  -8.833  1.00  0.00     0.049 A 
ATOM     49  C   UNL     1      -2.528  13.605 -13.020  1.00  0.00     0.074 A 
ATOM     50  C   UNL     1      -5.932  16.058  -8.071  1.00  0.00     0.029 A 
ATOM     51  N   UNL     1      -5.272  16.418 -10.135  1.00  0.00    -0.354 N 
ATOM     52  N   UNL     1      -3.756  13.251 -12.751  1.00  0.00    -0.248 NA
ATOM     53  C   UNL     1      -2.252  15.032 -12.908  1.00  0.00     0.031 C 
ATOM     54  C   UNL     1      -6.290  14.946  -8.888  1.00  0.00     0.029 A 
ATOM     55  C   UNL     1      -5.645  15.096 -10.116  1.00  0.00     0.049 A 
ATOM     56  H   UNL     1      -5.187  16.990 -10.931  1.00  0.00     0.167 HD
ATOM     57  C   UNL     1      -4.294  14.325 -12.055  1.00  0.00     0.074 A 
ATOM     58  C   UNL     1      -3.337  15.415 -12.229  1.00  0.00     0.031 C 
ATOM     59  C   UNL     1      -5.311  14.156 -11.160  1.00  0.00     0.037 A 
BRANCH  46  60
ATOM     60  C   UNL     1      -3.565  18.900  -9.029  1.00  0.00     0.064 A 
ATOM     61  C   UNL     1      -4.635  19.789  -9.222  1.00  0.00     0.173 A 
ATOM     62  C   UNL     1      -2.321  19.304  -9.565  1.00  0.00     0.173 A 
ATOM     63  F   UNL     1      -5.865  19.480  -8.787  1.00  0.00    -0.203 F 
ATOM     64  C   UNL     1      -4.476  20.979  -9.936  1.00  0.00     0.198 A 
ATOM     65  C   UNL     1      -2.153  20.518 -10.221  1.00  0.00     0.198 A 
ATOM     66  F   UNL     1      -1.255  18.493  -9.573  1.00  0.00    -0.203 F 
ATOM     67  F   UNL     1      -5.543  21.746 -10.194  1.00  0.00    -0.200 F 
ATOM     68  C   UNL     1      -3.236  21.344 -10.431  1.00  0.00     0.200 A 
ATOM     69  F   UNL     1      -0.948  20.841 -10.712  1.00  0.00    -0.200 F 
ATOM     70  F   UNL     1      -3.093  22.461 -11.155  1.00  0.00    -0.200 F 
ENDBRANCH  46  60
BRANCH  47  71
ATOM     71  C   UNL     1      -0.348  12.599 -14.028  1.00  0.00     0.064 A 
ATOM     72  C   UNL     1      -0.722  12.694 -15.378  1.00  0.00     0.173 A 
ATOM     73  C   UNL     1       1.029  12.721 -13.751  1.00  0.00     0.173 A 
ATOM     74  F   UNL     1      -2.017  12.636 -15.723  1.00  0.00    -0.203 F 
ATOM     75  C   UNL     1       0.222  12.921 -16.387  1.00  0.00     0.198 A 
ATOM     76  C   UNL     1       1.970  12.941 -14.758  1.00  0.00     0.198 A 
ATOM     77  F   UNL     1       1.481  12.729 -12.489  1.00  0.00    -0.203 F 
ATOM     78  F   UNL     1      -0.179  13.067 -17.657  1.00  0.00    -0.200 F 
ATOM     79  C   UNL     1       1.565  13.055 -16.074  1.00  0.00     0.200 A 
ATOM     80  F   UNL     1       3.260  13.108 -14.436  1.00  0.00    -0.200 F 
ATOM     81  F   UNL     1       2.461  13.336 -17.031  1.00  0.00    -0.200 F 
ENDBRANCH  47  71
BRANCH  59  82
ATOM     82  C   UNL     1      -5.971  12.807 -11.091  1.00  0.00     0.064 A 
ATOM     83  C   UNL     1      -5.306  11.631 -10.698  1.00  0.00     0.173 A 
ATOM     84  C   UNL     1      -7.359  12.731 -11.263  1.00  0.00     0.173 A 
ATOM     85  F   UNL     1      -3.998  11.644 -10.412  1.00  0.00    -0.203 F 
ATOM     86  C   UNL     1      -5.994  10.431 -10.528  1.00  0.00     0.198 A 
ATOM     87  C   UNL     1      -8.050  11.540 -11.056  1.00  0.00     0.198 A 
ATOM     88  F   UNL     1      -8.057  13.833 -11.579  1.00  0.00    -0.203 F 
ATOM     89  F   UNL     1      -5.333   9.322 -10.159  1.00  0.00    -0.200 F 
ATOM     90  C   UNL     1      -7.367  10.389 -10.698  1.00  0.00     0.200 A 
ATOM     91  F   UNL     1      -9.384  11.516 -11.172  1.00  0.00    -0.200 F 
ATOM     92  F   UNL     1      -8.037   9.246 -10.489  1.00  0.00    -0.200 F 
ENDBRANCH  59  82
ENDBRANCH  33  34
ENDBRANCH  26  28
ENDBRANCH  25  26
ENDBRANCH  24  25
ENDBRANCH   1  24
TORSDOF 14
