REMARK SMILES C[C@@H](CNC(=O)Cc1ccc(F)cc1F)C(=O)OCCOC(=O)c1ccc(-c2c3nc(c(-c4c(F)c(F)c(F)c(F)c4F)c4ccc([nH]4)c(-c4c(F)c(F)c(F)c(F)c4F)c4nc(c(-c5c(F)c(F)c(F)c(F)c5F)c5ccc2[nH]5)C=C4)C=C3)cc1
REMARK SMILES IDX 19 1 18 2 16 3 17 4 2 5 1 6 3 7 4 8 5 9 6 11 7 12 8 13 9 14
REMARK SMILES IDX 14 15 10 16 13 17 15 18 11 19 12 20 20 21 21 22 22 23 23 24
REMARK SMILES IDX 24 25 25 26 86 27 26 28 85 29 27 30 28 31 29 32 79 33 30 34
REMARK SMILES IDX 84 35 78 36 80 37 31 38 83 39 77 40 76 41 32 43 64 44 44 45
REMARK SMILES IDX 63 46 45 47 48 48 62 49 81 50 46 51 47 52 61 54 82 55 49 56
REMARK SMILES IDX 33 57 34 58 42 59 35 60 36 61 40 62 43 63 37 64 38 65 41 66
REMARK SMILES IDX 39 67 65 68 66 69 74 70 67 71 68 72 72 73 75 74 69 75 70 76
REMARK SMILES IDX 73 77 71 78 50 79 51 80 59 81 52 82 53 83 57 84 60 85 54 86
REMARK SMILES IDX 55 87 58 88 56 89
REMARK H PARENT 4 10 80 42 48 53
REMARK Flexibility Score: inf
ROOT
ATOM      1  C   UNL     1      -2.792  -0.832  -0.388  1.00  0.00     0.274 C 
ENDROOT
BRANCH   1   2
ATOM      2  O   UNL     1      -1.365  -0.945  -0.227  1.00  0.00    -0.462 OA
BRANCH   2   3
ATOM      3  C   UNL     1      -0.610  -0.437  -1.234  1.00  0.00     0.310 C 
ATOM      4  O   UNL     1      -1.055   0.137  -2.219  1.00  0.00    -0.252 OA
BRANCH   3   5
ATOM      5  C   UNL     1       0.867  -0.700  -1.063  1.00  0.00     0.115 C 
ATOM      6  C   UNL     1       1.317  -0.702   0.394  1.00  0.00     0.022 C 
BRANCH   5   7
ATOM      7  C   UNL     1       1.266  -1.964  -1.828  1.00  0.00     0.130 C 
BRANCH   7   8
ATOM      8  N   UNL     1       0.404  -3.100  -1.554  1.00  0.00    -0.355 N 
ATOM      9  C   UNL     1      -0.469  -3.749  -2.383  1.00  0.00     0.224 C 
ATOM     10  H   UNL     1       0.455  -3.454  -0.637  1.00  0.00     0.163 HD
ATOM     11  O   UNL     1      -1.211  -4.595  -1.881  1.00  0.00    -0.275 OA
BRANCH   9  12
ATOM     12  C   UNL     1      -0.471  -3.468  -3.879  1.00  0.00     0.138 C 
BRANCH  12  13
ATOM     13  C   UNL     1      -1.330  -2.304  -4.312  1.00  0.00    -0.003 A 
ATOM     14  C   UNL     1      -0.758  -1.171  -4.916  1.00  0.00     0.010 A 
ATOM     15  C   UNL     1      -2.720  -2.332  -4.138  1.00  0.00     0.129 A 
ATOM     16  C   UNL     1      -1.559  -0.084  -5.280  1.00  0.00     0.040 A 
ATOM     17  C   UNL     1      -3.524  -1.259  -4.509  1.00  0.00     0.078 A 
ATOM     18  F   UNL     1      -3.305  -3.413  -3.607  1.00  0.00    -0.207 F 
ATOM     19  C   UNL     1      -2.932  -0.135  -5.064  1.00  0.00     0.126 A 
ATOM     20  F   UNL     1      -3.691   0.915  -5.402  1.00  0.00    -0.207 F 
ENDBRANCH  12  13
ENDBRANCH   9  12
ENDBRANCH   7   8
ENDBRANCH   5   7
ENDBRANCH   3   5
ENDBRANCH   2   3
ENDBRANCH   1   2
BRANCH   1  21
ATOM     21  C   UNL     1      -3.352   0.458   0.219  1.00  0.00     0.275 C 
BRANCH  21  22
ATOM     22  O   UNL     1      -3.042   1.618  -0.578  1.00  0.00    -0.458 OA
BRANCH  22  23
ATOM     23  C   UNL     1      -1.871   2.228  -0.288  1.00  0.00     0.338 C 
ATOM     24  O   UNL     1      -1.085   1.941   0.605  1.00  0.00    -0.246 OA
BRANCH  23  25
ATOM     25  C   UNL     1      -1.575   3.251  -1.304  1.00  0.00     0.060 A 
ATOM     26  C   UNL     1      -0.364   3.166  -2.004  1.00  0.00     0.016 A 
ATOM     27  C   UNL     1      -2.439   4.325  -1.510  1.00  0.00     0.016 A 
ATOM     28  C   UNL     1      -0.008   4.157  -2.914  1.00  0.00     0.010 A 
ATOM     29  C   UNL     1      -2.072   5.331  -2.405  1.00  0.00     0.010 A 
ATOM     30  C   UNL     1      -0.850   5.258  -3.098  1.00  0.00    -0.014 A 
BRANCH  30  31
ATOM     31  C   UNL     1      -0.416   6.400  -3.931  1.00  0.00     0.031 A 
ATOM     32  C   UNL     1       0.160   7.609  -3.257  1.00  0.00     0.074 A 
ATOM     33  C   UNL     1      -0.553   6.360  -5.267  1.00  0.00     0.049 A 
ATOM     34  N   UNL     1       0.415   8.792  -3.753  1.00  0.00    -0.248 NA
ATOM     35  C   UNL     1       0.496   7.467  -1.831  1.00  0.00     0.031 C 
ATOM     36  C   UNL     1      -1.021   5.207  -6.035  1.00  0.00     0.029 A 
ATOM     37  N   UNL     1      -0.327   7.328  -6.212  1.00  0.00    -0.354 N 
ATOM     38  C   UNL     1       0.925   9.538  -2.700  1.00  0.00     0.074 A 
ATOM     39  C   UNL     1       0.941   8.680  -1.535  1.00  0.00     0.031 C 
ATOM     40  C   UNL     1      -1.071   5.543  -7.335  1.00  0.00     0.029 A 
ATOM     41  C   UNL     1      -0.693   6.947  -7.480  1.00  0.00     0.049 A 
ATOM     42  H   UNL     1       0.058   8.209  -6.002  1.00  0.00     0.167 HD
ATOM     43  C   UNL     1       1.335  10.827  -2.711  1.00  0.00     0.037 A 
ATOM     44  C   UNL     1      -0.759   7.671  -8.614  1.00  0.00     0.037 A 
ATOM     45  C   UNL     1       1.308  11.673  -3.874  1.00  0.00     0.049 A 
ATOM     46  C   UNL     1      -0.392   9.133  -8.575  1.00  0.00     0.074 A 
ATOM     47  C   UNL     1       1.665  13.005  -3.982  1.00  0.00     0.029 A 
ATOM     48  N   UNL     1       0.904  11.262  -5.136  1.00  0.00    -0.354 N 
ATOM     49  N   UNL     1       0.040   9.853  -7.568  1.00  0.00    -0.248 NA
ATOM     50  C   UNL     1      -0.537   9.886  -9.829  1.00  0.00     0.031 C 
ATOM     51  C   UNL     1       1.446  13.410  -5.302  1.00  0.00     0.029 A 
ATOM     52  C   UNL     1       0.996  12.318  -6.027  1.00  0.00     0.049 A 
ATOM     53  H   UNL     1       0.598  10.355  -5.364  1.00  0.00     0.167 HD
ATOM     54  C   UNL     1       0.242  11.131  -8.071  1.00  0.00     0.074 A 
ATOM     55  C   UNL     1      -0.100  11.086  -9.476  1.00  0.00     0.031 C 
ATOM     56  C   UNL     1       0.669  12.245  -7.426  1.00  0.00     0.037 A 
BRANCH  43  57
ATOM     57  C   UNL     1       1.828  11.416  -1.425  1.00  0.00     0.064 A 
ATOM     58  C   UNL     1       1.055  12.362  -0.735  1.00  0.00     0.173 A 
ATOM     59  C   UNL     1       3.097  11.105  -0.918  1.00  0.00     0.173 A 
ATOM     60  F   UNL     1      -0.166  12.692  -1.182  1.00  0.00    -0.203 F 
ATOM     61  C   UNL     1       1.545  12.991   0.405  1.00  0.00     0.198 A 
ATOM     62  C   UNL     1       3.575  11.720   0.236  1.00  0.00     0.198 A 
ATOM     63  F   UNL     1       3.866  10.194  -1.534  1.00  0.00    -0.203 F 
ATOM     64  F   UNL     1       0.802  13.916   1.030  1.00  0.00    -0.200 F 
ATOM     65  C   UNL     1       2.804  12.670   0.890  1.00  0.00     0.200 A 
ATOM     66  F   UNL     1       4.784  11.395   0.716  1.00  0.00    -0.200 F 
ATOM     67  F   UNL     1       3.274  13.277   1.988  1.00  0.00    -0.200 F 
ENDBRANCH  43  57
BRANCH  44  68
ATOM     68  C   UNL     1      -1.226   7.043  -9.877  1.00  0.00     0.064 A 
ATOM     69  C   UNL     1      -2.558   6.635 -10.042  1.00  0.00     0.173 A 
ATOM     70  C   UNL     1      -0.352   6.869 -10.959  1.00  0.00     0.173 A 
ATOM     71  F   UNL     1      -3.437   6.787  -9.041  1.00  0.00    -0.203 F 
ATOM     72  C   UNL     1      -2.995   6.068 -11.238  1.00  0.00     0.198 A 
ATOM     73  C   UNL     1      -0.797   6.329 -12.164  1.00  0.00     0.198 A 
ATOM     74  F   UNL     1       0.924   7.270 -10.860  1.00  0.00    -0.203 F 
ATOM     75  F   UNL     1      -4.269   5.671 -11.363  1.00  0.00    -0.200 F 
ATOM     76  C   UNL     1      -2.116   5.924 -12.300  1.00  0.00     0.200 A 
ATOM     77  F   UNL     1       0.047   6.221 -13.199  1.00  0.00    -0.200 F 
ATOM     78  F   UNL     1      -2.544   5.406 -13.460  1.00  0.00    -0.200 F 
ENDBRANCH  44  68
BRANCH  56  79
ATOM     79  C   UNL     1       0.833  13.494  -8.241  1.00  0.00     0.064 A 
ATOM     80  C   UNL     1       2.115  13.991  -8.524  1.00  0.00     0.173 A 
ATOM     81  C   UNL     1      -0.273  14.229  -8.691  1.00  0.00     0.173 A 
ATOM     82  F   UNL     1       3.204  13.329  -8.106  1.00  0.00    -0.203 F 
ATOM     83  C   UNL     1       2.282  15.183  -9.222  1.00  0.00     0.198 A 
ATOM     84  C   UNL     1      -0.101  15.406  -9.414  1.00  0.00     0.198 A 
ATOM     85  F   UNL     1      -1.517  13.788  -8.456  1.00  0.00    -0.203 F 
ATOM     86  F   UNL     1       3.515  15.652  -9.458  1.00  0.00    -0.200 F 
ATOM     87  C   UNL     1       1.175  15.886  -9.672  1.00  0.00     0.200 A 
ATOM     88  F   UNL     1      -1.171  16.072  -9.870  1.00  0.00    -0.200 F 
ATOM     89  F   UNL     1       1.338  17.025 -10.359  1.00  0.00    -0.200 F 
ENDBRANCH  56  79
ENDBRANCH  30  31
ENDBRANCH  23  25
ENDBRANCH  22  23
ENDBRANCH  21  22
ENDBRANCH   1  21
TORSDOF 15
