REMARK SMILES CC(C)[C@H]([NH2+]Cc1ccc(O)cn1)C(=O)OCCOC(=O)c1ccc(-c2c3nc(c(-c4c(F)c(F)c(F)c(F)c4F)c4ccc([nH]4)c(-c4c(F)c(F)c(F)c(F)c4F)c4nc(c(-c5c(F)c(F)c(F)c(F)c5F)c5ccc2[nH]5)C=C4)C=C3)cc1
REMARK SMILES IDX 17 1 16 2 14 3 15 4 4 5 2 6 1 7 3 8 5 9 6 12 7 13 8 14 13 15
REMARK SMILES IDX 9 16 12 17 10 18 11 19 18 21 19 22 20 23 21 24 22 25 23 26
REMARK SMILES IDX 84 27 24 28 83 29 25 30 26 31 27 32 77 33 28 34 82 35 76 36
REMARK SMILES IDX 78 37 29 38 81 39 75 40 74 41 30 43 62 44 42 45 61 46 43 47
REMARK SMILES IDX 46 48 60 49 79 50 44 51 45 52 59 54 80 55 47 56 31 57 32 58
REMARK SMILES IDX 40 59 33 60 34 61 38 62 41 63 35 64 36 65 39 66 37 67 63 68
REMARK SMILES IDX 64 69 72 70 65 71 66 72 70 73 73 74 67 75 68 76 71 77 69 78
REMARK SMILES IDX 48 79 49 80 57 81 50 82 51 83 55 84 58 85 52 86 53 87 56 88
REMARK SMILES IDX 54 89
REMARK H PARENT 5 10 5 11 11 20 78 42 46 53
REMARK Flexibility Score: inf
ROOT
ATOM      1  C   UNL     1      -1.663  -4.559  -2.077  1.00  0.00     0.274 C 
ENDROOT
BRANCH   1   2
ATOM      2  O   UNL     1      -1.107  -3.244  -1.891  1.00  0.00    -0.458 OA
BRANCH   2   3
ATOM      3  C   UNL     1      -1.861  -2.377  -1.155  1.00  0.00     0.365 C 
ATOM      4  O   UNL     1      -2.957  -2.644  -0.672  1.00  0.00    -0.245 OA
BRANCH   3   5
ATOM      5  C   UNL     1      -1.212  -0.980  -1.038  1.00  0.00     0.296 C 
BRANCH   5   6
ATOM      6  C   UNL     1      -1.856   0.079  -1.986  1.00  0.00     0.053 C 
ATOM      7  C   UNL     1      -3.002  -0.428  -2.867  1.00  0.00     0.014 C 
ATOM      8  C   UNL     1      -2.358   1.274  -1.158  1.00  0.00     0.014 C 
ENDBRANCH   5   6
BRANCH   5   9
ATOM      9  N   UNL     1       0.267  -1.091  -1.019  1.00  0.00    -0.329 N 
ATOM     10  H   UNL     1       0.536  -1.764  -1.736  1.00  0.00     0.347 HD
ATOM     11  H   UNL     1       0.504  -1.368  -0.067  1.00  0.00     0.347 HD
BRANCH   9  12
ATOM     12  C   UNL     1       1.015   0.139  -1.261  1.00  0.00     0.318 C 
BRANCH  12  13
ATOM     13  C   UNL     1       2.514  -0.031  -1.079  1.00  0.00     0.095 A 
ATOM     14  C   UNL     1       3.185   0.685  -0.086  1.00  0.00     0.033 A 
ATOM     15  N   UNL     1       3.164  -0.828  -1.969  1.00  0.00    -0.251 NA
ATOM     16  C   UNL     1       4.575   0.603  -0.010  1.00  0.00     0.050 A 
ATOM     17  C   UNL     1       4.513  -0.900  -1.859  1.00  0.00     0.157 A 
ATOM     18  C   UNL     1       5.248  -0.199  -0.918  1.00  0.00     0.133 A 
BRANCH  18  19
ATOM     19  O   UNL     1       6.606  -0.302  -0.914  1.00  0.00    -0.506 OA
ATOM     20  H   UNL     1       7.110   0.169  -0.280  1.00  0.00     0.293 HD
ENDBRANCH  18  19
ENDBRANCH  12  13
ENDBRANCH   9  12
ENDBRANCH   5   9
ENDBRANCH   3   5
ENDBRANCH   2   3
ENDBRANCH   1   2
BRANCH   1  21
ATOM     21  C   UNL     1      -1.153  -5.562  -1.037  1.00  0.00     0.275 C 
BRANCH  21  22
ATOM     22  O   UNL     1      -1.625  -5.244   0.285  1.00  0.00    -0.458 OA
BRANCH  22  23
ATOM     23  C   UNL     1      -0.752  -4.542   1.046  1.00  0.00     0.338 C 
ATOM     24  O   UNL     1       0.391  -4.230   0.763  1.00  0.00    -0.246 OA
BRANCH  23  25
ATOM     25  C   UNL     1      -1.421  -4.077   2.273  1.00  0.00     0.060 A 
ATOM     26  C   UNL     1      -1.453  -2.700   2.514  1.00  0.00     0.016 A 
ATOM     27  C   UNL     1      -1.931  -4.974   3.214  1.00  0.00     0.016 A 
ATOM     28  C   UNL     1      -1.999  -2.211   3.697  1.00  0.00     0.010 A 
ATOM     29  C   UNL     1      -2.464  -4.483   4.411  1.00  0.00     0.010 A 
ATOM     30  C   UNL     1      -2.488  -3.100   4.664  1.00  0.00    -0.014 A 
BRANCH  30  31
ATOM     31  C   UNL     1      -2.939  -2.567   5.972  1.00  0.00     0.031 A 
ATOM     32  C   UNL     1      -2.015  -2.623   7.155  1.00  0.00     0.074 A 
ATOM     33  C   UNL     1      -4.147  -1.989   6.085  1.00  0.00     0.049 A 
ATOM     34  N   UNL     1      -2.211  -2.210   8.382  1.00  0.00    -0.248 NA
ATOM     35  C   UNL     1      -0.691  -3.220   6.924  1.00  0.00     0.031 C 
ATOM     36  C   UNL     1      -5.114  -1.840   5.000  1.00  0.00     0.029 A 
ATOM     37  N   UNL     1      -4.762  -1.411   7.168  1.00  0.00    -0.354 N 
ATOM     38  C   UNL     1      -1.042  -2.503   9.070  1.00  0.00     0.074 A 
ATOM     39  C   UNL     1      -0.148  -3.148   8.130  1.00  0.00     0.031 C 
ATOM     40  C   UNL     1      -6.202  -1.207   5.469  1.00  0.00     0.029 A 
ATOM     41  C   UNL     1      -6.019  -0.932   6.893  1.00  0.00     0.049 A 
ATOM     42  H   UNL     1      -4.343  -1.347   8.056  1.00  0.00     0.167 HD
ATOM     43  C   UNL     1      -0.739  -2.250  10.366  1.00  0.00     0.037 A 
ATOM     44  C   UNL     1      -6.921  -0.348   7.704  1.00  0.00     0.037 A 
ATOM     45  C   UNL     1      -1.626  -1.605  11.299  1.00  0.00     0.049 A 
ATOM     46  C   UNL     1      -6.576  -0.120   9.151  1.00  0.00     0.074 A 
ATOM     47  C   UNL     1      -1.409  -1.306  12.633  1.00  0.00     0.029 A 
ATOM     48  N   UNL     1      -2.904  -1.161  10.993  1.00  0.00    -0.354 N 
ATOM     49  N   UNL     1      -5.467  -0.395   9.792  1.00  0.00    -0.248 NA
ATOM     50  C   UNL     1      -7.612   0.505   9.986  1.00  0.00     0.031 C 
ATOM     51  C   UNL     1      -2.570  -0.712  13.143  1.00  0.00     0.029 A 
ATOM     52  C   UNL     1      -3.494  -0.603  12.117  1.00  0.00     0.049 A 
ATOM     53  H   UNL     1      -3.330  -1.232  10.108  1.00  0.00     0.167 HD
ATOM     54  C   UNL     1      -5.661   0.039  11.096  1.00  0.00     0.074 A 
ATOM     55  C   UNL     1      -6.989   0.614  11.152  1.00  0.00     0.031 C 
ATOM     56  C   UNL     1      -4.816  -0.034  12.154  1.00  0.00     0.037 A 
BRANCH  43  57
ATOM     57  C   UNL     1       0.605  -2.698  10.857  1.00  0.00     0.064 A 
ATOM     58  C   UNL     1       1.783  -2.031  10.489  1.00  0.00     0.173 A 
ATOM     59  C   UNL     1       0.713  -3.793  11.727  1.00  0.00     0.173 A 
ATOM     60  F   UNL     1       1.733  -0.987   9.648  1.00  0.00    -0.203 F 
ATOM     61  C   UNL     1       3.023  -2.460  10.956  1.00  0.00     0.198 A 
ATOM     62  C   UNL     1       1.952  -4.204  12.212  1.00  0.00     0.198 A 
ATOM     63  F   UNL     1      -0.384  -4.462  12.112  1.00  0.00    -0.203 F 
ATOM     64  F   UNL     1       4.140  -1.834  10.559  1.00  0.00    -0.200 F 
ATOM     65  C   UNL     1       3.106  -3.541  11.821  1.00  0.00     0.200 A 
ATOM     66  F   UNL     1       2.030  -5.243  13.055  1.00  0.00    -0.200 F 
ATOM     67  F   UNL     1       4.300  -3.950  12.272  1.00  0.00    -0.200 F 
ENDBRANCH  43  57
BRANCH  44  68
ATOM     68  C   UNL     1      -8.243   0.063   7.165  1.00  0.00     0.064 A 
ATOM     69  C   UNL     1      -8.576   1.416   7.022  1.00  0.00     0.173 A 
ATOM     70  C   UNL     1      -9.202  -0.890   6.792  1.00  0.00     0.173 A 
ATOM     71  F   UNL     1      -7.701   2.364   7.391  1.00  0.00    -0.203 F 
ATOM     72  C   UNL     1      -9.825   1.802   6.541  1.00  0.00     0.198 A 
ATOM     73  C   UNL     1     -10.441  -0.504   6.287  1.00  0.00     0.198 A 
ATOM     74  F   UNL     1      -8.932  -2.198   6.915  1.00  0.00    -0.203 F 
ATOM     75  F   UNL     1     -10.136   3.103   6.455  1.00  0.00    -0.200 F 
ATOM     76  C   UNL     1     -10.754   0.842   6.168  1.00  0.00     0.200 A 
ATOM     77  F   UNL     1     -11.333  -1.434   5.920  1.00  0.00    -0.200 F 
ATOM     78  F   UNL     1     -11.955   1.213   5.703  1.00  0.00    -0.200 F 
ENDBRANCH  44  68
BRANCH  56  79
ATOM     79  C   UNL     1      -5.295   0.548  13.452  1.00  0.00     0.064 A 
ATOM     80  C   UNL     1      -6.279  -0.087  14.223  1.00  0.00     0.173 A 
ATOM     81  C   UNL     1      -4.750   1.746  13.938  1.00  0.00     0.173 A 
ATOM     82  F   UNL     1      -6.842  -1.227  13.794  1.00  0.00    -0.203 F 
ATOM     83  C   UNL     1      -6.721   0.471  15.420  1.00  0.00     0.198 A 
ATOM     84  C   UNL     1      -5.175   2.288  15.147  1.00  0.00     0.198 A 
ATOM     85  F   UNL     1      -3.802   2.390  13.240  1.00  0.00    -0.203 F 
ATOM     86  F   UNL     1      -7.697  -0.127  16.116  1.00  0.00    -0.200 F 
ATOM     87  C   UNL     1      -6.166   1.655  15.883  1.00  0.00     0.200 A 
ATOM     88  F   UNL     1      -4.631   3.427  15.598  1.00  0.00    -0.200 F 
ATOM     89  F   UNL     1      -6.593   2.191  17.034  1.00  0.00    -0.200 F 
ENDBRANCH  56  79
ENDBRANCH  30  31
ENDBRANCH  23  25
ENDBRANCH  22  23
ENDBRANCH  21  22
ENDBRANCH   1  21
TORSDOF 16
