REMARK SMILES C[C@H]([NH2+][C@@H]1CC(=O)N(C)C1=O)[C@H](C)C(=O)OCCOC(=O)c1ccc(-c2c3nc(c(-c4c(F)c(F)c(F)c(F)c4F)c4ccc([nH]4)c(-c4c(F)c(F)c(F)c(F)c4F)c4nc(c(-c5c(F)c(F)c(F)c(F)c5F)c5ccc2[nH]5)C=C4)C=C3)cc1
REMARK SMILES IDX 17 1 16 2 14 3 15 4 12 5 13 6 2 7 1 8 3 9 4 12 5 13 10 14
REMARK SMILES IDX 6 15 8 16 11 17 7 18 9 19 18 20 19 21 20 22 21 23 22 24
REMARK SMILES IDX 23 25 84 26 24 27 83 28 25 29 26 30 27 31 77 32 28 33 82 34
REMARK SMILES IDX 76 35 78 36 29 37 81 38 75 39 74 40 30 42 62 43 42 44 61 45
REMARK SMILES IDX 43 46 46 47 60 48 79 49 44 50 45 51 59 53 80 54 47 55 31 56
REMARK SMILES IDX 32 57 40 58 33 59 34 60 38 61 41 62 35 63 36 64 39 65 37 66
REMARK SMILES IDX 63 67 64 68 72 69 65 70 66 71 70 72 73 73 67 74 68 75 71 76
REMARK SMILES IDX 69 77 48 78 49 79 57 80 50 81 51 82 55 83 58 84 52 85 53 86
REMARK SMILES IDX 56 87 54 88
REMARK H PARENT 3 10 3 11 78 41 46 52
REMARK Flexibility Score: inf
ROOT
ATOM      1  C   UNL     1      -1.850  -0.187   5.145  1.00  0.00     0.274 C 
ENDROOT
BRANCH   1   2
ATOM      2  O   UNL     1      -1.248  -0.424   3.858  1.00  0.00    -0.462 OA
BRANCH   2   3
ATOM      3  C   UNL     1      -2.040  -0.236   2.767  1.00  0.00     0.314 C 
ATOM      4  O   UNL     1      -3.254  -0.087   2.787  1.00  0.00    -0.252 OA
BRANCH   3   5
ATOM      5  C   UNL     1      -1.216  -0.210   1.488  1.00  0.00     0.154 C 
ATOM      6  C   UNL     1       0.079   0.571   1.714  1.00  0.00     0.026 C 
BRANCH   5   7
ATOM      7  C   UNL     1      -1.080  -1.620   0.857  1.00  0.00     0.194 C 
ATOM      8  C   UNL     1      -0.976  -2.772   1.863  1.00  0.00     0.076 C 
BRANCH   7   9
ATOM      9  N   UNL     1      -0.113  -1.681  -0.250  1.00  0.00    -0.333 N 
ATOM     10  H   UNL     1       0.103  -0.719  -0.507  1.00  0.00     0.347 HD
ATOM     11  H   UNL     1      -0.588  -2.255  -0.947  1.00  0.00     0.347 HD
BRANCH   9  12
ATOM     12  C   UNL     1       1.167  -2.368  -0.061  1.00  0.00     0.282 C 
ATOM     13  C   UNL     1       2.177  -1.723   0.877  1.00  0.00     0.176 C 
ATOM     14  C   UNL     1       1.978  -2.447  -1.355  1.00  0.00     0.287 C 
ATOM     15  C   UNL     1       3.489  -2.173   0.320  1.00  0.00     0.235 C 
ATOM     16  N   UNL     1       3.304  -2.456  -1.001  1.00  0.00    -0.280 N 
ATOM     17  O   UNL     1       1.534  -2.528  -2.490  1.00  0.00    -0.267 OA
ATOM     18  O   UNL     1       4.540  -2.174   0.941  1.00  0.00    -0.274 OA
ATOM     19  C   UNL     1       4.378  -2.705  -1.928  1.00  0.00     0.156 C 
ENDBRANCH   9  12
ENDBRANCH   7   9
ENDBRANCH   5   7
ENDBRANCH   3   5
ENDBRANCH   2   3
ENDBRANCH   1   2
BRANCH   1  20
ATOM     20  C   UNL     1      -1.439   1.202   5.631  1.00  0.00     0.275 C 
BRANCH  20  21
ATOM     21  O   UNL     1      -1.932   2.177   4.694  1.00  0.00    -0.458 OA
BRANCH  21  22
ATOM     22  C   UNL     1      -1.095   3.191   4.388  1.00  0.00     0.338 C 
ATOM     23  O   UNL     1      -0.003   3.430   4.878  1.00  0.00    -0.246 OA
BRANCH  22  24
ATOM     24  C   UNL     1      -1.716   4.016   3.337  1.00  0.00     0.060 A 
ATOM     25  C   UNL     1      -2.215   3.425   2.173  1.00  0.00     0.016 A 
ATOM     26  C   UNL     1      -1.770   5.400   3.496  1.00  0.00     0.016 A 
ATOM     27  C   UNL     1      -2.742   4.209   1.154  1.00  0.00     0.010 A 
ATOM     28  C   UNL     1      -2.385   6.178   2.514  1.00  0.00     0.010 A 
ATOM     29  C   UNL     1      -2.880   5.589   1.337  1.00  0.00    -0.014 A 
BRANCH  29  30
ATOM     30  C   UNL     1      -3.594   6.415   0.333  1.00  0.00     0.031 A 
ATOM     31  C   UNL     1      -2.885   7.536  -0.364  1.00  0.00     0.074 A 
ATOM     32  C   UNL     1      -4.900   6.184   0.092  1.00  0.00     0.049 A 
ATOM     33  N   UNL     1      -3.382   8.513  -1.077  1.00  0.00    -0.248 NA
ATOM     34  C   UNL     1      -1.420   7.570  -0.231  1.00  0.00     0.031 C 
ATOM     35  C   UNL     1      -5.690   5.096   0.673  1.00  0.00     0.029 A 
ATOM     36  N   UNL     1      -5.800   6.864  -0.689  1.00  0.00    -0.354 N 
ATOM     37  C   UNL     1      -2.300   9.302  -1.442  1.00  0.00     0.074 A 
ATOM     38  C   UNL     1      -1.118   8.691  -0.872  1.00  0.00     0.031 C 
ATOM     39  C   UNL     1      -6.951   5.178   0.226  1.00  0.00     0.029 A 
ATOM     40  C   UNL     1      -7.079   6.373  -0.599  1.00  0.00     0.049 A 
ATOM     41  H   UNL     1      -5.553   7.629  -1.258  1.00  0.00     0.167 HD
ATOM     42  C   UNL     1      -2.304  10.438  -2.180  1.00  0.00     0.037 A 
ATOM     43  C   UNL     1      -8.240   6.864  -1.072  1.00  0.00     0.037 A 
ATOM     44  C   UNL     1      -3.485  11.016  -2.765  1.00  0.00     0.049 A 
ATOM     45  C   UNL     1      -8.226   8.162  -1.827  1.00  0.00     0.074 A 
ATOM     46  C   UNL     1      -3.593  12.144  -3.561  1.00  0.00     0.029 A 
ATOM     47  N   UNL     1      -4.768  10.507  -2.619  1.00  0.00    -0.354 N 
ATOM     48  N   UNL     1      -7.206   8.922  -2.141  1.00  0.00    -0.248 NA
ATOM     49  C   UNL     1      -9.526   8.682  -2.269  1.00  0.00     0.031 C 
ATOM     50  C   UNL     1      -4.946  12.340  -3.861  1.00  0.00     0.029 A 
ATOM     51  C   UNL     1      -5.677  11.313  -3.286  1.00  0.00     0.049 A 
ATOM     52  H   UNL     1      -4.998   9.693  -2.115  1.00  0.00     0.167 HD
ATOM     53  C   UNL     1      -7.737  10.009  -2.819  1.00  0.00     0.074 A 
ATOM     54  C   UNL     1      -9.169   9.797  -2.891  1.00  0.00     0.031 C 
ATOM     55  C   UNL     1      -7.098  11.089  -3.331  1.00  0.00     0.037 A 
BRANCH  42  56
ATOM     56  C   UNL     1      -0.998  11.150  -2.366  1.00  0.00     0.064 A 
ATOM     57  C   UNL     1      -0.001  10.659  -3.220  1.00  0.00     0.173 A 
ATOM     58  C   UNL     1      -0.760  12.367  -1.708  1.00  0.00     0.173 A 
ATOM     59  F   UNL     1      -0.174   9.493  -3.861  1.00  0.00    -0.203 F 
ATOM     60  C   UNL     1       1.197  11.350  -3.393  1.00  0.00     0.198 A 
ATOM     61  C   UNL     1       0.428  13.067  -1.902  1.00  0.00     0.198 A 
ATOM     62  F   UNL     1      -1.684  12.881  -0.882  1.00  0.00    -0.203 F 
ATOM     63  F   UNL     1       2.152  10.844  -4.184  1.00  0.00    -0.200 F 
ATOM     64  C   UNL     1       1.407  12.556  -2.740  1.00  0.00     0.200 A 
ATOM     65  F   UNL     1       0.625  14.236  -1.276  1.00  0.00    -0.200 F 
ATOM     66  F   UNL     1       2.557  13.222  -2.913  1.00  0.00    -0.200 F 
ENDBRANCH  42  56
BRANCH  43  67
ATOM     67  C   UNL     1      -9.512   6.154  -0.785  1.00  0.00     0.064 A 
ATOM     68  C   UNL     1     -10.221   5.506  -1.804  1.00  0.00     0.173 A 
ATOM     69  C   UNL     1     -10.035   6.093   0.516  1.00  0.00     0.173 A 
ATOM     70  F   UNL     1      -9.773   5.559  -3.067  1.00  0.00    -0.203 F 
ATOM     71  C   UNL     1     -11.408   4.829  -1.535  1.00  0.00     0.198 A 
ATOM     72  C   UNL     1     -11.207   5.391   0.789  1.00  0.00     0.198 A 
ATOM     73  F   UNL     1      -9.395   6.698   1.527  1.00  0.00    -0.203 F 
ATOM     74  F   UNL     1     -12.086   4.247  -2.534  1.00  0.00    -0.200 F 
ATOM     75  C   UNL     1     -11.895   4.764  -0.238  1.00  0.00     0.200 A 
ATOM     76  F   UNL     1     -11.666   5.321   2.046  1.00  0.00    -0.200 F 
ATOM     77  F   UNL     1     -13.031   4.103   0.022  1.00  0.00    -0.200 F 
ENDBRANCH  43  67
BRANCH  55  78
ATOM     78  C   UNL     1      -7.947  12.116  -4.016  1.00  0.00     0.064 A 
ATOM     79  C   UNL     1      -8.751  13.002  -3.283  1.00  0.00     0.173 A 
ATOM     80  C   UNL     1      -7.934  12.236  -5.413  1.00  0.00     0.173 A 
ATOM     81  F   UNL     1      -8.810  12.911  -1.946  1.00  0.00    -0.203 F 
ATOM     82  C   UNL     1      -9.526  13.961  -3.928  1.00  0.00     0.198 A 
ATOM     83  C   UNL     1      -8.692  13.212  -6.053  1.00  0.00     0.198 A 
ATOM     84  F   UNL     1      -7.180  11.412  -6.155  1.00  0.00    -0.203 F 
ATOM     85  F   UNL     1     -10.318  14.771  -3.212  1.00  0.00    -0.200 F 
ATOM     86  C   UNL     1      -9.491  14.070  -5.311  1.00  0.00     0.200 A 
ATOM     87  F   UNL     1      -8.651  13.322  -7.387  1.00  0.00    -0.200 F 
ATOM     88  F   UNL     1     -10.235  14.997  -5.929  1.00  0.00    -0.200 F 
ENDBRANCH  55  78
ENDBRANCH  29  30
ENDBRANCH  22  24
ENDBRANCH  21  22
ENDBRANCH  20  21
ENDBRANCH   1  20
TORSDOF 14
