REMARK SMILES Cc1[nH]c2ccccc2c1/N=N\c1ccccc1C(=O)OCCOC(=O)c1ccc(-c2c3nc(c(-c4c(F)c(F)c(F)c(F)c4F)c4ccc([nH]4)c(-c4c(F)c(F)c(F)c(F)c4F)c4nc(c(-c5c(F)c(F)c(F)c(F)c5F)c5ccc2[nH]5)C=C4)C=C3)cc1
REMARK SMILES IDX 22 1 21 2 19 3 20 4 18 5 13 6 14 7 15 8 17 9 16 10 12 11
REMARK SMILES IDX 11 12 10 13 1 14 2 15 3 16 4 17 9 19 5 20 8 21 6 22 7 23
REMARK SMILES IDX 23 24 24 25 25 26 26 27 27 28 28 29 89 30 29 31 88 32 30 33
REMARK SMILES IDX 31 34 32 35 82 36 33 37 87 38 81 39 83 40 34 41 86 42 80 43
REMARK SMILES IDX 79 44 35 46 67 47 47 48 66 49 48 50 51 51 65 52 84 53 49 54
REMARK SMILES IDX 50 55 64 57 85 58 52 59 36 60 37 61 45 62 38 63 39 64 43 65
REMARK SMILES IDX 46 66 40 67 41 68 44 69 42 70 68 71 69 72 77 73 70 74 71 75
REMARK SMILES IDX 75 76 78 77 72 78 73 79 76 80 74 81 53 82 54 83 62 84 55 85
REMARK SMILES IDX 56 86 60 87 63 88 57 89 58 90 61 91 59 92
REMARK H PARENT 3 18 83 45 51 56
REMARK Flexibility Score: inf
ROOT
ATOM      1  C   UNL     1      -0.537  -1.795  -2.735  1.00  0.00     0.275 C 
ENDROOT
BRANCH   1   2
ATOM      2  O   UNL     1      -1.799  -2.143  -2.134  1.00  0.00    -0.458 OA
BRANCH   2   3
ATOM      3  C   UNL     1      -2.460  -1.088  -1.609  1.00  0.00     0.340 C 
ATOM      4  O   UNL     1      -2.131   0.083  -1.688  1.00  0.00    -0.246 OA
BRANCH   3   5
ATOM      5  C   UNL     1      -3.677  -1.494  -0.891  1.00  0.00     0.087 A 
ATOM      6  C   UNL     1      -3.550  -2.192   0.315  1.00  0.00     0.100 A 
ATOM      7  C   UNL     1      -4.705  -2.374   1.095  1.00  0.00     0.031 A 
ATOM      8  C   UNL     1      -5.929  -1.803   0.721  1.00  0.00     0.002 A 
ATOM      9  C   UNL     1      -4.912  -0.952  -1.284  1.00  0.00     0.018 A 
ATOM     10  C   UNL     1      -6.032  -1.086  -0.467  1.00  0.00     0.001 A 
BRANCH   6  11
ATOM     11  N   UNL     1      -2.283  -2.646   0.759  1.00  0.00    -0.150 NA
ATOM     12  N   UNL     1      -1.830  -1.965   1.714  1.00  0.00    -0.148 NA
BRANCH  12  13
ATOM     13  C   UNL     1      -1.198  -0.763   1.335  1.00  0.00     0.114 A 
ATOM     14  C   UNL     1      -3.174   0.913   1.720  1.00  0.00     0.067 C 
ATOM     15  C   UNL     1      -1.803   0.478   1.369  1.00  0.00     0.041 A 
ATOM     16  N   UNL     1      -0.881   1.376   0.894  1.00  0.00    -0.357 N 
ATOM     17  C   UNL     1       0.316   0.754   0.624  1.00  0.00     0.048 A 
ATOM     18  H   UNL     1      -1.053   2.337   0.762  1.00  0.00     0.166 HD
ATOM     19  C   UNL     1       0.143  -0.610   0.874  1.00  0.00     0.027 A 
ATOM     20  C   UNL     1       1.519   1.305   0.166  1.00  0.00     0.027 A 
ATOM     21  C   UNL     1       1.234  -1.471   0.627  1.00  0.00     0.012 A 
ATOM     22  C   UNL     1       2.590   0.436  -0.043  1.00  0.00     0.002 A 
ATOM     23  C   UNL     1       2.450  -0.933   0.175  1.00  0.00     0.001 A 
ENDBRANCH  12  13
ENDBRANCH   6  11
ENDBRANCH   3   5
ENDBRANCH   2   3
ENDBRANCH   1   2
BRANCH   1  24
ATOM     24  C   UNL     1      -0.667  -1.492  -4.230  1.00  0.00     0.275 C 
BRANCH  24  25
ATOM     25  O   UNL     1      -1.345  -0.243  -4.481  1.00  0.00    -0.458 OA
BRANCH  25  26
ATOM     26  C   UNL     1      -2.679  -0.352  -4.659  1.00  0.00     0.338 C 
ATOM     27  O   UNL     1      -3.347  -1.376  -4.676  1.00  0.00    -0.246 OA
BRANCH  26  28
ATOM     28  C   UNL     1      -3.316   0.964  -4.796  1.00  0.00     0.060 A 
ATOM     29  C   UNL     1      -3.879   1.558  -3.668  1.00  0.00     0.016 A 
ATOM     30  C   UNL     1      -3.610   1.457  -6.064  1.00  0.00     0.016 A 
ATOM     31  C   UNL     1      -4.844   2.542  -3.796  1.00  0.00     0.010 A 
ATOM     32  C   UNL     1      -4.503   2.525  -6.189  1.00  0.00     0.010 A 
ATOM     33  C   UNL     1      -5.169   3.036  -5.059  1.00  0.00    -0.014 A 
BRANCH  33  34
ATOM     34  C   UNL     1      -6.274   4.014  -5.196  1.00  0.00     0.031 A 
ATOM     35  C   UNL     1      -7.477   3.655  -6.021  1.00  0.00     0.074 A 
ATOM     36  C   UNL     1      -6.217   5.195  -4.552  1.00  0.00     0.049 A 
ATOM     37  N   UNL     1      -8.451   4.417  -6.444  1.00  0.00    -0.248 NA
ATOM     38  C   UNL     1      -7.588   2.249  -6.442  1.00  0.00     0.031 C 
ATOM     39  C   UNL     1      -5.148   5.618  -3.646  1.00  0.00     0.029 A 
ATOM     40  N   UNL     1      -7.082   6.258  -4.562  1.00  0.00    -0.354 N 
ATOM     41  C   UNL     1      -9.253   3.600  -7.232  1.00  0.00     0.074 A 
ATOM     42  C   UNL     1      -8.646   2.287  -7.238  1.00  0.00     0.031 C 
ATOM     43  C   UNL     1      -5.430   6.839  -3.170  1.00  0.00     0.029 A 
ATOM     44  C   UNL     1      -6.643   7.324  -3.816  1.00  0.00     0.049 A 
ATOM     45  H   UNL     1      -7.934   6.258  -5.055  1.00  0.00     0.167 HD
ATOM     46  C   UNL     1     -10.390   3.927  -7.891  1.00  0.00     0.037 A 
ATOM     47  C   UNL     1      -7.132   8.572  -3.712  1.00  0.00     0.037 A 
ATOM     48  C   UNL     1     -10.995   5.234  -7.836  1.00  0.00     0.049 A 
ATOM     49  C   UNL     1      -8.354   8.932  -4.509  1.00  0.00     0.074 A 
ATOM     50  C   UNL     1     -12.144   5.684  -8.462  1.00  0.00     0.029 A 
ATOM     51  N   UNL     1     -10.498   6.301  -7.098  1.00  0.00    -0.354 N 
ATOM     52  N   UNL     1      -9.075   8.181  -5.306  1.00  0.00    -0.248 NA
ATOM     53  C   UNL     1      -8.823  10.319  -4.401  1.00  0.00     0.031 C 
ATOM     54  C   UNL     1     -12.312   7.036  -8.145  1.00  0.00     0.029 A 
ATOM     55  C   UNL     1     -11.307   7.412  -7.266  1.00  0.00     0.049 A 
ATOM     56  H   UNL     1      -9.689   6.271  -6.538  1.00  0.00     0.167 HD
ATOM     57  C   UNL     1     -10.100   8.991  -5.771  1.00  0.00     0.074 A 
ATOM     58  C   UNL     1      -9.913  10.290  -5.154  1.00  0.00     0.031 C 
ATOM     59  C   UNL     1     -11.107   8.690  -6.629  1.00  0.00     0.037 A 
BRANCH  46  60
ATOM     60  C   UNL     1     -11.015   2.874  -8.764  1.00  0.00     0.064 A 
ATOM     61  C   UNL     1     -11.608   1.717  -8.236  1.00  0.00     0.173 A 
ATOM     62  C   UNL     1     -11.018   3.028 -10.160  1.00  0.00     0.173 A 
ATOM     63  F   UNL     1     -11.621   1.510  -6.911  1.00  0.00    -0.203 F 
ATOM     64  C   UNL     1     -12.141   0.737  -9.072  1.00  0.00     0.198 A 
ATOM     65  C   UNL     1     -11.585   2.065 -10.991  1.00  0.00     0.198 A 
ATOM     66  F   UNL     1     -10.470   4.116 -10.722  1.00  0.00    -0.203 F 
ATOM     67  F   UNL     1     -12.640  -0.390  -8.546  1.00  0.00    -0.200 F 
ATOM     68  C   UNL     1     -12.135   0.915 -10.447  1.00  0.00     0.200 A 
ATOM     69  F   UNL     1     -11.591   2.247 -12.318  1.00  0.00    -0.200 F 
ATOM     70  F   UNL     1     -12.648  -0.028 -11.249  1.00  0.00    -0.200 F 
ENDBRANCH  46  60
BRANCH  47  71
ATOM     71  C   UNL     1      -6.445   9.569  -2.851  1.00  0.00     0.064 A 
ATOM     72  C   UNL     1      -7.062  10.067  -1.696  1.00  0.00     0.173 A 
ATOM     73  C   UNL     1      -5.156  10.037  -3.154  1.00  0.00     0.173 A 
ATOM     74  F   UNL     1      -8.300   9.666  -1.373  1.00  0.00    -0.203 F 
ATOM     75  C   UNL     1      -6.423  11.004  -0.885  1.00  0.00     0.198 A 
ATOM     76  C   UNL     1      -4.505  10.946  -2.324  1.00  0.00     0.198 A 
ATOM     77  F   UNL     1      -4.518   9.589  -4.246  1.00  0.00    -0.203 F 
ATOM     78  F   UNL     1      -7.053  11.495   0.190  1.00  0.00    -0.200 F 
ATOM     79  C   UNL     1      -5.142  11.435  -1.195  1.00  0.00     0.200 A 
ATOM     80  F   UNL     1      -3.259  11.343  -2.617  1.00  0.00    -0.200 F 
ATOM     81  F   UNL     1      -4.524  12.327  -0.408  1.00  0.00    -0.200 F 
ENDBRANCH  47  71
BRANCH  59  82
ATOM     82  C   UNL     1     -12.119   9.767  -6.895  1.00  0.00     0.064 A 
ATOM     83  C   UNL     1     -11.807  10.911  -7.643  1.00  0.00     0.173 A 
ATOM     84  C   UNL     1     -13.429   9.635  -6.410  1.00  0.00     0.173 A 
ATOM     85  F   UNL     1     -10.564  11.094  -8.114  1.00  0.00    -0.203 F 
ATOM     86  C   UNL     1     -12.762  11.900  -7.867  1.00  0.00     0.198 A 
ATOM     87  C   UNL     1     -14.391  10.607  -6.668  1.00  0.00     0.198 A 
ATOM     88  F   UNL     1     -13.780   8.556  -5.694  1.00  0.00    -0.203 F 
ATOM     89  F   UNL     1     -12.426  13.014  -8.532  1.00  0.00    -0.200 F 
ATOM     90  C   UNL     1     -14.054  11.743  -7.386  1.00  0.00     0.200 A 
ATOM     91  F   UNL     1     -15.642  10.445  -6.216  1.00  0.00    -0.200 F 
ATOM     92  F   UNL     1     -14.972  12.693  -7.608  1.00  0.00    -0.200 F 
ENDBRANCH  59  82
ENDBRANCH  33  34
ENDBRANCH  26  28
ENDBRANCH  25  26
ENDBRANCH  24  25
ENDBRANCH   1  24
TORSDOF 13
