REMARK SMILES C[C@H](NC(=O)OC(C)(C)C)C(=O)N[C@@H](C)C(=O)N1CCC[C@H]1C(=O)OCCOC(=O)c1ccc(-c2c3nc(c(-c4c(F)c(F)c(F)c(F)c4F)c4ccc([nH]4)c(-c4c(F)c(F)c(F)c(F)c4F)c4nc(c(-c5c(F)c(F)c(F)c(F)c5F)c5ccc2[nH]5)C=C4)C=C3)cc1
REMARK SMILES IDX 23 1 24 2 22 3 18 4 19 5 20 6 21 7 16 8 17 9 14 10 15 11
REMARK SMILES IDX 13 12 11 13 12 14 2 16 1 17 3 18 4 19 5 21 6 22 7 23 8 24
REMARK SMILES IDX 9 25 10 26 25 27 26 28 27 29 28 30 29 31 30 32 31 33 32 34
REMARK SMILES IDX 93 35 33 36 92 37 34 38 35 39 36 40 86 41 37 42 91 43 85 44
REMARK SMILES IDX 87 45 38 46 90 47 84 48 83 49 39 51 71 52 51 53 70 54 52 55
REMARK SMILES IDX 55 56 69 57 88 58 53 59 54 60 68 62 89 63 56 64 40 65 41 66
REMARK SMILES IDX 49 67 42 68 43 69 47 70 50 71 44 72 45 73 48 74 46 75 72 76
REMARK SMILES IDX 73 77 81 78 74 79 75 80 79 81 82 82 76 83 77 84 80 85 78 86
REMARK SMILES IDX 57 87 58 88 66 89 59 90 60 91 64 92 67 93 61 94 62 95 65 96
REMARK SMILES IDX 63 97
REMARK H PARENT 13 15 3 20 87 50 55 61
REMARK Flexibility Score: inf
ROOT
ATOM      1  C   UNL     1      -3.505   6.103  -2.023  1.00  0.00     0.328 C 
ATOM      2  O   UNL     1      -3.646   6.895  -2.954  1.00  0.00    -0.250 OA
ENDROOT
BRANCH   1   3
ATOM      3  C   UNL     1      -3.781   4.606  -2.213  1.00  0.00     0.195 C 
ATOM      4  N   UNL     1      -3.367   3.578  -1.235  1.00  0.00    -0.327 N 
ATOM      5  C   UNL     1      -4.529   2.935  -0.665  1.00  0.00     0.120 C 
ATOM      6  C   UNL     1      -5.568   3.059  -1.763  1.00  0.00     0.024 C 
ATOM      7  C   UNL     1      -5.304   4.443  -2.326  1.00  0.00     0.039 C 
BRANCH   4   8
ATOM      8  C   UNL     1      -2.057   3.151  -1.251  1.00  0.00     0.245 C 
ATOM      9  O   UNL     1      -1.236   3.828  -1.882  1.00  0.00    -0.272 OA
BRANCH   8  10
ATOM     10  C   UNL     1      -1.609   1.723  -0.824  1.00  0.00     0.168 C 
ATOM     11  C   UNL     1      -1.877   0.797  -2.017  1.00  0.00     0.041 C 
BRANCH  10  12
ATOM     12  N   UNL     1      -2.098   1.117   0.407  1.00  0.00    -0.343 N 
ATOM     13  C   UNL     1      -1.434   0.586   1.469  1.00  0.00     0.243 C 
ATOM     14  O   UNL     1      -2.141   0.142   2.382  1.00  0.00    -0.273 OA
ATOM     15  H   UNL     1      -3.079   1.086   0.484  1.00  0.00     0.164 HD
BRANCH  13  16
ATOM     16  C   UNL     1       0.101   0.576   1.617  1.00  0.00     0.171 C 
ATOM     17  C   UNL     1       0.616   1.966   1.985  1.00  0.00     0.042 C 
BRANCH  16  18
ATOM     18  N   UNL     1       0.761  -0.159   0.536  1.00  0.00    -0.310 N 
ATOM     19  C   UNL     1       1.648   0.273  -0.390  1.00  0.00     0.408 C 
ATOM     20  H   UNL     1       0.525  -1.113   0.475  1.00  0.00     0.167 HD
ATOM     21  O   UNL     1       2.092  -0.472  -1.256  1.00  0.00    -0.225 OA
BRANCH  19  22
ATOM     22  O   UNL     1       1.914   1.582  -0.262  1.00  0.00    -0.444 OA
BRANCH  22  23
ATOM     23  C   UNL     1       2.598   2.300  -1.299  1.00  0.00     0.106 C 
ATOM     24  C   UNL     1       4.060   1.863  -1.345  1.00  0.00     0.056 C 
ATOM     25  C   UNL     1       1.810   2.141  -2.600  1.00  0.00     0.056 C 
ATOM     26  C   UNL     1       2.558   3.769  -0.869  1.00  0.00     0.056 C 
ENDBRANCH  22  23
ENDBRANCH  19  22
ENDBRANCH  16  18
ENDBRANCH  13  16
ENDBRANCH  10  12
ENDBRANCH   8  10
ENDBRANCH   4   8
ENDBRANCH   1   3
BRANCH   1  27
ATOM     27  O   UNL     1      -3.239   6.469  -0.742  1.00  0.00    -0.461 OA
BRANCH  27  28
ATOM     28  C   UNL     1      -3.037   7.887  -0.548  1.00  0.00     0.274 C 
BRANCH  28  29
ATOM     29  C   UNL     1      -1.549   8.227  -0.513  1.00  0.00     0.275 C 
BRANCH  29  30
ATOM     30  O   UNL     1      -0.919   7.829  -1.749  1.00  0.00    -0.458 OA
BRANCH  30  31
ATOM     31  C   UNL     1      -0.125   6.739  -1.637  1.00  0.00     0.338 C 
ATOM     32  O   UNL     1       0.165   6.162  -0.600  1.00  0.00    -0.246 OA
BRANCH  31  33
ATOM     33  C   UNL     1       0.421   6.320  -2.946  1.00  0.00     0.060 A 
ATOM     34  C   UNL     1      -0.364   5.604  -3.845  1.00  0.00     0.016 A 
ATOM     35  C   UNL     1       1.796   6.403  -3.156  1.00  0.00     0.016 A 
ATOM     36  C   UNL     1       0.244   4.824  -4.835  1.00  0.00     0.010 A 
ATOM     37  C   UNL     1       2.389   5.721  -4.230  1.00  0.00     0.010 A 
ATOM     38  C   UNL     1       1.637   4.857  -5.040  1.00  0.00    -0.014 A 
BRANCH  38  39
ATOM     39  C   UNL     1       2.257   4.018  -6.115  1.00  0.00     0.031 A 
ATOM     40  C   UNL     1       3.303   2.946  -5.870  1.00  0.00     0.074 A 
ATOM     41  C   UNL     1       1.864   4.211  -7.385  1.00  0.00     0.049 A 
ATOM     42  N   UNL     1       3.632   1.917  -6.622  1.00  0.00    -0.248 NA
ATOM     43  C   UNL     1       4.058   2.998  -4.617  1.00  0.00     0.031 C 
ATOM     44  C   UNL     1       0.898   5.211  -7.839  1.00  0.00     0.029 A 
ATOM     45  N   UNL     1       2.281   3.596  -8.535  1.00  0.00    -0.354 N 
ATOM     46  C   UNL     1       4.468   1.123  -5.840  1.00  0.00     0.074 A 
ATOM     47  C   UNL     1       4.672   1.823  -4.604  1.00  0.00     0.031 C 
ATOM     48  C   UNL     1       0.836   5.176  -9.176  1.00  0.00     0.029 A 
ATOM     49  C   UNL     1       1.793   4.190  -9.665  1.00  0.00     0.049 A 
ATOM     50  H   UNL     1       2.872   2.808  -8.546  1.00  0.00     0.167 HD
ATOM     51  C   UNL     1       5.087  -0.048  -6.127  1.00  0.00     0.037 A 
ATOM     52  C   UNL     1       2.136   4.005 -10.951  1.00  0.00     0.037 A 
ATOM     53  C   UNL     1       5.335  -0.478  -7.472  1.00  0.00     0.049 A 
ATOM     54  C   UNL     1       3.134   2.939 -11.301  1.00  0.00     0.074 A 
ATOM     55  C   UNL     1       6.157  -1.496  -7.920  1.00  0.00     0.029 A 
ATOM     56  N   UNL     1       4.897   0.213  -8.588  1.00  0.00    -0.354 N 
ATOM     57  N   UNL     1       3.731   2.069 -10.523  1.00  0.00    -0.248 NA
ATOM     58  C   UNL     1       3.499   2.829 -12.718  1.00  0.00     0.031 C 
ATOM     59  C   UNL     1       6.339  -1.317  -9.297  1.00  0.00     0.029 A 
ATOM     60  C   UNL     1       5.529  -0.273  -9.717  1.00  0.00     0.049 A 
ATOM     61  H   UNL     1       4.235   0.942  -8.580  1.00  0.00     0.167 HD
ATOM     62  C   UNL     1       4.522   1.290 -11.358  1.00  0.00     0.074 A 
ATOM     63  C   UNL     1       4.316   1.786 -12.703  1.00  0.00     0.031 C 
ATOM     64  C   UNL     1       5.336   0.251 -11.043  1.00  0.00     0.037 A 
BRANCH  51  65
ATOM     65  C   UNL     1       5.706  -0.821  -4.994  1.00  0.00     0.064 A 
ATOM     66  C   UNL     1       4.926  -1.643  -4.163  1.00  0.00     0.173 A 
ATOM     67  C   UNL     1       7.089  -0.786  -4.764  1.00  0.00     0.173 A 
ATOM     68  F   UNL     1       3.601  -1.727  -4.351  1.00  0.00    -0.203 F 
ATOM     69  C   UNL     1       5.510  -2.395  -3.142  1.00  0.00     0.198 A 
ATOM     70  C   UNL     1       7.670  -1.545  -3.750  1.00  0.00     0.198 A 
ATOM     71  F   UNL     1       7.879  -0.017  -5.527  1.00  0.00    -0.203 F 
ATOM     72  F   UNL     1       4.752  -3.176  -2.360  1.00  0.00    -0.200 F 
ATOM     73  C   UNL     1       6.881  -2.347  -2.939  1.00  0.00     0.200 A 
ATOM     74  F   UNL     1       8.996  -1.504  -3.562  1.00  0.00    -0.200 F 
ATOM     75  F   UNL     1       7.446  -3.074  -1.964  1.00  0.00    -0.200 F 
ENDBRANCH  51  65
BRANCH  52  76
ATOM     76  C   UNL     1       1.555   4.906 -11.973  1.00  0.00     0.064 A 
ATOM     77  C   UNL     1       0.657   4.428 -12.932  1.00  0.00     0.173 A 
ATOM     78  C   UNL     1       1.856   6.279 -11.977  1.00  0.00     0.173 A 
ATOM     79  F   UNL     1       0.354   3.123 -12.973  1.00  0.00    -0.203 F 
ATOM     80  C   UNL     1       0.085   5.288 -13.865  1.00  0.00     0.198 A 
ATOM     81  C   UNL     1       1.255   7.143 -12.887  1.00  0.00     0.198 A 
ATOM     82  F   UNL     1       2.706   6.786 -11.072  1.00  0.00    -0.203 F 
ATOM     83  F   UNL     1      -0.747   4.802 -14.796  1.00  0.00    -0.200 F 
ATOM     84  C   UNL     1       0.375   6.645 -13.835  1.00  0.00     0.200 A 
ATOM     85  F   UNL     1       1.520   8.455 -12.837  1.00  0.00    -0.200 F 
ATOM     86  F   UNL     1      -0.193   7.473 -14.721  1.00  0.00    -0.200 F 
ENDBRANCH  52  76
BRANCH  64  87
ATOM     87  C   UNL     1       6.055  -0.432 -12.168  1.00  0.00     0.064 A 
ATOM     88  C   UNL     1       7.075   0.201 -12.891  1.00  0.00     0.173 A 
ATOM     89  C   UNL     1       5.740  -1.760 -12.498  1.00  0.00     0.173 A 
ATOM     90  F   UNL     1       7.411   1.472 -12.617  1.00  0.00    -0.203 F 
ATOM     91  C   UNL     1       7.725  -0.455 -13.931  1.00  0.00     0.198 A 
ATOM     92  C   UNL     1       6.420  -2.426 -13.511  1.00  0.00     0.198 A 
ATOM     93  F   UNL     1       4.781  -2.416 -11.826  1.00  0.00    -0.203 F 
ATOM     94  F   UNL     1       8.653   0.190 -14.651  1.00  0.00    -0.200 F 
ATOM     95  C   UNL     1       7.402  -1.770 -14.235  1.00  0.00     0.200 A 
ATOM     96  F   UNL     1       6.121  -3.703 -13.787  1.00  0.00    -0.200 F 
ATOM     97  F   UNL     1       8.034  -2.402 -15.233  1.00  0.00    -0.200 F 
ENDBRANCH  64  87
ENDBRANCH  38  39
ENDBRANCH  31  33
ENDBRANCH  30  31
ENDBRANCH  29  30
ENDBRANCH  28  29
ENDBRANCH  27  28
ENDBRANCH   1  27
TORSDOF 18
