REMARK SMILES O=C1NC(=S)S/C1=C\c1ccc(OCc2cn(-c3ccc(C(=O)OCCOC(=O)c4ccc(-c5c6nc(c(-c7c(F)c(F)c(F)c(F)c7F)c7ccc([nH]7)c(-c7c(F)c(F)c(F)c(F)c7F)c7nc(c(-c8c(F)c(F)c(F)c(F)c8F)c8ccc5[nH]8)C=C7)C=C6)cc4)cc3)nn2)cc1
REMARK SMILES IDX 24 1 22 2 23 3 21 4 18 5 19 6 94 7 20 8 93 9 17 10 15 11
REMARK SMILES IDX 16 12 96 13 95 14 14 15 13 16 12 17 9 18 10 19 98 20 11 21
REMARK SMILES IDX 97 22 8 23 1 24 2 25 3 26 7 27 4 28 6 30 5 31 25 32 26 33
REMARK SMILES IDX 27 34 28 35 29 36 30 37 31 38 92 39 32 40 91 41 33 42 34 43
REMARK SMILES IDX 35 44 85 45 36 46 90 47 84 48 86 49 37 50 89 51 83 52 82 53
REMARK SMILES IDX 38 55 70 56 50 57 69 58 51 59 54 60 68 61 87 62 52 63 53 64
REMARK SMILES IDX 67 66 88 67 55 68 39 69 40 70 48 71 41 72 42 73 46 74 49 75
REMARK SMILES IDX 43 76 44 77 47 78 45 79 71 80 72 81 80 82 73 83 74 84 78 85
REMARK SMILES IDX 81 86 75 87 76 88 79 89 77 90 56 91 57 92 65 93 58 94 59 95
REMARK SMILES IDX 63 96 66 97 60 98 61 99 64 100 62 101
REMARK H PARENT 3 29 86 54 54 65
REMARK Flexibility Score: inf
ROOT
ATOM      1  O   UNL     1       6.729  10.505  -0.268  1.00  0.00    -0.458 OA
ENDROOT
BRANCH   1   2
ATOM      2  C   UNL     1       6.287  10.027  -1.464  1.00  0.00     0.338 C 
ATOM      3  O   UNL     1       6.878  10.056  -2.518  1.00  0.00    -0.246 OA
BRANCH   2   4
ATOM      4  C   UNL     1       4.979   9.348  -1.282  1.00  0.00     0.060 A 
ATOM      5  C   UNL     1       2.483   8.115  -1.132  1.00  0.00     0.066 A 
ATOM      6  C   UNL     1       3.418   7.684  -2.084  1.00  0.00     0.029 A 
ATOM      7  C   UNL     1       2.825   9.108  -0.205  1.00  0.00     0.029 A 
ATOM      8  C   UNL     1       4.654   8.320  -2.175  1.00  0.00     0.018 A 
ATOM      9  C   UNL     1       4.084   9.710  -0.270  1.00  0.00     0.018 A 
BRANCH   5  10
ATOM     10  N   UNL     1       1.173   7.586  -1.177  1.00  0.00    -0.220 N 
ATOM     11  C   UNL     1      -0.994   7.326  -1.180  1.00  0.00     0.120 A 
ATOM     12  C   UNL     1       0.007   8.146  -0.704  1.00  0.00     0.144 A 
ATOM     13  N   UNL     1      -0.420   6.298  -1.879  1.00  0.00    -0.131 NA
ATOM     14  N   UNL     1       0.890   6.463  -1.872  1.00  0.00    -0.062 NA
BRANCH  11  15
ATOM     15  C   UNL     1      -2.479   7.474  -1.135  1.00  0.00     0.289 C 
BRANCH  15  16
ATOM     16  O   UNL     1      -3.140   6.728  -0.101  1.00  0.00    -0.487 OA
BRANCH  16  17
ATOM     17  C   UNL     1      -3.136   5.362  -0.189  1.00  0.00     0.119 A 
ATOM     18  C   UNL     1      -2.910   2.569  -0.021  1.00  0.00    -0.024 A 
ATOM     19  C   UNL     1      -3.377   3.301   1.073  1.00  0.00     0.012 A 
ATOM     20  C   UNL     1      -2.650   3.230  -1.223  1.00  0.00     0.012 A 
ATOM     21  C   UNL     1      -3.485   4.693   0.987  1.00  0.00     0.047 A 
ATOM     22  C   UNL     1      -2.787   4.616  -1.312  1.00  0.00     0.047 A 
BRANCH  18  23
ATOM     23  C   UNL     1      -2.674   1.127   0.084  1.00  0.00     0.029 C 
ATOM     24  O   UNL     1      -2.196  -1.743   0.157  1.00  0.00    -0.268 OA
ATOM     25  C   UNL     1      -1.292  -0.925   0.114  1.00  0.00     0.263 C 
ATOM     26  N   UNL     1       0.039  -1.234   0.070  1.00  0.00    -0.307 N 
ATOM     27  C   UNL     1      -1.463   0.552   0.082  1.00  0.00     0.080 C 
ATOM     28  C   UNL     1       0.935  -0.211   0.021  1.00  0.00     0.145 C 
ATOM     29  H   UNL     1       0.340  -2.172   0.075  1.00  0.00     0.171 HD
ATOM     30  S   UNL     1       0.087   1.316   0.025  1.00  0.00    -0.055 SA
ATOM     31  S   UNL     1       2.575  -0.432  -0.036  1.00  0.00    -0.052 S 
ENDBRANCH  18  23
ENDBRANCH  16  17
ENDBRANCH  15  16
ENDBRANCH  11  15
ENDBRANCH   5  10
ENDBRANCH   2   4
ENDBRANCH   1   2
BRANCH   1  32
ATOM     32  C   UNL     1       8.103  10.915  -0.255  1.00  0.00     0.275 C 
BRANCH  32  33
ATOM     33  C   UNL     1       9.019   9.750   0.090  1.00  0.00     0.275 C 
BRANCH  33  34
ATOM     34  O   UNL     1       9.084   8.783  -0.958  1.00  0.00    -0.458 OA
BRANCH  34  35
ATOM     35  C   UNL     1       8.279   7.710  -0.790  1.00  0.00     0.338 C 
ATOM     36  O   UNL     1       7.255   7.643  -0.129  1.00  0.00    -0.246 OA
BRANCH  35  37
ATOM     37  C   UNL     1       8.961   6.519  -1.304  1.00  0.00     0.060 A 
ATOM     38  C   UNL     1       8.224   5.339  -1.436  1.00  0.00     0.016 A 
ATOM     39  C   UNL     1      10.361   6.527  -1.386  1.00  0.00     0.016 A 
ATOM     40  C   UNL     1       8.906   4.142  -1.544  1.00  0.00     0.010 A 
ATOM     41  C   UNL     1      11.039   5.333  -1.467  1.00  0.00     0.010 A 
ATOM     42  C   UNL     1      10.306   4.149  -1.499  1.00  0.00    -0.014 A 
BRANCH  42  43
ATOM     43  C   UNL     1      11.013   2.896  -1.677  1.00  0.00     0.031 A 
ATOM     44  C   UNL     1      10.940   2.398  -3.073  1.00  0.00     0.074 A 
ATOM     45  C   UNL     1      11.790   2.351  -0.720  1.00  0.00     0.049 A 
ATOM     46  N   UNL     1      10.416   1.296  -3.491  1.00  0.00    -0.248 NA
ATOM     47  C   UNL     1      11.359   3.310  -4.153  1.00  0.00     0.031 C 
ATOM     48  C   UNL     1      12.158   2.940   0.570  1.00  0.00     0.029 A 
ATOM     49  N   UNL     1      12.513   1.197  -0.747  1.00  0.00    -0.354 N 
ATOM     50  C   UNL     1      10.615   1.286  -4.869  1.00  0.00     0.074 A 
ATOM     51  C   UNL     1      11.016   2.615  -5.237  1.00  0.00     0.031 C 
ATOM     52  C   UNL     1      13.201   2.254   1.090  1.00  0.00     0.029 A 
ATOM     53  C   UNL     1      13.495   1.116   0.234  1.00  0.00     0.049 A 
ATOM     54  H   UNL     1      12.354   0.481  -1.404  1.00  0.00     0.167 HD
ATOM     55  C   UNL     1      10.710   0.107  -5.540  1.00  0.00     0.037 A 
ATOM     56  C   UNL     1      14.514   0.220   0.287  1.00  0.00     0.037 A 
ATOM     57  C   UNL     1      10.132  -0.966  -4.769  1.00  0.00     0.049 A 
ATOM     58  C   UNL     1      14.163  -0.907  -0.611  1.00  0.00     0.074 A 
ATOM     59  C   UNL     1       8.878  -1.241  -4.263  1.00  0.00     0.029 A 
ATOM     60  N   UNL     1      11.002  -1.786  -4.098  1.00  0.00    -0.354 N 
ATOM     61  N   UNL     1      13.219  -1.771  -0.369  1.00  0.00    -0.248 NA
ATOM     62  C   UNL     1      14.603  -0.837  -1.996  1.00  0.00     0.031 C 
ATOM     63  C   UNL     1       9.111  -1.898  -3.019  1.00  0.00     0.029 A 
ATOM     64  C   UNL     1      10.488  -2.046  -2.857  1.00  0.00     0.049 A 
ATOM     65  H   UNL     1      11.854  -2.130  -4.450  1.00  0.00     0.167 HD
ATOM     66  C   UNL     1      12.640  -2.006  -1.606  1.00  0.00     0.074 A 
ATOM     67  C   UNL     1      13.610  -1.512  -2.578  1.00  0.00     0.031 C 
ATOM     68  C   UNL     1      11.311  -2.302  -1.699  1.00  0.00     0.037 A 
BRANCH  55  69
ATOM     69  C   UNL     1      11.716  -0.150  -6.643  1.00  0.00     0.064 A 
ATOM     70  C   UNL     1      11.711  -1.412  -7.273  1.00  0.00     0.173 A 
ATOM     71  C   UNL     1      12.870   0.633  -6.873  1.00  0.00     0.173 A 
ATOM     72  F   UNL     1      10.673  -2.248  -7.121  1.00  0.00    -0.203 F 
ATOM     73  C   UNL     1      12.818  -1.891  -7.978  1.00  0.00     0.198 A 
ATOM     74  C   UNL     1      13.950   0.172  -7.623  1.00  0.00     0.198 A 
ATOM     75  F   UNL     1      13.062   1.824  -6.297  1.00  0.00    -0.203 F 
ATOM     76  F   UNL     1      12.823  -3.153  -8.428  1.00  0.00    -0.200 F 
ATOM     77  C   UNL     1      13.941  -1.103  -8.143  1.00  0.00     0.200 A 
ATOM     78  F   UNL     1      15.036   0.947  -7.756  1.00  0.00    -0.200 F 
ATOM     79  F   UNL     1      15.030  -1.585  -8.754  1.00  0.00    -0.200 F 
ENDBRANCH  55  69
BRANCH  56  80
ATOM     80  C   UNL     1      15.887   0.379   0.826  1.00  0.00     0.064 A 
ATOM     81  C   UNL     1      16.710  -0.741   1.045  1.00  0.00     0.173 A 
ATOM     82  C   UNL     1      16.523   1.635   0.862  1.00  0.00     0.173 A 
ATOM     83  F   UNL     1      16.196  -1.978   0.988  1.00  0.00    -0.203 F 
ATOM     84  C   UNL     1      18.088  -0.614   1.248  1.00  0.00     0.198 A 
ATOM     85  C   UNL     1      17.898   1.760   1.075  1.00  0.00     0.198 A 
ATOM     86  F   UNL     1      15.845   2.759   0.592  1.00  0.00    -0.203 F 
ATOM     87  F   UNL     1      18.849  -1.710   1.378  1.00  0.00    -0.200 F 
ATOM     88  C   UNL     1      18.683   0.636   1.251  1.00  0.00     0.200 A 
ATOM     89  F   UNL     1      18.466   2.974   1.040  1.00  0.00    -0.200 F 
ATOM     90  F   UNL     1      20.012   0.756   1.378  1.00  0.00    -0.200 F 
ENDBRANCH  56  80
BRANCH  68  91
ATOM     91  C   UNL     1      10.606  -2.737  -0.446  1.00  0.00     0.064 A 
ATOM     92  C   UNL     1      10.465  -1.949   0.710  1.00  0.00     0.173 A 
ATOM     93  C   UNL     1       9.954  -3.978  -0.465  1.00  0.00     0.173 A 
ATOM     94  F   UNL     1      10.974  -0.711   0.772  1.00  0.00    -0.203 F 
ATOM     95  C   UNL     1       9.749  -2.413   1.813  1.00  0.00     0.198 A 
ATOM     96  C   UNL     1       9.204  -4.418   0.620  1.00  0.00     0.198 A 
ATOM     97  F   UNL     1      10.015  -4.753  -1.560  1.00  0.00    -0.203 F 
ATOM     98  F   UNL     1       9.653  -1.658   2.918  1.00  0.00    -0.200 F 
ATOM     99  C   UNL     1       9.114  -3.643   1.764  1.00  0.00     0.200 A 
ATOM    100  F   UNL     1       8.554  -5.588   0.547  1.00  0.00    -0.200 F 
ATOM    101  F   UNL     1       8.398  -4.075   2.811  1.00  0.00    -0.200 F 
ENDBRANCH  68  91
ENDBRANCH  42  43
ENDBRANCH  35  37
ENDBRANCH  34  35
ENDBRANCH  33  34
ENDBRANCH  32  33
ENDBRANCH   1  32
TORSDOF 16
