REMARK SMILES COc1ccc(CC(=O)Nc2ccc(N3CC[NH+](C)CC3)cc2C(=O)OCCOC(=O)c2ccc(-c3c4nc(c(-c5c(F)c(F)c(F)c(F)c5F)c5ccc([nH]5)c(-c5c(F)c(F)c(F)c(F)c5F)c5nc(c(-c6c(F)c(F)c(F)c(F)c6F)c6ccc3[nH]6)C=C5)C=C4)cc2)cc1
REMARK SMILES IDX 27 1 26 2 24 3 25 4 23 5 11 6 12 7 13 8 22 9 14 10 10 11
REMARK SMILES IDX 8 12 9 13 7 15 6 16 3 17 4 18 96 19 5 20 95 21 2 22 1 23
REMARK SMILES IDX 15 24 16 25 21 26 17 27 20 28 18 29 19 30 28 32 29 33 30 34
REMARK SMILES IDX 31 35 32 36 33 37 94 38 34 39 93 40 35 41 36 42 37 43 87 44
REMARK SMILES IDX 38 45 92 46 86 47 88 48 39 49 91 50 85 51 84 52 40 54 72 55
REMARK SMILES IDX 52 56 71 57 53 58 56 59 70 60 89 61 54 62 55 63 69 65 90 66
REMARK SMILES IDX 57 67 41 68 42 69 50 70 43 71 44 72 48 73 51 74 45 75 46 76
REMARK SMILES IDX 49 77 47 78 73 79 74 80 82 81 75 82 76 83 80 84 83 85 77 86
REMARK SMILES IDX 78 87 81 88 79 89 58 90 59 91 67 92 60 93 61 94 65 95 68 96
REMARK SMILES IDX 62 97 63 98 66 99 64 100
REMARK H PARENT 10 14 18 31 88 53 56 64
REMARK Flexibility Score: inf
ROOT
ATOM      1  C   UNL     1      -0.377   3.288  -5.123  1.00  0.00     0.275 C 
ENDROOT
BRANCH   1   2
ATOM      2  O   UNL     1       0.887   2.836  -5.665  1.00  0.00    -0.458 OA
BRANCH   2   3
ATOM      3  C   UNL     1       1.796   2.591  -4.706  1.00  0.00     0.340 C 
ATOM      4  O   UNL     1       1.543   2.488  -3.509  1.00  0.00    -0.246 OA
BRANCH   3   5
ATOM      5  C   UNL     1       3.194   2.552  -5.117  1.00  0.00     0.085 A 
ATOM      6  C   UNL     1       3.850   3.727  -5.482  1.00  0.00     0.055 A 
ATOM      7  C   UNL     1       5.191   3.648  -5.834  1.00  0.00     0.029 A 
ATOM      8  C   UNL     1       5.911   2.467  -5.579  1.00  0.00     0.028 A 
ATOM      9  C   UNL     1       3.929   1.370  -4.885  1.00  0.00     0.043 A 
ATOM     10  C   UNL     1       5.322   1.330  -4.998  1.00  0.00     0.038 A 
BRANCH   6  11
ATOM     11  N   UNL     1       3.216   4.983  -5.500  1.00  0.00    -0.325 N 
ATOM     12  C   UNL     1       2.569   5.582  -4.433  1.00  0.00     0.228 C 
ATOM     13  O   UNL     1       1.593   6.300  -4.664  1.00  0.00    -0.274 OA
ATOM     14  H   UNL     1       3.234   5.481  -6.348  1.00  0.00     0.169 HD
BRANCH  12  15
ATOM     15  C   UNL     1       3.182   5.475  -3.031  1.00  0.00     0.135 C 
BRANCH  15  16
ATOM     16  C   UNL     1       2.457   4.637  -2.000  1.00  0.00    -0.038 A 
ATOM     17  C   UNL     1       1.120   2.881  -0.220  1.00  0.00     0.118 A 
ATOM     18  C   UNL     1       0.428   3.903  -0.875  1.00  0.00     0.047 A 
ATOM     19  C   UNL     1       2.500   2.791  -0.389  1.00  0.00     0.047 A 
ATOM     20  C   UNL     1       1.087   4.786  -1.744  1.00  0.00     0.008 A 
ATOM     21  C   UNL     1       3.161   3.659  -1.274  1.00  0.00     0.008 A 
BRANCH  17  22
ATOM     22  O   UNL     1       0.337   2.050   0.534  1.00  0.00    -0.497 OA
ATOM     23  C   UNL     1       0.913   0.844   1.017  1.00  0.00     0.278 C 
ENDBRANCH  17  22
ENDBRANCH  15  16
ENDBRANCH  12  15
ENDBRANCH   6  11
BRANCH  10  24
ATOM     24  N   UNL     1       6.074   0.293  -4.472  1.00  0.00    -0.360 N 
ATOM     25  C   UNL     1       5.627  -1.115  -4.404  1.00  0.00     0.178 C 
ATOM     26  C   UNL     1       7.500   0.482  -4.133  1.00  0.00     0.178 C 
ATOM     27  C   UNL     1       6.080  -1.799  -3.083  1.00  0.00     0.283 C 
ATOM     28  C   UNL     1       7.866  -0.226  -2.807  1.00  0.00     0.283 C 
ATOM     29  N   UNL     1       7.525  -1.661  -2.808  1.00  0.00    -0.334 N 
ATOM     30  C   UNL     1       7.865  -2.271  -1.521  1.00  0.00     0.332 C 
ATOM     31  H   UNL     1       8.060  -2.143  -3.531  1.00  0.00     0.347 HD
ENDBRANCH  10  24
ENDBRANCH   3   5
ENDBRANCH   2   3
ENDBRANCH   1   2
BRANCH   1  32
ATOM     32  C   UNL     1      -1.331   2.190  -4.613  1.00  0.00     0.275 C 
BRANCH  32  33
ATOM     33  O   UNL     1      -0.784   1.389  -3.543  1.00  0.00    -0.458 OA
BRANCH  33  34
ATOM     34  C   UNL     1      -0.553   0.089  -3.833  1.00  0.00     0.338 C 
ATOM     35  O   UNL     1      -0.848  -0.493  -4.865  1.00  0.00    -0.246 OA
BRANCH  34  36
ATOM     36  C   UNL     1       0.187  -0.615  -2.759  1.00  0.00     0.060 A 
ATOM     37  C   UNL     1       1.531  -0.326  -2.561  1.00  0.00     0.016 A 
ATOM     38  C   UNL     1      -0.343  -1.756  -2.163  1.00  0.00     0.016 A 
ATOM     39  C   UNL     1       2.378  -1.207  -1.903  1.00  0.00     0.010 A 
ATOM     40  C   UNL     1       0.494  -2.613  -1.424  1.00  0.00     0.010 A 
ATOM     41  C   UNL     1       1.882  -2.384  -1.350  1.00  0.00    -0.014 A 
BRANCH  41  42
ATOM     42  C   UNL     1       2.842  -3.425  -0.879  1.00  0.00     0.031 A 
ATOM     43  C   UNL     1       2.844  -4.775  -1.552  1.00  0.00     0.074 A 
ATOM     44  C   UNL     1       3.784  -3.163   0.051  1.00  0.00     0.049 A 
ATOM     45  N   UNL     1       3.461  -5.877  -1.206  1.00  0.00    -0.248 NA
ATOM     46  C   UNL     1       2.041  -4.903  -2.780  1.00  0.00     0.031 C 
ATOM     47  C   UNL     1       4.001  -1.875   0.708  1.00  0.00     0.029 A 
ATOM     48  N   UNL     1       4.755  -3.972   0.595  1.00  0.00    -0.354 N 
ATOM     49  C   UNL     1       3.049  -6.842  -2.116  1.00  0.00     0.074 A 
ATOM     50  C   UNL     1       2.148  -6.196  -3.044  1.00  0.00     0.031 C 
ATOM     51  C   UNL     1       5.043  -1.972   1.548  1.00  0.00     0.029 A 
ATOM     52  C   UNL     1       5.520  -3.350   1.553  1.00  0.00     0.049 A 
ATOM     53  H   UNL     1       4.889  -4.909   0.324  1.00  0.00     0.167 HD
ATOM     54  C   UNL     1       3.386  -8.152  -2.167  1.00  0.00     0.037 A 
ATOM     55  C   UNL     1       6.469  -3.839   2.375  1.00  0.00     0.037 A 
ATOM     56  C   UNL     1       4.358  -8.775  -1.310  1.00  0.00     0.049 A 
ATOM     57  C   UNL     1       6.818  -5.302   2.307  1.00  0.00     0.074 A 
ATOM     58  C   UNL     1       4.778 -10.094  -1.298  1.00  0.00     0.029 A 
ATOM     59  N   UNL     1       5.084  -8.114  -0.333  1.00  0.00    -0.354 N 
ATOM     60  N   UNL     1       6.360  -6.225   1.499  1.00  0.00    -0.248 NA
ATOM     61  C   UNL     1       7.806  -5.792   3.280  1.00  0.00     0.031 C 
ATOM     62  C   UNL     1       5.737 -10.238  -0.290  1.00  0.00     0.029 A 
ATOM     63  C   UNL     1       5.942  -9.001   0.297  1.00  0.00     0.049 A 
ATOM     64  H   UNL     1       5.003  -7.157  -0.118  1.00  0.00     0.167 HD
ATOM     65  C   UNL     1       7.006  -7.400   1.859  1.00  0.00     0.074 A 
ATOM     66  C   UNL     1       7.916  -7.066   2.935  1.00  0.00     0.031 C 
ATOM     67  C   UNL     1       6.848  -8.649   1.357  1.00  0.00     0.037 A 
BRANCH  54  68
ATOM     68  C   UNL     1       2.660  -9.020  -3.151  1.00  0.00     0.064 A 
ATOM     69  C   UNL     1       2.934  -8.987  -4.525  1.00  0.00     0.173 A 
ATOM     70  C   UNL     1       1.700  -9.935  -2.692  1.00  0.00     0.173 A 
ATOM     71  F   UNL     1       3.829  -8.116  -5.014  1.00  0.00    -0.203 F 
ATOM     72  C   UNL     1       2.261  -9.830  -5.407  1.00  0.00     0.198 A 
ATOM     73  C   UNL     1       1.048 -10.793  -3.572  1.00  0.00     0.198 A 
ATOM     74  F   UNL     1       1.404 -10.005  -1.385  1.00  0.00    -0.203 F 
ATOM     75  F   UNL     1       2.510  -9.758  -6.721  1.00  0.00    -0.200 F 
ATOM     76  C   UNL     1       1.326 -10.737  -4.929  1.00  0.00     0.200 A 
ATOM     77  F   UNL     1       0.154 -11.676  -3.106  1.00  0.00    -0.200 F 
ATOM     78  F   UNL     1       0.689 -11.555  -5.778  1.00  0.00    -0.200 F 
ENDBRANCH  54  68
BRANCH  55  79
ATOM     79  C   UNL     1       7.121  -2.957   3.381  1.00  0.00     0.064 A 
ATOM     80  C   UNL     1       8.489  -2.663   3.308  1.00  0.00     0.173 A 
ATOM     81  C   UNL     1       6.399  -2.429   4.462  1.00  0.00     0.173 A 
ATOM     82  F   UNL     1       9.228  -3.162   2.306  1.00  0.00    -0.203 F 
ATOM     83  C   UNL     1       9.115  -1.900   4.292  1.00  0.00     0.198 A 
ATOM     84  C   UNL     1       7.018  -1.637   5.426  1.00  0.00     0.198 A 
ATOM     85  F   UNL     1       5.087  -2.681   4.580  1.00  0.00    -0.203 F 
ATOM     86  F   UNL     1      10.437  -1.685   4.230  1.00  0.00    -0.200 F 
ATOM     87  C   UNL     1       8.378  -1.384   5.348  1.00  0.00     0.200 A 
ATOM     88  F   UNL     1       6.298  -1.129   6.435  1.00  0.00    -0.200 F 
ATOM     89  F   UNL     1       8.981  -0.652   6.294  1.00  0.00    -0.200 F 
ENDBRANCH  55  79
BRANCH  67  90
ATOM     90  C   UNL     1       7.693  -9.738   1.950  1.00  0.00     0.064 A 
ATOM     91  C   UNL     1       7.442 -10.241   3.235  1.00  0.00     0.173 A 
ATOM     92  C   UNL     1       8.744 -10.305   1.214  1.00  0.00     0.173 A 
ATOM     93  F   UNL     1       6.458  -9.719   3.983  1.00  0.00    -0.203 F 
ATOM     94  C   UNL     1       8.231 -11.253   3.773  1.00  0.00     0.198 A 
ATOM     95  C   UNL     1       9.513 -11.336   1.744  1.00  0.00     0.198 A 
ATOM     96  F   UNL     1       9.020  -9.863  -0.022  1.00  0.00    -0.203 F 
ATOM     97  F   UNL     1       8.005 -11.684   5.021  1.00  0.00    -0.200 F 
ATOM     98  C   UNL     1       9.261 -11.804   3.025  1.00  0.00     0.200 A 
ATOM     99  F   UNL     1      10.501 -11.876   1.017  1.00  0.00    -0.200 F 
ATOM    100  F   UNL     1      10.018 -12.781   3.544  1.00  0.00    -0.200 F 
ENDBRANCH  67  90
ENDBRANCH  41  42
ENDBRANCH  34  36
ENDBRANCH  33  34
ENDBRANCH  32  33
ENDBRANCH   1  32
TORSDOF 16
