REMARK SMILES COc1ccc(C[N@@H+]2C[C@@H](C(=O)OCCOC(=O)c3ccc(-c4c5nc(c(-c6c(F)c(F)c(F)c(F)c6F)c6ccc([nH]6)c(-c6c(F)c(F)c(F)c(F)c6F)c6nc(c(-c7c(F)c(F)c(F)c(F)c7F)c7ccc4[nH]7)C=C6)C=C5)cc3)[C@H](c3ccccc3OC)C2)c(OC)c1
REMARK SMILES IDX 14 1 13 2 11 3 12 4 10 5 8 6 9 7 91 8 82 10 7 11 6 12 3 13
REMARK SMILES IDX 4 14 95 15 5 16 92 17 2 18 1 19 93 20 94 21 83 22 84 23
REMARK SMILES IDX 88 24 85 25 87 26 86 27 89 28 90 29 15 30 16 31 17 32 18 33
REMARK SMILES IDX 19 34 20 35 81 36 21 37 80 38 22 39 23 40 24 41 74 42 25 43
REMARK SMILES IDX 79 44 73 45 75 46 26 47 78 48 72 49 71 50 27 52 59 53 39 54
REMARK SMILES IDX 58 55 40 56 43 57 57 58 76 59 41 60 42 61 56 63 77 64 44 65
REMARK SMILES IDX 28 66 29 67 37 68 30 69 31 70 35 71 38 72 32 73 33 74 36 75
REMARK SMILES IDX 34 76 60 77 61 78 69 79 62 80 63 81 67 82 70 83 64 84 65 85
REMARK SMILES IDX 68 86 66 87 45 88 46 89 54 90 47 91 48 92 52 93 55 94 49 95
REMARK SMILES IDX 50 96 53 97 51 98
REMARK H PARENT 8 9 75 51 43 62
REMARK Flexibility Score: inf
ROOT
ATOM      1  C   UNL     1      -3.128  -2.642   6.242  1.00  0.00     0.274 C 
ENDROOT
BRANCH   1   2
ATOM      2  O   UNL     1      -1.897  -3.019   5.590  1.00  0.00    -0.462 OA
BRANCH   2   3
ATOM      3  C   UNL     1      -0.753  -2.541   6.161  1.00  0.00     0.315 C 
ATOM      4  O   UNL     1      -0.731  -1.956   7.233  1.00  0.00    -0.252 OA
BRANCH   3   5
ATOM      5  C   UNL     1       0.461  -2.838   5.321  1.00  0.00     0.167 C 
ATOM      6  N   UNL     1       1.929  -4.710   5.032  1.00  0.00    -0.330 N 
ATOM      7  C   UNL     1       0.554  -4.370   5.338  1.00  0.00     0.278 C 
ATOM      8  C   UNL     1       2.735  -3.631   5.622  1.00  0.00     0.272 C 
ATOM      9  H   UNL     1       2.211  -5.598   5.446  1.00  0.00     0.348 HD
ATOM     10  C   UNL     1       1.858  -2.344   5.820  1.00  0.00     0.098 C 
BRANCH   6  11
ATOM     11  C   UNL     1       2.171  -5.043   3.610  1.00  0.00     0.303 C 
BRANCH  11  12
ATOM     12  C   UNL     1       1.788  -3.990   2.585  1.00  0.00     0.048 A 
ATOM     13  C   UNL     1       0.938  -1.689   1.242  1.00  0.00     0.122 A 
ATOM     14  C   UNL     1       0.012  -2.663   1.593  1.00  0.00     0.047 A 
ATOM     15  C   UNL     1       2.302  -1.919   1.437  1.00  0.00     0.093 A 
ATOM     16  C   UNL     1       0.438  -3.828   2.225  1.00  0.00     0.017 A 
ATOM     17  C   UNL     1       2.734  -3.087   2.078  1.00  0.00     0.131 A 
BRANCH  13  18
ATOM     18  O   UNL     1       0.407  -0.499   0.825  1.00  0.00    -0.497 OA
ATOM     19  C   UNL     1       1.067   0.086  -0.288  1.00  0.00     0.278 C 
ENDBRANCH  13  18
BRANCH  17  20
ATOM     20  O   UNL     1       4.047  -3.389   2.330  1.00  0.00    -0.496 OA
ATOM     21  C   UNL     1       5.019  -2.770   1.499  1.00  0.00     0.278 C 
ENDBRANCH  17  20
ENDBRANCH  11  12
ENDBRANCH   6  11
BRANCH  10  22
ATOM     22  C   UNL     1       2.442  -1.024   5.251  1.00  0.00     0.004 A 
ATOM     23  C   UNL     1       3.638  -1.008   4.505  1.00  0.00     0.008 A 
ATOM     24  C   UNL     1       1.931   0.256   5.559  1.00  0.00     0.122 A 
ATOM     25  C   UNL     1       4.221   0.161   3.997  1.00  0.00     0.001 A 
ATOM     26  C   UNL     1       2.471   1.435   4.995  1.00  0.00     0.047 A 
ATOM     27  C   UNL     1       3.610   1.384   4.198  1.00  0.00     0.004 A 
BRANCH  24  28
ATOM     28  O   UNL     1       1.182   0.434   6.696  1.00  0.00    -0.496 OA
ATOM     29  C   UNL     1      -0.206   0.601   6.467  1.00  0.00     0.278 C 
ENDBRANCH  24  28
ENDBRANCH  10  22
ENDBRANCH   3   5
ENDBRANCH   2   3
ENDBRANCH   1   2
BRANCH   1  30
ATOM     30  C   UNL     1      -3.515  -3.514   7.449  1.00  0.00     0.275 C 
BRANCH  30  31
ATOM     31  O   UNL     1      -2.646  -3.323   8.587  1.00  0.00    -0.458 OA
BRANCH  31  32
ATOM     32  C   UNL     1      -1.716  -4.291   8.779  1.00  0.00     0.338 C 
ATOM     33  O   UNL     1      -1.628  -5.344   8.167  1.00  0.00    -0.246 OA
BRANCH  32  34
ATOM     34  C   UNL     1      -0.653  -3.833   9.701  1.00  0.00     0.060 A 
ATOM     35  C   UNL     1       0.617  -3.640   9.152  1.00  0.00     0.016 A 
ATOM     36  C   UNL     1      -0.834  -3.680  11.073  1.00  0.00     0.016 A 
ATOM     37  C   UNL     1       1.699  -3.249   9.926  1.00  0.00     0.010 A 
ATOM     38  C   UNL     1       0.270  -3.334  11.875  1.00  0.00     0.010 A 
ATOM     39  C   UNL     1       1.542  -3.120  11.303  1.00  0.00    -0.014 A 
BRANCH  39  40
ATOM     40  C   UNL     1       2.762  -2.944  12.125  1.00  0.00     0.031 A 
ATOM     41  C   UNL     1       3.339  -4.145  12.816  1.00  0.00     0.074 A 
ATOM     42  C   UNL     1       3.420  -1.771  12.158  1.00  0.00     0.049 A 
ATOM     43  N   UNL     1       4.330  -4.224  13.667  1.00  0.00    -0.248 NA
ATOM     44  C   UNL     1       2.718  -5.439  12.491  1.00  0.00     0.031 C 
ATOM     45  C   UNL     1       3.052  -0.572  11.408  1.00  0.00     0.029 A 
ATOM     46  N   UNL     1       4.548  -1.402  12.850  1.00  0.00    -0.354 N 
ATOM     47  C   UNL     1       4.428  -5.567  14.005  1.00  0.00     0.074 A 
ATOM     48  C   UNL     1       3.395  -6.267  13.272  1.00  0.00     0.031 C 
ATOM     49  C   UNL     1       3.928   0.407  11.693  1.00  0.00     0.029 A 
ATOM     50  C   UNL     1       4.881  -0.080  12.688  1.00  0.00     0.049 A 
ATOM     51  H   UNL     1       5.067  -2.025  13.408  1.00  0.00     0.167 HD
ATOM     52  C   UNL     1       5.300  -6.158  14.855  1.00  0.00     0.037 A 
ATOM     53  C   UNL     1       5.821   0.660  13.310  1.00  0.00     0.037 A 
ATOM     54  C   UNL     1       6.336  -5.454  15.564  1.00  0.00     0.049 A 
ATOM     55  C   UNL     1       6.703   0.005  14.344  1.00  0.00     0.074 A 
ATOM     56  C   UNL     1       7.253  -5.951  16.473  1.00  0.00     0.029 A 
ATOM     57  N   UNL     1       6.594  -4.096  15.438  1.00  0.00    -0.354 N 
ATOM     58  N   UNL     1       6.751  -1.251  14.720  1.00  0.00    -0.248 NA
ATOM     59  C   UNL     1       7.656   0.875  15.048  1.00  0.00     0.031 C 
ATOM     60  C   UNL     1       8.030  -4.885  16.938  1.00  0.00     0.029 A 
ATOM     61  C   UNL     1       7.641  -3.734  16.271  1.00  0.00     0.049 A 
ATOM     62  H   UNL     1       6.106  -3.481  14.845  1.00  0.00     0.167 HD
ATOM     63  C   UNL     1       7.753  -1.327  15.680  1.00  0.00     0.074 A 
ATOM     64  C   UNL     1       8.300   0.007  15.815  1.00  0.00     0.031 C 
ATOM     65  C   UNL     1       8.181  -2.402  16.387  1.00  0.00     0.037 A 
BRANCH  52  66
ATOM     66  C   UNL     1       5.123  -7.626  15.113  1.00  0.00     0.064 A 
ATOM     67  C   UNL     1       5.416  -8.596  14.144  1.00  0.00     0.173 A 
ATOM     68  C   UNL     1       4.654  -8.066  16.361  1.00  0.00     0.173 A 
ATOM     69  F   UNL     1       5.849  -8.229  12.929  1.00  0.00    -0.203 F 
ATOM     70  C   UNL     1       5.217  -9.950  14.404  1.00  0.00     0.198 A 
ATOM     71  C   UNL     1       4.488  -9.421  16.629  1.00  0.00     0.198 A 
ATOM     72  F   UNL     1       4.359  -7.180  17.324  1.00  0.00    -0.203 F 
ATOM     73  F   UNL     1       5.449 -10.857  13.445  1.00  0.00    -0.200 F 
ATOM     74  C   UNL     1       4.760 -10.362  15.648  1.00  0.00     0.200 A 
ATOM     75  F   UNL     1       4.058  -9.817  17.835  1.00  0.00    -0.200 F 
ATOM     76  F   UNL     1       4.572 -11.665  15.898  1.00  0.00    -0.200 F 
ENDBRANCH  52  66
BRANCH  53  77
ATOM     77  C   UNL     1       5.944   2.115  13.021  1.00  0.00     0.064 A 
ATOM     78  C   UNL     1       7.103   2.646  12.438  1.00  0.00     0.173 A 
ATOM     79  C   UNL     1       4.922   3.013  13.366  1.00  0.00     0.173 A 
ATOM     80  F   UNL     1       8.126   1.837  12.122  1.00  0.00    -0.203 F 
ATOM     81  C   UNL     1       7.242   4.018  12.229  1.00  0.00     0.198 A 
ATOM     82  C   UNL     1       5.048   4.379  13.126  1.00  0.00     0.198 A 
ATOM     83  F   UNL     1       3.797   2.562  13.941  1.00  0.00    -0.203 F 
ATOM     84  F   UNL     1       8.385   4.504  11.726  1.00  0.00    -0.200 F 
ATOM     85  C   UNL     1       6.212   4.882  12.567  1.00  0.00     0.200 A 
ATOM     86  F   UNL     1       4.046   5.209  13.448  1.00  0.00    -0.200 F 
ATOM     87  F   UNL     1       6.348   6.200  12.369  1.00  0.00    -0.200 F 
ENDBRANCH  53  77
BRANCH  65  88
ATOM     88  C   UNL     1       9.328  -2.192  17.335  1.00  0.00     0.064 A 
ATOM     89  C   UNL     1       9.185  -1.454  18.520  1.00  0.00     0.173 A 
ATOM     90  C   UNL     1      10.581  -2.766  17.069  1.00  0.00     0.173 A 
ATOM     91  F   UNL     1       8.012  -0.873  18.816  1.00  0.00    -0.203 F 
ATOM     92  C   UNL     1      10.261  -1.271  19.384  1.00  0.00     0.198 A 
ATOM     93  C   UNL     1      11.645  -2.611  17.953  1.00  0.00     0.198 A 
ATOM     94  F   UNL     1      10.772  -3.490  15.955  1.00  0.00    -0.203 F 
ATOM     95  F   UNL     1      10.116  -0.514  20.480  1.00  0.00    -0.200 F 
ATOM     96  C   UNL     1      11.488  -1.855  19.104  1.00  0.00     0.200 A 
ATOM     97  F   UNL     1      12.824  -3.191  17.688  1.00  0.00    -0.200 F 
ATOM     98  F   UNL     1      12.521  -1.683  19.940  1.00  0.00    -0.200 F 
ENDBRANCH  65  88
ENDBRANCH  39  40
ENDBRANCH  32  34
ENDBRANCH  31  32
ENDBRANCH  30  31
ENDBRANCH   1  30
TORSDOF 17
