REMARK SMILES CC(C)(C)C[N@H+]1[C@@H](C(=O)OCCOC(=O)c2ccc(-c3c4nc(c(-c5c(F)c(F)c(F)c(F)c5F)c5ccc([nH]5)c(-c5c(F)c(F)c(F)c(F)c5F)c5nc(c(-c6c(F)c(F)c(F)c(F)c6F)c6ccc3[nH]6)C=C5)C=C4)cc2)CC[C@H]2CCCC[C@@H]21
REMARK SMILES IDX 11 1 10 2 8 3 9 4 7 5 6 6 86 7 79 9 81 10 85 11 80 12 82 13
REMARK SMILES IDX 84 14 83 15 5 16 2 17 1 18 3 19 4 20 12 21 13 22 14 23 15 24
REMARK SMILES IDX 16 25 17 26 78 27 18 28 77 29 19 30 20 31 21 32 71 33 22 34
REMARK SMILES IDX 76 35 70 36 72 37 23 38 75 39 69 40 68 41 24 43 56 44 36 45
REMARK SMILES IDX 55 46 37 47 40 48 54 49 73 50 38 51 39 52 53 54 74 55 41 56
REMARK SMILES IDX 25 57 26 58 34 59 27 60 28 61 32 62 35 63 29 64 30 65 33 66
REMARK SMILES IDX 31 67 57 68 58 69 66 70 59 71 60 72 64 73 67 74 61 75 62 76
REMARK SMILES IDX 65 77 63 78 42 79 43 80 51 81 44 82 45 83 49 84 52 85 46 86
REMARK SMILES IDX 47 87 50 88 48 89
REMARK H PARENT 6 8 72 42 40 53
REMARK Flexibility Score: inf
ROOT
ATOM      1  C   UNL     1      -3.049   0.555  -0.636  1.00  0.00     0.274 C 
ENDROOT
BRANCH   1   2
ATOM      2  O   UNL     1      -1.763   1.204  -0.761  1.00  0.00    -0.458 OA
BRANCH   2   3
ATOM      3  C   UNL     1      -1.170   1.566   0.398  1.00  0.00     0.365 C 
ATOM      4  O   UNL     1      -1.665   1.343   1.505  1.00  0.00    -0.245 OA
BRANCH   3   5
ATOM      5  C   UNL     1       0.130   2.365   0.282  1.00  0.00     0.295 C 
ATOM      6  N   UNL     1       0.634   2.827  -1.041  1.00  0.00    -0.320 N 
ATOM      7  C   UNL     1       1.517   4.033  -0.775  1.00  0.00     0.187 C 
ATOM      8  H   UNL     1      -0.229   2.959  -1.569  1.00  0.00     0.349 HD
ATOM      9  C   UNL     1       1.233   1.871   1.240  1.00  0.00     0.078 C 
ATOM     10  C   UNL     1       2.085   4.130   0.675  1.00  0.00     0.048 C 
ATOM     11  C   UNL     1       0.820   5.365  -1.087  1.00  0.00     0.065 C 
ATOM     12  C   UNL     1       2.485   2.755   1.194  1.00  0.00     0.016 C 
ATOM     13  C   UNL     1       3.203   5.168   0.711  1.00  0.00     0.010 C 
ATOM     14  C   UNL     1       1.829   6.521  -0.974  1.00  0.00     0.006 C 
ATOM     15  C   UNL     1       2.622   6.535   0.339  1.00  0.00     0.001 C 
BRANCH   6  16
ATOM     16  C   UNL     1       1.449   1.923  -1.907  1.00  0.00     0.269 C 
BRANCH  16  17
ATOM     17  C   UNL     1       1.135   0.474  -2.388  1.00  0.00     0.011 C 
ATOM     18  C   UNL     1       1.276  -0.531  -1.242  1.00  0.00     0.017 C 
ATOM     19  C   UNL     1       2.221   0.088  -3.432  1.00  0.00     0.017 C 
ATOM     20  C   UNL     1      -0.224   0.348  -3.089  1.00  0.00     0.017 C 
ENDBRANCH  16  17
ENDBRANCH   6  16
ENDBRANCH   3   5
ENDBRANCH   2   3
ENDBRANCH   1   2
BRANCH   1  21
ATOM     21  C   UNL     1      -2.922  -0.970  -0.629  1.00  0.00     0.275 C 
BRANCH  21  22
ATOM     22  O   UNL     1      -2.083  -1.377   0.463  1.00  0.00    -0.458 OA
BRANCH  22  23
ATOM     23  C   UNL     1      -1.249  -2.416   0.226  1.00  0.00     0.338 C 
ATOM     24  O   UNL     1      -1.219  -3.118  -0.770  1.00  0.00    -0.246 OA
BRANCH  23  25
ATOM     25  C   UNL     1      -0.324  -2.583   1.373  1.00  0.00     0.060 A 
ATOM     26  C   UNL     1       0.068  -1.495   2.158  1.00  0.00     0.016 A 
ATOM     27  C   UNL     1       0.209  -3.845   1.638  1.00  0.00     0.016 A 
ATOM     28  C   UNL     1       0.995  -1.650   3.185  1.00  0.00     0.010 A 
ATOM     29  C   UNL     1       1.070  -4.020   2.725  1.00  0.00     0.010 A 
ATOM     30  C   UNL     1       1.463  -2.925   3.515  1.00  0.00    -0.014 A 
BRANCH  30  31
ATOM     31  C   UNL     1       2.294  -3.142   4.726  1.00  0.00     0.031 A 
ATOM     32  C   UNL     1       3.664  -3.741   4.610  1.00  0.00     0.074 A 
ATOM     33  C   UNL     1       1.776  -2.863   5.939  1.00  0.00     0.049 A 
ATOM     34  N   UNL     1       4.425  -4.252   5.544  1.00  0.00    -0.248 NA
ATOM     35  C   UNL     1       4.253  -3.781   3.263  1.00  0.00     0.031 C 
ATOM     36  C   UNL     1       0.469  -2.247   6.183  1.00  0.00     0.029 A 
ATOM     37  N   UNL     1       2.274  -3.087   7.199  1.00  0.00    -0.354 N 
ATOM     38  C   UNL     1       5.563  -4.712   4.896  1.00  0.00     0.074 A 
ATOM     39  C   UNL     1       5.395  -4.419   3.487  1.00  0.00     0.031 C 
ATOM     40  C   UNL     1       0.268  -2.144   7.504  1.00  0.00     0.029 A 
ATOM     41  C   UNL     1       1.387  -2.765   8.199  1.00  0.00     0.049 A 
ATOM     42  H   UNL     1       3.176  -3.443   7.369  1.00  0.00     0.167 HD
ATOM     43  C   UNL     1       6.643  -5.327   5.434  1.00  0.00     0.037 A 
ATOM     44  C   UNL     1       1.437  -3.001   9.523  1.00  0.00     0.037 A 
ATOM     45  C   UNL     1       6.802  -5.596   6.841  1.00  0.00     0.049 A 
ATOM     46  C   UNL     1       2.624  -3.725  10.088  1.00  0.00     0.074 A 
ATOM     47  C   UNL     1       7.851  -6.225   7.489  1.00  0.00     0.029 A 
ATOM     48  N   UNL     1       5.886  -5.238   7.821  1.00  0.00    -0.354 N 
ATOM     49  N   UNL     1       3.674  -4.201   9.464  1.00  0.00    -0.248 NA
ATOM     50  C   UNL     1       2.628  -3.957  11.538  1.00  0.00     0.031 C 
ATOM     51  C   UNL     1       7.557  -6.275   8.856  1.00  0.00     0.029 A 
ATOM     52  C   UNL     1       6.345  -5.638   9.066  1.00  0.00     0.049 A 
ATOM     53  H   UNL     1       5.036  -4.770   7.656  1.00  0.00     0.167 HD
ATOM     54  C   UNL     1       4.471  -4.772  10.444  1.00  0.00     0.074 A 
ATOM     55  C   UNL     1       3.792  -4.567  11.707  1.00  0.00     0.031 C 
ATOM     56  C   UNL     1       5.658  -5.412  10.311  1.00  0.00     0.037 A 
BRANCH  43  57
ATOM     57  C   UNL     1       7.731  -5.779   4.505  1.00  0.00     0.064 A 
ATOM     58  C   UNL     1       8.615  -4.869   3.909  1.00  0.00     0.173 A 
ATOM     59  C   UNL     1       7.933  -7.146   4.261  1.00  0.00     0.173 A 
ATOM     60  F   UNL     1       8.457  -3.550   4.101  1.00  0.00    -0.203 F 
ATOM     61  C   UNL     1       9.656  -5.310   3.095  1.00  0.00     0.198 A 
ATOM     62  C   UNL     1       8.988  -7.585   3.466  1.00  0.00     0.198 A 
ATOM     63  F   UNL     1       7.117  -8.059   4.810  1.00  0.00    -0.203 F 
ATOM     64  F   UNL     1      10.472  -4.421   2.513  1.00  0.00    -0.200 F 
ATOM     65  C   UNL     1       9.847  -6.667   2.881  1.00  0.00     0.200 A 
ATOM     66  F   UNL     1       9.178  -8.898   3.272  1.00  0.00    -0.200 F 
ATOM     67  F   UNL     1      10.858  -7.090   2.110  1.00  0.00    -0.200 F 
ENDBRANCH  43  57
BRANCH  44  68
ATOM     68  C   UNL     1       0.302  -2.590  10.390  1.00  0.00     0.064 A 
ATOM     69  C   UNL     1       0.446  -1.558  11.326  1.00  0.00     0.173 A 
ATOM     70  C   UNL     1      -0.952  -3.213  10.292  1.00  0.00     0.173 A 
ATOM     71  F   UNL     1       1.631  -0.948  11.472  1.00  0.00    -0.203 F 
ATOM     72  C   UNL     1      -0.616  -1.174  12.142  1.00  0.00     0.198 A 
ATOM     73  C   UNL     1      -2.022  -2.807  11.085  1.00  0.00     0.198 A 
ATOM     74  F   UNL     1      -1.143  -4.205   9.410  1.00  0.00    -0.203 F 
ATOM     75  F   UNL     1      -0.439  -0.214  13.059  1.00  0.00    -0.200 F 
ATOM     76  C   UNL     1      -1.851  -1.793  12.015  1.00  0.00     0.200 A 
ATOM     77  F   UNL     1      -3.217  -3.396  10.948  1.00  0.00    -0.200 F 
ATOM     78  F   UNL     1      -2.874  -1.416  12.794  1.00  0.00    -0.200 F 
ENDBRANCH  44  68
BRANCH  56  79
ATOM     79  C   UNL     1       6.314  -5.893  11.569  1.00  0.00     0.064 A 
ATOM     80  C   UNL     1       5.838  -7.013  12.264  1.00  0.00     0.173 A 
ATOM     81  C   UNL     1       7.446  -5.234  12.072  1.00  0.00     0.173 A 
ATOM     82  F   UNL     1       4.747  -7.663  11.831  1.00  0.00    -0.203 F 
ATOM     83  C   UNL     1       6.459  -7.443  13.433  1.00  0.00     0.198 A 
ATOM     84  C   UNL     1       8.079  -5.683  13.227  1.00  0.00     0.198 A 
ATOM     85  F   UNL     1       7.940  -4.159  11.439  1.00  0.00    -0.203 F 
ATOM     86  F   UNL     1       5.960  -8.488  14.109  1.00  0.00    -0.200 F 
ATOM     87  C   UNL     1       7.581  -6.782  13.910  1.00  0.00     0.200 A 
ATOM     88  F   UNL     1       9.168  -5.048  13.681  1.00  0.00    -0.200 F 
ATOM     89  F   UNL     1       8.178  -7.198  15.035  1.00  0.00    -0.200 F 
ENDBRANCH  56  79
ENDBRANCH  30  31
ENDBRANCH  23  25
ENDBRANCH  22  23
ENDBRANCH  21  22
ENDBRANCH   1  21
TORSDOF 13
