REMARK SMILES NS(=O)(=O)c1ccc(-c2coc(=O)n2-c2ccc(C(=O)OCCOC(=O)c3ccc(-c4c5nc(c(-c6c(F)c(F)c(F)c(F)c6F)c6ccc([nH]6)c(-c6c(F)c(F)c(F)c(F)c6F)c6nc(c(-c7c(F)c(F)c(F)c(F)c7F)c7ccc4[nH]7)C=C6)C=C5)cc3)cc2)cc1
REMARK SMILES IDX 22 1 21 2 19 3 20 4 18 5 15 6 16 7 91 8 17 9 90 10 14 11
REMARK SMILES IDX 9 12 10 13 11 14 12 15 13 16 8 17 5 18 6 19 93 20 7 21 92 22
REMARK SMILES IDX 2 23 3 24 4 25 1 26 23 29 24 30 25 31 26 32 27 33 28 34
REMARK SMILES IDX 89 35 29 36 88 37 30 38 31 39 32 40 82 41 33 42 87 43 81 44
REMARK SMILES IDX 83 45 34 46 86 47 80 48 79 49 35 51 67 52 47 53 66 54 48 55
REMARK SMILES IDX 51 56 65 57 84 58 49 59 50 60 64 62 85 63 52 64 36 65 37 66
REMARK SMILES IDX 45 67 38 68 39 69 43 70 46 71 40 72 41 73 44 74 42 75 68 76
REMARK SMILES IDX 69 77 77 78 70 79 71 80 75 81 78 82 72 83 73 84 76 85 74 86
REMARK SMILES IDX 53 87 54 88 62 89 55 90 56 91 60 92 63 93 57 94 58 95 61 96
REMARK SMILES IDX 59 97
REMARK H PARENT 1 27 1 28 83 50 51 61
REMARK Flexibility Score: inf
ROOT
ATOM      1  C   UNL     1      -1.534  -0.728  -9.508  1.00  0.00     0.275 C 
ENDROOT
BRANCH   1   2
ATOM      2  O   UNL     1      -1.038   0.330  -8.673  1.00  0.00    -0.458 OA
BRANCH   2   3
ATOM      3  C   UNL     1       0.282   0.623  -8.805  1.00  0.00     0.338 C 
ATOM      4  O   UNL     1       1.109  -0.012  -9.440  1.00  0.00    -0.246 OA
BRANCH   3   5
ATOM      5  C   UNL     1       0.588   1.913  -8.140  1.00  0.00     0.060 A 
ATOM      6  C   UNL     1       1.372   4.199  -6.738  1.00  0.00     0.053 A 
ATOM      7  C   UNL     1       2.101   3.795  -7.859  1.00  0.00     0.028 A 
ATOM      8  C   UNL     1       0.181   3.533  -6.411  1.00  0.00     0.028 A 
ATOM      9  C   UNL     1       1.723   2.635  -8.542  1.00  0.00     0.018 A 
ATOM     10  C   UNL     1      -0.218   2.401  -7.112  1.00  0.00     0.018 A 
BRANCH   6  11
ATOM     11  N   UNL     1       1.901   5.148  -5.840  1.00  0.00    -0.242 N 
ATOM     12  C   UNL     1       2.011   5.019  -4.481  1.00  0.00     0.095 A 
ATOM     13  C   UNL     1       2.562   6.145  -4.046  1.00  0.00     0.228 A 
ATOM     14  O   UNL     1       2.857   7.062  -5.055  1.00  0.00    -0.415 OA
ATOM     15  C   UNL     1       2.451   6.374  -6.202  1.00  0.00     0.424 A 
ATOM     16  O   UNL     1       2.567   6.845  -7.325  1.00  0.00    -0.223 OA
BRANCH  12  17
ATOM     17  C   UNL     1       1.735   3.795  -3.731  1.00  0.00     0.002 A 
ATOM     18  C   UNL     1       1.073   1.373  -2.497  1.00  0.00     0.082 A 
ATOM     19  C   UNL     1       2.099   1.402  -3.441  1.00  0.00     0.022 A 
ATOM     20  C   UNL     1       0.383   2.540  -2.155  1.00  0.00     0.022 A 
ATOM     21  C   UNL     1       2.432   2.614  -4.048  1.00  0.00     0.012 A 
ATOM     22  C   UNL     1       0.722   3.752  -2.765  1.00  0.00     0.012 A 
BRANCH  18  23
ATOM     23  S   UNL     1       0.601  -0.170  -1.772  1.00  0.00     0.238 S 
ATOM     24  O   UNL     1       1.315  -1.244  -2.408  1.00  0.00    -0.207 OA
ATOM     25  O   UNL     1      -0.839  -0.182  -1.603  1.00  0.00    -0.207 OA
BRANCH  23  26
ATOM     26  N   UNL     1       1.251  -0.038  -0.230  1.00  0.00    -0.225 NA
ATOM     27  H   UNL     1       1.042  -0.884   0.300  1.00  0.00     0.137 HD
ATOM     28  H   UNL     1       0.843   0.768   0.243  1.00  0.00     0.137 HD
ENDBRANCH  23  26
ENDBRANCH  18  23
ENDBRANCH  12  17
ENDBRANCH   6  11
ENDBRANCH   3   5
ENDBRANCH   2   3
ENDBRANCH   1   2
BRANCH   1  29
ATOM     29  C   UNL     1      -1.961  -0.195 -10.867  1.00  0.00     0.275 C 
BRANCH  29  30
ATOM     30  O   UNL     1      -0.832   0.238 -11.620  1.00  0.00    -0.458 OA
BRANCH  30  31
ATOM     31  C   UNL     1      -0.555   1.558 -11.533  1.00  0.00     0.338 C 
ATOM     32  O   UNL     1      -0.975   2.359 -10.716  1.00  0.00    -0.246 OA
BRANCH  31  33
ATOM     33  C   UNL     1       0.135   1.966 -12.755  1.00  0.00     0.060 A 
ATOM     34  C   UNL     1       0.641   3.269 -12.810  1.00  0.00     0.016 A 
ATOM     35  C   UNL     1      -0.068   1.189 -13.903  1.00  0.00     0.016 A 
ATOM     36  C   UNL     1       0.755   3.868 -14.045  1.00  0.00     0.010 A 
ATOM     37  C   UNL     1       0.019   1.794 -15.125  1.00  0.00     0.010 A 
ATOM     38  C   UNL     1       0.348   3.147 -15.172  1.00  0.00    -0.014 A 
BRANCH  38  39
ATOM     39  C   UNL     1       0.400   3.768 -16.473  1.00  0.00     0.031 A 
ATOM     40  C   UNL     1       1.789   3.930 -16.957  1.00  0.00     0.074 A 
ATOM     41  C   UNL     1      -0.721   3.979 -17.189  1.00  0.00     0.049 A 
ATOM     42  N   UNL     1       2.385   5.037 -17.242  1.00  0.00    -0.248 NA
ATOM     43  C   UNL     1       2.682   2.757 -16.938  1.00  0.00     0.031 C 
ATOM     44  C   UNL     1      -2.103   3.639 -16.837  1.00  0.00     0.029 A 
ATOM     45  N   UNL     1      -0.840   4.450 -18.459  1.00  0.00    -0.354 N 
ATOM     46  C   UNL     1       3.669   4.680 -17.635  1.00  0.00     0.074 A 
ATOM     47  C   UNL     1       3.856   3.312 -17.239  1.00  0.00     0.031 C 
ATOM     48  C   UNL     1      -2.877   3.702 -17.944  1.00  0.00     0.029 A 
ATOM     49  C   UNL     1      -2.074   4.188 -19.051  1.00  0.00     0.049 A 
ATOM     50  H   UNL     1      -0.117   4.934 -18.920  1.00  0.00     0.167 HD
ATOM     51  C   UNL     1       4.364   5.465 -18.500  1.00  0.00     0.037 A 
ATOM     52  C   UNL     1      -2.345   4.285 -20.379  1.00  0.00     0.037 A 
ATOM     53  C   UNL     1       3.806   6.793 -18.547  1.00  0.00     0.049 A 
ATOM     54  C   UNL     1      -1.307   5.181 -20.965  1.00  0.00     0.074 A 
ATOM     55  C   UNL     1       3.626   7.789 -17.607  1.00  0.00     0.029 A 
ATOM     56  N   UNL     1       2.956   7.093 -19.585  1.00  0.00    -0.354 N 
ATOM     57  N   UNL     1      -1.232   6.455 -20.688  1.00  0.00    -0.248 NA
ATOM     58  C   UNL     1      -0.065   4.568 -21.419  1.00  0.00     0.031 C 
ATOM     59  C   UNL     1       2.352   8.354 -17.905  1.00  0.00     0.029 A 
ATOM     60  C   UNL     1       1.866   7.740 -19.059  1.00  0.00     0.049 A 
ATOM     61  H   UNL     1       3.103   6.883 -20.535  1.00  0.00     0.167 HD
ATOM     62  C   UNL     1       0.121   6.692 -20.493  1.00  0.00     0.074 A 
ATOM     63  C   UNL     1       0.799   5.508 -21.020  1.00  0.00     0.031 C 
ATOM     64  C   UNL     1       0.546   7.672 -19.640  1.00  0.00     0.037 A 
BRANCH  51  65
ATOM     65  C   UNL     1       5.262   4.924 -19.580  1.00  0.00     0.064 A 
ATOM     66  C   UNL     1       6.022   5.830 -20.342  1.00  0.00     0.173 A 
ATOM     67  C   UNL     1       5.173   3.612 -20.099  1.00  0.00     0.173 A 
ATOM     68  F   UNL     1       6.162   7.104 -19.947  1.00  0.00    -0.203 F 
ATOM     69  C   UNL     1       6.571   5.474 -21.576  1.00  0.00     0.198 A 
ATOM     70  C   UNL     1       5.768   3.247 -21.304  1.00  0.00     0.198 A 
ATOM     71  F   UNL     1       4.418   2.664 -19.535  1.00  0.00    -0.203 F 
ATOM     72  F   UNL     1       7.169   6.405 -22.330  1.00  0.00    -0.200 F 
ATOM     73  C   UNL     1       6.436   4.185 -22.060  1.00  0.00     0.200 A 
ATOM     74  F   UNL     1       5.609   1.997 -21.762  1.00  0.00    -0.200 F 
ATOM     75  F   UNL     1       6.901   3.859 -23.272  1.00  0.00    -0.200 F 
ENDBRANCH  51  65
BRANCH  52  76
ATOM     76  C   UNL     1      -3.207   3.400 -21.205  1.00  0.00     0.064 A 
ATOM     77  C   UNL     1      -3.548   3.737 -22.527  1.00  0.00     0.173 A 
ATOM     78  C   UNL     1      -3.499   2.077 -20.812  1.00  0.00     0.173 A 
ATOM     79  F   UNL     1      -3.268   4.958 -23.006  1.00  0.00    -0.203 F 
ATOM     80  C   UNL     1      -4.118   2.804 -23.404  1.00  0.00     0.198 A 
ATOM     81  C   UNL     1      -4.074   1.151 -21.683  1.00  0.00     0.198 A 
ATOM     82  F   UNL     1      -3.148   1.622 -19.602  1.00  0.00    -0.203 F 
ATOM     83  F   UNL     1      -4.372   3.146 -24.675  1.00  0.00    -0.200 F 
ATOM     84  C   UNL     1      -4.370   1.508 -22.983  1.00  0.00     0.200 A 
ATOM     85  F   UNL     1      -4.279  -0.108 -21.270  1.00  0.00    -0.200 F 
ATOM     86  F   UNL     1      -4.858   0.598 -23.837  1.00  0.00    -0.200 F 
ENDBRANCH  52  76
BRANCH  64  87
ATOM     87  C   UNL     1      -0.487   8.619 -19.092  1.00  0.00     0.064 A 
ATOM     88  C   UNL     1      -1.562   8.225 -18.274  1.00  0.00     0.173 A 
ATOM     89  C   UNL     1      -0.300   9.993 -19.283  1.00  0.00     0.173 A 
ATOM     90  F   UNL     1      -1.743   6.942 -17.945  1.00  0.00    -0.203 F 
ATOM     91  C   UNL     1      -2.439   9.159 -17.726  1.00  0.00     0.198 A 
ATOM     92  C   UNL     1      -1.153  10.927 -18.702  1.00  0.00     0.198 A 
ATOM     93  F   UNL     1       0.747  10.434 -19.998  1.00  0.00    -0.203 F 
ATOM     94  F   UNL     1      -3.467   8.752 -16.965  1.00  0.00    -0.200 F 
ATOM     95  C   UNL     1      -2.231  10.511 -17.937  1.00  0.00     0.200 A 
ATOM     96  F   UNL     1      -0.913  12.235 -18.863  1.00  0.00    -0.200 F 
ATOM     97  F   UNL     1      -3.051  11.413 -17.382  1.00  0.00    -0.200 F 
ENDBRANCH  64  87
ENDBRANCH  38  39
ENDBRANCH  31  33
ENDBRANCH  30  31
ENDBRANCH  29  30
ENDBRANCH   1  29
TORSDOF 15
