REMARK SMILES CCCC[N@H+](CC)[C@H]1CCC[C@]([NH3+])(C(=O)OCCOC(=O)c2ccc(-c3c4nc(c(-c5c(F)c(F)c(F)c(F)c5F)c5ccc([nH]5)c(-c5c(F)c(F)c(F)c(F)c5F)c5nc(c(-c6c(F)c(F)c(F)c(F)c6F)c6ccc3[nH]6)C=C5)C=C4)cc2)C1
REMARK SMILES IDX 17 1 16 2 14 3 15 4 12 5 8 6 9 7 85 8 10 9 11 10 5 11 4 13
REMARK SMILES IDX 3 14 2 15 1 16 6 17 7 18 13 19 18 23 19 24 20 25 21 26 22 27
REMARK SMILES IDX 23 28 84 29 24 30 83 31 25 32 26 33 27 34 77 35 28 36 82 37
REMARK SMILES IDX 76 38 78 39 29 40 81 41 75 42 74 43 30 45 62 46 42 47 61 48
REMARK SMILES IDX 43 49 46 50 60 51 79 52 44 53 45 54 59 56 80 57 47 58 31 59
REMARK SMILES IDX 32 60 40 61 33 62 34 63 38 64 41 65 35 66 36 67 39 68 37 69
REMARK SMILES IDX 63 70 64 71 72 72 65 73 66 74 70 75 73 76 67 77 68 78 71 79
REMARK SMILES IDX 69 80 48 81 49 82 57 83 50 84 51 85 55 86 58 87 52 88 53 89
REMARK SMILES IDX 56 90 54 91
REMARK H PARENT 5 12 13 20 13 21 13 22 78 44 46 55
REMARK Flexibility Score: inf
ROOT
ATOM      1  C   UNL     1      -2.892  -0.497  -7.108  1.00  0.00     0.274 C 
ENDROOT
BRANCH   1   2
ATOM      2  O   UNL     1      -2.965  -0.284  -5.680  1.00  0.00    -0.457 OA
BRANCH   2   3
ATOM      3  C   UNL     1      -3.659  -1.223  -4.987  1.00  0.00     0.368 C 
ATOM      4  O   UNL     1      -4.163  -2.224  -5.493  1.00  0.00    -0.245 OA
BRANCH   3   5
ATOM      5  C   UNL     1      -3.864  -0.874  -3.483  1.00  0.00     0.198 C 
ATOM      6  C   UNL     1      -1.671   0.317  -2.699  1.00  0.00     0.190 C 
ATOM      7  C   UNL     1      -1.265  -0.980  -1.978  1.00  0.00     0.065 C 
ATOM      8  C   UNL     1      -3.196   0.420  -2.972  1.00  0.00     0.145 C 
ATOM      9  C   UNL     1      -1.907  -2.200  -2.595  1.00  0.00     0.013 C 
ATOM     10  C   UNL     1      -3.422  -2.077  -2.632  1.00  0.00     0.081 C 
BRANCH   6  11
ATOM     11  N   UNL     1      -1.101   1.469  -1.985  1.00  0.00    -0.333 N 
ATOM     12  H   UNL     1      -1.559   2.271  -2.418  1.00  0.00     0.348 HD
BRANCH  11  13
ATOM     13  C   UNL     1       0.311   1.746  -2.232  1.00  0.00     0.262 C 
BRANCH  13  14
ATOM     14  C   UNL     1       1.157   2.531  -1.212  1.00  0.00     0.061 C 
BRANCH  14  15
ATOM     15  C   UNL     1       1.350   1.915   0.177  1.00  0.00     0.002 C 
ATOM     16  C   UNL     1       1.832   0.474   0.169  1.00  0.00     0.004 C 
ENDBRANCH  14  15
ENDBRANCH  13  14
ENDBRANCH  11  13
BRANCH  11  17
ATOM     17  C   UNL     1      -1.838   2.149  -0.935  1.00  0.00     0.258 C 
ATOM     18  C   UNL     1      -2.216   1.274   0.260  1.00  0.00     0.071 C 
ENDBRANCH  11  17
ENDBRANCH   6  11
BRANCH   5  19
ATOM     19  N   UNL     1      -5.339  -0.723  -3.296  1.00  0.00    -0.343 N 
ATOM     20  H   UNL     1      -5.536  -0.493  -2.322  1.00  0.00     0.345 HD
ATOM     21  H   UNL     1      -5.803  -1.598  -3.539  1.00  0.00     0.345 HD
ATOM     22  H   UNL     1      -5.684   0.024  -3.899  1.00  0.00     0.345 HD
ENDBRANCH   5  19
ENDBRANCH   3   5
ENDBRANCH   2   3
ENDBRANCH   1   2
BRANCH   1  23
ATOM     23  C   UNL     1      -1.553  -1.113  -7.500  1.00  0.00     0.275 C 
BRANCH  23  24
ATOM     24  O   UNL     1      -1.412  -2.396  -6.866  1.00  0.00    -0.458 OA
BRANCH  24  25
ATOM     25  C   UNL     1      -0.159  -2.721  -6.482  1.00  0.00     0.338 C 
ATOM     26  O   UNL     1       0.857  -2.068  -6.698  1.00  0.00    -0.246 OA
BRANCH  25  27
ATOM     27  C   UNL     1      -0.150  -3.968  -5.679  1.00  0.00     0.060 A 
ATOM     28  C   UNL     1      -1.285  -4.413  -4.997  1.00  0.00     0.016 A 
ATOM     29  C   UNL     1       1.067  -4.626  -5.479  1.00  0.00     0.016 A 
ATOM     30  C   UNL     1      -1.165  -5.389  -4.003  1.00  0.00     0.010 A 
ATOM     31  C   UNL     1       1.155  -5.683  -4.568  1.00  0.00     0.010 A 
ATOM     32  C   UNL     1       0.057  -6.035  -3.766  1.00  0.00    -0.014 A 
BRANCH  32  33
ATOM     33  C   UNL     1       0.227  -7.016  -2.650  1.00  0.00     0.031 A 
ATOM     34  C   UNL     1       1.334  -6.829  -1.638  1.00  0.00     0.074 A 
ATOM     35  C   UNL     1      -0.592  -8.078  -2.516  1.00  0.00     0.049 A 
ATOM     36  N   UNL     1       1.827  -7.685  -0.776  1.00  0.00    -0.248 NA
ATOM     37  C   UNL     1       1.987  -5.511  -1.608  1.00  0.00     0.031 C 
ATOM     38  C   UNL     1      -1.745  -8.379  -3.361  1.00  0.00     0.029 A 
ATOM     39  N   UNL     1      -0.578  -9.104  -1.600  1.00  0.00    -0.354 N 
ATOM     40  C   UNL     1       2.908  -7.045  -0.180  1.00  0.00     0.074 A 
ATOM     41  C   UNL     1       2.980  -5.718  -0.754  1.00  0.00     0.031 C 
ATOM     42  C   UNL     1      -2.364  -9.473  -2.891  1.00  0.00     0.029 A 
ATOM     43  C   UNL     1      -1.591 -10.013  -1.777  1.00  0.00     0.049 A 
ATOM     44  H   UNL     1       0.095  -9.179  -0.885  1.00  0.00     0.167 HD
ATOM     45  C   UNL     1       3.768  -7.527   0.750  1.00  0.00     0.037 A 
ATOM     46  C   UNL     1      -1.851 -11.175  -1.149  1.00  0.00     0.037 A 
ATOM     47  C   UNL     1       3.633  -8.805   1.403  1.00  0.00     0.049 A 
ATOM     48  C   UNL     1      -0.907 -11.679  -0.097  1.00  0.00     0.074 A 
ATOM     49  C   UNL     1       4.444  -9.372   2.372  1.00  0.00     0.029 A 
ATOM     50  N   UNL     1       2.595  -9.696   1.180  1.00  0.00    -0.354 N 
ATOM     51  N   UNL     1       0.185 -11.125   0.368  1.00  0.00    -0.248 NA
ATOM     52  C   UNL     1      -1.215 -12.990   0.493  1.00  0.00     0.031 C 
ATOM     53  C   UNL     1       3.904 -10.614   2.726  1.00  0.00     0.029 A 
ATOM     54  C   UNL     1       2.740 -10.805   1.999  1.00  0.00     0.049 A 
ATOM     55  H   UNL     1       1.863  -9.562   0.536  1.00  0.00     0.167 HD
ATOM     56  C   UNL     1       0.693 -12.014   1.304  1.00  0.00     0.074 A 
ATOM     57  C   UNL     1      -0.221 -13.136   1.358  1.00  0.00     0.031 C 
ATOM     58  C   UNL     1       1.823 -11.912   2.045  1.00  0.00     0.037 A 
BRANCH  45  59
ATOM     59  C   UNL     1       4.967  -6.691   1.092  1.00  0.00     0.064 A 
ATOM     60  C   UNL     1       4.878  -5.545   1.892  1.00  0.00     0.173 A 
ATOM     61  C   UNL     1       6.238  -7.079   0.638  1.00  0.00     0.173 A 
ATOM     62  F   UNL     1       3.685  -5.124   2.338  1.00  0.00    -0.203 F 
ATOM     63  C   UNL     1       6.015  -4.804   2.208  1.00  0.00     0.198 A 
ATOM     64  C   UNL     1       7.375  -6.351   0.977  1.00  0.00     0.198 A 
ATOM     65  F   UNL     1       6.379  -8.174  -0.125  1.00  0.00    -0.203 F 
ATOM     66  F   UNL     1       5.903  -3.688   2.942  1.00  0.00    -0.200 F 
ATOM     67  C   UNL     1       7.263  -5.211   1.757  1.00  0.00     0.200 A 
ATOM     68  F   UNL     1       8.580  -6.754   0.549  1.00  0.00    -0.200 F 
ATOM     69  F   UNL     1       8.355  -4.501   2.069  1.00  0.00    -0.200 F 
ENDBRANCH  45  59
BRANCH  46  70
ATOM     70  C   UNL     1      -3.053 -11.957  -1.531  1.00  0.00     0.064 A 
ATOM     71  C   UNL     1      -4.157 -12.032  -0.671  1.00  0.00     0.173 A 
ATOM     72  C   UNL     1      -3.139 -12.612  -2.768  1.00  0.00     0.173 A 
ATOM     73  F   UNL     1      -4.107 -11.445   0.534  1.00  0.00    -0.203 F 
ATOM     74  C   UNL     1      -5.305 -12.729  -1.037  1.00  0.00     0.198 A 
ATOM     75  C   UNL     1      -4.298 -13.285  -3.144  1.00  0.00     0.198 A 
ATOM     76  F   UNL     1      -2.107 -12.569  -3.623  1.00  0.00    -0.203 F 
ATOM     77  F   UNL     1      -6.339 -12.806  -0.188  1.00  0.00    -0.200 F 
ATOM     78  C   UNL     1      -5.379 -13.345  -2.278  1.00  0.00     0.200 A 
ATOM     79  F   UNL     1      -4.370 -13.868  -4.348  1.00  0.00    -0.200 F 
ATOM     80  F   UNL     1      -6.492 -13.999  -2.638  1.00  0.00    -0.200 F 
ENDBRANCH  46  70
BRANCH  58  81
ATOM     81  C   UNL     1       2.114 -13.032   2.997  1.00  0.00     0.064 A 
ATOM     82  C   UNL     1       2.614 -14.262   2.548  1.00  0.00     0.173 A 
ATOM     83  C   UNL     1       1.902 -12.867   4.373  1.00  0.00     0.173 A 
ATOM     84  F   UNL     1       2.817 -14.470   1.238  1.00  0.00    -0.203 F 
ATOM     85  C   UNL     1       2.869 -15.298   3.443  1.00  0.00     0.198 A 
ATOM     86  C   UNL     1       2.175 -13.899   5.267  1.00  0.00     0.198 A 
ATOM     87  F   UNL     1       1.426 -11.707   4.850  1.00  0.00    -0.203 F 
ATOM     88  F   UNL     1       3.307 -16.481   2.989  1.00  0.00    -0.200 F 
ATOM     89  C   UNL     1       2.653 -15.115   4.801  1.00  0.00     0.200 A 
ATOM     90  F   UNL     1       1.970 -13.719   6.579  1.00  0.00    -0.200 F 
ATOM     91  F   UNL     1       2.893 -16.115   5.660  1.00  0.00    -0.200 F 
ENDBRANCH  58  81
ENDBRANCH  32  33
ENDBRANCH  25  27
ENDBRANCH  24  25
ENDBRANCH  23  24
ENDBRANCH   1  23
TORSDOF 17
