REMARK SMILES O=C(C[C@@H]1C(=O)NC(=S)N1c1ccccc1)OCCOC(=O)c1ccc(-c2c3nc(c(-c4c(F)c(F)c(F)c(F)c4F)c4ccc([nH]4)c(-c4c(F)c(F)c(F)c(F)c4F)c4nc(c(-c5c(F)c(F)c(F)c(F)c5F)c5ccc2[nH]5)C=C4)C=C3)cc1
REMARK SMILES IDX 18 1 17 2 2 3 1 4 3 5 4 6 5 7 10 8 6 9 7 10 8 11 9 13 11 14
REMARK SMILES IDX 12 15 16 16 13 17 15 18 14 19 19 20 20 21 21 22 22 23 23 24
REMARK SMILES IDX 24 25 85 26 25 27 84 28 26 29 27 30 28 31 78 32 29 33 83 34
REMARK SMILES IDX 77 35 79 36 30 37 82 38 76 39 75 40 31 42 63 43 43 44 62 45
REMARK SMILES IDX 44 46 47 47 61 48 80 49 45 50 46 51 60 53 81 54 48 55 32 56
REMARK SMILES IDX 33 57 41 58 34 59 35 60 39 61 42 62 36 63 37 64 40 65 38 66
REMARK SMILES IDX 64 67 65 68 73 69 66 70 67 71 71 72 74 73 68 74 69 75 72 76
REMARK SMILES IDX 70 77 49 78 50 79 58 80 51 81 52 82 56 83 59 84 53 85 54 86
REMARK SMILES IDX 57 87 55 88
REMARK H PARENT 7 12 79 41 47 52
REMARK Flexibility Score: inf
ROOT
ATOM      1  C   UNL     1       3.712  -1.172   0.522  1.00  0.00     0.274 C 
ENDROOT
BRANCH   1   2
ATOM      2  O   UNL     1       2.635  -0.305   0.941  1.00  0.00    -0.462 OA
BRANCH   2   3
ATOM      3  C   UNL     1       2.621   1.038   0.771  1.00  0.00     0.308 C 
ATOM      4  O   UNL     1       1.881   1.740   1.453  1.00  0.00    -0.252 OA
BRANCH   3   5
ATOM      5  C   UNL     1       3.454   1.643  -0.322  1.00  0.00     0.158 C 
BRANCH   5   6
ATOM      6  C   UNL     1       4.741   2.290   0.181  1.00  0.00     0.190 C 
ATOM      7  C   UNL     1       4.615   3.798  -0.039  1.00  0.00     0.249 C 
ATOM      8  N   UNL     1       5.851   2.022  -0.746  1.00  0.00    -0.306 N 
ATOM      9  O   UNL     1       3.899   4.562   0.588  1.00  0.00    -0.272 OA
ATOM     10  N   UNL     1       5.349   4.154  -1.130  1.00  0.00    -0.301 N 
ATOM     11  C   UNL     1       6.097   3.111  -1.585  1.00  0.00     0.180 C 
ATOM     12  H   UNL     1       5.340   5.050  -1.537  1.00  0.00     0.172 HD
ATOM     13  S   UNL     1       7.142   3.268  -2.861  1.00  0.00    -0.040 S 
BRANCH   8  14
ATOM     14  C   UNL     1       6.542   0.794  -0.740  1.00  0.00     0.044 A 
ATOM     15  C   UNL     1       7.209   0.384   0.418  1.00  0.00     0.026 A 
ATOM     16  C   UNL     1       6.522  -0.045  -1.859  1.00  0.00     0.026 A 
ATOM     17  C   UNL     1       7.869  -0.847   0.450  1.00  0.00     0.002 A 
ATOM     18  C   UNL     1       7.153  -1.290  -1.812  1.00  0.00     0.002 A 
ATOM     19  C   UNL     1       7.832  -1.687  -0.662  1.00  0.00     0.000 A 
ENDBRANCH   8  14
ENDBRANCH   5   6
ENDBRANCH   3   5
ENDBRANCH   2   3
ENDBRANCH   1   2
BRANCH   1  20
ATOM     20  C   UNL     1       3.333  -2.018  -0.695  1.00  0.00     0.275 C 
BRANCH  20  21
ATOM     21  O   UNL     1       3.167  -1.171  -1.849  1.00  0.00    -0.458 OA
BRANCH  21  22
ATOM     22  C   UNL     1       1.907  -1.068  -2.334  1.00  0.00     0.338 C 
ATOM     23  O   UNL     1       0.952  -1.770  -2.048  1.00  0.00    -0.246 OA
BRANCH  22  24
ATOM     24  C   UNL     1       1.792   0.180  -3.125  1.00  0.00     0.060 A 
ATOM     25  C   UNL     1       0.664   0.980  -2.902  1.00  0.00     0.016 A 
ATOM     26  C   UNL     1       2.770   0.593  -4.037  1.00  0.00     0.016 A 
ATOM     27  C   UNL     1       0.502   2.179  -3.599  1.00  0.00     0.010 A 
ATOM     28  C   UNL     1       2.603   1.796  -4.738  1.00  0.00     0.010 A 
ATOM     29  C   UNL     1       1.460   2.588  -4.536  1.00  0.00    -0.014 A 
BRANCH  29  30
ATOM     30  C   UNL     1       1.215   3.802  -5.357  1.00  0.00     0.031 A 
ATOM     31  C   UNL     1       0.606   3.664  -6.725  1.00  0.00     0.074 A 
ATOM     32  C   UNL     1       1.512   5.027  -4.883  1.00  0.00     0.049 A 
ATOM     33  N   UNL     1       0.289   4.596  -7.589  1.00  0.00    -0.248 NA
ATOM     34  C   UNL     1       0.309   2.297  -7.179  1.00  0.00     0.031 C 
ATOM     35  C   UNL     1       2.081   5.312  -3.567  1.00  0.00     0.029 A 
ATOM     36  N   UNL     1       1.379   6.264  -5.467  1.00  0.00    -0.354 N 
ATOM     37  C   UNL     1      -0.252   3.932  -8.681  1.00  0.00     0.074 A 
ATOM     38  C   UNL     1      -0.194   2.515  -8.386  1.00  0.00     0.031 C 
ATOM     39  C   UNL     1       2.267   6.639  -3.452  1.00  0.00     0.029 A 
ATOM     40  C   UNL     1       1.847   7.295  -4.691  1.00  0.00     0.049 A 
ATOM     41  H   UNL     1       0.983   6.398  -6.359  1.00  0.00     0.167 HD
ATOM     42  C   UNL     1      -0.764   4.454  -9.820  1.00  0.00     0.037 A 
ATOM     43  C   UNL     1       1.944   8.613  -4.956  1.00  0.00     0.037 A 
ATOM     44  C   UNL     1      -0.838   5.859 -10.121  1.00  0.00     0.049 A 
ATOM     45  C   UNL     1       1.449   9.155  -6.274  1.00  0.00     0.074 A 
ATOM     46  C   UNL     1      -1.418   6.475 -11.218  1.00  0.00     0.029 A 
ATOM     47  N   UNL     1      -0.299   6.865  -9.337  1.00  0.00    -0.354 N 
ATOM     48  N   UNL     1       0.857   8.527  -7.260  1.00  0.00    -0.248 NA
ATOM     49  C   UNL     1       1.637  10.596  -6.515  1.00  0.00     0.031 C 
ATOM     50  C   UNL     1      -1.180   7.849 -11.126  1.00  0.00     0.029 A 
ATOM     51  C   UNL     1      -0.488   8.093  -9.951  1.00  0.00     0.049 A 
ATOM     52  H   UNL     1       0.151   6.728  -8.472  1.00  0.00     0.167 HD
ATOM     53  C   UNL     1       0.582   9.494  -8.220  1.00  0.00     0.074 A 
ATOM     54  C   UNL     1       1.058  10.755  -7.697  1.00  0.00     0.031 C 
ATOM     55  C   UNL     1      -0.013   9.346  -9.428  1.00  0.00     0.037 A 
BRANCH  42  56
ATOM     56  C   UNL     1      -1.290   3.503 -10.850  1.00  0.00     0.064 A 
ATOM     57  C   UNL     1      -2.537   2.881 -10.700  1.00  0.00     0.173 A 
ATOM     58  C   UNL     1      -0.580   3.286 -12.040  1.00  0.00     0.173 A 
ATOM     59  F   UNL     1      -3.248   3.056  -9.576  1.00  0.00    -0.203 F 
ATOM     60  C   UNL     1      -3.053   2.069 -11.706  1.00  0.00     0.198 A 
ATOM     61  C   UNL     1      -1.107   2.488 -13.050  1.00  0.00     0.198 A 
ATOM     62  F   UNL     1       0.615   3.866 -12.229  1.00  0.00    -0.203 F 
ATOM     63  F   UNL     1      -4.240   1.470 -11.538  1.00  0.00    -0.200 F 
ATOM     64  C   UNL     1      -2.343   1.880 -12.883  1.00  0.00     0.200 A 
ATOM     65  F   UNL     1      -0.425   2.315 -14.190  1.00  0.00    -0.200 F 
ATOM     66  F   UNL     1      -2.849   1.111 -13.856  1.00  0.00    -0.200 F 
ENDBRANCH  42  56
BRANCH  43  67
ATOM     67  C   UNL     1       2.573   9.529  -3.969  1.00  0.00     0.064 A 
ATOM     68  C   UNL     1       1.823  10.512  -3.309  1.00  0.00     0.173 A 
ATOM     69  C   UNL     1       3.952   9.481  -3.720  1.00  0.00     0.173 A 
ATOM     70  F   UNL     1       0.507  10.618  -3.542  1.00  0.00    -0.203 F 
ATOM     71  C   UNL     1       2.435  11.431  -2.459  1.00  0.00     0.198 A 
ATOM     72  C   UNL     1       4.558  10.384  -2.850  1.00  0.00     0.198 A 
ATOM     73  F   UNL     1       4.714   8.561  -4.331  1.00  0.00    -0.203 F 
ATOM     74  F   UNL     1       1.706  12.401  -1.889  1.00  0.00    -0.200 F 
ATOM     75  C   UNL     1       3.801  11.366  -2.229  1.00  0.00     0.200 A 
ATOM     76  F   UNL     1       5.878  10.313  -2.628  1.00  0.00    -0.200 F 
ATOM     77  F   UNL     1       4.391  12.259  -1.424  1.00  0.00    -0.200 F 
ENDBRANCH  43  67
BRANCH  55  78
ATOM     78  C   UNL     1      -0.197  10.574 -10.272  1.00  0.00     0.064 A 
ATOM     79  C   UNL     1       0.886  11.176 -10.929  1.00  0.00     0.173 A 
ATOM     80  C   UNL     1      -1.474  11.121 -10.472  1.00  0.00     0.173 A 
ATOM     81  F   UNL     1       2.128  10.700 -10.758  1.00  0.00    -0.203 F 
ATOM     82  C   UNL     1       0.699  12.289 -11.745  1.00  0.00     0.198 A 
ATOM     83  C   UNL     1      -1.660  12.218 -11.309  1.00  0.00     0.198 A 
ATOM     84  F   UNL     1      -2.543  10.578  -9.871  1.00  0.00    -0.203 F 
ATOM     85  F   UNL     1       1.753  12.869 -12.336  1.00  0.00    -0.200 F 
ATOM     86  C   UNL     1      -0.574  12.804 -11.941  1.00  0.00     0.200 A 
ATOM     87  F   UNL     1      -2.893  12.707 -11.506  1.00  0.00    -0.200 F 
ATOM     88  F   UNL     1      -0.753  13.868 -12.736  1.00  0.00    -0.200 F 
ENDBRANCH  55  78
ENDBRANCH  29  30
ENDBRANCH  22  24
ENDBRANCH  21  22
ENDBRANCH  20  21
ENDBRANCH   1  20
TORSDOF 13
