REMARK SMILES NC(=O)N[C@@H](C(=O)N[C@@H](CO)C(=O)OCCOC(=O)c1ccc(-c2c3nc(c(-c4c(F)c(F)c(F)c(F)c4F)c4ccc([nH]4)c(-c4c(F)c(F)c(F)c(F)c4F)c4nc(c(-c5c(F)c(F)c(F)c(F)c5F)c5ccc2[nH]5)C=C4)C=C3)cc1)c1ccccc1
REMARK SMILES IDX 15 1 14 2 12 3 13 4 9 5 8 6 6 7 7 8 5 10 4 11 1 12 2 13 3 16
REMARK SMILES IDX 83 18 84 19 88 20 85 21 87 22 86 23 10 24 11 25 16 27 17 28
REMARK SMILES IDX 18 29 19 30 20 31 21 32 82 33 22 34 81 35 23 36 24 37 25 38
REMARK SMILES IDX 75 39 26 40 80 41 74 42 76 43 27 44 79 45 73 46 72 47 28 49
REMARK SMILES IDX 60 50 40 51 59 52 41 53 44 54 58 55 77 56 42 57 43 58 57 60
REMARK SMILES IDX 78 61 45 62 29 63 30 64 38 65 31 66 32 67 36 68 39 69 33 70
REMARK SMILES IDX 34 71 37 72 35 73 61 74 62 75 70 76 63 77 64 78 68 79 71 80
REMARK SMILES IDX 65 81 66 82 69 83 67 84 46 85 47 86 55 87 48 88 49 89 53 90
REMARK SMILES IDX 56 91 50 92 51 93 54 94 52 95
REMARK H PARENT 8 9 1 14 1 15 4 17 11 26 76 48 44 59
REMARK Flexibility Score: inf
ROOT
ATOM      1  C   UNL     1       3.889   0.917  -5.257  1.00  0.00     0.274 C 
ENDROOT
BRANCH   1   2
ATOM      2  O   UNL     1       3.294   1.793  -4.278  1.00  0.00    -0.460 OA
BRANCH   2   3
ATOM      3  C   UNL     1       2.128   1.367  -3.722  1.00  0.00     0.331 C 
ATOM      4  O   UNL     1       1.542   0.333  -4.028  1.00  0.00    -0.250 OA
BRANCH   3   5
ATOM      5  C   UNL     1       1.599   2.320  -2.645  1.00  0.00     0.218 C 
BRANCH   5   6
ATOM      6  N   UNL     1       2.574   3.304  -2.154  1.00  0.00    -0.339 N 
ATOM      7  C   UNL     1       2.913   3.633  -0.863  1.00  0.00     0.248 C 
ATOM      8  O   UNL     1       3.781   4.495  -0.719  1.00  0.00    -0.272 OA
ATOM      9  H   UNL     1       3.055   3.802  -2.854  1.00  0.00     0.164 HD
BRANCH   7  10
ATOM     10  C   UNL     1       2.231   2.892   0.332  1.00  0.00     0.203 C 
BRANCH  10  11
ATOM     11  N   UNL     1       0.791   3.160   0.327  1.00  0.00    -0.322 N 
ATOM     12  N   UNL     1       0.002   1.002   0.361  1.00  0.00    -0.352 N 
ATOM     13  C   UNL     1      -0.255   2.317   0.297  1.00  0.00     0.313 C 
ATOM     14  H   UNL     1      -0.740   0.354   0.342  1.00  0.00     0.161 HD
ATOM     15  H   UNL     1       0.931   0.684   0.428  1.00  0.00     0.161 HD
ATOM     16  O   UNL     1      -1.400   2.728   0.156  1.00  0.00    -0.249 OA
ATOM     17  H   UNL     1       0.551   4.114   0.350  1.00  0.00     0.166 HD
ENDBRANCH  10  11
BRANCH  10  18
ATOM     18  C   UNL     1       2.783   3.213   1.715  1.00  0.00    -0.016 A 
ATOM     19  C   UNL     1       3.122   2.175   2.601  1.00  0.00     0.006 A 
ATOM     20  C   UNL     1       2.872   4.536   2.178  1.00  0.00     0.006 A 
ATOM     21  C   UNL     1       3.540   2.454   3.906  1.00  0.00     0.000 A 
ATOM     22  C   UNL     1       3.293   4.813   3.481  1.00  0.00     0.000 A 
ATOM     23  C   UNL     1       3.623   3.772   4.345  1.00  0.00     0.000 A 
ENDBRANCH  10  18
ENDBRANCH   7  10
ENDBRANCH   5   6
BRANCH   5  24
ATOM     24  C   UNL     1       0.339   3.004  -3.184  1.00  0.00     0.193 C 
BRANCH  24  25
ATOM     25  O   UNL     1       0.663   3.930  -4.222  1.00  0.00    -0.394 OA
ATOM     26  H   UNL     1       1.252   4.616  -3.870  1.00  0.00     0.210 HD
ENDBRANCH  24  25
ENDBRANCH   5  24
ENDBRANCH   3   5
ENDBRANCH   2   3
ENDBRANCH   1   2
BRANCH   1  27
ATOM     27  C   UNL     1       5.144   0.245  -4.696  1.00  0.00     0.275 C 
BRANCH  27  28
ATOM     28  O   UNL     1       4.825  -0.644  -3.605  1.00  0.00    -0.458 OA
BRANCH  28  29
ATOM     29  C   UNL     1       4.916  -0.080  -2.382  1.00  0.00     0.338 C 
ATOM     30  O   UNL     1       5.228   1.066  -2.109  1.00  0.00    -0.246 OA
BRANCH  29  31
ATOM     31  C   UNL     1       4.434  -0.998  -1.343  1.00  0.00     0.060 A 
ATOM     32  C   UNL     1       3.131  -0.816  -0.895  1.00  0.00     0.016 A 
ATOM     33  C   UNL     1       5.304  -1.843  -0.656  1.00  0.00     0.016 A 
ATOM     34  C   UNL     1       2.732  -1.385   0.307  1.00  0.00     0.010 A 
ATOM     35  C   UNL     1       4.869  -2.473   0.522  1.00  0.00     0.010 A 
ATOM     36  C   UNL     1       3.595  -2.200   1.052  1.00  0.00    -0.014 A 
BRANCH  36  37
ATOM     37  C   UNL     1       3.166  -2.642   2.415  1.00  0.00     0.031 A 
ATOM     38  C   UNL     1       3.964  -2.243   3.635  1.00  0.00     0.074 A 
ATOM     39  C   UNL     1       1.992  -3.285   2.589  1.00  0.00     0.049 A 
ATOM     40  N   UNL     1       3.778  -2.570   4.891  1.00  0.00    -0.248 NA
ATOM     41  C   UNL     1       5.117  -1.357   3.418  1.00  0.00     0.031 C 
ATOM     42  C   UNL     1       1.071  -3.667   1.518  1.00  0.00     0.029 A 
ATOM     43  N   UNL     1       1.349  -3.692   3.734  1.00  0.00    -0.354 N 
ATOM     44  C   UNL     1       4.822  -1.985   5.599  1.00  0.00     0.074 A 
ATOM     45  C   UNL     1       5.635  -1.276   4.635  1.00  0.00     0.031 C 
ATOM     46  C   UNL     1      -0.044  -4.182   2.056  1.00  0.00     0.029 A 
ATOM     47  C   UNL     1       0.126  -4.275   3.502  1.00  0.00     0.049 A 
ATOM     48  H   UNL     1       1.729  -3.578   4.635  1.00  0.00     0.167 HD
ATOM     49  C   UNL     1       5.083  -2.037   6.928  1.00  0.00     0.037 A 
ATOM     50  C   UNL     1      -0.747  -4.861   4.345  1.00  0.00     0.037 A 
ATOM     51  C   UNL     1       4.249  -2.698   7.901  1.00  0.00     0.049 A 
ATOM     52  C   UNL     1      -0.411  -4.946   5.808  1.00  0.00     0.074 A 
ATOM     53  C   UNL     1       4.441  -2.814   9.267  1.00  0.00     0.029 A 
ATOM     54  N   UNL     1       3.054  -3.341   7.612  1.00  0.00    -0.354 N 
ATOM     55  N   UNL     1       0.622  -4.460   6.451  1.00  0.00    -0.248 NA
ATOM     56  C   UNL     1      -1.355  -5.684   6.659  1.00  0.00     0.031 C 
ATOM     57  C   UNL     1       3.387  -3.566   9.798  1.00  0.00     0.029 A 
ATOM     58  C   UNL     1       2.507  -3.869   8.772  1.00  0.00     0.049 A 
ATOM     59  H   UNL     1       2.653  -3.412   6.716  1.00  0.00     0.167 HD
ATOM     60  C   UNL     1       0.448  -4.821   7.780  1.00  0.00     0.074 A 
ATOM     61  C   UNL     1      -0.805  -5.542   7.856  1.00  0.00     0.031 C 
ATOM     62  C   UNL     1       1.258  -4.584   8.840  1.00  0.00     0.037 A 
BRANCH  49  63
ATOM     63  C   UNL     1       6.361  -1.408   7.409  1.00  0.00     0.064 A 
ATOM     64  C   UNL     1       6.542  -0.018   7.455  1.00  0.00     0.173 A 
ATOM     65  C   UNL     1       7.415  -2.221   7.855  1.00  0.00     0.173 A 
ATOM     66  F   UNL     1       5.572   0.803   7.024  1.00  0.00    -0.203 F 
ATOM     67  C   UNL     1       7.741   0.533   7.902  1.00  0.00     0.198 A 
ATOM     68  C   UNL     1       8.601  -1.667   8.331  1.00  0.00     0.198 A 
ATOM     69  F   UNL     1       7.293  -3.557   7.838  1.00  0.00    -0.203 F 
ATOM     70  F   UNL     1       7.912   1.862   7.889  1.00  0.00    -0.200 F 
ATOM     71  C   UNL     1       8.766  -0.291   8.345  1.00  0.00     0.200 A 
ATOM     72  F   UNL     1       9.583  -2.465   8.770  1.00  0.00    -0.200 F 
ATOM     73  F   UNL     1       9.917   0.242   8.778  1.00  0.00    -0.200 F 
ENDBRANCH  49  63
BRANCH  50  74
ATOM     74  C   UNL     1      -1.998  -5.471   3.816  1.00  0.00     0.064 A 
ATOM     75  C   UNL     1      -3.259  -4.973   4.170  1.00  0.00     0.173 A 
ATOM     76  C   UNL     1      -1.956  -6.581   2.957  1.00  0.00     0.173 A 
ATOM     77  F   UNL     1      -3.356  -3.934   5.013  1.00  0.00    -0.203 F 
ATOM     78  C   UNL     1      -4.428  -5.568   3.697  1.00  0.00     0.198 A 
ATOM     79  C   UNL     1      -3.122  -7.150   2.454  1.00  0.00     0.198 A 
ATOM     80  F   UNL     1      -0.776  -7.102   2.590  1.00  0.00    -0.203 F 
ATOM     81  F   UNL     1      -5.621  -5.105   4.094  1.00  0.00    -0.200 F 
ATOM     82  C   UNL     1      -4.358  -6.650   2.832  1.00  0.00     0.200 A 
ATOM     83  F   UNL     1      -3.047  -8.183   1.604  1.00  0.00    -0.200 F 
ATOM     84  F   UNL     1      -5.481  -7.216   2.370  1.00  0.00    -0.200 F 
ENDBRANCH  50  74
BRANCH  62  85
ATOM     85  C   UNL     1       0.794  -5.078  10.181  1.00  0.00     0.064 A 
ATOM     86  C   UNL     1       0.757  -6.446  10.493  1.00  0.00     0.173 A 
ATOM     87  C   UNL     1       0.388  -4.169  11.170  1.00  0.00     0.173 A 
ATOM     88  F   UNL     1       1.119  -7.357   9.577  1.00  0.00    -0.203 F 
ATOM     89  C   UNL     1       0.294  -6.886  11.730  1.00  0.00     0.198 A 
ATOM     90  C   UNL     1      -0.043  -4.612  12.418  1.00  0.00     0.198 A 
ATOM     91  F   UNL     1       0.411  -2.850  10.928  1.00  0.00    -0.203 F 
ATOM     92  F   UNL     1       0.208  -8.200  11.983  1.00  0.00    -0.200 F 
ATOM     93  C   UNL     1      -0.101  -5.969  12.693  1.00  0.00     0.200 A 
ATOM     94  F   UNL     1      -0.411  -3.723  13.352  1.00  0.00    -0.200 F 
ATOM     95  F   UNL     1      -0.547  -6.395  13.883  1.00  0.00    -0.200 F 
ENDBRANCH  62  85
ENDBRANCH  36  37
ENDBRANCH  29  31
ENDBRANCH  28  29
ENDBRANCH  27  28
ENDBRANCH   1  27
TORSDOF 17
