REMARK SMILES O=C1NC(=S)/C(=C/c2ccc(-c3ccc(C(=O)OCCOC(=O)c4ccc(-c5c6nc(c(-c7c(F)c(F)c(F)c(F)c7F)c7ccc([nH]7)c(-c7c(F)c(F)c(F)c(F)c7F)c7nc(c(-c8c(F)c(F)c(F)c(F)c8F)c8ccc5[nH]8)C=C7)C=C6)cc4)cc3)o2)S1
REMARK SMILES IDX 19 1 18 2 16 3 17 4 15 5 12 6 13 7 88 8 14 9 87 10 11 11
REMARK SMILES IDX 8 12 9 13 89 14 10 15 7 16 1 17 2 18 3 19 90 20 4 21 6 23
REMARK SMILES IDX 5 24 20 25 21 26 22 27 23 28 24 29 25 30 86 31 26 32 85 33
REMARK SMILES IDX 27 34 28 35 29 36 79 37 30 38 84 39 78 40 80 41 31 42 83 43
REMARK SMILES IDX 77 44 76 45 32 47 64 48 44 49 63 50 45 51 48 52 62 53 81 54
REMARK SMILES IDX 46 55 47 56 61 58 82 59 49 60 33 61 34 62 42 63 35 64 36 65
REMARK SMILES IDX 40 66 43 67 37 68 38 69 41 70 39 71 65 72 66 73 74 74 67 75
REMARK SMILES IDX 68 76 72 77 75 78 69 79 70 80 73 81 71 82 50 83 51 84 59 85
REMARK SMILES IDX 52 86 53 87 57 88 60 89 54 90 55 91 58 92 56 93
REMARK H PARENT 3 22 80 46 48 57
REMARK Flexibility Score: inf
ROOT
ATOM      1  C   UNL     1       9.783 -10.993   3.413  1.00  0.00     0.275 C 
ENDROOT
BRANCH   1   2
ATOM      2  O   UNL     1       9.345  -9.908   2.566  1.00  0.00    -0.458 OA
BRANCH   2   3
ATOM      3  C   UNL     1       8.200  -9.295   2.951  1.00  0.00     0.338 C 
ATOM      4  O   UNL     1       7.512  -9.585   3.917  1.00  0.00    -0.246 OA
BRANCH   3   5
ATOM      5  C   UNL     1       7.876  -8.148   2.070  1.00  0.00     0.060 A 
ATOM      6  C   UNL     1       6.895  -6.054   0.475  1.00  0.00     0.017 A 
ATOM      7  C   UNL     1       6.922  -5.920   1.861  1.00  0.00     0.013 A 
ATOM      8  C   UNL     1       7.421  -7.217  -0.111  1.00  0.00     0.013 A 
ATOM      9  C   UNL     1       7.375  -6.974   2.648  1.00  0.00     0.016 A 
ATOM     10  C   UNL     1       7.929  -8.257   0.681  1.00  0.00     0.016 A 
BRANCH   6  11
ATOM     11  C   UNL     1       6.172  -5.072  -0.310  1.00  0.00     0.134 A 
ATOM     12  C   UNL     1       5.568  -2.995  -0.806  1.00  0.00     0.128 A 
ATOM     13  C   UNL     1       4.764  -3.865  -1.535  1.00  0.00     0.051 A 
ATOM     14  O   UNL     1       6.446  -3.760  -0.070  1.00  0.00    -0.457 OA
ATOM     15  C   UNL     1       5.148  -5.184  -1.219  1.00  0.00     0.051 A 
BRANCH  12  16
ATOM     16  C   UNL     1       5.576  -1.573  -0.790  1.00  0.00     0.065 C 
ATOM     17  O   UNL     1       1.159   0.464   0.555  1.00  0.00    -0.261 OA
ATOM     18  C   UNL     1       2.289   0.211   0.186  1.00  0.00     0.289 C 
ATOM     19  N   UNL     1       3.239   1.119  -0.167  1.00  0.00    -0.307 N 
ATOM     20  S   UNL     1       2.941  -1.399   0.012  1.00  0.00    -0.025 SA
ATOM     21  C   UNL     1       4.472   0.667  -0.562  1.00  0.00     0.120 C 
ATOM     22  H   UNL     1       3.044   2.083  -0.140  1.00  0.00     0.171 HD
ATOM     23  C   UNL     1       4.498  -0.827  -0.504  1.00  0.00     0.056 C 
ATOM     24  S   UNL     1       5.648   1.746  -1.040  1.00  0.00    -0.059 S 
ENDBRANCH  12  16
ENDBRANCH   6  11
ENDBRANCH   3   5
ENDBRANCH   2   3
ENDBRANCH   1   2
BRANCH   1  25
ATOM     25  C   UNL     1      10.896 -10.556   4.368  1.00  0.00     0.275 C 
BRANCH  25  26
ATOM     26  O   UNL     1      10.393  -9.668   5.385  1.00  0.00    -0.458 OA
BRANCH  26  27
ATOM     27  C   UNL     1      10.631  -8.358   5.157  1.00  0.00     0.338 C 
ATOM     28  O   UNL     1      11.231  -7.862   4.218  1.00  0.00    -0.246 OA
BRANCH  27  29
ATOM     29  C   UNL     1       9.974  -7.526   6.173  1.00  0.00     0.060 A 
ATOM     30  C   UNL     1       8.639  -7.210   5.977  1.00  0.00     0.016 A 
ATOM     31  C   UNL     1      10.706  -6.870   7.157  1.00  0.00     0.016 A 
ATOM     32  C   UNL     1       8.072  -6.121   6.625  1.00  0.00     0.010 A 
ATOM     33  C   UNL     1      10.081  -5.882   7.931  1.00  0.00     0.010 A 
ATOM     34  C   UNL     1       8.770  -5.457   7.640  1.00  0.00    -0.014 A 
BRANCH  34  35
ATOM     35  C   UNL     1       8.125  -4.332   8.380  1.00  0.00     0.031 A 
ATOM     36  C   UNL     1       8.806  -2.990   8.483  1.00  0.00     0.074 A 
ATOM     37  C   UNL     1       6.917  -4.507   8.956  1.00  0.00     0.049 A 
ATOM     38  N   UNL     1       8.497  -1.958   9.229  1.00  0.00    -0.248 NA
ATOM     39  C   UNL     1      10.001  -2.786   7.649  1.00  0.00     0.031 C 
ATOM     40  C   UNL     1       6.116  -5.733   8.897  1.00  0.00     0.029 A 
ATOM     41  N   UNL     1       6.143  -3.651   9.703  1.00  0.00    -0.354 N 
ATOM     42  C   UNL     1       9.487  -1.009   8.997  1.00  0.00     0.074 A 
ATOM     43  C   UNL     1      10.415  -1.593   8.053  1.00  0.00     0.031 C 
ATOM     44  C   UNL     1       4.953  -5.537   9.531  1.00  0.00     0.029 A 
ATOM     45  C   UNL     1       4.971  -4.218  10.147  1.00  0.00     0.049 A 
ATOM     46  H   UNL     1       6.403  -2.723   9.902  1.00  0.00     0.167 HD
ATOM     47  C   UNL     1       9.606   0.234   9.525  1.00  0.00     0.037 A 
ATOM     48  C   UNL     1       4.039  -3.760  11.002  1.00  0.00     0.037 A 
ATOM     49  C   UNL     1       8.652   0.822  10.432  1.00  0.00     0.049 A 
ATOM     50  C   UNL     1       4.231  -2.408  11.626  1.00  0.00     0.074 A 
ATOM     51  C   UNL     1       8.671   2.079  11.011  1.00  0.00     0.029 A 
ATOM     52  N   UNL     1       7.501   0.193  10.887  1.00  0.00    -0.354 N 
ATOM     53  N   UNL     1       5.190  -1.536  11.433  1.00  0.00    -0.248 NA
ATOM     54  C   UNL     1       3.218  -1.983  12.601  1.00  0.00     0.031 C 
ATOM     55  C   UNL     1       7.566   2.189  11.861  1.00  0.00     0.029 A 
ATOM     56  C   UNL     1       6.818   1.028  11.759  1.00  0.00     0.049 A 
ATOM     57  H   UNL     1       7.212  -0.712  10.629  1.00  0.00     0.167 HD
ATOM     58  C   UNL     1       4.883  -0.449  12.239  1.00  0.00     0.074 A 
ATOM     59  C   UNL     1       3.639  -0.765  12.909  1.00  0.00     0.031 C 
ATOM     60  C   UNL     1       5.573   0.705  12.410  1.00  0.00     0.037 A 
BRANCH  47  61
ATOM     61  C   UNL     1      10.830   1.035   9.171  1.00  0.00     0.064 A 
ATOM     62  C   UNL     1      11.040   1.551   7.884  1.00  0.00     0.173 A 
ATOM     63  C   UNL     1      11.790   1.327  10.155  1.00  0.00     0.173 A 
ATOM     64  F   UNL     1      10.161   1.298   6.903  1.00  0.00    -0.203 F 
ATOM     65  C   UNL     1      12.177   2.300   7.587  1.00  0.00     0.198 A 
ATOM     66  C   UNL     1      12.907   2.106   9.864  1.00  0.00     0.198 A 
ATOM     67  F   UNL     1      11.637   0.869  11.407  1.00  0.00    -0.203 F 
ATOM     68  F   UNL     1      12.382   2.739   6.337  1.00  0.00    -0.200 F 
ATOM     69  C   UNL     1      13.105   2.584   8.579  1.00  0.00     0.200 A 
ATOM     70  F   UNL     1      13.792   2.394  10.829  1.00  0.00    -0.200 F 
ATOM     71  F   UNL     1      14.192   3.314   8.293  1.00  0.00    -0.200 F 
ENDBRANCH  47  61
BRANCH  48  72
ATOM     72  C   UNL     1       2.867  -4.608  11.352  1.00  0.00     0.064 A 
ATOM     73  C   UNL     1       1.568  -4.228  10.990  1.00  0.00     0.173 A 
ATOM     74  C   UNL     1       3.020  -5.814  12.055  1.00  0.00     0.173 A 
ATOM     75  F   UNL     1       1.365  -3.074  10.339  1.00  0.00    -0.203 F 
ATOM     76  C   UNL     1       0.467  -5.011  11.333  1.00  0.00     0.198 A 
ATOM     77  C   UNL     1       1.923  -6.615  12.362  1.00  0.00     0.198 A 
ATOM     78  F   UNL     1       4.242  -6.228  12.425  1.00  0.00    -0.203 F 
ATOM     79  F   UNL     1      -0.769  -4.597  11.021  1.00  0.00    -0.200 F 
ATOM     80  C   UNL     1       0.646  -6.208  12.011  1.00  0.00     0.200 A 
ATOM     81  F   UNL     1       2.104  -7.780  12.999  1.00  0.00    -0.200 F 
ATOM     82  F   UNL     1      -0.412  -6.963  12.332  1.00  0.00    -0.200 F 
ENDBRANCH  48  72
BRANCH  60  83
ATOM     83  C   UNL     1       4.967   1.736  13.319  1.00  0.00     0.064 A 
ATOM     84  C   UNL     1       4.897   1.551  14.707  1.00  0.00     0.173 A 
ATOM     85  C   UNL     1       4.471   2.938  12.790  1.00  0.00     0.173 A 
ATOM     86  F   UNL     1       5.341   0.412  15.261  1.00  0.00    -0.203 F 
ATOM     87  C   UNL     1       4.325   2.518  15.529  1.00  0.00     0.198 A 
ATOM     88  C   UNL     1       3.933   3.918  13.619  1.00  0.00     0.198 A 
ATOM     89  F   UNL     1       4.518   3.167  11.469  1.00  0.00    -0.203 F 
ATOM     90  F   UNL     1       4.215   2.295  16.846  1.00  0.00    -0.200 F 
ATOM     91  C   UNL     1       3.852   3.703  14.986  1.00  0.00     0.200 A 
ATOM     92  F   UNL     1       3.492   5.069  13.093  1.00  0.00    -0.200 F 
ATOM     93  F   UNL     1       3.308   4.636  15.780  1.00  0.00    -0.200 F 
ENDBRANCH  60  83
ENDBRANCH  34  35
ENDBRANCH  27  29
ENDBRANCH  26  27
ENDBRANCH  25  26
ENDBRANCH   1  25
TORSDOF 13
