REMARK SMILES Cc1ccc(S(=O)(=O)n2cc(C(=O)C(=O)N[C@@H](Cc3c[nH]c4ccccc34)C(=O)NCC(=O)OCCOC(=O)c3ccc(-c4c5nc(c(-c6c(F)c(F)c(F)c(F)c6F)c6ccc([nH]6)c(-c6c(F)c(F)c(F)c(F)c6F)c6nc(c(-c7c(F)c(F)c(F)c(F)c7F)c7ccc4[nH]7)C=C6)C=C5)cc3)c3ccccc32)cc1
REMARK SMILES IDX 32 1 33 2 31 3 30 4 28 5 29 6 17 8 16 9 14 10 15 11 12 13
REMARK SMILES IDX 13 14 11 15 9 16 10 17 108 18 103 19 107 20 104 21 106 22
REMARK SMILES IDX 105 23 6 24 7 25 8 26 5 27 1 28 2 29 3 30 110 31 4 32 109 33
REMARK SMILES IDX 18 34 19 35 20 36 27 37 21 38 22 39 26 40 23 42 25 43 24 44
REMARK SMILES IDX 34 45 35 46 36 47 37 48 38 49 39 50 40 51 41 52 102 53 42 54
REMARK SMILES IDX 101 55 43 56 44 57 45 58 95 59 46 60 100 61 94 62 96 63
REMARK SMILES IDX 47 64 99 65 93 66 92 67 48 69 80 70 60 71 79 72 61 73 64 74
REMARK SMILES IDX 78 75 97 76 62 77 63 78 77 80 98 81 65 82 49 83 50 84 58 85
REMARK SMILES IDX 51 86 52 87 56 88 59 89 53 90 54 91 57 92 55 93 81 94 82 95
REMARK SMILES IDX 90 96 83 97 84 98 88 99 91 100 85 101 86 102 89 103 87 104
REMARK SMILES IDX 66 105 67 106 75 107 68 108 69 109 73 110 76 111 70 112
REMARK SMILES IDX 71 113 74 114 72 115
REMARK H PARENT 30 7 16 12 21 41 96 68 64 79
REMARK Flexibility Score: inf
ROOT
ATOM      1  C   UNL     1     -11.014   3.470  -4.587  1.00  0.00     0.325 C 
ATOM      2  O   UNL     1     -11.966   3.157  -5.285  1.00  0.00    -0.250 OA
ENDROOT
BRANCH   1   3
ATOM      3  C   UNL     1     -10.527   2.677  -3.356  1.00  0.00     0.238 C 
BRANCH   3   4
ATOM      4  N   UNL     1     -11.597   1.997  -2.624  1.00  0.00    -0.343 N 
ATOM      5  C   UNL     1     -11.679   1.501  -1.353  1.00  0.00     0.243 C 
ATOM      6  O   UNL     1     -12.734   0.924  -1.059  1.00  0.00    -0.273 OA
ATOM      7  H   UNL     1     -12.420   1.873  -3.151  1.00  0.00     0.164 HD
BRANCH   5   8
ATOM      8  C   UNL     1     -10.496   1.516  -0.329  1.00  0.00     0.176 C 
BRANCH   8   9
ATOM      9  N   UNL     1      -9.371   2.389  -0.643  1.00  0.00    -0.337 N 
ATOM     10  C   UNL     1      -8.052   2.173  -0.965  1.00  0.00     0.293 C 
ATOM     11  O   UNL     1      -7.268   3.108  -1.083  1.00  0.00    -0.265 OA
ATOM     12  H   UNL     1      -9.608   3.345  -0.619  1.00  0.00     0.164 HD
BRANCH  10  13
ATOM     13  C   UNL     1      -7.591   0.771  -1.297  1.00  0.00     0.252 C 
ATOM     14  O   UNL     1      -8.267   0.197  -2.153  1.00  0.00    -0.283 OA
BRANCH  13  15
ATOM     15  C   UNL     1      -6.500   0.105  -0.584  1.00  0.00     0.054 A 
ATOM     16  N   UNL     1      -4.580  -0.493   0.454  1.00  0.00    -0.240 N 
ATOM     17  C   UNL     1      -5.251   0.570  -0.157  1.00  0.00     0.117 A 
ATOM     18  C   UNL     1      -5.521  -1.518   0.653  1.00  0.00     0.065 A 
ATOM     19  C   UNL     1      -6.540  -1.282  -0.263  1.00  0.00     0.012 A 
ATOM     20  C   UNL     1      -5.423  -2.744   1.337  1.00  0.00     0.028 A 
ATOM     21  C   UNL     1      -7.374  -2.354  -0.646  1.00  0.00     0.011 A 
ATOM     22  C   UNL     1      -6.221  -3.803   0.901  1.00  0.00     0.002 A 
ATOM     23  C   UNL     1      -7.157  -3.622  -0.108  1.00  0.00     0.001 A 
BRANCH  16  24
ATOM     24  S   UNL     1      -3.040  -1.132  -0.088  1.00  0.00     0.268 S 
ATOM     25  O   UNL     1      -3.295  -1.480  -1.476  1.00  0.00    -0.201 OA
ATOM     26  O   UNL     1      -2.748  -2.158   0.905  1.00  0.00    -0.201 OA
BRANCH  24  27
ATOM     27  C   UNL     1      -1.537  -0.221  -0.100  1.00  0.00     0.088 A 
ATOM     28  C   UNL     1       2.580   1.089  -0.013  1.00  0.00     0.044 C 
ATOM     29  C   UNL     1       1.136   0.679  -0.081  1.00  0.00    -0.051 A 
ATOM     30  C   UNL     1       0.863  -0.647  -0.384  1.00  0.00     0.005 A 
ATOM     31  C   UNL     1       0.060   1.551   0.202  1.00  0.00     0.005 A 
ATOM     32  C   UNL     1      -0.451  -1.079  -0.404  1.00  0.00     0.022 A 
ATOM     33  C   UNL     1      -1.288   1.108   0.200  1.00  0.00     0.022 A 
ENDBRANCH  24  27
ENDBRANCH  16  24
ENDBRANCH  13  15
ENDBRANCH  10  13
ENDBRANCH   8   9
BRANCH   8  34
ATOM     34  C   UNL     1     -11.019   1.822   1.119  1.00  0.00     0.072 C 
BRANCH  34  35
ATOM     35  C   UNL     1     -11.653   3.185   1.386  1.00  0.00    -0.020 A 
ATOM     36  C   UNL     1     -12.896   3.334   2.027  1.00  0.00     0.087 A 
ATOM     37  C   UNL     1     -11.209   4.508   1.009  1.00  0.00     0.003 A 
ATOM     38  N   UNL     1     -13.457   4.609   2.000  1.00  0.00    -0.361 N 
ATOM     39  C   UNL     1     -12.703   5.458   1.228  1.00  0.00     0.046 A 
ATOM     40  C   UNL     1      -9.766   5.310   0.189  1.00  0.00     0.010 A 
ATOM     41  H   UNL     1     -14.282   4.867   2.471  1.00  0.00     0.166 HD
ATOM     42  C   UNL     1     -12.931   7.025   0.302  1.00  0.00     0.026 A 
ATOM     43  C   UNL     1      -9.871   7.007  -0.500  1.00  0.00     0.001 A 
ATOM     44  C   UNL     1     -11.508   7.778  -0.605  1.00  0.00     0.002 A 
ENDBRANCH  34  35
ENDBRANCH   8  34
ENDBRANCH   5   8
ENDBRANCH   3   4
ENDBRANCH   1   3
BRANCH   1  45
ATOM     45  O   UNL     1     -10.229   4.565  -4.781  1.00  0.00    -0.461 OA
BRANCH  45  46
ATOM     46  C   UNL     1     -10.445   5.558  -5.826  1.00  0.00     0.274 C 
BRANCH  46  47
ATOM     47  C   UNL     1     -11.872   5.889  -6.335  1.00  0.00     0.275 C 
BRANCH  47  48
ATOM     48  O   UNL     1     -12.680   6.680  -5.437  1.00  0.00    -0.458 OA
BRANCH  48  49
ATOM     49  C   UNL     1     -13.581   5.997  -4.679  1.00  0.00     0.338 C 
ATOM     50  O   UNL     1     -14.715   5.709  -5.013  1.00  0.00    -0.246 OA
BRANCH  49  51
ATOM     51  C   UNL     1     -13.004   5.765  -3.340  1.00  0.00     0.060 A 
ATOM     52  C   UNL     1     -13.592   5.008  -2.365  1.00  0.00     0.016 A 
ATOM     53  C   UNL     1     -11.728   6.194  -3.091  1.00  0.00     0.016 A 
ATOM     54  C   UNL     1     -12.959   4.984  -1.092  1.00  0.00     0.010 A 
ATOM     55  C   UNL     1     -11.026   5.745  -1.984  1.00  0.00     0.010 A 
ATOM     56  C   UNL     1     -11.645   5.703  -0.649  1.00  0.00    -0.014 A 
BRANCH  56  57
ATOM     57  C   UNL     1     -11.034   6.675   1.145  1.00  0.00     0.031 A 
ATOM     58  C   UNL     1      -9.898   6.149   2.349  1.00  0.00     0.074 A 
ATOM     59  C   UNL     1     -11.165   8.030   1.726  1.00  0.00     0.049 A 
ATOM     60  N   UNL     1      -8.608   6.417   2.364  1.00  0.00    -0.248 NA
ATOM     61  C   UNL     1     -10.302   5.271   3.470  1.00  0.00     0.031 C 
ATOM     62  C   UNL     1     -10.240   8.792   2.592  1.00  0.00     0.029 A 
ATOM     63  N   UNL     1     -12.101   9.083   1.433  1.00  0.00    -0.354 N 
ATOM     64  C   UNL     1      -8.037   5.742   3.435  1.00  0.00     0.074 A 
ATOM     65  C   UNL     1      -9.118   4.929   3.979  1.00  0.00     0.031 C 
ATOM     66  C   UNL     1     -10.787   9.969   2.951  1.00  0.00     0.029 A 
ATOM     67  C   UNL     1     -12.148   9.976   2.479  1.00  0.00     0.049 A 
ATOM     68  H   UNL     1     -12.630   9.155   0.606  1.00  0.00     0.167 HD
ATOM     69  C   UNL     1      -7.252   6.388   4.344  1.00  0.00     0.037 A 
ATOM     70  C   UNL     1     -13.306  10.144   3.168  1.00  0.00     0.037 A 
ATOM     71  C   UNL     1      -7.854   7.552   4.961  1.00  0.00     0.049 A 
ATOM     72  C   UNL     1     -13.033   9.837   4.603  1.00  0.00     0.074 A 
ATOM     73  C   UNL     1      -7.581   8.907   4.925  1.00  0.00     0.029 A 
ATOM     74  N   UNL     1      -9.029   7.410   5.694  1.00  0.00    -0.354 N 
ATOM     75  N   UNL     1     -12.082   9.021   4.967  1.00  0.00    -0.248 NA
ATOM     76  C   UNL     1     -13.690  10.489   5.725  1.00  0.00     0.031 C 
ATOM     77  C   UNL     1      -8.639   9.582   5.592  1.00  0.00     0.029 A 
ATOM     78  C   UNL     1      -9.538   8.634   6.060  1.00  0.00     0.049 A 
ATOM     79  H   UNL     1      -9.442   6.546   5.921  1.00  0.00     0.167 HD
ATOM     80  C   UNL     1     -11.852   9.199   6.292  1.00  0.00     0.074 A 
ATOM     81  C   UNL     1     -12.946  10.037   6.752  1.00  0.00     0.031 C 
ATOM     82  C   UNL     1     -10.722   8.746   6.900  1.00  0.00     0.037 A 
BRANCH  69  83
ATOM     83  C   UNL     1      -5.798   5.980   4.392  1.00  0.00     0.064 A 
ATOM     84  C   UNL     1      -4.832   6.715   5.106  1.00  0.00     0.173 A 
ATOM     85  C   UNL     1      -5.317   4.812   3.750  1.00  0.00     0.173 A 
ATOM     86  F   UNL     1      -5.163   7.819   5.789  1.00  0.00    -0.203 F 
ATOM     87  C   UNL     1      -3.486   6.330   5.152  1.00  0.00     0.198 A 
ATOM     88  C   UNL     1      -3.972   4.430   3.798  1.00  0.00     0.198 A 
ATOM     89  F   UNL     1      -6.146   3.995   3.080  1.00  0.00    -0.203 F 
ATOM     90  F   UNL     1      -2.605   7.067   5.845  1.00  0.00    -0.200 F 
ATOM     91  C   UNL     1      -3.057   5.191   4.497  1.00  0.00     0.200 A 
ATOM     92  F   UNL     1      -3.573   3.314   3.170  1.00  0.00    -0.200 F 
ATOM     93  F   UNL     1      -1.770   4.820   4.550  1.00  0.00    -0.200 F 
ENDBRANCH  69  83
BRANCH  70  94
ATOM     94  C   UNL     1     -14.540   9.881   2.365  1.00  0.00     0.064 A 
ATOM     95  C   UNL     1     -14.705  10.592   1.149  1.00  0.00     0.173 A 
ATOM     96  C   UNL     1     -15.364   8.766   2.554  1.00  0.00     0.173 A 
ATOM     97  F   UNL     1     -13.930  11.659   0.888  1.00  0.00    -0.203 F 
ATOM     98  C   UNL     1     -15.565  10.152   0.141  1.00  0.00     0.198 A 
ATOM     99  C   UNL     1     -16.250   8.343   1.550  1.00  0.00     0.198 A 
ATOM    100  F   UNL     1     -15.252   8.019   3.661  1.00  0.00    -0.203 F 
ATOM    101  F   UNL     1     -15.588  10.783  -1.042  1.00  0.00    -0.200 F 
ATOM    102  C   UNL     1     -16.328   9.017   0.337  1.00  0.00     0.200 A 
ATOM    103  F   UNL     1     -16.962   7.219   1.720  1.00  0.00    -0.200 F 
ATOM    104  F   UNL     1     -17.094   8.543  -0.656  1.00  0.00    -0.200 F 
ENDBRANCH  70  94
BRANCH  82 105
ATOM    105  C   UNL     1     -10.615   8.526   8.374  1.00  0.00     0.064 A 
ATOM    106  C   UNL     1     -11.732   8.200   9.163  1.00  0.00     0.173 A 
ATOM    107  C   UNL     1      -9.358   8.447   9.010  1.00  0.00     0.173 A 
ATOM    108  F   UNL     1     -12.959   8.111   8.630  1.00  0.00    -0.203 F 
ATOM    109  C   UNL     1     -11.608   7.896  10.516  1.00  0.00     0.198 A 
ATOM    110  C   UNL     1      -9.235   8.096  10.350  1.00  0.00     0.198 A 
ATOM    111  F   UNL     1      -8.217   8.665   8.342  1.00  0.00    -0.203 F 
ATOM    112  F   UNL     1     -12.706   7.627  11.235  1.00  0.00    -0.200 F 
ATOM    113  C   UNL     1     -10.360   7.838  11.107  1.00  0.00     0.200 A 
ATOM    114  F   UNL     1      -8.016   7.981  10.895  1.00  0.00    -0.200 F 
ATOM    115  F   UNL     1     -10.241   7.505  12.398  1.00  0.00    -0.200 F 
ENDBRANCH  82 105
ENDBRANCH  56  57
ENDBRANCH  49  51
ENDBRANCH  48  49
ENDBRANCH  47  48
ENDBRANCH  46  47
ENDBRANCH  45  46
ENDBRANCH   1  45
TORSDOF 20
