REMARK SMILES O=C(OCCOC(=O)c1c(OCc2ccccn2)cnc2ccccc12)c1ccc(-c2c3nc(c(-c4c(F)c(F)c(F)c(F)c4F)c4ccc([nH]4)c(-c4c(F)c(F)c(F)c(F)c4F)c4nc(c(-c5c(F)c(F)c(F)c(F)c5F)c5ccc2[nH]5)C=C4)C=C3)cc1
REMARK SMILES IDX 5 1 4 2 3 3 2 4 1 5 27 6 28 7 89 8 29 9 88 10 30 11 31 12
REMARK SMILES IDX 32 13 82 14 33 15 87 16 81 17 83 18 34 19 86 20 80 21 79 22
REMARK SMILES IDX 35 24 67 25 47 26 66 27 48 28 51 29 65 30 84 31 49 32 50 33
REMARK SMILES IDX 64 35 85 36 52 37 36 38 37 39 45 40 38 41 39 42 43 43 46 44
REMARK SMILES IDX 40 45 41 46 44 47 42 48 68 49 69 50 77 51 70 52 71 53 75 54
REMARK SMILES IDX 78 55 72 56 73 57 76 58 74 59 53 60 54 61 62 62 55 63 56 64
REMARK SMILES IDX 60 65 63 66 57 67 58 68 61 69 59 70 6 71 7 72 8 73 9 74
REMARK SMILES IDX 10 75 26 76 19 77 21 78 25 79 20 80 22 81 24 82 23 83 11 84
REMARK SMILES IDX 12 85 13 86 14 87 18 88 15 89 17 90 16 91
REMARK H PARENT 83 23 51 34
REMARK Flexibility Score: inf
ROOT
ATOM      1  C   UNL     1       3.708  -2.027  -0.669  1.00  0.00     0.275 C 
ENDROOT
BRANCH   1   2
ATOM      2  C   UNL     1       4.298  -1.480   0.623  1.00  0.00     0.275 C 
BRANCH   2   3
ATOM      3  O   UNL     1       3.441  -0.547   1.299  1.00  0.00    -0.458 OA
BRANCH   3   4
ATOM      4  C   UNL     1       3.379   0.797   1.175  1.00  0.00     0.338 C 
ATOM      5  O   UNL     1       2.781   1.448   2.031  1.00  0.00    -0.246 OA
BRANCH   4   6
ATOM      6  C   UNL     1       3.900   1.541  -0.011  1.00  0.00     0.060 A 
ATOM      7  C   UNL     1       5.117   1.319  -0.667  1.00  0.00     0.016 A 
ATOM      8  C   UNL     1       3.117   2.624  -0.432  1.00  0.00     0.016 A 
ATOM      9  C   UNL     1       5.523   2.133  -1.737  1.00  0.00     0.010 A 
ATOM     10  C   UNL     1       3.519   3.436  -1.491  1.00  0.00     0.010 A 
ATOM     11  C   UNL     1       4.736   3.213  -2.138  1.00  0.00    -0.014 A 
BRANCH  11  12
ATOM     12  C   UNL     1       5.236   4.245  -3.076  1.00  0.00     0.031 A 
ATOM     13  C   UNL     1       5.718   5.547  -2.509  1.00  0.00     0.074 A 
ATOM     14  C   UNL     1       5.191   4.071  -4.407  1.00  0.00     0.049 A 
ATOM     15  N   UNL     1       6.105   6.632  -3.128  1.00  0.00    -0.248 NA
ATOM     16  C   UNL     1       5.759   5.640  -1.041  1.00  0.00     0.031 C 
ATOM     17  C   UNL     1       4.743   2.859  -5.078  1.00  0.00     0.029 A 
ATOM     18  N   UNL     1       5.486   4.937  -5.431  1.00  0.00    -0.354 N 
ATOM     19  C   UNL     1       6.448   7.528  -2.127  1.00  0.00     0.074 A 
ATOM     20  C   UNL     1       6.157   6.888  -0.862  1.00  0.00     0.031 C 
ATOM     21  C   UNL     1       4.735   3.074  -6.404  1.00  0.00     0.029 A 
ATOM     22  C   UNL     1       5.163   4.443  -6.670  1.00  0.00     0.049 A 
ATOM     23  H   UNL     1       5.889   5.824  -5.290  1.00  0.00     0.167 HD
ATOM     24  C   UNL     1       6.989   8.762  -2.249  1.00  0.00     0.037 A 
ATOM     25  C   UNL     1       5.186   5.034  -7.880  1.00  0.00     0.037 A 
ATOM     26  C   UNL     1       7.265   9.403  -3.504  1.00  0.00     0.049 A 
ATOM     27  C   UNL     1       5.715   6.435  -8.001  1.00  0.00     0.074 A 
ATOM     28  C   UNL     1       7.850  10.633  -3.740  1.00  0.00     0.029 A 
ATOM     29  N   UNL     1       6.955   8.859  -4.743  1.00  0.00    -0.354 N 
ATOM     30  N   UNL     1       6.121   7.245  -7.055  1.00  0.00    -0.248 NA
ATOM     31  C   UNL     1       5.822   6.992  -9.356  1.00  0.00     0.031 C 
ATOM     32  C   UNL     1       7.867  10.847  -5.124  1.00  0.00     0.029 A 
ATOM     33  C   UNL     1       7.322   9.736  -5.749  1.00  0.00     0.049 A 
ATOM     34  H   UNL     1       6.537   7.979  -4.885  1.00  0.00     0.167 HD
ATOM     35  C   UNL     1       6.584   8.384  -7.698  1.00  0.00     0.074 A 
ATOM     36  C   UNL     1       6.385   8.170  -9.118  1.00  0.00     0.031 C 
ATOM     37  C   UNL     1       7.144   9.493  -7.159  1.00  0.00     0.037 A 
BRANCH  24  38
ATOM     38  C   UNL     1       7.305   9.475  -0.970  1.00  0.00     0.064 A 
ATOM     39  C   UNL     1       8.357   9.048  -0.142  1.00  0.00     0.173 A 
ATOM     40  C   UNL     1       6.511  10.542  -0.530  1.00  0.00     0.173 A 
ATOM     41  F   UNL     1       9.129   8.014  -0.511  1.00  0.00    -0.203 F 
ATOM     42  C   UNL     1       8.567   9.631   1.104  1.00  0.00     0.198 A 
ATOM     43  C   UNL     1       6.743  11.141   0.706  1.00  0.00     0.198 A 
ATOM     44  F   UNL     1       5.494  10.984  -1.284  1.00  0.00    -0.203 F 
ATOM     45  F   UNL     1       9.526   9.155   1.911  1.00  0.00    -0.200 F 
ATOM     46  C   UNL     1       7.760  10.675   1.527  1.00  0.00     0.200 A 
ATOM     47  F   UNL     1       5.964  12.151   1.115  1.00  0.00    -0.200 F 
ATOM     48  F   UNL     1       7.948  11.221   2.736  1.00  0.00    -0.200 F 
ENDBRANCH  24  38
BRANCH  25  49
ATOM     49  C   UNL     1       4.710   4.281  -9.068  1.00  0.00     0.064 A 
ATOM     50  C   UNL     1       5.613   3.744  -9.993  1.00  0.00     0.173 A 
ATOM     51  C   UNL     1       3.342   4.051  -9.277  1.00  0.00     0.173 A 
ATOM     52  F   UNL     1       6.929   3.953  -9.844  1.00  0.00    -0.203 F 
ATOM     53  C   UNL     1       5.166   3.007 -11.088  1.00  0.00     0.198 A 
ATOM     54  C   UNL     1       2.897   3.298 -10.362  1.00  0.00     0.198 A 
ATOM     55  F   UNL     1       2.439   4.547  -8.419  1.00  0.00    -0.203 F 
ATOM     56  F   UNL     1       6.049   2.520 -11.971  1.00  0.00    -0.200 F 
ATOM     57  C   UNL     1       3.810   2.778 -11.268  1.00  0.00     0.200 A 
ATOM     58  F   UNL     1       1.587   3.070 -10.527  1.00  0.00    -0.200 F 
ATOM     59  F   UNL     1       3.382   2.058 -12.314  1.00  0.00    -0.200 F 
ENDBRANCH  25  49
BRANCH  37  60
ATOM     60  C   UNL     1       7.656  10.537  -8.104  1.00  0.00     0.064 A 
ATOM     61  C   UNL     1       6.795  11.429  -8.755  1.00  0.00     0.173 A 
ATOM     62  C   UNL     1       9.037  10.685  -8.301  1.00  0.00     0.173 A 
ATOM     63  F   UNL     1       5.467  11.314  -8.610  1.00  0.00    -0.203 F 
ATOM     64  C   UNL     1       7.301  12.433  -9.577  1.00  0.00     0.198 A 
ATOM     65  C   UNL     1       9.539  11.702  -9.106  1.00  0.00     0.198 A 
ATOM     66  F   UNL     1       9.899   9.853  -7.696  1.00  0.00    -0.203 F 
ATOM     67  F   UNL     1       6.461  13.264 -10.211  1.00  0.00    -0.200 F 
ATOM     68  C   UNL     1       8.671  12.574  -9.744  1.00  0.00     0.200 A 
ATOM     69  F   UNL     1      10.863  11.842  -9.259  1.00  0.00    -0.200 F 
ATOM     70  F   UNL     1       9.155  13.551 -10.524  1.00  0.00    -0.200 F 
ENDBRANCH  37  60
ENDBRANCH  11  12
ENDBRANCH   4   6
ENDBRANCH   3   4
ENDBRANCH   2   3
ENDBRANCH   1   2
BRANCH   1  71
ATOM     71  O   UNL     1       3.361  -0.990  -1.602  1.00  0.00    -0.458 OA
BRANCH  71  72
ATOM     72  C   UNL     1       2.031  -0.835  -1.829  1.00  0.00     0.342 C 
ATOM     73  O   UNL     1       1.133  -1.418  -1.242  1.00  0.00    -0.246 OA
BRANCH  72  74
ATOM     74  C   UNL     1       1.769   0.098  -2.950  1.00  0.00     0.113 A 
ATOM     75  C   UNL     1       0.810   1.103  -2.743  1.00  0.00     0.153 A 
ATOM     76  C   UNL     1       2.330  -0.136  -4.242  1.00  0.00     0.018 A 
ATOM     77  C   UNL     1       0.382   1.777  -3.869  1.00  0.00     0.159 A 
ATOM     78  C   UNL     1       1.796   0.632  -5.295  1.00  0.00     0.071 A 
ATOM     79  C   UNL     1       3.365  -1.060  -4.563  1.00  0.00     0.011 A 
ATOM     80  N   UNL     1       0.834   1.542  -5.122  1.00  0.00    -0.252 NA
ATOM     81  C   UNL     1       2.273   0.461  -6.586  1.00  0.00     0.029 A 
ATOM     82  C   UNL     1       3.862  -1.184  -5.862  1.00  0.00     0.001 A 
ATOM     83  C   UNL     1       3.307  -0.427  -6.880  1.00  0.00     0.002 A 
BRANCH  75  84
ATOM     84  O   UNL     1       0.429   1.387  -1.461  1.00  0.00    -0.485 OA
BRANCH  84  85
ATOM     85  C   UNL     1      -0.724   2.210  -1.225  1.00  0.00     0.285 C 
BRANCH  85  86
ATOM     86  C   UNL     1      -0.472   3.713  -1.194  1.00  0.00     0.078 A 
ATOM     87  C   UNL     1      -1.152   4.516  -0.278  1.00  0.00     0.027 A 
ATOM     88  N   UNL     1       0.331   4.257  -2.143  1.00  0.00    -0.258 NA
ATOM     89  C   UNL     1      -0.984   5.901  -0.327  1.00  0.00     0.004 A 
ATOM     90  C   UNL     1       0.475   5.602  -2.172  1.00  0.00     0.111 A 
ATOM     91  C   UNL     1      -0.153   6.458  -1.290  1.00  0.00     0.020 A 
ENDBRANCH  85  86
ENDBRANCH  84  85
ENDBRANCH  75  84
ENDBRANCH  72  74
ENDBRANCH  71  72
ENDBRANCH   1  71
TORSDOF 14
