REMARK SMILES O=C(OCCOC(=O)c1cc(-n2ccnc2)ccn1)c1ccc(-c2c3nc(c(-c4c(F)c(F)c(F)c(F)c4F)c4ccc([nH]4)c(-c4c(F)c(F)c(F)c(F)c4F)c4nc(c(-c5c(F)c(F)c(F)c(F)c5F)c5ccc2[nH]5)C=C4)C=C3)cc1
REMARK SMILES IDX 4 1 3 2 2 3 1 4 20 5 21 6 82 7 22 8 81 9 23 10 24 11 25 12
REMARK SMILES IDX 75 13 26 14 80 15 74 16 76 17 27 18 79 19 73 20 72 21 28 23
REMARK SMILES IDX 60 24 40 25 59 26 41 27 44 28 58 29 77 30 42 31 43 32 57 34
REMARK SMILES IDX 78 35 45 36 29 37 30 38 38 39 31 40 32 41 36 42 39 43 33 44
REMARK SMILES IDX 34 45 37 46 35 47 61 48 62 49 70 50 63 51 64 52 68 53 71 54
REMARK SMILES IDX 65 55 66 56 69 57 67 58 46 59 47 60 55 61 48 62 49 63 53 64
REMARK SMILES IDX 56 65 50 66 51 67 54 68 52 69 5 70 6 71 7 72 8 73 9 74 10 75
REMARK SMILES IDX 19 76 11 77 18 78 17 79 12 80 13 81 16 82 14 83 15 84
REMARK H PARENT 76 22 44 33
REMARK Flexibility Score: inf
ROOT
ATOM      1  C   UNL     1       4.684  -1.092   0.159  1.00  0.00     0.275 C 
ENDROOT
BRANCH   1   2
ATOM      2  O   UNL     1       3.432  -1.222   0.863  1.00  0.00    -0.458 OA
BRANCH   2   3
ATOM      3  C   UNL     1       2.405  -0.379   0.605  1.00  0.00     0.338 C 
ATOM      4  O   UNL     1       1.434  -0.695  -0.065  1.00  0.00    -0.246 OA
BRANCH   3   5
ATOM      5  C   UNL     1       2.402   0.812   1.491  1.00  0.00     0.060 A 
ATOM      6  C   UNL     1       3.567   1.398   1.997  1.00  0.00     0.016 A 
ATOM      7  C   UNL     1       1.151   1.334   1.848  1.00  0.00     0.016 A 
ATOM      8  C   UNL     1       3.482   2.408   2.942  1.00  0.00     0.010 A 
ATOM      9  C   UNL     1       1.061   2.350   2.785  1.00  0.00     0.010 A 
ATOM     10  C   UNL     1       2.226   2.846   3.368  1.00  0.00    -0.014 A 
BRANCH  10  11
ATOM     11  C   UNL     1       2.163   3.968   4.298  1.00  0.00     0.031 A 
ATOM     12  C   UNL     1       2.697   5.232   3.721  1.00  0.00     0.074 A 
ATOM     13  C   UNL     1       1.538   3.889   5.492  1.00  0.00     0.049 A 
ATOM     14  N   UNL     1       3.699   5.934   4.137  1.00  0.00    -0.248 NA
ATOM     15  C   UNL     1       2.150   5.692   2.432  1.00  0.00     0.031 C 
ATOM     16  C   UNL     1       0.776   2.754   6.018  1.00  0.00     0.029 A 
ATOM     17  N   UNL     1       1.359   4.840   6.455  1.00  0.00    -0.354 N 
ATOM     18  C   UNL     1       3.761   7.044   3.296  1.00  0.00     0.074 A 
ATOM     19  C   UNL     1       2.927   6.743   2.166  1.00  0.00     0.031 C 
ATOM     20  C   UNL     1       0.029   3.160   7.070  1.00  0.00     0.029 A 
ATOM     21  C   UNL     1       0.354   4.541   7.375  1.00  0.00     0.049 A 
ATOM     22  H   UNL     1       1.893   5.666   6.496  1.00  0.00     0.167 HD
ATOM     23  C   UNL     1       4.242   8.229   3.768  1.00  0.00     0.037 A 
ATOM     24  C   UNL     1      -0.207   5.389   8.278  1.00  0.00     0.037 A 
ATOM     25  C   UNL     1       5.088   8.008   4.918  1.00  0.00     0.049 A 
ATOM     26  C   UNL     1       0.720   6.534   8.448  1.00  0.00     0.074 A 
ATOM     27  C   UNL     1       6.237   7.280   5.163  1.00  0.00     0.029 A 
ATOM     28  N   UNL     1       4.563   8.294   6.152  1.00  0.00    -0.354 N 
ATOM     29  N   UNL     1       1.886   6.439   9.022  1.00  0.00    -0.248 NA
ATOM     30  C   UNL     1       0.546   7.675   7.564  1.00  0.00     0.031 C 
ATOM     31  C   UNL     1       6.075   6.765   6.485  1.00  0.00     0.029 A 
ATOM     32  C   UNL     1       4.884   7.273   7.002  1.00  0.00     0.049 A 
ATOM     33  H   UNL     1       4.045   9.098   6.386  1.00  0.00     0.167 HD
ATOM     34  C   UNL     1       2.723   7.205   8.226  1.00  0.00     0.074 A 
ATOM     35  C   UNL     1       1.827   8.011   7.398  1.00  0.00     0.031 C 
ATOM     36  C   UNL     1       4.045   6.886   8.109  1.00  0.00     0.037 A 
BRANCH  23  37
ATOM     37  C   UNL     1       3.556   9.566   3.523  1.00  0.00     0.064 A 
ATOM     38  C   UNL     1       4.103  10.717   4.131  1.00  0.00     0.173 A 
ATOM     39  C   UNL     1       2.236   9.715   3.041  1.00  0.00     0.173 A 
ATOM     40  F   UNL     1       5.353  10.705   4.619  1.00  0.00    -0.203 F 
ATOM     41  C   UNL     1       3.340  11.864   4.368  1.00  0.00     0.198 A 
ATOM     42  C   UNL     1       1.494  10.878   3.239  1.00  0.00     0.198 A 
ATOM     43  F   UNL     1       1.562   8.723   2.452  1.00  0.00    -0.203 F 
ATOM     44  F   UNL     1       3.854  12.865   5.095  1.00  0.00    -0.200 F 
ATOM     45  C   UNL     1       2.029  11.936   3.938  1.00  0.00     0.200 A 
ATOM     46  F   UNL     1       0.221  10.922   2.820  1.00  0.00    -0.200 F 
ATOM     47  F   UNL     1       1.270  12.998   4.235  1.00  0.00    -0.200 F 
ENDBRANCH  23  37
BRANCH  24  48
ATOM     48  C   UNL     1      -1.612   5.452   8.761  1.00  0.00     0.064 A 
ATOM     49  C   UNL     1      -1.965   6.240   9.873  1.00  0.00     0.173 A 
ATOM     50  C   UNL     1      -2.680   4.983   7.973  1.00  0.00     0.173 A 
ATOM     51  F   UNL     1      -1.013   6.773  10.653  1.00  0.00    -0.203 F 
ATOM     52  C   UNL     1      -3.298   6.561  10.158  1.00  0.00     0.198 A 
ATOM     53  C   UNL     1      -4.010   5.297   8.261  1.00  0.00     0.198 A 
ATOM     54  F   UNL     1      -2.451   4.294   6.846  1.00  0.00    -0.203 F 
ATOM     55  F   UNL     1      -3.588   7.372  11.185  1.00  0.00    -0.200 F 
ATOM     56  C   UNL     1      -4.319   6.098   9.345  1.00  0.00     0.200 A 
ATOM     57  F   UNL     1      -4.984   4.876   7.443  1.00  0.00    -0.200 F 
ATOM     58  F   UNL     1      -5.589   6.458   9.576  1.00  0.00    -0.200 F 
ENDBRANCH  24  48
BRANCH  36  59
ATOM     59  C   UNL     1       4.618   5.907   9.092  1.00  0.00     0.064 A 
ATOM     60  C   UNL     1       4.194   4.573   9.233  1.00  0.00     0.173 A 
ATOM     61  C   UNL     1       5.724   6.314   9.850  1.00  0.00     0.173 A 
ATOM     62  F   UNL     1       3.211   4.076   8.470  1.00  0.00    -0.203 F 
ATOM     63  C   UNL     1       4.816   3.710  10.134  1.00  0.00     0.198 A 
ATOM     64  C   UNL     1       6.369   5.439  10.717  1.00  0.00     0.198 A 
ATOM     65  F   UNL     1       6.207   7.559   9.716  1.00  0.00    -0.203 F 
ATOM     66  F   UNL     1       4.379   2.449  10.268  1.00  0.00    -0.200 F 
ATOM     67  C   UNL     1       5.906   4.142  10.870  1.00  0.00     0.200 A 
ATOM     68  F   UNL     1       7.455   5.848  11.387  1.00  0.00    -0.200 F 
ATOM     69  F   UNL     1       6.528   3.303  11.710  1.00  0.00    -0.200 F 
ENDBRANCH  36  59
ENDBRANCH  10  11
ENDBRANCH   3   5
ENDBRANCH   2   3
ENDBRANCH   1   2
BRANCH   1  70
ATOM     70  C   UNL     1       4.617  -0.662  -1.304  1.00  0.00     0.275 C 
BRANCH  70  71
ATOM     71  O   UNL     1       4.055   0.653  -1.409  1.00  0.00    -0.457 OA
BRANCH  71  72
ATOM     72  C   UNL     1       2.993   0.768  -2.259  1.00  0.00     0.357 C 
ATOM     73  O   UNL     1       2.551  -0.066  -3.015  1.00  0.00    -0.244 OA
BRANCH  72  74
ATOM     74  C   UNL     1       2.555   2.179  -2.205  1.00  0.00     0.150 A 
ATOM     75  C   UNL     1       3.146   3.059  -3.089  1.00  0.00     0.062 A 
ATOM     76  N   UNL     1       1.652   2.537  -1.258  1.00  0.00    -0.249 NA
ATOM     77  C   UNL     1       2.822   4.406  -2.956  1.00  0.00     0.050 A 
ATOM     78  C   UNL     1       1.336   3.846  -1.186  1.00  0.00     0.114 A 
ATOM     79  C   UNL     1       1.918   4.823  -1.978  1.00  0.00     0.047 A 
BRANCH  77  80
ATOM     80  N   UNL     1       3.404   5.332  -3.840  1.00  0.00    -0.306 N 
ATOM     81  C   UNL     1       3.674   5.119  -5.171  1.00  0.00     0.113 A 
ATOM     82  C   UNL     1       3.822   6.608  -3.557  1.00  0.00     0.204 A 
ATOM     83  C   UNL     1       4.215   6.295  -5.629  1.00  0.00     0.131 A 
ATOM     84  N   UNL     1       4.321   7.209  -4.615  1.00  0.00    -0.245 NA
ENDBRANCH  77  80
ENDBRANCH  72  74
ENDBRANCH  71  72
ENDBRANCH  70  71
ENDBRANCH   1  70
TORSDOF 12
