REMARK SMILES O=C(C[N@H+](Cc1c(F)cccc1Cl)C1CC1)OCCOC(=O)c1ccc(-c2c3nc(c(-c4c(F)c(F)c(F)c(F)c4F)c4ccc([nH]4)c(-c4c(F)c(F)c(F)c(F)c4F)c4nc(c(-c5c(F)c(F)c(F)c(F)c5F)c5ccc2[nH]5)C=C4)C=C3)cc1
REMARK SMILES IDX 18 1 17 2 2 3 1 4 3 5 4 6 5 8 6 9 7 10 12 11 8 12 9 13 11 14
REMARK SMILES IDX 13 15 10 16 14 17 15 18 16 19 19 20 20 21 21 22 22 23 23 24
REMARK SMILES IDX 24 25 85 26 25 27 84 28 26 29 27 30 28 31 78 32 29 33 83 34
REMARK SMILES IDX 77 35 79 36 30 37 82 38 76 39 75 40 31 42 63 43 43 44 62 45
REMARK SMILES IDX 44 46 47 47 61 48 80 49 45 50 46 51 60 53 81 54 48 55 32 56
REMARK SMILES IDX 33 57 41 58 34 59 35 60 39 61 42 62 36 63 37 64 40 65 38 66
REMARK SMILES IDX 64 67 65 68 73 69 66 70 67 71 71 72 74 73 68 74 69 75 72 76
REMARK SMILES IDX 70 77 49 78 50 79 58 80 51 81 52 82 56 83 59 84 53 85 54 86
REMARK SMILES IDX 57 87 55 88
REMARK H PARENT 4 7 79 41 47 52
REMARK Flexibility Score: inf
ROOT
ATOM      1  C   UNL     1       4.674  -1.192  -0.922  1.00  0.00     0.274 C 
ENDROOT
BRANCH   1   2
ATOM      2  O   UNL     1       3.393  -1.563  -0.361  1.00  0.00    -0.458 OA
BRANCH   2   3
ATOM      3  C   UNL     1       2.653  -0.788   0.483  1.00  0.00     0.361 C 
ATOM      4  O   UNL     1       1.715  -1.295   1.091  1.00  0.00    -0.245 OA
BRANCH   3   5
ATOM      5  C   UNL     1       2.944   0.699   0.450  1.00  0.00     0.387 C 
BRANCH   5   6
ATOM      6  N   UNL     1       2.937   1.483   1.687  1.00  0.00    -0.319 N 
ATOM      7  H   UNL     1       1.945   1.697   1.793  1.00  0.00     0.349 HD
BRANCH   6   8
ATOM      8  C   UNL     1       3.709   2.724   1.514  1.00  0.00     0.304 C 
BRANCH   8   9
ATOM      9  C   UNL     1       3.024   3.942   2.070  1.00  0.00     0.061 A 
ATOM     10  C   UNL     1       3.828   4.920   2.666  1.00  0.00     0.133 A 
ATOM     11  C   UNL     1       1.641   4.183   2.010  1.00  0.00     0.052 A 
ATOM     12  F   UNL     1       5.165   4.816   2.606  1.00  0.00    -0.206 F 
ATOM     13  C   UNL     1       3.282   6.022   3.314  1.00  0.00     0.040 A 
ATOM     14  C   UNL     1       1.085   5.273   2.683  1.00  0.00     0.021 A 
ATOM     15  Cl  UNL     1       0.525   3.211   1.117  1.00  0.00    -0.084 Cl
ATOM     16  C   UNL     1       1.899   6.172   3.365  1.00  0.00     0.005 A 
ENDBRANCH   8   9
ENDBRANCH   6   8
BRANCH   6  17
ATOM     17  C   UNL     1       3.030   0.848   2.998  1.00  0.00     0.185 C 
ATOM     18  C   UNL     1       2.244   1.465   4.139  1.00  0.00     0.071 C 
ATOM     19  C   UNL     1       1.835   0.143   3.585  1.00  0.00     0.071 C 
ENDBRANCH   6  17
ENDBRANCH   5   6
ENDBRANCH   3   5
ENDBRANCH   2   3
ENDBRANCH   1   2
BRANCH   1  20
ATOM     20  C   UNL     1       4.557  -0.632  -2.348  1.00  0.00     0.275 C 
BRANCH  20  21
ATOM     21  O   UNL     1       4.124   0.751  -2.378  1.00  0.00    -0.458 OA
BRANCH  21  22
ATOM     22  C   UNL     1       2.853   0.982  -2.801  1.00  0.00     0.338 C 
ATOM     23  O   UNL     1       2.048   0.125  -3.132  1.00  0.00    -0.246 OA
BRANCH  22  24
ATOM     24  C   UNL     1       2.488   2.425  -2.678  1.00  0.00     0.060 A 
ATOM     25  C   UNL     1       1.146   2.741  -2.428  1.00  0.00     0.016 A 
ATOM     26  C   UNL     1       3.417   3.465  -2.801  1.00  0.00     0.016 A 
ATOM     27  C   UNL     1       0.736   4.076  -2.299  1.00  0.00     0.010 A 
ATOM     28  C   UNL     1       2.998   4.806  -2.696  1.00  0.00     0.010 A 
ATOM     29  C   UNL     1       1.653   5.127  -2.449  1.00  0.00    -0.014 A 
BRANCH  29  30
ATOM     30  C   UNL     1       1.162   6.538  -2.441  1.00  0.00     0.031 A 
ATOM     31  C   UNL     1       0.470   7.090  -3.651  1.00  0.00     0.074 A 
ATOM     32  C   UNL     1       1.330   7.355  -1.383  1.00  0.00     0.049 A 
ATOM     33  N   UNL     1      -0.073   8.269  -3.829  1.00  0.00    -0.248 NA
ATOM     34  C   UNL     1       0.433   6.219  -4.832  1.00  0.00     0.031 C 
ATOM     35  C   UNL     1       2.090   7.014  -0.193  1.00  0.00     0.029 A 
ATOM     36  N   UNL     1       0.877   8.634  -1.135  1.00  0.00    -0.354 N 
ATOM     37  C   UNL     1      -0.483   8.297  -5.152  1.00  0.00     0.074 A 
ATOM     38  C   UNL     1      -0.143   7.009  -5.725  1.00  0.00     0.031 C 
ATOM     39  C   UNL     1       2.003   8.031   0.679  1.00  0.00     0.029 A 
ATOM     40  C   UNL     1       1.168   9.087   0.131  1.00  0.00     0.049 A 
ATOM     41  H   UNL     1       0.391   9.172  -1.801  1.00  0.00     0.167 HD
ATOM     42  C   UNL     1      -1.053   9.316  -5.840  1.00  0.00     0.037 A 
ATOM     43  C   UNL     1       0.800  10.207   0.791  1.00  0.00     0.037 A 
ATOM     44  C   UNL     1      -1.353  10.616  -5.297  1.00  0.00     0.049 A 
ATOM     45  C   UNL     1       0.056  11.279   0.041  1.00  0.00     0.074 A 
ATOM     46  C   UNL     1      -1.913  11.708  -5.939  1.00  0.00     0.029 A 
ATOM     47  N   UNL     1      -1.105  11.009  -3.991  1.00  0.00    -0.354 N 
ATOM     48  N   UNL     1      -0.364  11.276  -1.198  1.00  0.00    -0.248 NA
ATOM     49  C   UNL     1      -0.213  12.534   0.762  1.00  0.00     0.031 C 
ATOM     50  C   UNL     1      -1.966  12.774  -5.033  1.00  0.00     0.029 A 
ATOM     51  C   UNL     1      -1.491  12.330  -3.811  1.00  0.00     0.049 A 
ATOM     52  H   UNL     1      -0.713  10.435  -3.293  1.00  0.00     0.167 HD
ATOM     53  C   UNL     1      -0.916  12.530  -1.415  1.00  0.00     0.074 A 
ATOM     54  C   UNL     1      -0.841  13.248  -0.161  1.00  0.00     0.031 C 
ATOM     55  C   UNL     1      -1.403  13.049  -2.567  1.00  0.00     0.037 A 
BRANCH  42  56
ATOM     56  C   UNL     1      -1.324   9.072  -7.293  1.00  0.00     0.064 A 
ATOM     57  C   UNL     1      -2.353   8.220  -7.718  1.00  0.00     0.173 A 
ATOM     58  C   UNL     1      -0.531   9.690  -8.271  1.00  0.00     0.173 A 
ATOM     59  F   UNL     1      -3.122   7.589  -6.817  1.00  0.00    -0.203 F 
ATOM     60  C   UNL     1      -2.558   7.970  -9.071  1.00  0.00     0.198 A 
ATOM     61  C   UNL     1      -0.757   9.460  -9.624  1.00  0.00     0.198 A 
ATOM     62  F   UNL     1       0.468  10.512  -7.914  1.00  0.00    -0.203 F 
ATOM     63  F   UNL     1      -3.508   7.106  -9.454  1.00  0.00    -0.200 F 
ATOM     64  C   UNL     1      -1.763   8.592 -10.023  1.00  0.00     0.200 A 
ATOM     65  F   UNL     1       0.007  10.067 -10.542  1.00  0.00    -0.200 F 
ATOM     66  F   UNL     1      -1.958   8.346 -11.325  1.00  0.00    -0.200 F 
ENDBRANCH  42  56
BRANCH  43  67
ATOM     67  C   UNL     1       1.096  10.388   2.244  1.00  0.00     0.064 A 
ATOM     68  C   UNL     1       0.048  10.482   3.176  1.00  0.00     0.173 A 
ATOM     69  C   UNL     1       2.403  10.508   2.737  1.00  0.00     0.173 A 
ATOM     70  F   UNL     1      -1.226  10.404   2.762  1.00  0.00    -0.203 F 
ATOM     71  C   UNL     1       0.294  10.709   4.530  1.00  0.00     0.198 A 
ATOM     72  C   UNL     1       2.650  10.691   4.098  1.00  0.00     0.198 A 
ATOM     73  F   UNL     1       3.447  10.437   1.899  1.00  0.00    -0.203 F 
ATOM     74  F   UNL     1      -0.730  10.854   5.382  1.00  0.00    -0.200 F 
ATOM     75  C   UNL     1       1.597  10.804   4.992  1.00  0.00     0.200 A 
ATOM     76  F   UNL     1       3.913  10.759   4.542  1.00  0.00    -0.200 F 
ATOM     77  F   UNL     1       1.837  11.011   6.293  1.00  0.00    -0.200 F 
ENDBRANCH  43  67
BRANCH  55  78
ATOM     78  C   UNL     1      -1.882  14.471  -2.528  1.00  0.00     0.064 A 
ATOM     79  C   UNL     1      -0.984  15.544  -2.417  1.00  0.00     0.173 A 
ATOM     80  C   UNL     1      -3.249  14.767  -2.629  1.00  0.00     0.173 A 
ATOM     81  F   UNL     1       0.333  15.313  -2.299  1.00  0.00    -0.203 F 
ATOM     82  C   UNL     1      -1.439  16.860  -2.385  1.00  0.00     0.198 A 
ATOM     83  C   UNL     1      -3.699  16.085  -2.623  1.00  0.00     0.198 A 
ATOM     84  F   UNL     1      -4.149  13.778  -2.737  1.00  0.00    -0.203 F 
ATOM     85  F   UNL     1      -0.567  17.866  -2.231  1.00  0.00    -0.200 F 
ATOM     86  C   UNL     1      -2.795  17.129  -2.494  1.00  0.00     0.200 A 
ATOM     87  F   UNL     1      -5.008  16.345  -2.737  1.00  0.00    -0.200 F 
ATOM     88  F   UNL     1      -3.232  18.396  -2.466  1.00  0.00    -0.200 F 
ENDBRANCH  55  78
ENDBRANCH  29  30
ENDBRANCH  22  24
ENDBRANCH  21  22
ENDBRANCH  20  21
ENDBRANCH   1  20
TORSDOF 15
