REMARK SMILES CCCCCC(=O)N1CCC[C@H](C(=O)OCCOC(=O)c2ccc(-c3c4nc(c(-c5c(F)c(F)c(F)c(F)c5F)c5ccc([nH]5)c(-c5c(F)c(F)c(F)c(F)c5F)c5nc(c(-c6c(F)c(F)c(F)c(F)c6F)c6ccc3[nH]6)C=C5)C=C4)cc2)C1
REMARK SMILES IDX 15 1 13 2 14 3 12 4 8 5 9 6 84 7 10 8 11 9 6 10 7 11 5 12
REMARK SMILES IDX 4 13 3 14 2 15 1 16 16 17 17 18 18 19 19 20 20 21 21 22
REMARK SMILES IDX 22 23 83 24 23 25 82 26 24 27 25 28 26 29 76 30 27 31 81 32
REMARK SMILES IDX 75 33 77 34 28 35 80 36 74 37 73 38 29 40 61 41 41 42 60 43
REMARK SMILES IDX 42 44 45 45 59 46 78 47 43 48 44 49 58 51 79 52 46 53 30 54
REMARK SMILES IDX 31 55 39 56 32 57 33 58 37 59 40 60 34 61 35 62 38 63 36 64
REMARK SMILES IDX 62 65 63 66 71 67 64 68 65 69 69 70 72 71 66 72 67 73 70 74
REMARK SMILES IDX 68 75 47 76 48 77 56 78 49 79 50 80 54 81 57 82 51 83 52 84
REMARK SMILES IDX 55 85 53 86
REMARK H PARENT 77 39 45 50
REMARK Flexibility Score: inf
ROOT
ATOM      1  O   UNL     1      -0.635   0.258   6.906  1.00  0.00    -0.462 OA
ENDROOT
BRANCH   1   2
ATOM      2  C   UNL     1       0.191  -0.173   5.924  1.00  0.00     0.310 C 
ATOM      3  O   UNL     1       1.247   0.367   5.608  1.00  0.00    -0.252 OA
BRANCH   2   4
ATOM      4  C   UNL     1      -0.296  -1.447   5.245  1.00  0.00     0.119 C 
ATOM      5  N   UNL     1      -1.723  -0.420   3.524  1.00  0.00    -0.342 N 
ATOM      6  C   UNL     1      -2.936  -1.032   4.051  1.00  0.00     0.119 C 
ATOM      7  C   UNL     1      -0.506  -1.177   3.756  1.00  0.00     0.134 C 
ATOM      8  C   UNL     1      -2.827  -1.365   5.535  1.00  0.00     0.022 C 
ATOM      9  C   UNL     1      -1.532  -2.110   5.862  1.00  0.00     0.019 C 
BRANCH   5  10
ATOM     10  C   UNL     1      -1.674   0.954   3.338  1.00  0.00     0.222 C 
ATOM     11  O   UNL     1      -2.227   1.737   4.109  1.00  0.00    -0.275 OA
BRANCH  10  12
ATOM     12  C   UNL     1      -1.082   1.426   2.012  1.00  0.00     0.100 C 
BRANCH  12  13
ATOM     13  C   UNL     1       0.379   1.872   1.973  1.00  0.00     0.010 C 
BRANCH  13  14
ATOM     14  C   UNL     1       1.471   0.841   1.633  1.00  0.00     0.000 C 
BRANCH  14  15
ATOM     15  C   UNL     1       1.098  -0.304   0.686  1.00  0.00    -0.003 C 
ATOM     16  C   UNL     1       1.034   0.119  -0.771  1.00  0.00     0.004 C 
ENDBRANCH  14  15
ENDBRANCH  13  14
ENDBRANCH  12  13
ENDBRANCH  10  12
ENDBRANCH   5  10
ENDBRANCH   2   4
ENDBRANCH   1   2
BRANCH   1  17
ATOM     17  C   UNL     1      -0.253   1.446   7.622  1.00  0.00     0.274 C 
BRANCH  17  18
ATOM     18  C   UNL     1       0.257   1.091   9.019  1.00  0.00     0.275 C 
BRANCH  18  19
ATOM     19  O   UNL     1       1.516   0.395   8.953  1.00  0.00    -0.458 OA
BRANCH  19  20
ATOM     20  C   UNL     1       1.423  -0.951   8.890  1.00  0.00     0.338 C 
ATOM     21  O   UNL     1       0.416  -1.641   8.935  1.00  0.00    -0.246 OA
BRANCH  20  22
ATOM     22  C   UNL     1       2.749  -1.518   8.631  1.00  0.00     0.060 A 
ATOM     23  C   UNL     1       3.007  -2.038   7.361  1.00  0.00     0.016 A 
ATOM     24  C   UNL     1       3.688  -1.635   9.655  1.00  0.00     0.016 A 
ATOM     25  C   UNL     1       4.196  -2.711   7.111  1.00  0.00     0.010 A 
ATOM     26  C   UNL     1       4.892  -2.293   9.398  1.00  0.00     0.010 A 
ATOM     27  C   UNL     1       5.143  -2.851   8.131  1.00  0.00    -0.014 A 
BRANCH  27  28
ATOM     28  C   UNL     1       6.376  -3.630   7.883  1.00  0.00     0.031 A 
ATOM     29  C   UNL     1       6.542  -4.979   8.515  1.00  0.00     0.074 A 
ATOM     30  C   UNL     1       7.336  -3.124   7.090  1.00  0.00     0.049 A 
ATOM     31  N   UNL     1       7.588  -5.765   8.528  1.00  0.00    -0.248 NA
ATOM     32  C   UNL     1       5.377  -5.510   9.239  1.00  0.00     0.031 C 
ATOM     33  C   UNL     1       7.263  -1.841   6.393  1.00  0.00     0.029 A 
ATOM     34  N   UNL     1       8.566  -3.625   6.750  1.00  0.00    -0.354 N 
ATOM     35  C   UNL     1       7.221  -6.864   9.291  1.00  0.00     0.074 A 
ATOM     36  C   UNL     1       5.859  -6.644   9.727  1.00  0.00     0.031 C 
ATOM     37  C   UNL     1       8.406  -1.647   5.718  1.00  0.00     0.029 A 
ATOM     38  C   UNL     1       9.306  -2.768   5.976  1.00  0.00     0.049 A 
ATOM     39  H   UNL     1       8.887  -4.511   7.034  1.00  0.00     0.167 HD
ATOM     40  C   UNL     1       7.962  -7.955   9.600  1.00  0.00     0.037 A 
ATOM     41  C   UNL     1      10.581  -2.859   5.556  1.00  0.00     0.037 A 
ATOM     42  C   UNL     1       9.306  -8.177   9.136  1.00  0.00     0.049 A 
ATOM     43  C   UNL     1      11.390  -4.068   5.927  1.00  0.00     0.074 A 
ATOM     44  C   UNL     1      10.128  -9.268   9.356  1.00  0.00     0.029 A 
ATOM     45  N   UNL     1      10.027  -7.284   8.355  1.00  0.00    -0.354 N 
ATOM     46  N   UNL     1      11.041  -5.105   6.649  1.00  0.00    -0.248 NA
ATOM     47  C   UNL     1      12.771  -4.119   5.429  1.00  0.00     0.031 C 
ATOM     48  C   UNL     1      11.360  -9.018   8.740  1.00  0.00     0.029 A 
ATOM     49  C   UNL     1      11.292  -7.789   8.103  1.00  0.00     0.049 A 
ATOM     50  H   UNL     1       9.688  -6.419   8.028  1.00  0.00     0.167 HD
ATOM     51  C   UNL     1      12.152  -5.934   6.690  1.00  0.00     0.074 A 
ATOM     52  C   UNL     1      13.183  -5.288   5.902  1.00  0.00     0.031 C 
ATOM     53  C   UNL     1      12.306  -7.122   7.325  1.00  0.00     0.037 A 
BRANCH  40  54
ATOM     54  C   UNL     1       7.344  -8.966  10.519  1.00  0.00     0.064 A 
ATOM     55  C   UNL     1       6.315  -9.821  10.098  1.00  0.00     0.173 A 
ATOM     56  C   UNL     1       7.795  -9.082  11.842  1.00  0.00     0.173 A 
ATOM     57  F   UNL     1       5.838  -9.739   8.847  1.00  0.00    -0.203 F 
ATOM     58  C   UNL     1       5.739 -10.734  10.979  1.00  0.00     0.198 A 
ATOM     59  C   UNL     1       7.234 -10.012  12.713  1.00  0.00     0.198 A 
ATOM     60  F   UNL     1       8.778  -8.288  12.294  1.00  0.00    -0.203 F 
ATOM     61  F   UNL     1       4.722 -11.505  10.571  1.00  0.00    -0.200 F 
ATOM     62  C   UNL     1       6.201 -10.831  12.283  1.00  0.00     0.200 A 
ATOM     63  F   UNL     1       7.687 -10.110  13.970  1.00  0.00    -0.200 F 
ATOM     64  F   UNL     1       5.643 -11.707  13.130  1.00  0.00    -0.200 F 
ENDBRANCH  40  54
BRANCH  41  65
ATOM     65  C   UNL     1      11.164  -1.747   4.766  1.00  0.00     0.064 A 
ATOM     66  C   UNL     1      11.411  -1.885   3.394  1.00  0.00     0.173 A 
ATOM     67  C   UNL     1      11.443  -0.507   5.361  1.00  0.00     0.173 A 
ATOM     68  F   UNL     1      11.179  -3.059   2.788  1.00  0.00    -0.203 F 
ATOM     69  C   UNL     1      11.915  -0.824   2.646  1.00  0.00     0.198 A 
ATOM     70  C   UNL     1      11.924   0.560   4.607  1.00  0.00     0.198 A 
ATOM     71  F   UNL     1      11.221  -0.327   6.671  1.00  0.00    -0.203 F 
ATOM     72  F   UNL     1      12.163  -0.987   1.339  1.00  0.00    -0.200 F 
ATOM     73  C   UNL     1      12.162   0.401   3.251  1.00  0.00     0.200 A 
ATOM     74  F   UNL     1      12.148   1.744   5.193  1.00  0.00    -0.200 F 
ATOM     75  F   UNL     1      12.630   1.426   2.526  1.00  0.00    -0.200 F 
ENDBRANCH  41  65
BRANCH  53  76
ATOM     76  C   UNL     1      13.635  -7.801   7.185  1.00  0.00     0.064 A 
ATOM     77  C   UNL     1      14.764  -7.347   7.882  1.00  0.00     0.173 A 
ATOM     78  C   UNL     1      13.771  -8.940   6.378  1.00  0.00     0.173 A 
ATOM     79  F   UNL     1      14.686  -6.252   8.653  1.00  0.00    -0.203 F 
ATOM     80  C   UNL     1      15.988  -7.998   7.760  1.00  0.00     0.198 A 
ATOM     81  C   UNL     1      14.991  -9.602   6.276  1.00  0.00     0.198 A 
ATOM     82  F   UNL     1      12.719  -9.415   5.695  1.00  0.00    -0.203 F 
ATOM     83  F   UNL     1      17.064  -7.525   8.403  1.00  0.00    -0.200 F 
ATOM     84  C   UNL     1      16.099  -9.128   6.963  1.00  0.00     0.200 A 
ATOM     85  F   UNL     1      15.095 -10.699   5.513  1.00  0.00    -0.200 F 
ATOM     86  F   UNL     1      17.277  -9.757   6.850  1.00  0.00    -0.200 F 
ENDBRANCH  53  76
ENDBRANCH  27  28
ENDBRANCH  20  22
ENDBRANCH  19  20
ENDBRANCH  18  19
ENDBRANCH  17  18
ENDBRANCH   1  17
TORSDOF 16
