REMARK SMILES C[N@H+]1CCO[C@](C)(C(=O)OCCOC(=O)c2ccc(-c3c4nc(c(-c5c(F)c(F)c(F)c(F)c5F)c5ccc([nH]5)c(-c5c(F)c(F)c(F)c(F)c5F)c5nc(c(-c6c(F)c(F)c(F)c(F)c6F)c6ccc3[nH]6)C=C5)C=C4)cc2)C1
REMARK SMILES IDX 12 1 11 2 10 3 8 4 9 5 6 6 1 7 2 8 3 9 79 10 4 12 5 13 7 14
REMARK SMILES IDX 13 15 14 16 15 17 16 18 17 19 78 20 18 21 77 22 19 23 20 24
REMARK SMILES IDX 21 25 71 26 22 27 76 28 70 29 72 30 23 31 75 32 69 33 68 34
REMARK SMILES IDX 24 36 56 37 36 38 55 39 37 40 40 41 54 42 73 43 38 44 39 45
REMARK SMILES IDX 53 47 74 48 41 49 25 50 26 51 34 52 27 53 28 54 32 55 35 56
REMARK SMILES IDX 29 57 30 58 33 59 31 60 57 61 58 62 66 63 59 64 60 65 64 66
REMARK SMILES IDX 67 67 61 68 62 69 65 70 63 71 42 72 43 73 51 74 44 75 45 76
REMARK SMILES IDX 49 77 52 78 46 79 47 80 50 81 48 82
REMARK H PARENT 2 11 72 35 40 46
REMARK Flexibility Score: inf
ROOT
ATOM      1  C   UNL     1       0.908  -6.495  -1.890  1.00  0.00     0.275 C 
ENDROOT
BRANCH   1   2
ATOM      2  C   UNL     1       1.731  -5.449  -2.645  1.00  0.00     0.274 C 
BRANCH   2   3
ATOM      3  O   UNL     1       1.677  -4.161  -1.997  1.00  0.00    -0.460 OA
BRANCH   3   4
ATOM      4  C   UNL     1       0.732  -3.294  -2.467  1.00  0.00     0.344 C 
ATOM      5  O   UNL     1      -0.007  -3.544  -3.414  1.00  0.00    -0.249 OA
BRANCH   4   6
ATOM      6  C   UNL     1       0.731  -1.948  -1.696  1.00  0.00     0.211 C 
ATOM      7  C   UNL     1       1.653   0.002   0.796  1.00  0.00     0.332 C 
ATOM      8  N   UNL     1       0.749  -1.140   0.770  1.00  0.00    -0.333 N 
ATOM      9  C   UNL     1      -0.649  -0.745   0.545  1.00  0.00     0.290 C 
ATOM     10  C   UNL     1       1.118  -2.184  -0.207  1.00  0.00     0.310 C 
ATOM     11  H   UNL     1       0.842  -1.544   1.702  1.00  0.00     0.348 HD
ATOM     12  C   UNL     1      -0.941  -0.374  -0.913  1.00  0.00     0.223 C 
ATOM     13  O   UNL     1      -0.618  -1.433  -1.816  1.00  0.00    -0.353 OA
ATOM     14  C   UNL     1       1.690  -1.022  -2.448  1.00  0.00     0.061 C 
ENDBRANCH   4   6
ENDBRANCH   3   4
ENDBRANCH   2   3
ENDBRANCH   1   2
BRANCH   1  15
ATOM     15  O   UNL     1      -0.493  -6.174  -1.942  1.00  0.00    -0.458 OA
BRANCH  15  16
ATOM     16  C   UNL     1      -1.079  -5.894  -0.757  1.00  0.00     0.338 C 
ATOM     17  O   UNL     1      -0.580  -5.932   0.353  1.00  0.00    -0.246 OA
BRANCH  16  18
ATOM     18  C   UNL     1      -2.454  -5.434  -0.995  1.00  0.00     0.060 A 
ATOM     19  C   UNL     1      -2.672  -4.066  -1.157  1.00  0.00     0.016 A 
ATOM     20  C   UNL     1      -3.528  -6.322  -0.946  1.00  0.00     0.016 A 
ATOM     21  C   UNL     1      -3.968  -3.569  -1.255  1.00  0.00     0.010 A 
ATOM     22  C   UNL     1      -4.832  -5.825  -1.062  1.00  0.00     0.010 A 
ATOM     23  C   UNL     1      -5.061  -4.443  -1.198  1.00  0.00    -0.014 A 
BRANCH  23  24
ATOM     24  C   UNL     1      -6.440  -3.896  -1.204  1.00  0.00     0.031 A 
ATOM     25  C   UNL     1      -7.248  -3.896   0.061  1.00  0.00     0.074 A 
ATOM     26  C   UNL     1      -6.954  -3.364  -2.328  1.00  0.00     0.049 A 
ATOM     27  N   UNL     1      -8.497  -3.551   0.248  1.00  0.00    -0.248 NA
ATOM     28  C   UNL     1      -6.557  -4.341   1.281  1.00  0.00     0.031 C 
ATOM     29  C   UNL     1      -6.253  -3.251  -3.606  1.00  0.00     0.029 A 
ATOM     30  N   UNL     1      -8.187  -2.812  -2.570  1.00  0.00    -0.354 N 
ATOM     31  C   UNL     1      -8.751  -3.769   1.595  1.00  0.00     0.074 A 
ATOM     32  C   UNL     1      -7.527  -4.276   2.181  1.00  0.00     0.031 C 
ATOM     33  C   UNL     1      -7.062  -2.655  -4.496  1.00  0.00     0.029 A 
ATOM     34  C   UNL     1      -8.352  -2.388  -3.865  1.00  0.00     0.049 A 
ATOM     35  H   UNL     1      -8.886  -2.728  -1.882  1.00  0.00     0.167 HD
ATOM     36  C   UNL     1      -9.902  -3.567   2.280  1.00  0.00     0.037 A 
ATOM     37  C   UNL     1      -9.431  -1.866  -4.479  1.00  0.00     0.037 A 
ATOM     38  C   UNL     1     -11.110  -3.035   1.707  1.00  0.00     0.049 A 
ATOM     39  C   UNL     1     -10.706  -1.678  -3.705  1.00  0.00     0.074 A 
ATOM     40  C   UNL     1     -12.328  -2.799   2.321  1.00  0.00     0.029 A 
ATOM     41  N   UNL     1     -11.247  -2.647   0.384  1.00  0.00    -0.354 N 
ATOM     42  N   UNL     1     -10.952  -1.933  -2.443  1.00  0.00    -0.248 NA
ATOM     43  C   UNL     1     -11.858  -1.143  -4.445  1.00  0.00     0.031 C 
ATOM     44  C   UNL     1     -13.210  -2.289   1.362  1.00  0.00     0.029 A 
ATOM     45  C   UNL     1     -12.533  -2.180   0.159  1.00  0.00     0.049 A 
ATOM     46  H   UNL     1     -10.537  -2.695  -0.296  1.00  0.00     0.167 HD
ATOM     47  C   UNL     1     -12.280  -1.590  -2.237  1.00  0.00     0.074 A 
ATOM     48  C   UNL     1     -12.785  -1.088  -3.498  1.00  0.00     0.031 C 
ATOM     49  C   UNL     1     -13.018  -1.690  -1.105  1.00  0.00     0.037 A 
BRANCH  36  50
ATOM     50  C   UNL     1      -9.915  -3.958   3.726  1.00  0.00     0.064 A 
ATOM     51  C   UNL     1      -9.298  -3.170   4.707  1.00  0.00     0.173 A 
ATOM     52  C   UNL     1     -10.572  -5.128   4.134  1.00  0.00     0.173 A 
ATOM     53  F   UNL     1      -8.644  -2.051   4.362  1.00  0.00    -0.203 F 
ATOM     54  C   UNL     1      -9.320  -3.552   6.046  1.00  0.00     0.198 A 
ATOM     55  C   UNL     1     -10.609  -5.497   5.476  1.00  0.00     0.198 A 
ATOM     56  F   UNL     1     -11.178  -5.913   3.231  1.00  0.00    -0.203 F 
ATOM     57  F   UNL     1      -8.692  -2.806   6.965  1.00  0.00    -0.200 F 
ATOM     58  C   UNL     1      -9.979  -4.712   6.430  1.00  0.00     0.200 A 
ATOM     59  F   UNL     1     -11.251  -6.614   5.845  1.00  0.00    -0.200 F 
ATOM     60  F   UNL     1      -9.999  -5.077   7.719  1.00  0.00    -0.200 F 
ENDBRANCH  36  50
BRANCH  37  61
ATOM     61  C   UNL     1      -9.353  -1.507  -5.916  1.00  0.00     0.064 A 
ATOM     62  C   UNL     1      -9.319  -0.167  -6.324  1.00  0.00     0.173 A 
ATOM     63  C   UNL     1      -9.297  -2.497  -6.908  1.00  0.00     0.173 A 
ATOM     64  F   UNL     1      -9.399   0.812  -5.411  1.00  0.00    -0.203 F 
ATOM     65  C   UNL     1      -9.235   0.170  -7.673  1.00  0.00     0.198 A 
ATOM     66  C   UNL     1      -9.191  -2.159  -8.255  1.00  0.00     0.198 A 
ATOM     67  F   UNL     1      -9.333  -3.793  -6.566  1.00  0.00    -0.203 F 
ATOM     68  F   UNL     1      -9.234   1.458  -8.041  1.00  0.00    -0.200 F 
ATOM     69  C   UNL     1      -9.163  -0.826  -8.636  1.00  0.00     0.200 A 
ATOM     70  F   UNL     1      -9.116  -3.123  -9.182  1.00  0.00    -0.200 F 
ATOM     71  F   UNL     1      -9.074  -0.501  -9.933  1.00  0.00    -0.200 F 
ENDBRANCH  37  61
BRANCH  49  72
ATOM     72  C   UNL     1     -14.446  -1.244  -1.179  1.00  0.00     0.064 A 
ATOM     73  C   UNL     1     -15.428  -2.047  -1.775  1.00  0.00     0.173 A 
ATOM     74  C   UNL     1     -14.842  -0.023  -0.615  1.00  0.00     0.173 A 
ATOM     75  F   UNL     1     -15.091  -3.216  -2.340  1.00  0.00    -0.203 F 
ATOM     76  C   UNL     1     -16.757  -1.635  -1.818  1.00  0.00     0.198 A 
ATOM     77  C   UNL     1     -16.175   0.378  -0.644  1.00  0.00     0.198 A 
ATOM     78  F   UNL     1     -13.938   0.778  -0.031  1.00  0.00    -0.203 F 
ATOM     79  F   UNL     1     -17.675  -2.403  -2.421  1.00  0.00    -0.200 F 
ATOM     80  C   UNL     1     -17.130  -0.427  -1.249  1.00  0.00     0.200 A 
ATOM     81  F   UNL     1     -16.536   1.543  -0.089  1.00  0.00    -0.200 F 
ATOM     82  F   UNL     1     -18.410  -0.033  -1.289  1.00  0.00    -0.200 F 
ENDBRANCH  49  72
ENDBRANCH  23  24
ENDBRANCH  16  18
ENDBRANCH  15  16
ENDBRANCH   1  15
TORSDOF 11
