REMARK SMILES O=C(CSc1nnnn1-c1ccc(C(=O)OCCOC(=O)c2ccc(-c3c4nc(c(-c5c(F)c(F)c(F)c(F)c5F)c5ccc([nH]5)c(-c5c(F)c(F)c(F)c(F)c5F)c5nc(c(-c6c(F)c(F)c(F)c(F)c6F)c6ccc3[nH]6)C=C5)C=C4)cc2)cc1)Nc1nc(-c2ccccc2)cs1
REMARK SMILES IDX 14 1 15 2 13 3 10 4 11 5 86 6 12 7 85 8 9 9 5 10 6 11 7 12
REMARK SMILES IDX 8 13 4 14 3 15 2 16 1 17 87 18 88 20 89 21 98 22 90 23 97 24
REMARK SMILES IDX 91 25 92 26 96 27 93 28 95 29 94 30 16 31 17 32 18 33 19 34
REMARK SMILES IDX 20 35 21 36 22 37 23 38 84 39 24 40 83 41 25 42 26 43 27 44
REMARK SMILES IDX 77 45 28 46 82 47 76 48 78 49 29 50 81 51 75 52 74 53 30 55
REMARK SMILES IDX 62 56 42 57 61 58 43 59 46 60 60 61 79 62 44 63 45 64 59 66
REMARK SMILES IDX 80 67 47 68 31 69 32 70 40 71 33 72 34 73 38 74 41 75 35 76
REMARK SMILES IDX 36 77 39 78 37 79 63 80 64 81 72 82 65 83 66 84 70 85 73 86
REMARK SMILES IDX 67 87 68 88 71 89 69 90 48 91 49 92 57 93 50 94 51 95 55 96
REMARK SMILES IDX 58 97 52 98 53 99 56 100 54 101
REMARK H PARENT 87 19 78 54 46 65
REMARK Flexibility Score: inf
ROOT
ATOM      1  C   UNL     1      -1.107   2.198   2.291  1.00  0.00     0.338 C 
ATOM      2  O   UNL     1      -1.464   2.621   3.365  1.00  0.00    -0.246 OA
ENDROOT
BRANCH   1   3
ATOM      3  C   UNL     1      -0.593   0.812   2.090  1.00  0.00     0.060 A 
ATOM      4  C   UNL     1       0.722  -1.619   1.875  1.00  0.00     0.069 A 
ATOM      5  C   UNL     1       0.172  -1.252   3.107  1.00  0.00     0.029 A 
ATOM      6  C   UNL     1       0.436  -0.894   0.720  1.00  0.00     0.029 A 
ATOM      7  C   UNL     1      -0.472  -0.019   3.213  1.00  0.00     0.018 A 
ATOM      8  C   UNL     1      -0.221   0.330   0.831  1.00  0.00     0.018 A 
BRANCH   4   9
ATOM      9  N   UNL     1       1.626  -2.687   1.825  1.00  0.00    -0.187 N 
ATOM     10  C   UNL     1       2.897  -2.796   1.279  1.00  0.00     0.214 A 
ATOM     11  N   UNL     1       3.240  -4.069   1.323  1.00  0.00    -0.101 NA
ATOM     12  N   UNL     1       2.248  -4.720   2.003  1.00  0.00    -0.022 NA
ATOM     13  N   UNL     1       1.303  -3.877   2.384  1.00  0.00    -0.039 NA
BRANCH  10  14
ATOM     14  S   UNL     1       4.102  -1.599   0.902  1.00  0.00    -0.074 SA
BRANCH  14  15
ATOM     15  C   UNL     1       3.446   0.084   0.944  1.00  0.00     0.178 C 
BRANCH  15  16
ATOM     16  C   UNL     1       2.904   0.579  -0.400  1.00  0.00     0.236 C 
ATOM     17  O   UNL     1       2.297   1.645  -0.461  1.00  0.00    -0.274 OA
ATOM     18  N   UNL     1       3.169  -0.252  -1.460  1.00  0.00    -0.301 N 
ATOM     19  H   UNL     1       3.920  -0.883  -1.379  1.00  0.00     0.172 HD
BRANCH  18  20
ATOM     20  C   UNL     1       2.451  -0.254  -2.619  1.00  0.00     0.189 A 
ATOM     21  N   UNL     1       1.402   0.447  -2.962  1.00  0.00    -0.220 NA
ATOM     22  S   UNL     1       2.948  -1.478  -3.702  1.00  0.00    -0.105 S 
ATOM     23  C   UNL     1       0.910  -0.039  -4.164  1.00  0.00     0.084 A 
ATOM     24  C   UNL     1       1.628  -1.082  -4.719  1.00  0.00     0.097 A 
BRANCH  23  25
ATOM     25  C   UNL     1      -0.268   0.520  -4.802  1.00  0.00     0.001 A 
ATOM     26  C   UNL     1      -0.321   1.887  -5.095  1.00  0.00     0.010 A 
ATOM     27  C   UNL     1      -1.349  -0.301  -5.153  1.00  0.00     0.010 A 
ATOM     28  C   UNL     1      -1.428   2.421  -5.757  1.00  0.00     0.001 A 
ATOM     29  C   UNL     1      -2.461   0.238  -5.804  1.00  0.00     0.001 A 
ATOM     30  C   UNL     1      -2.496   1.597  -6.113  1.00  0.00     0.000 A 
ENDBRANCH  23  25
ENDBRANCH  18  20
ENDBRANCH  15  16
ENDBRANCH  14  15
ENDBRANCH  10  14
ENDBRANCH   4   9
ENDBRANCH   1   3
BRANCH   1  31
ATOM     31  O   UNL     1      -1.153   2.860   1.102  1.00  0.00    -0.458 OA
BRANCH  31  32
ATOM     32  C   UNL     1      -1.880   4.099   1.089  1.00  0.00     0.275 C 
BRANCH  32  33
ATOM     33  C   UNL     1      -3.344   3.862   0.740  1.00  0.00     0.275 C 
BRANCH  33  34
ATOM     34  O   UNL     1      -4.007   3.173   1.801  1.00  0.00    -0.458 OA
BRANCH  34  35
ATOM     35  C   UNL     1      -3.979   1.825   1.713  1.00  0.00     0.338 C 
ATOM     36  O   UNL     1      -3.413   1.149   0.868  1.00  0.00    -0.246 OA
BRANCH  35  37
ATOM     37  C   UNL     1      -4.886   1.248   2.709  1.00  0.00     0.060 A 
ATOM     38  C   UNL     1      -4.967  -0.148   2.740  1.00  0.00     0.016 A 
ATOM     39  C   UNL     1      -5.849   2.064   3.315  1.00  0.00     0.016 A 
ATOM     40  C   UNL     1      -6.149  -0.721   3.151  1.00  0.00     0.010 A 
ATOM     41  C   UNL     1      -7.030   1.491   3.719  1.00  0.00     0.010 A 
ATOM     42  C   UNL     1      -7.198   0.121   3.526  1.00  0.00    -0.014 A 
BRANCH  42  43
ATOM     43  C   UNL     1      -8.513  -0.468   3.669  1.00  0.00     0.031 A 
ATOM     44  C   UNL     1      -8.706  -1.274   4.895  1.00  0.00     0.074 A 
ATOM     45  C   UNL     1      -9.494  -0.177   2.794  1.00  0.00     0.049 A 
ATOM     46  N   UNL     1      -9.128  -2.490   5.004  1.00  0.00    -0.248 NA
ATOM     47  C   UNL     1      -8.288  -0.659   6.165  1.00  0.00     0.031 C 
ATOM     48  C   UNL     1      -9.488   0.826   1.723  1.00  0.00     0.029 A 
ATOM     49  N   UNL     1     -10.767  -0.650   2.764  1.00  0.00    -0.354 N 
ATOM     50  C   UNL     1      -9.169  -2.750   6.371  1.00  0.00     0.074 A 
ATOM     51  C   UNL     1      -8.530  -1.641   7.029  1.00  0.00     0.031 C 
ATOM     52  C   UNL     1     -10.757   1.041   1.311  1.00  0.00     0.029 A 
ATOM     53  C   UNL     1     -11.635   0.110   1.999  1.00  0.00     0.049 A 
ATOM     54  H   UNL     1     -11.048  -1.463   3.244  1.00  0.00     0.167 HD
ATOM     55  C   UNL     1      -9.906  -3.766   6.889  1.00  0.00     0.037 A 
ATOM     56  C   UNL     1     -12.987   0.036   2.017  1.00  0.00     0.037 A 
ATOM     57  C   UNL     1     -10.186  -4.781   5.912  1.00  0.00     0.049 A 
ATOM     58  C   UNL     1     -13.360  -1.260   2.639  1.00  0.00     0.074 A 
ATOM     59  C   UNL     1      -9.403  -5.646   5.174  1.00  0.00     0.029 A 
ATOM     60  N   UNL     1     -11.421  -4.798   5.315  1.00  0.00    -0.354 N 
ATOM     61  N   UNL     1     -13.154  -2.424   2.087  1.00  0.00    -0.248 NA
ATOM     62  C   UNL     1     -13.571  -1.284   4.080  1.00  0.00     0.031 C 
ATOM     63  C   UNL     1     -10.059  -5.762   3.914  1.00  0.00     0.029 A 
ATOM     64  C   UNL     1     -11.214  -4.980   3.970  1.00  0.00     0.049 A 
ATOM     65  H   UNL     1     -12.291  -4.699   5.765  1.00  0.00     0.167 HD
ATOM     66  C   UNL     1     -12.809  -3.262   3.138  1.00  0.00     0.074 A 
ATOM     67  C   UNL     1     -13.176  -2.531   4.346  1.00  0.00     0.031 C 
ATOM     68  C   UNL     1     -12.003  -4.346   2.941  1.00  0.00     0.037 A 
BRANCH  55  69
ATOM     69  C   UNL     1     -10.622  -3.671   8.207  1.00  0.00     0.064 A 
ATOM     70  C   UNL     1     -11.165  -4.828   8.792  1.00  0.00     0.173 A 
ATOM     71  C   UNL     1     -11.032  -2.444   8.775  1.00  0.00     0.173 A 
ATOM     72  F   UNL     1     -10.868  -6.043   8.306  1.00  0.00    -0.203 F 
ATOM     73  C   UNL     1     -12.090  -4.757   9.837  1.00  0.00     0.198 A 
ATOM     74  C   UNL     1     -11.910  -2.379   9.853  1.00  0.00     0.198 A 
ATOM     75  F   UNL     1     -10.688  -1.264   8.242  1.00  0.00    -0.203 F 
ATOM     76  F   UNL     1     -12.669  -5.877  10.289  1.00  0.00    -0.200 F 
ATOM     77  C   UNL     1     -12.462  -3.533  10.365  1.00  0.00     0.200 A 
ATOM     78  F   UNL     1     -12.273  -1.183  10.337  1.00  0.00    -0.200 F 
ATOM     79  F   UNL     1     -13.389  -3.461  11.330  1.00  0.00    -0.200 F 
ENDBRANCH  55  69
BRANCH  56  80
ATOM     80  C   UNL     1     -13.944   1.150   1.838  1.00  0.00     0.064 A 
ATOM     81  C   UNL     1     -15.281   0.915   1.489  1.00  0.00     0.173 A 
ATOM     82  C   UNL     1     -13.621   2.462   2.243  1.00  0.00     0.173 A 
ATOM     83  F   UNL     1     -15.681  -0.317   1.145  1.00  0.00    -0.203 F 
ATOM     84  C   UNL     1     -16.240   1.933   1.544  1.00  0.00     0.198 A 
ATOM     85  C   UNL     1     -14.575   3.478   2.286  1.00  0.00     0.198 A 
ATOM     86  F   UNL     1     -12.394   2.763   2.690  1.00  0.00    -0.203 F 
ATOM     87  F   UNL     1     -17.520   1.661   1.252  1.00  0.00    -0.200 F 
ATOM     88  C   UNL     1     -15.887   3.211   1.946  1.00  0.00     0.200 A 
ATOM     89  F   UNL     1     -14.226   4.700   2.713  1.00  0.00    -0.200 F 
ATOM     90  F   UNL     1     -16.815   4.173   2.044  1.00  0.00    -0.200 F 
ENDBRANCH  56  80
BRANCH  68  91
ATOM     91  C   UNL     1     -11.696  -4.732   1.521  1.00  0.00     0.064 A 
ATOM     92  C   UNL     1     -10.955  -3.920   0.645  1.00  0.00     0.173 A 
ATOM     93  C   UNL     1     -12.025  -6.021   1.083  1.00  0.00     0.173 A 
ATOM     94  F   UNL     1     -10.508  -2.720   1.033  1.00  0.00    -0.203 F 
ATOM     95  C   UNL     1     -10.604  -4.361  -0.629  1.00  0.00     0.198 A 
ATOM     96  C   UNL     1     -11.641  -6.473  -0.178  1.00  0.00     0.198 A 
ATOM     97  F   UNL     1     -12.675  -6.864   1.900  1.00  0.00    -0.203 F 
ATOM     98  F   UNL     1      -9.905  -3.561  -1.448  1.00  0.00    -0.200 F 
ATOM     99  C   UNL     1     -10.941  -5.640  -1.036  1.00  0.00     0.200 A 
ATOM    100  F   UNL     1     -11.922  -7.729  -0.549  1.00  0.00    -0.200 F 
ATOM    101  F   UNL     1     -10.565  -6.082  -2.245  1.00  0.00    -0.200 F 
ENDBRANCH  68  91
ENDBRANCH  42  43
ENDBRANCH  35  37
ENDBRANCH  34  35
ENDBRANCH  33  34
ENDBRANCH  32  33
ENDBRANCH  31  32
ENDBRANCH   1  31
TORSDOF 17
