REMARK SMILES Cc1c(NC(=O)c2ccccc2NC(=O)[C@@H]2CCCO2)cccc1C(=O)OCCOC(=O)c1ccc(-c2c3nc(c(-c4c(F)c(F)c(F)c(F)c4F)c4ccc([nH]4)c(-c4c(F)c(F)c(F)c(F)c4F)c4nc(c(-c5c(F)c(F)c(F)c(F)c5F)c5ccc2[nH]5)C=C4)C=C3)cc1
REMARK SMILES IDX 28 1 27 2 25 3 26 4 24 5 1 6 2 7 3 8 21 9 23 10 22 11 4 12
REMARK SMILES IDX 5 13 6 15 7 16 8 17 12 18 9 19 11 20 10 21 13 22 14 23 15 25
REMARK SMILES IDX 16 26 17 27 20 28 18 29 19 30 29 31 30 32 31 33 32 34 33 35
REMARK SMILES IDX 34 36 95 37 35 38 94 39 36 40 37 41 38 42 88 43 39 44 93 45
REMARK SMILES IDX 87 46 89 47 40 48 92 49 86 50 85 51 41 53 73 54 53 55 72 56
REMARK SMILES IDX 54 57 57 58 71 59 90 60 55 61 56 62 70 64 91 65 58 66 42 67
REMARK SMILES IDX 43 68 51 69 44 70 45 71 49 72 52 73 46 74 47 75 50 76 48 77
REMARK SMILES IDX 74 78 75 79 83 80 76 81 77 82 81 83 84 84 78 85 79 86 82 87
REMARK SMILES IDX 80 88 59 89 60 90 68 91 61 92 62 93 66 94 69 95 63 96 64 97
REMARK SMILES IDX 67 98 65 99
REMARK H PARENT 4 14 13 24 89 52 57 63
REMARK Flexibility Score: inf
ROOT
ATOM      1  C   UNL     1       3.136   2.916  -2.125  1.00  0.00     0.275 C 
ENDROOT
BRANCH   1   2
ATOM      2  O   UNL     1       2.009   2.048  -1.914  1.00  0.00    -0.458 OA
BRANCH   2   3
ATOM      3  C   UNL     1       2.154   1.326  -0.770  1.00  0.00     0.338 C 
ATOM      4  O   UNL     1       3.082   1.470   0.017  1.00  0.00    -0.246 OA
BRANCH   3   5
ATOM      5  C   UNL     1       1.120   0.294  -0.507  1.00  0.00     0.065 A 
ATOM      6  C   UNL     1       2.967  -1.427  -0.146  1.00  0.00     0.047 C 
ATOM      7  C   UNL     1       1.523  -0.986  -0.076  1.00  0.00    -0.013 A 
ATOM      8  C   UNL     1       0.516  -1.932   0.227  1.00  0.00     0.045 A 
ATOM      9  C   UNL     1      -0.821  -1.548   0.343  1.00  0.00     0.026 A 
ATOM     10  C   UNL     1      -0.246   0.599  -0.585  1.00  0.00     0.016 A 
ATOM     11  C   UNL     1      -1.207  -0.282  -0.083  1.00  0.00     0.003 A 
BRANCH   8  12
ATOM     12  N   UNL     1       0.895  -3.281   0.229  1.00  0.00    -0.322 N 
ATOM     13  C   UNL     1       0.330  -4.389  -0.361  1.00  0.00     0.257 C 
ATOM     14  H   UNL     1       1.711  -3.471   0.745  1.00  0.00     0.170 HD
ATOM     15  O   UNL     1       0.944  -5.454  -0.249  1.00  0.00    -0.269 OA
BRANCH  13  16
ATOM     16  C   UNL     1      -0.948  -4.394  -1.129  1.00  0.00     0.063 A 
ATOM     17  C   UNL     1      -1.733  -5.538  -0.873  1.00  0.00     0.016 A 
ATOM     18  C   UNL     1      -1.398  -3.431  -2.069  1.00  0.00     0.054 A 
ATOM     19  C   UNL     1      -2.989  -5.694  -1.442  1.00  0.00     0.001 A 
ATOM     20  C   UNL     1      -2.720  -3.550  -2.512  1.00  0.00     0.027 A 
ATOM     21  C   UNL     1      -3.501  -4.674  -2.221  1.00  0.00     0.002 A 
BRANCH  18  22
ATOM     22  N   UNL     1      -0.512  -2.433  -2.544  1.00  0.00    -0.323 N 
ATOM     23  C   UNL     1      -0.572  -1.377  -3.414  1.00  0.00     0.253 C 
ATOM     24  H   UNL     1       0.383  -2.522  -2.143  1.00  0.00     0.170 HD
ATOM     25  O   UNL     1       0.451  -0.685  -3.505  1.00  0.00    -0.272 OA
BRANCH  23  26
ATOM     26  C   UNL     1      -1.803  -1.077  -4.275  1.00  0.00     0.207 C 
ATOM     27  C   UNL     1      -1.880  -2.098  -5.402  1.00  0.00     0.044 C 
ATOM     28  O   UNL     1      -1.787   0.207  -4.923  1.00  0.00    -0.368 OA
ATOM     29  C   UNL     1      -2.662  -1.365  -6.454  1.00  0.00     0.032 C 
ATOM     30  C   UNL     1      -2.134   0.042  -6.304  1.00  0.00     0.161 C 
ENDBRANCH  23  26
ENDBRANCH  18  22
ENDBRANCH  13  16
ENDBRANCH   8  12
ENDBRANCH   3   5
ENDBRANCH   2   3
ENDBRANCH   1   2
BRANCH   1  31
ATOM     31  C   UNL     1       2.871   4.176  -2.961  1.00  0.00     0.275 C 
BRANCH  31  32
ATOM     32  O   UNL     1       1.678   4.991  -2.804  1.00  0.00    -0.458 OA
BRANCH  32  33
ATOM     33  C   UNL     1       0.603   4.653  -2.065  1.00  0.00     0.338 C 
ATOM     34  O   UNL     1      -0.536   4.593  -2.514  1.00  0.00    -0.246 OA
BRANCH  33  35
ATOM     35  C   UNL     1       0.875   4.472  -0.631  1.00  0.00     0.060 A 
ATOM     36  C   UNL     1      -0.027   3.720   0.138  1.00  0.00     0.016 A 
ATOM     37  C   UNL     1       2.080   4.918  -0.099  1.00  0.00     0.016 A 
ATOM     38  C   UNL     1       0.331   3.288   1.406  1.00  0.00     0.010 A 
ATOM     39  C   UNL     1       2.495   4.394   1.095  1.00  0.00     0.010 A 
ATOM     40  C   UNL     1       1.601   3.624   1.858  1.00  0.00    -0.014 A 
BRANCH  40  41
ATOM     41  C   UNL     1       1.951   3.607   3.262  1.00  0.00     0.031 A 
ATOM     42  C   UNL     1       2.535   2.421   3.901  1.00  0.00     0.074 A 
ATOM     43  C   UNL     1       1.829   4.861   3.757  1.00  0.00     0.049 A 
ATOM     44  N   UNL     1       2.647   2.287   5.171  1.00  0.00    -0.248 NA
ATOM     45  C   UNL     1       3.013   1.241   3.189  1.00  0.00     0.031 C 
ATOM     46  C   UNL     1       2.327   5.503   4.953  1.00  0.00     0.029 A 
ATOM     47  N   UNL     1       1.003   5.851   3.174  1.00  0.00    -0.354 N 
ATOM     48  C   UNL     1       3.497   1.224   5.419  1.00  0.00     0.074 A 
ATOM     49  C   UNL     1       3.581   0.524   4.168  1.00  0.00     0.031 C 
ATOM     50  C   UNL     1       1.559   6.588   5.198  1.00  0.00     0.029 A 
ATOM     51  C   UNL     1       0.465   6.580   4.227  1.00  0.00     0.049 A 
ATOM     52  H   UNL     1       0.843   5.994   2.213  1.00  0.00     0.167 HD
ATOM     53  C   UNL     1       4.135   1.208   6.626  1.00  0.00     0.037 A 
ATOM     54  C   UNL     1      -0.856   6.368   4.505  1.00  0.00     0.037 A 
ATOM     55  C   UNL     1       3.594   2.295   7.442  1.00  0.00     0.049 A 
ATOM     56  C   UNL     1      -0.968   5.667   5.836  1.00  0.00     0.074 A 
ATOM     57  C   UNL     1       4.016   3.601   7.624  1.00  0.00     0.029 A 
ATOM     58  N   UNL     1       2.251   2.253   7.805  1.00  0.00    -0.354 N 
ATOM     59  N   UNL     1      -0.144   4.743   6.261  1.00  0.00    -0.248 NA
ATOM     60  C   UNL     1      -1.934   6.091   6.838  1.00  0.00     0.031 C 
ATOM     61  C   UNL     1       2.876   4.369   7.991  1.00  0.00     0.029 A 
ATOM     62  C   UNL     1       1.772   3.530   8.033  1.00  0.00     0.049 A 
ATOM     63  H   UNL     1       1.717   1.430   7.887  1.00  0.00     0.167 HD
ATOM     64  C   UNL     1      -0.381   4.531   7.594  1.00  0.00     0.074 A 
ATOM     65  C   UNL     1      -1.526   5.377   7.898  1.00  0.00     0.031 C 
ATOM     66  C   UNL     1       0.384   3.740   8.405  1.00  0.00     0.037 A 
BRANCH  53  67
ATOM     67  C   UNL     1       5.399   0.456   7.007  1.00  0.00     0.064 A 
ATOM     68  C   UNL     1       6.114   0.844   8.168  1.00  0.00     0.173 A 
ATOM     69  C   UNL     1       6.007  -0.582   6.276  1.00  0.00     0.173 A 
ATOM     70  F   UNL     1       5.641   1.782   9.001  1.00  0.00    -0.203 F 
ATOM     71  C   UNL     1       7.350   0.293   8.523  1.00  0.00     0.198 A 
ATOM     72  C   UNL     1       7.247  -1.135   6.632  1.00  0.00     0.198 A 
ATOM     73  F   UNL     1       5.431  -1.124   5.201  1.00  0.00    -0.203 F 
ATOM     74  F   UNL     1       7.984   0.733   9.619  1.00  0.00    -0.200 F 
ATOM     75  C   UNL     1       7.923  -0.690   7.749  1.00  0.00     0.200 A 
ATOM     76  F   UNL     1       7.783  -2.105   5.877  1.00  0.00    -0.200 F 
ATOM     77  F   UNL     1       9.111  -1.215   8.082  1.00  0.00    -0.200 F 
ENDBRANCH  53  67
BRANCH  54  78
ATOM     78  C   UNL     1      -1.724   6.136   3.295  1.00  0.00     0.064 A 
ATOM     79  C   UNL     1      -1.646   7.057   2.221  1.00  0.00     0.173 A 
ATOM     80  C   UNL     1      -2.427   4.951   3.042  1.00  0.00     0.173 A 
ATOM     81  F   UNL     1      -1.006   8.227   2.387  1.00  0.00    -0.203 F 
ATOM     82  C   UNL     1      -2.138   6.766   0.947  1.00  0.00     0.198 A 
ATOM     83  C   UNL     1      -2.947   4.672   1.767  1.00  0.00     0.198 A 
ATOM     84  F   UNL     1      -2.558   4.019   3.995  1.00  0.00    -0.203 F 
ATOM     85  F   UNL     1      -1.931   7.623  -0.064  1.00  0.00    -0.200 F 
ATOM     86  C   UNL     1      -2.782   5.566   0.718  1.00  0.00     0.200 A 
ATOM     87  F   UNL     1      -3.535   3.489   1.528  1.00  0.00    -0.200 F 
ATOM     88  F   UNL     1      -3.193   5.244  -0.517  1.00  0.00    -0.200 F 
ENDBRANCH  54  78
BRANCH  66  89
ATOM     89  C   UNL     1      -0.100   3.168   9.712  1.00  0.00     0.064 A 
ATOM     90  C   UNL     1      -1.460   2.961   9.998  1.00  0.00     0.173 A 
ATOM     91  C   UNL     1       0.810   2.636  10.657  1.00  0.00     0.173 A 
ATOM     92  F   UNL     1      -2.418   3.270   9.114  1.00  0.00    -0.203 F 
ATOM     93  C   UNL     1      -1.880   2.366  11.184  1.00  0.00     0.198 A 
ATOM     94  C   UNL     1       0.386   1.960  11.796  1.00  0.00     0.198 A 
ATOM     95  F   UNL     1       2.138   2.717  10.488  1.00  0.00    -0.203 F 
ATOM     96  F   UNL     1      -3.191   2.264  11.441  1.00  0.00    -0.200 F 
ATOM     97  C   UNL     1      -0.959   1.853  12.076  1.00  0.00     0.200 A 
ATOM     98  F   UNL     1       1.291   1.394  12.607  1.00  0.00    -0.200 F 
ATOM     99  F   UNL     1      -1.369   1.233  13.189  1.00  0.00    -0.200 F 
ENDBRANCH  66  89
ENDBRANCH  40  41
ENDBRANCH  33  35
ENDBRANCH  32  33
ENDBRANCH  31  32
ENDBRANCH   1  31
TORSDOF 15
