REMARK SMILES O=C(OCCOC(=O)[C@H]1CCCN1S(=O)(=O)c1cccc([N+](=O)[O-])c1)c1ccc(-c2c3nc(c(-c4c(F)c(F)c(F)c(F)c4F)c4ccc([nH]4)c(-c4c(F)c(F)c(F)c(F)c4F)c4nc(c(-c5c(F)c(F)c(F)c(F)c5F)c5ccc2[nH]5)C=C4)C=C3)cc1
REMARK SMILES IDX 5 1 4 2 3 3 2 4 1 5 26 6 27 7 88 8 28 9 87 10 29 11 30 12
REMARK SMILES IDX 31 13 81 14 32 15 86 16 80 17 82 18 33 19 85 20 79 21 78 22
REMARK SMILES IDX 34 24 66 25 46 26 65 27 47 28 50 29 64 30 83 31 48 32 49 33
REMARK SMILES IDX 63 35 84 36 51 37 35 38 36 39 44 40 37 41 38 42 42 43 45 44
REMARK SMILES IDX 39 45 40 46 43 47 41 48 67 49 68 50 76 51 69 52 70 53 74 54
REMARK SMILES IDX 77 55 71 56 72 57 75 58 73 59 52 60 53 61 61 62 54 63 55 64
REMARK SMILES IDX 59 65 62 66 56 67 57 68 60 69 58 70 6 71 7 72 8 73 9 74
REMARK SMILES IDX 10 75 13 76 11 77 12 78 14 79 15 80 16 81 17 82 18 83 25 84
REMARK SMILES IDX 19 85 21 86 20 87 22 88 23 89 24 90
REMARK H PARENT 82 23 50 34
REMARK Flexibility Score: inf
ROOT
ATOM      1  C   UNL     1       0.376   1.847  -3.917  1.00  0.00     0.274 C 
ENDROOT
BRANCH   1   2
ATOM      2  C   UNL     1      -1.069   1.864  -3.413  1.00  0.00     0.275 C 
BRANCH   2   3
ATOM      3  O   UNL     1      -1.340   2.825  -2.380  1.00  0.00    -0.458 OA
BRANCH   3   4
ATOM      4  C   UNL     1      -1.412   2.602  -1.044  1.00  0.00     0.338 C 
ATOM      5  O   UNL     1      -2.060   3.363  -0.330  1.00  0.00    -0.246 OA
BRANCH   4   6
ATOM      6  C   UNL     1      -0.512   1.613  -0.384  1.00  0.00     0.060 A 
ATOM      7  C   UNL     1      -0.250   0.317  -0.833  1.00  0.00     0.016 A 
ATOM      8  C   UNL     1       0.114   2.042   0.793  1.00  0.00     0.016 A 
ATOM      9  C   UNL     1       0.795  -0.432  -0.278  1.00  0.00     0.010 A 
ATOM     10  C   UNL     1       1.132   1.287   1.374  1.00  0.00     0.010 A 
ATOM     11  C   UNL     1       1.591   0.112   0.747  1.00  0.00    -0.014 A 
BRANCH  11  12
ATOM     12  C   UNL     1       3.053  -0.657   1.238  1.00  0.00     0.031 A 
ATOM     13  C   UNL     1       2.123  -1.743   2.399  1.00  0.00     0.074 A 
ATOM     14  C   UNL     1       4.871  -0.537   0.818  1.00  0.00     0.049 A 
ATOM     15  N   UNL     1       2.518  -2.901   2.896  1.00  0.00    -0.248 NA
ATOM     16  C   UNL     1       0.806  -1.363   2.960  1.00  0.00     0.031 C 
ATOM     17  C   UNL     1       5.855   0.319  -0.243  1.00  0.00     0.029 A 
ATOM     18  N   UNL     1       6.127  -1.298   1.268  1.00  0.00    -0.354 N 
ATOM     19  C   UNL     1       1.680  -3.257   3.903  1.00  0.00     0.074 A 
ATOM     20  C   UNL     1       0.569  -2.341   3.835  1.00  0.00     0.031 C 
ATOM     21  C   UNL     1       7.093  -0.183  -0.367  1.00  0.00     0.029 A 
ATOM     22  C   UNL     1       7.256  -1.286   0.519  1.00  0.00     0.049 A 
ATOM     23  H   UNL     1       6.112  -1.802   2.113  1.00  0.00     0.167 HD
ATOM     24  C   UNL     1       1.953  -4.183   4.851  1.00  0.00     0.037 A 
ATOM     25  C   UNL     1       8.249  -2.190   0.604  1.00  0.00     0.037 A 
ATOM     26  C   UNL     1       3.245  -4.845   4.986  1.00  0.00     0.049 A 
ATOM     27  C   UNL     1       8.081  -3.345   1.589  1.00  0.00     0.074 A 
ATOM     28  C   UNL     1       3.639  -5.734   5.967  1.00  0.00     0.029 A 
ATOM     29  N   UNL     1       4.375  -4.643   4.170  1.00  0.00    -0.354 N 
ATOM     30  N   UNL     1       7.051  -3.661   2.358  1.00  0.00    -0.248 NA
ATOM     31  C   UNL     1       9.220  -4.254   1.712  1.00  0.00     0.031 C 
ATOM     32  C   UNL     1       5.005  -5.995   5.802  1.00  0.00     0.029 A 
ATOM     33  C   UNL     1       5.471  -5.354   4.657  1.00  0.00     0.049 A 
ATOM     34  H   UNL     1       4.389  -4.077   3.364  1.00  0.00     0.167 HD
ATOM     35  C   UNL     1       7.425  -4.794   3.080  1.00  0.00     0.074 A 
ATOM     36  C   UNL     1       8.759  -5.134   2.591  1.00  0.00     0.031 C 
ATOM     37  C   UNL     1       6.804  -5.496   4.074  1.00  0.00     0.037 A 
BRANCH  24  38
ATOM     38  C   UNL     1       0.884  -4.374   5.883  1.00  0.00     0.064 A 
ATOM     39  C   UNL     1      -0.354  -4.947   5.550  1.00  0.00     0.173 A 
ATOM     40  C   UNL     1       1.062  -3.918   7.197  1.00  0.00     0.173 A 
ATOM     41  F   UNL     1      -0.583  -5.378   4.300  1.00  0.00    -0.203 F 
ATOM     42  C   UNL     1      -1.385  -5.020   6.483  1.00  0.00     0.198 A 
ATOM     43  C   UNL     1       0.037  -4.017   8.135  1.00  0.00     0.198 A 
ATOM     44  F   UNL     1       2.220  -3.352   7.567  1.00  0.00    -0.203 F 
ATOM     45  F   UNL     1      -2.579  -5.510   6.122  1.00  0.00    -0.200 F 
ATOM     46  C   UNL     1      -1.189  -4.555   7.774  1.00  0.00     0.200 A 
ATOM     47  F   UNL     1       0.228  -3.567   9.383  1.00  0.00    -0.200 F 
ATOM     48  F   UNL     1      -2.189  -4.607   8.666  1.00  0.00    -0.200 F 
ENDBRANCH  24  38
BRANCH  25  49
ATOM     49  C   UNL     1       9.383  -2.089  -0.345  1.00  0.00     0.064 A 
ATOM     50  C   UNL     1       9.575  -3.051  -1.345  1.00  0.00     0.173 A 
ATOM     51  C   UNL     1      10.232  -0.971  -0.346  1.00  0.00     0.173 A 
ATOM     52  F   UNL     1       8.799  -4.144  -1.381  1.00  0.00    -0.203 F 
ATOM     53  C   UNL     1      10.561  -2.892  -2.317  1.00  0.00     0.198 A 
ATOM     54  C   UNL     1      11.195  -0.797  -1.336  1.00  0.00     0.198 A 
ATOM     55  F   UNL     1      10.087  -0.019   0.588  1.00  0.00    -0.203 F 
ATOM     56  F   UNL     1      10.728  -3.831  -3.258  1.00  0.00    -0.200 F 
ATOM     57  C   UNL     1      11.358  -1.757  -2.322  1.00  0.00     0.200 A 
ATOM     58  F   UNL     1      11.946   0.312  -1.348  1.00  0.00    -0.200 F 
ATOM     59  F   UNL     1      12.278  -1.585  -3.281  1.00  0.00    -0.200 F 
ENDBRANCH  25  49
BRANCH  37  60
ATOM     60  C   UNL     1       7.670  -6.562   4.718  1.00  0.00     0.064 A 
ATOM     61  C   UNL     1       8.731  -6.209   5.571  1.00  0.00     0.173 A 
ATOM     62  C   UNL     1       7.412  -7.926   4.522  1.00  0.00     0.173 A 
ATOM     63  F   UNL     1       9.020  -4.917   5.787  1.00  0.00    -0.203 F 
ATOM     64  C   UNL     1       9.523  -7.182   6.174  1.00  0.00     0.198 A 
ATOM     65  C   UNL     1       8.190  -8.898   5.151  1.00  0.00     0.198 A 
ATOM     66  F   UNL     1       6.403  -8.316   3.730  1.00  0.00    -0.203 F 
ATOM     67  F   UNL     1      10.560  -6.820   6.942  1.00  0.00    -0.200 F 
ATOM     68  C   UNL     1       9.249  -8.525   5.967  1.00  0.00     0.200 A 
ATOM     69  F   UNL     1       7.917 -10.197   4.964  1.00  0.00    -0.200 F 
ATOM     70  F   UNL     1      10.009  -9.462   6.550  1.00  0.00    -0.200 F 
ENDBRANCH  37  60
ENDBRANCH  11  12
ENDBRANCH   4   6
ENDBRANCH   3   4
ENDBRANCH   2   3
ENDBRANCH   1   2
BRANCH   1  71
ATOM     71  O   UNL     1       1.377   2.040  -2.901  1.00  0.00    -0.461 OA
BRANCH  71  72
ATOM     72  C   UNL     1       1.797   3.335  -2.780  1.00  0.00     0.324 C 
ATOM     73  O   UNL     1       1.271   4.276  -3.364  1.00  0.00    -0.250 OA
BRANCH  72  74
ATOM     74  C   UNL     1       3.033   3.461  -1.879  1.00  0.00     0.183 C 
ATOM     75  C   UNL     1       3.719   4.799  -2.167  1.00  0.00     0.034 C 
ATOM     76  N   UNL     1       2.676   3.549  -0.426  1.00  0.00    -0.184 NA
ATOM     77  C   UNL     1       2.930   5.799  -1.338  1.00  0.00     0.019 C 
ATOM     78  C   UNL     1       2.274   4.990  -0.222  1.00  0.00     0.103 C 
BRANCH  76  79
ATOM     79  S   UNL     1       3.868   3.043   0.700  1.00  0.00     0.244 S 
ATOM     80  O   UNL     1       5.165   3.408   0.178  1.00  0.00    -0.207 OA
ATOM     81  O   UNL     1       3.434   3.496   2.006  1.00  0.00    -0.207 OA
BRANCH  79  82
ATOM     82  C   UNL     1       3.822   1.264   0.807  1.00  0.00     0.089 A 
ATOM     83  C   UNL     1       4.226   0.556   2.469  1.00  0.00     0.022 A 
ATOM     84  C   UNL     1       3.542   0.147  -0.662  1.00  0.00     0.107 A 
ATOM     85  C   UNL     1       4.384  -1.275   2.683  1.00  0.00     0.008 A 
ATOM     86  C   UNL     1       3.718  -1.684  -0.459  1.00  0.00     0.270 A 
ATOM     87  C   UNL     1       4.133  -2.419   1.182  1.00  0.00     0.086 A 
BRANCH  86  88
ATOM     88  N   UNL     1       3.753  -2.512  -1.638  1.00  0.00     0.062 N 
ATOM     89  O   UNL     1       4.043  -3.703  -1.493  1.00  0.00    -0.258 OA
ATOM     90  O   UNL     1       3.482  -1.958  -2.711  1.00  0.00    -0.258 OA
ENDBRANCH  86  88
ENDBRANCH  79  82
ENDBRANCH  76  79
ENDBRANCH  72  74
ENDBRANCH  71  72
ENDBRANCH   1  71
TORSDOF 14
