REMARK SMILES C[C@]12C(=O)N(c3ccc(C(=O)OCCOC(=O)c4ccc(-c5c6nc(c(-c7c(F)c(F)c(F)c(F)c7F)c7ccc([nH]7)c(-c7c(F)c(F)c(F)c(F)c7F)c7nc(c(-c8c(F)c(F)c(F)c(F)c8F)c8ccc5[nH]8)C=C7)C=C6)cc4)cc3)C(=O)[C@@H]1[C@H]1c3ccccc3[C@@H]2c2ccccc21
REMARK SMILES IDX 14 1 13 2 12 3 10 4 11 5 9 6 6 7 7 8 82 9 8 10 81 11 5 12
REMARK SMILES IDX 1 13 2 14 3 15 85 16 93 17 4 18 83 19 86 20 92 21 94 22
REMARK SMILES IDX 84 23 87 24 99 25 91 26 95 27 88 28 98 29 90 30 96 31 89 32
REMARK SMILES IDX 97 33 15 34 16 35 17 36 18 37 19 38 80 39 20 40 79 41 21 42
REMARK SMILES IDX 22 43 23 44 73 45 24 46 78 47 72 48 74 49 25 50 77 51 71 52
REMARK SMILES IDX 70 53 26 55 58 56 38 57 57 58 39 59 42 60 56 61 75 62 40 63
REMARK SMILES IDX 41 64 55 66 76 67 43 68 27 69 28 70 36 71 29 72 30 73 34 74
REMARK SMILES IDX 37 75 31 76 32 77 35 78 33 79 59 80 60 81 68 82 61 83 62 84
REMARK SMILES IDX 66 85 69 86 63 87 64 88 67 89 65 90 44 91 45 92 53 93 46 94
REMARK SMILES IDX 47 95 51 96 54 97 48 98 49 99 52 100 50 101
REMARK H PARENT 74 54 42 65
REMARK Flexibility Score: inf
ROOT
ATOM      1  C   UNL     1      -3.956   9.478   4.190  1.00  0.00     0.275 C 
ENDROOT
BRANCH   1   2
ATOM      2  C   UNL     1      -3.114   8.867   5.311  1.00  0.00     0.275 C 
BRANCH   2   3
ATOM      3  O   UNL     1      -2.133   7.956   4.776  1.00  0.00    -0.458 OA
BRANCH   3   4
ATOM      4  C   UNL     1      -2.483   6.651   4.821  1.00  0.00     0.338 C 
ATOM      5  O   UNL     1      -3.485   6.176   5.327  1.00  0.00    -0.246 OA
BRANCH   4   6
ATOM      6  C   UNL     1      -1.571   5.846   3.984  1.00  0.00     0.060 A 
ATOM      7  C   UNL     1      -0.058   4.001   2.461  1.00  0.00     0.052 A 
ATOM      8  C   UNL     1      -1.436   4.179   2.252  1.00  0.00     0.028 A 
ATOM      9  C   UNL     1       0.562   4.828   3.412  1.00  0.00     0.028 A 
ATOM     10  C   UNL     1      -2.180   5.056   3.022  1.00  0.00     0.018 A 
ATOM     11  C   UNL     1      -0.189   5.765   4.160  1.00  0.00     0.018 A 
BRANCH   7  12
ATOM     12  N   UNL     1       0.563   2.829   1.903  1.00  0.00    -0.250 N 
ATOM     13  C   UNL     1       1.084   0.070   0.358  1.00  0.00     0.024 C 
ATOM     14  C   UNL     1       0.097   0.576   1.437  1.00  0.00     0.071 C 
ATOM     15  C   UNL     1      -0.183   2.002   1.055  1.00  0.00     0.241 C 
ATOM     16  C   UNL     1       0.732   0.783   2.822  1.00  0.00     0.107 C 
ATOM     17  C   UNL     1      -1.153  -0.343   1.666  1.00  0.00     0.066 C 
ATOM     18  O   UNL     1      -0.898   2.315   0.112  1.00  0.00    -0.273 OA
ATOM     19  C   UNL     1       1.489   2.067   2.663  1.00  0.00     0.238 C 
ATOM     20  C   UNL     1       0.529  -0.453   3.741  1.00  0.00     0.063 C 
ATOM     21  C   UNL     1      -1.824  -0.003   3.024  1.00  0.00    -0.036 A 
ATOM     22  C   UNL     1      -0.543  -1.730   1.892  1.00  0.00    -0.036 A 
ATOM     23  O   UNL     1       2.531   2.388   3.201  1.00  0.00    -0.274 OA
ATOM     24  C   UNL     1      -0.960  -0.185   4.167  1.00  0.00    -0.036 A 
ATOM     25  C   UNL     1       0.413  -1.766   2.954  1.00  0.00    -0.036 A 
ATOM     26  C   UNL     1      -3.075   0.567   3.189  1.00  0.00     0.005 A 
ATOM     27  C   UNL     1      -0.908  -2.878   1.202  1.00  0.00     0.005 A 
ATOM     28  C   UNL     1      -1.358   0.187   5.443  1.00  0.00     0.004 A 
ATOM     29  C   UNL     1       0.997  -2.974   3.308  1.00  0.00     0.004 A 
ATOM     30  C   UNL     1      -3.463   0.955   4.477  1.00  0.00     0.000 A 
ATOM     31  C   UNL     1      -0.314  -4.083   1.570  1.00  0.00     0.000 A 
ATOM     32  C   UNL     1      -2.620   0.762   5.588  1.00  0.00     0.000 A 
ATOM     33  C   UNL     1       0.630  -4.130   2.608  1.00  0.00     0.000 A 
ENDBRANCH   7  12
ENDBRANCH   4   6
ENDBRANCH   3   4
ENDBRANCH   2   3
ENDBRANCH   1   2
BRANCH   1  34
ATOM     34  O   UNL     1      -4.899   8.514   3.680  1.00  0.00    -0.458 OA
BRANCH  34  35
ATOM     35  C   UNL     1      -4.725   8.139   2.394  1.00  0.00     0.338 C 
ATOM     36  O   UNL     1      -3.856   8.505   1.620  1.00  0.00    -0.246 OA
BRANCH  35  37
ATOM     37  C   UNL     1      -5.784   7.193   2.007  1.00  0.00     0.060 A 
ATOM     38  C   UNL     1      -6.711   7.553   1.030  1.00  0.00     0.016 A 
ATOM     39  C   UNL     1      -5.785   5.902   2.530  1.00  0.00     0.016 A 
ATOM     40  C   UNL     1      -7.651   6.614   0.592  1.00  0.00     0.010 A 
ATOM     41  C   UNL     1      -6.635   4.933   1.996  1.00  0.00     0.010 A 
ATOM     42  C   UNL     1      -7.606   5.282   1.046  1.00  0.00    -0.014 A 
BRANCH  42  43
ATOM     43  C   UNL     1      -8.588   4.267   0.566  1.00  0.00     0.031 A 
ATOM     44  C   UNL     1      -9.489   3.551   1.543  1.00  0.00     0.074 A 
ATOM     45  C   UNL     1      -8.660   3.957  -0.745  1.00  0.00     0.049 A 
ATOM     46  N   UNL     1     -10.392   2.627   1.316  1.00  0.00    -0.248 NA
ATOM     47  C   UNL     1      -9.336   3.889   2.967  1.00  0.00     0.031 C 
ATOM     48  C   UNL     1      -7.803   4.509  -1.794  1.00  0.00     0.029 A 
ATOM     49  N   UNL     1      -9.503   3.106  -1.420  1.00  0.00    -0.354 N 
ATOM     50  C   UNL     1     -10.880   2.257   2.562  1.00  0.00     0.074 A 
ATOM     51  C   UNL     1     -10.142   3.013   3.548  1.00  0.00     0.031 C 
ATOM     52  C   UNL     1      -8.198   4.028  -2.984  1.00  0.00     0.029 A 
ATOM     53  C   UNL     1      -9.316   3.111  -2.782  1.00  0.00     0.049 A 
ATOM     54  H   UNL     1     -10.176   2.546  -0.971  1.00  0.00     0.167 HD
ATOM     55  C   UNL     1     -11.878   1.393   2.863  1.00  0.00     0.037 A 
ATOM     56  C   UNL     1      -9.979   2.463  -3.759  1.00  0.00     0.037 A 
ATOM     57  C   UNL     1     -12.670   0.693   1.889  1.00  0.00     0.049 A 
ATOM     58  C   UNL     1     -11.129   1.561  -3.407  1.00  0.00     0.074 A 
ATOM     59  C   UNL     1     -13.760  -0.135   2.097  1.00  0.00     0.029 A 
ATOM     60  N   UNL     1     -12.467   0.752   0.519  1.00  0.00    -0.354 N 
ATOM     61  N   UNL     1     -11.619   1.271  -2.227  1.00  0.00    -0.248 NA
ATOM     62  C   UNL     1     -11.821   0.898  -4.523  1.00  0.00     0.031 C 
ATOM     63  C   UNL     1     -14.204  -0.595   0.854  1.00  0.00     0.029 A 
ATOM     64  C   UNL     1     -13.408  -0.030  -0.130  1.00  0.00     0.049 A 
ATOM     65  H   UNL     1     -11.760   1.273   0.074  1.00  0.00     0.167 HD
ATOM     66  C   UNL     1     -12.680   0.406  -2.457  1.00  0.00     0.074 A 
ATOM     67  C   UNL     1     -12.777   0.231  -3.890  1.00  0.00     0.031 C 
ATOM     68  C   UNL     1     -13.496  -0.191  -1.557  1.00  0.00     0.037 A 
BRANCH  55  69
ATOM     69  C   UNL     1     -12.201   1.178   4.312  1.00  0.00     0.064 A 
ATOM     70  C   UNL     1     -12.851   2.163   5.070  1.00  0.00     0.173 A 
ATOM     71  C   UNL     1     -11.909  -0.045   4.935  1.00  0.00     0.173 A 
ATOM     72  F   UNL     1     -13.142   3.353   4.522  1.00  0.00    -0.203 F 
ATOM     73  C   UNL     1     -13.178   1.941   6.405  1.00  0.00     0.198 A 
ATOM     74  C   UNL     1     -12.261  -0.273   6.263  1.00  0.00     0.198 A 
ATOM     75  F   UNL     1     -11.296  -1.023   4.252  1.00  0.00    -0.203 F 
ATOM     76  F   UNL     1     -13.764   2.912   7.119  1.00  0.00    -0.200 F 
ATOM     77  C   UNL     1     -12.890   0.721   6.998  1.00  0.00     0.200 A 
ATOM     78  F   UNL     1     -11.994  -1.457   6.832  1.00  0.00    -0.200 F 
ATOM     79  F   UNL     1     -13.215   0.505   8.280  1.00  0.00    -0.200 F 
ENDBRANCH  55  69
BRANCH  56  80
ATOM     80  C   UNL     1      -9.607   2.697  -5.178  1.00  0.00     0.064 A 
ATOM     81  C   UNL     1     -10.423   3.479  -6.008  1.00  0.00     0.173 A 
ATOM     82  C   UNL     1      -8.431   2.169  -5.725  1.00  0.00     0.173 A 
ATOM     83  F   UNL     1     -11.570   3.986  -5.533  1.00  0.00    -0.203 F 
ATOM     84  C   UNL     1     -10.078   3.717  -7.337  1.00  0.00     0.198 A 
ATOM     85  C   UNL     1      -8.076   2.425  -7.048  1.00  0.00     0.198 A 
ATOM     86  F   UNL     1      -7.619   1.415  -4.969  1.00  0.00    -0.203 F 
ATOM     87  F   UNL     1     -10.890   4.443  -8.117  1.00  0.00    -0.200 F 
ATOM     88  C   UNL     1      -8.902   3.196  -7.854  1.00  0.00     0.200 A 
ATOM     89  F   UNL     1      -6.935   1.927  -7.543  1.00  0.00    -0.200 F 
ATOM     90  F   UNL     1      -8.567   3.432  -9.129  1.00  0.00    -0.200 F 
ENDBRANCH  56  80
BRANCH  68  91
ATOM     91  C   UNL     1     -14.575  -1.086  -2.085  1.00  0.00     0.064 A 
ATOM     92  C   UNL     1     -14.287  -2.377  -2.548  1.00  0.00     0.173 A 
ATOM     93  C   UNL     1     -15.917  -0.679  -2.054  1.00  0.00     0.173 A 
ATOM     94  F   UNL     1     -13.017  -2.805  -2.606  1.00  0.00    -0.203 F 
ATOM     95  C   UNL     1     -15.304  -3.227  -2.971  1.00  0.00     0.198 A 
ATOM     96  C   UNL     1     -16.934  -1.539  -2.458  1.00  0.00     0.198 A 
ATOM     97  F   UNL     1     -16.243   0.545  -1.611  1.00  0.00    -0.203 F 
ATOM     98  F   UNL     1     -15.005  -4.449  -3.433  1.00  0.00    -0.200 F 
ATOM     99  C   UNL     1     -16.627  -2.811  -2.918  1.00  0.00     0.200 A 
ATOM    100  F   UNL     1     -18.212  -1.140  -2.397  1.00  0.00    -0.200 F 
ATOM    101  F   UNL     1     -17.606  -3.636  -3.313  1.00  0.00    -0.200 F 
ENDBRANCH  68  91
ENDBRANCH  42  43
ENDBRANCH  35  37
ENDBRANCH  34  35
ENDBRANCH   1  34
TORSDOF 12
