REMARK SMILES COc1cc(Cl)ccc1NC(=O)COc1ccccc1C(=O)OCCOC(=O)c1ccc(-c2c3nc(c(-c4c(F)c(F)c(F)c(F)c4F)c4ccc([nH]4)c(-c4c(F)c(F)c(F)c(F)c4F)c4nc(c(-c5c(F)c(F)c(F)c(F)c5F)c5ccc2[nH]5)C=C4)C=C3)cc1
REMARK SMILES IDX 23 1 21 2 22 3 20 4 15 5 16 6 17 7 19 8 18 9 14 10 13 11
REMARK SMILES IDX 11 12 10 13 12 15 9 16 3 17 4 18 5 19 8 20 6 21 7 22 2 23
REMARK SMILES IDX 1 24 24 25 25 26 26 27 27 28 28 29 29 30 30 31 91 32 31 33
REMARK SMILES IDX 90 34 32 35 33 36 34 37 84 38 35 39 89 40 83 41 85 42 36 43
REMARK SMILES IDX 88 44 82 45 81 46 37 48 69 49 49 50 68 51 50 52 53 53 67 54
REMARK SMILES IDX 86 55 51 56 52 57 66 59 87 60 54 61 38 62 39 63 47 64 40 65
REMARK SMILES IDX 41 66 45 67 48 68 42 69 43 70 46 71 44 72 70 73 71 74 79 75
REMARK SMILES IDX 72 76 73 77 77 78 80 79 74 80 75 81 78 82 76 83 55 84 56 85
REMARK SMILES IDX 64 86 57 87 58 88 62 89 65 90 59 91 60 92 63 93 61 94
REMARK H PARENT 10 14 85 47 53 58
REMARK Flexibility Score: inf
ROOT
ATOM      1  O   UNL     1      -3.248  -1.060  -2.919  1.00  0.00    -0.458 OA
ENDROOT
BRANCH   1   2
ATOM      2  C   UNL     1      -4.108  -0.787  -3.928  1.00  0.00     0.342 C 
ATOM      3  O   UNL     1      -5.244  -1.217  -4.047  1.00  0.00    -0.246 OA
BRANCH   2   4
ATOM      4  C   UNL     1      -3.564   0.263  -4.812  1.00  0.00     0.102 A 
ATOM      5  C   UNL     1      -2.387   0.181  -5.563  1.00  0.00     0.134 A 
ATOM      6  C   UNL     1      -2.001   1.298  -6.326  1.00  0.00     0.047 A 
ATOM      7  C   UNL     1      -2.764   2.467  -6.357  1.00  0.00     0.004 A 
ATOM      8  C   UNL     1      -4.341   1.440  -4.863  1.00  0.00     0.019 A 
ATOM      9  C   UNL     1      -3.936   2.541  -5.618  1.00  0.00     0.001 A 
BRANCH   5  10
ATOM     10  O   UNL     1      -1.474  -0.824  -5.646  1.00  0.00    -0.483 OA
BRANCH  10  11
ATOM     11  C   UNL     1      -1.873  -2.180  -5.606  1.00  0.00     0.329 C 
BRANCH  11  12
ATOM     12  C   UNL     1      -1.482  -2.940  -4.335  1.00  0.00     0.262 C 
ATOM     13  N   UNL     1      -0.419  -2.570  -3.565  1.00  0.00    -0.320 N 
ATOM     14  H   UNL     1      -0.481  -2.889  -2.636  1.00  0.00     0.170 HD
ATOM     15  O   UNL     1      -2.170  -3.895  -3.956  1.00  0.00    -0.271 OA
BRANCH  13  16
ATOM     16  C   UNL     1       0.748  -1.827  -3.822  1.00  0.00     0.084 A 
ATOM     17  C   UNL     1       1.465  -1.340  -2.707  1.00  0.00     0.143 A 
ATOM     18  C   UNL     1       2.686  -0.685  -2.886  1.00  0.00     0.069 A 
ATOM     19  C   UNL     1       3.192  -0.514  -4.171  1.00  0.00     0.044 A 
ATOM     20  C   UNL     1       1.273  -1.648  -5.103  1.00  0.00     0.031 A 
ATOM     21  Cl  UNL     1       4.716   0.256  -4.389  1.00  0.00    -0.084 Cl
ATOM     22  C   UNL     1       2.493  -0.988  -5.277  1.00  0.00     0.023 A 
BRANCH  17  23
ATOM     23  O   UNL     1       0.922  -1.588  -1.466  1.00  0.00    -0.495 OA
ATOM     24  C   UNL     1       1.216  -0.604  -0.472  1.00  0.00     0.278 C 
ENDBRANCH  17  23
ENDBRANCH  13  16
ENDBRANCH  11  12
ENDBRANCH  10  11
ENDBRANCH   5  10
ENDBRANCH   2   4
ENDBRANCH   1   2
BRANCH   1  25
ATOM     25  C   UNL     1      -3.763  -1.973  -1.925  1.00  0.00     0.275 C 
BRANCH  25  26
ATOM     26  C   UNL     1      -2.888  -1.938  -0.668  1.00  0.00     0.275 C 
BRANCH  26  27
ATOM     27  O   UNL     1      -3.178  -0.736   0.069  1.00  0.00    -0.458 OA
BRANCH  27  28
ATOM     28  C   UNL     1      -2.487   0.349  -0.338  1.00  0.00     0.338 C 
ATOM     29  O   UNL     1      -1.475   0.397  -1.018  1.00  0.00    -0.246 OA
BRANCH  28  30
ATOM     30  C   UNL     1      -3.320   1.522  -0.092  1.00  0.00     0.060 A 
ATOM     31  C   UNL     1      -3.886   2.116  -1.221  1.00  0.00     0.016 A 
ATOM     32  C   UNL     1      -3.536   2.032   1.185  1.00  0.00     0.016 A 
ATOM     33  C   UNL     1      -4.686   3.238  -1.083  1.00  0.00     0.010 A 
ATOM     34  C   UNL     1      -4.351   3.155   1.324  1.00  0.00     0.010 A 
ATOM     35  C   UNL     1      -4.928   3.763   0.192  1.00  0.00    -0.014 A 
BRANCH  35  36
ATOM     36  C   UNL     1      -5.752   4.982   0.328  1.00  0.00     0.031 A 
ATOM     37  C   UNL     1      -5.102   6.266   0.743  1.00  0.00     0.074 A 
ATOM     38  C   UNL     1      -7.068   4.931   0.056  1.00  0.00     0.049 A 
ATOM     39  N   UNL     1      -5.652   7.405   1.071  1.00  0.00    -0.248 NA
ATOM     40  C   UNL     1      -3.632   6.263   0.810  1.00  0.00     0.031 C 
ATOM     41  C   UNL     1      -7.787   3.744  -0.410  1.00  0.00     0.029 A 
ATOM     42  N   UNL     1      -8.034   5.900   0.132  1.00  0.00    -0.354 N 
ATOM     43  C   UNL     1      -4.602   8.238   1.431  1.00  0.00     0.074 A 
ATOM     44  C   UNL     1      -3.382   7.476   1.280  1.00  0.00     0.031 C 
ATOM     45  C   UNL     1      -9.079   4.059  -0.593  1.00  0.00     0.029 A 
ATOM     46  C   UNL     1      -9.289   5.446  -0.191  1.00  0.00     0.049 A 
ATOM     47  H   UNL     1      -7.846   6.831   0.391  1.00  0.00     0.167 HD
ATOM     48  C   UNL     1      -4.664   9.522   1.856  1.00  0.00     0.037 A 
ATOM     49  C   UNL     1     -10.479   6.072  -0.126  1.00  0.00     0.037 A 
ATOM     50  C   UNL     1      -5.888  10.274   1.959  1.00  0.00     0.049 A 
ATOM     51  C   UNL     1     -10.521   7.491   0.367  1.00  0.00     0.074 A 
ATOM     52  C   UNL     1      -6.067  11.584   2.365  1.00  0.00     0.029 A 
ATOM     53  N   UNL     1      -7.145   9.777   1.640  1.00  0.00    -0.354 N 
ATOM     54  N   UNL     1      -9.532   8.262   0.752  1.00  0.00    -0.248 NA
ATOM     55  C   UNL     1     -11.844   8.122   0.452  1.00  0.00     0.031 C 
ATOM     56  C   UNL     1      -7.437  11.868   2.326  1.00  0.00     0.029 A 
ATOM     57  C   UNL     1      -8.107  10.750   1.853  1.00  0.00     0.049 A 
ATOM     58  H   UNL     1      -7.325   8.866   1.312  1.00  0.00     0.167 HD
ATOM     59  C   UNL     1     -10.109   9.469   1.118  1.00  0.00     0.074 A 
ATOM     60  C   UNL     1     -11.533   9.336   0.884  1.00  0.00     0.031 C 
ATOM     61  C   UNL     1      -9.518  10.585   1.612  1.00  0.00     0.037 A 
BRANCH  48  62
ATOM     62  C   UNL     1      -3.381  10.173   2.282  1.00  0.00     0.064 A 
ATOM     63  C   UNL     1      -2.391  10.543   1.360  1.00  0.00     0.173 A 
ATOM     64  C   UNL     1      -3.145  10.440   3.639  1.00  0.00     0.173 A 
ATOM     65  F   UNL     1      -2.558  10.292   0.053  1.00  0.00    -0.203 F 
ATOM     66  C   UNL     1      -1.201  11.130   1.784  1.00  0.00     0.198 A 
ATOM     67  C   UNL     1      -1.967  11.053   4.057  1.00  0.00     0.198 A 
ATOM     68  F   UNL     1      -4.059  10.106   4.563  1.00  0.00    -0.203 F 
ATOM     69  F   UNL     1      -0.247  11.428   0.891  1.00  0.00    -0.200 F 
ATOM     70  C   UNL     1      -0.993  11.391   3.131  1.00  0.00     0.200 A 
ATOM     71  F   UNL     1      -1.772  11.311   5.358  1.00  0.00    -0.200 F 
ATOM     72  F   UNL     1       0.152  11.958   3.537  1.00  0.00    -0.200 F 
ENDBRANCH  48  62
BRANCH  49  73
ATOM     73  C   UNL     1     -11.718   5.345  -0.503  1.00  0.00     0.064 A 
ATOM     74  C   UNL     1     -12.443   5.697  -1.649  1.00  0.00     0.173 A 
ATOM     75  C   UNL     1     -12.195   4.272   0.266  1.00  0.00     0.173 A 
ATOM     76  F   UNL     1     -12.042   6.731  -2.403  1.00  0.00    -0.203 F 
ATOM     77  C   UNL     1     -13.602   5.010  -2.007  1.00  0.00     0.198 A 
ATOM     78  C   UNL     1     -13.336   3.567  -0.110  1.00  0.00     0.198 A 
ATOM     79  F   UNL     1     -11.539   3.894   1.373  1.00  0.00    -0.203 F 
ATOM     80  F   UNL     1     -14.297   5.392  -3.087  1.00  0.00    -0.200 F 
ATOM     81  C   UNL     1     -14.042   3.940  -1.243  1.00  0.00     0.200 A 
ATOM     82  F   UNL     1     -13.749   2.524   0.625  1.00  0.00    -0.200 F 
ATOM     83  F   UNL     1     -15.150   3.273  -1.594  1.00  0.00    -0.200 F 
ENDBRANCH  49  73
BRANCH  61  84
ATOM     84  C   UNL     1     -10.415  11.750   1.910  1.00  0.00     0.064 A 
ATOM     85  C   UNL     1     -11.273  11.748   3.019  1.00  0.00     0.173 A 
ATOM     86  C   UNL     1     -10.394  12.889   1.093  1.00  0.00     0.173 A 
ATOM     87  F   UNL     1     -11.339  10.673   3.820  1.00  0.00    -0.203 F 
ATOM     88  C   UNL     1     -12.098  12.837   3.285  1.00  0.00     0.198 A 
ATOM     89  C   UNL     1     -11.200  13.987   1.377  1.00  0.00     0.198 A 
ATOM     90  F   UNL     1      -9.585  12.940   0.023  1.00  0.00    -0.203 F 
ATOM     91  F   UNL     1     -12.945  12.796   4.322  1.00  0.00    -0.200 F 
ATOM     92  C   UNL     1     -12.056  13.957   2.468  1.00  0.00     0.200 A 
ATOM     93  F   UNL     1     -11.151  15.073   0.593  1.00  0.00    -0.200 F 
ATOM     94  F   UNL     1     -12.849  15.006   2.726  1.00  0.00    -0.200 F 
ENDBRANCH  61  84
ENDBRANCH  35  36
ENDBRANCH  28  30
ENDBRANCH  27  28
ENDBRANCH  26  27
ENDBRANCH  25  26
ENDBRANCH   1  25
TORSDOF 16
