REMARK SMILES C[C@]([NH2+]Cc1noc(C2CC2)n1)(C(=O)OCCOC(=O)c1ccc(-c2c3nc(c(-c4c(F)c(F)c(F)c(F)c4F)c4ccc([nH]4)c(-c4c(F)c(F)c(F)c(F)c4F)c4nc(c(-c5c(F)c(F)c(F)c(F)c5F)c5ccc2[nH]5)C=C4)C=C3)cc1)C(F)(F)F
REMARK SMILES IDX 16 1 15 2 13 3 14 4 2 5 1 6 84 7 85 8 86 9 87 10 3 11 4 14
REMARK SMILES IDX 5 15 6 16 12 17 7 18 8 19 9 20 10 21 11 22 17 23 18 24 19 25
REMARK SMILES IDX 20 26 21 27 22 28 83 29 23 30 82 31 24 32 25 33 26 34 76 35
REMARK SMILES IDX 27 36 81 37 75 38 77 39 28 40 80 41 74 42 73 43 29 45 61 46
REMARK SMILES IDX 41 47 60 48 42 49 45 50 59 51 78 52 43 53 44 54 58 56 79 57
REMARK SMILES IDX 46 58 30 59 31 60 39 61 32 62 33 63 37 64 40 65 34 66 35 67
REMARK SMILES IDX 38 68 36 69 62 70 63 71 71 72 64 73 65 74 69 75 72 76 66 77
REMARK SMILES IDX 67 78 70 79 68 80 47 81 48 82 56 83 49 84 50 85 54 86 57 87
REMARK SMILES IDX 51 88 52 89 55 90 53 91
REMARK H PARENT 3 12 3 13 77 44 45 55
REMARK Flexibility Score: inf
ROOT
ATOM      1  C   UNL     1      -2.595  -1.052  -1.044  1.00  0.00     0.274 C 
ENDROOT
BRANCH   1   2
ATOM      2  O   UNL     1      -1.165  -0.964  -0.867  1.00  0.00    -0.457 OA
BRANCH   2   3
ATOM      3  C   UNL     1      -0.460  -0.369  -1.879  1.00  0.00     0.377 C 
ATOM      4  O   UNL     1      -0.983   0.038  -2.909  1.00  0.00    -0.244 OA
BRANCH   3   5
ATOM      5  C   UNL     1       1.059  -0.402  -1.626  1.00  0.00     0.287 C 
ATOM      6  C   UNL     1       1.548  -1.748  -2.187  1.00  0.00     0.103 C 
BRANCH   5   7
ATOM      7  C   UNL     1       1.668   0.743  -2.481  1.00  0.00     0.455 C 
ATOM      8  F   UNL     1       1.357   1.964  -1.994  1.00  0.00    -0.164 F 
ATOM      9  F   UNL     1       3.027   0.668  -2.468  1.00  0.00    -0.164 F 
ATOM     10  F   UNL     1       1.313   0.710  -3.782  1.00  0.00    -0.164 F 
ENDBRANCH   5   7
BRANCH   5  11
ATOM     11  N   UNL     1       1.320  -0.356  -0.137  1.00  0.00    -0.318 N 
ATOM     12  H   UNL     1       1.258  -1.306   0.229  1.00  0.00     0.347 HD
ATOM     13  H   UNL     1       0.620   0.267   0.267  1.00  0.00     0.347 HD
BRANCH  11  14
ATOM     14  C   UNL     1       2.636   0.193   0.224  1.00  0.00     0.344 C 
BRANCH  14  15
ATOM     15  C   UNL     1       2.941  -0.005   1.676  1.00  0.00     0.226 A 
ATOM     16  N   UNL     1       3.885  -0.865   2.084  1.00  0.00    -0.056 NA
ATOM     17  N   UNL     1       2.348   0.719   2.681  1.00  0.00    -0.190 NA
ATOM     18  O   UNL     1       3.926  -0.660   3.462  1.00  0.00    -0.339 OA
ATOM     19  C   UNL     1       2.986   0.291   3.750  1.00  0.00     0.229 A 
BRANCH  19  20
ATOM     20  C   UNL     1       2.740   0.788   5.167  1.00  0.00     0.079 C 
ATOM     21  C   UNL     1       2.240   2.203   5.372  1.00  0.00     0.014 C 
ATOM     22  C   UNL     1       1.316   1.058   5.606  1.00  0.00     0.014 C 
ENDBRANCH  19  20
ENDBRANCH  14  15
ENDBRANCH  11  14
ENDBRANCH   5  11
ENDBRANCH   3   5
ENDBRANCH   2   3
ENDBRANCH   1   2
BRANCH   1  23
ATOM     23  C   UNL     1      -3.305   0.082  -0.312  1.00  0.00     0.275 C 
BRANCH  23  24
ATOM     24  O   UNL     1      -2.916   1.336  -0.895  1.00  0.00    -0.458 OA
BRANCH  24  25
ATOM     25  C   UNL     1      -2.519   2.290  -0.026  1.00  0.00     0.338 C 
ATOM     26  O   UNL     1      -2.524   2.231   1.195  1.00  0.00    -0.246 OA
BRANCH  25  27
ATOM     27  C   UNL     1      -2.085   3.486  -0.767  1.00  0.00     0.060 A 
ATOM     28  C   UNL     1      -1.177   3.381  -1.820  1.00  0.00     0.016 A 
ATOM     29  C   UNL     1      -2.508   4.740  -0.334  1.00  0.00     0.016 A 
ATOM     30  C   UNL     1      -0.609   4.528  -2.375  1.00  0.00     0.010 A 
ATOM     31  C   UNL     1      -2.013   5.888  -0.956  1.00  0.00     0.010 A 
ATOM     32  C   UNL     1      -1.024   5.796  -1.953  1.00  0.00    -0.014 A 
BRANCH  32  33
ATOM     33  C   UNL     1      -0.399   7.037  -2.484  1.00  0.00     0.031 A 
ATOM     34  C   UNL     1       0.263   7.994  -1.531  1.00  0.00     0.074 A 
ATOM     35  C   UNL     1      -0.436   7.332  -3.797  1.00  0.00     0.049 A 
ATOM     36  N   UNL     1       0.597   9.247  -1.706  1.00  0.00    -0.248 NA
ATOM     37  C   UNL     1       0.571   7.471  -0.190  1.00  0.00     0.031 C 
ATOM     38  C   UNL     1      -0.975   6.471  -4.848  1.00  0.00     0.029 A 
ATOM     39  N   UNL     1      -0.020   8.457  -4.468  1.00  0.00    -0.354 N 
ATOM     40  C   UNL     1       1.079   9.683  -0.478  1.00  0.00     0.074 A 
ATOM     41  C   UNL     1       1.012   8.557   0.429  1.00  0.00     0.031 C 
ATOM     42  C   UNL     1      -0.843   7.088  -6.032  1.00  0.00     0.029 A 
ATOM     43  C   UNL     1      -0.298   8.424  -5.812  1.00  0.00     0.049 A 
ATOM     44  H   UNL     1       0.433   9.212  -4.028  1.00  0.00     0.167 HD
ATOM     45  C   UNL     1       1.522  10.918  -0.141  1.00  0.00     0.037 A 
ATOM     46  C   UNL     1      -0.182   9.380  -6.753  1.00  0.00     0.037 A 
ATOM     47  C   UNL     1       1.650  12.012  -1.067  1.00  0.00     0.049 A 
ATOM     48  C   UNL     1       0.304  10.746  -6.360  1.00  0.00     0.074 A 
ATOM     49  C   UNL     1       2.092  13.301  -0.830  1.00  0.00     0.029 A 
ATOM     50  N   UNL     1       1.358  11.932  -2.421  1.00  0.00    -0.354 N 
ATOM     51  N   UNL     1       0.664  11.186  -5.179  1.00  0.00    -0.248 NA
ATOM     52  C   UNL     1       0.375  11.757  -7.424  1.00  0.00     0.031 C 
ATOM     53  C   UNL     1       2.047  14.009  -2.037  1.00  0.00     0.029 A 
ATOM     54  C   UNL     1       1.610  13.149  -3.032  1.00  0.00     0.049 A 
ATOM     55  H   UNL     1       1.021  11.129  -2.880  1.00  0.00     0.167 HD
ATOM     56  C   UNL     1       1.012  12.517  -5.357  1.00  0.00     0.074 A 
ATOM     57  C   UNL     1       0.834  12.811  -6.764  1.00  0.00     0.031 C 
ATOM     58  C   UNL     1       1.435  13.417  -4.436  1.00  0.00     0.037 A 
BRANCH  45  59
ATOM     59  C   UNL     1       1.854  11.165   1.301  1.00  0.00     0.064 A 
ATOM     60  C   UNL     1       3.011  10.648   1.899  1.00  0.00     0.173 A 
ATOM     61  C   UNL     1       1.002  11.954   2.090  1.00  0.00     0.173 A 
ATOM     62  F   UNL     1       3.849   9.875   1.192  1.00  0.00    -0.203 F 
ATOM     63  C   UNL     1       3.291  10.890   3.242  1.00  0.00     0.198 A 
ATOM     64  C   UNL     1       1.298  12.216   3.425  1.00  0.00     0.198 A 
ATOM     65  F   UNL     1      -0.116  12.476   1.565  1.00  0.00    -0.203 F 
ATOM     66  F   UNL     1       4.379  10.349   3.807  1.00  0.00    -0.200 F 
ATOM     67  C   UNL     1       2.438  11.678   4.002  1.00  0.00     0.200 A 
ATOM     68  F   UNL     1       0.478  12.985   4.154  1.00  0.00    -0.200 F 
ATOM     69  F   UNL     1       2.711  11.912   5.293  1.00  0.00    -0.200 F 
ENDBRANCH  45  59
BRANCH  46  70
ATOM     70  C   UNL     1      -0.584   9.081  -8.151  1.00  0.00     0.064 A 
ATOM     71  C   UNL     1       0.376   8.950  -9.163  1.00  0.00     0.173 A 
ATOM     72  C   UNL     1      -1.929   8.884  -8.496  1.00  0.00     0.173 A 
ATOM     73  F   UNL     1       1.672   9.156  -8.886  1.00  0.00    -0.203 F 
ATOM     74  C   UNL     1       0.005   8.631 -10.467  1.00  0.00     0.198 A 
ATOM     75  C   UNL     1      -2.297   8.539  -9.794  1.00  0.00     0.198 A 
ATOM     76  F   UNL     1      -2.886   9.001  -7.562  1.00  0.00    -0.203 F 
ATOM     77  F   UNL     1       0.939   8.537 -11.423  1.00  0.00    -0.200 F 
ATOM     78  C   UNL     1      -1.329   8.416 -10.779  1.00  0.00     0.200 A 
ATOM     79  F   UNL     1      -3.585   8.319 -10.087  1.00  0.00    -0.200 F 
ATOM     80  F   UNL     1      -1.683   8.092 -12.031  1.00  0.00    -0.200 F 
ENDBRANCH  46  70
BRANCH  58  81
ATOM     81  C   UNL     1       1.767  14.792  -4.927  1.00  0.00     0.064 A 
ATOM     82  C   UNL     1       0.764  15.721  -5.236  1.00  0.00     0.173 A 
ATOM     83  C   UNL     1       3.104  15.198  -5.046  1.00  0.00     0.173 A 
ATOM     84  F   UNL     1      -0.528  15.372  -5.151  1.00  0.00    -0.203 F 
ATOM     85  C   UNL     1       1.089  17.006  -5.662  1.00  0.00     0.198 A 
ATOM     86  C   UNL     1       3.426  16.489  -5.453  1.00  0.00     0.198 A 
ATOM     87  F   UNL     1       4.098  14.344  -4.758  1.00  0.00    -0.203 F 
ATOM     88  F   UNL     1       0.116  17.870  -5.984  1.00  0.00    -0.200 F 
ATOM     89  C   UNL     1       2.418  17.390  -5.764  1.00  0.00     0.200 A 
ATOM     90  F   UNL     1       4.710  16.861  -5.545  1.00  0.00    -0.200 F 
ATOM     91  F   UNL     1       2.729  18.629  -6.170  1.00  0.00    -0.200 F 
ENDBRANCH  58  81
ENDBRANCH  32  33
ENDBRANCH  25  27
ENDBRANCH  24  25
ENDBRANCH  23  24
ENDBRANCH   1  23
TORSDOF 16
