REMARK SMILES C[C@@H]1CCC[N@@H+]([C@@H]2CCC[C@]([NH3+])(C(=O)OCCOC(=O)c3ccc(-c4c5nc(c(-c6c(F)c(F)c(F)c(F)c6F)c6ccc([nH]6)c(-c6c(F)c(F)c(F)c(F)c6F)c6nc(c(-c7c(F)c(F)c(F)c(F)c7F)c7ccc4[nH]7)C=C6)C=C5)cc3)C2)C1
REMARK SMILES IDX 17 1 16 2 15 3 13 4 14 5 11 6 7 7 8 8 84 9 9 10 10 11 6 12
REMARK SMILES IDX 1 13 2 14 3 15 85 16 4 17 5 18 12 20 18 24 19 25 20 26 21 27
REMARK SMILES IDX 22 28 83 29 23 30 82 31 24 32 25 33 26 34 76 35 27 36 81 37
REMARK SMILES IDX 75 38 77 39 28 40 80 41 74 42 73 43 29 45 61 46 41 47 60 48
REMARK SMILES IDX 42 49 45 50 59 51 78 52 43 53 44 54 58 56 79 57 46 58 30 59
REMARK SMILES IDX 31 60 39 61 32 62 33 63 37 64 40 65 34 66 35 67 38 68 36 69
REMARK SMILES IDX 62 70 63 71 71 72 64 73 65 74 69 75 72 76 66 77 67 78 70 79
REMARK SMILES IDX 68 80 47 81 48 82 56 83 49 84 50 85 54 86 57 87 51 88 52 89
REMARK SMILES IDX 55 90 53 91
REMARK H PARENT 6 19 12 21 12 22 12 23 77 44 45 55
REMARK Flexibility Score: inf
ROOT
ATOM      1  C   UNL     1       6.627   2.562  -5.364  1.00  0.00     0.275 C 
ENDROOT
BRANCH   1   2
ATOM      2  C   UNL     1       5.771   1.410  -5.889  1.00  0.00     0.274 C 
BRANCH   2   3
ATOM      3  O   UNL     1       4.383   1.594  -5.546  1.00  0.00    -0.457 OA
BRANCH   3   4
ATOM      4  C   UNL     1       3.896   0.787  -4.558  1.00  0.00     0.368 C 
ATOM      5  O   UNL     1       4.559  -0.067  -3.979  1.00  0.00    -0.245 OA
BRANCH   4   6
ATOM      6  C   UNL     1       2.386   1.047  -4.273  1.00  0.00     0.198 C 
ATOM      7  C   UNL     1       0.697   0.846  -2.281  1.00  0.00     0.190 C 
ATOM      8  C   UNL     1      -0.014  -0.277  -3.047  1.00  0.00     0.065 C 
ATOM      9  C   UNL     1       2.160   0.979  -2.748  1.00  0.00     0.145 C 
ATOM     10  C   UNL     1       0.124  -0.103  -4.561  1.00  0.00     0.013 C 
ATOM     11  C   UNL     1       1.587  -0.053  -4.990  1.00  0.00     0.081 C 
BRANCH   7  12
ATOM     12  N   UNL     1       0.613   0.787  -0.806  1.00  0.00    -0.332 N 
ATOM     13  C   UNL     1      -2.806   0.028   0.814  1.00  0.00     0.013 C 
ATOM     14  C   UNL     1      -1.509  -0.295   0.072  1.00  0.00     0.041 C 
ATOM     15  C   UNL     1      -0.665  -1.283   0.882  1.00  0.00     0.015 C 
ATOM     16  C   UNL     1      -0.722   0.995  -0.234  1.00  0.00     0.265 C 
ATOM     17  C   UNL     1       0.677  -1.520   0.203  1.00  0.00     0.062 C 
ATOM     18  C   UNL     1       1.393  -0.199  -0.061  1.00  0.00     0.262 C 
ATOM     19  H   UNL     1       1.158   1.633  -0.639  1.00  0.00     0.348 HD
ENDBRANCH   7  12
BRANCH   6  20
ATOM     20  N   UNL     1       1.964   2.381  -4.769  1.00  0.00    -0.343 N 
ATOM     21  H   UNL     1       0.974   2.522  -4.568  1.00  0.00     0.345 HD
ATOM     22  H   UNL     1       2.118   2.434  -5.776  1.00  0.00     0.345 HD
ATOM     23  H   UNL     1       2.512   3.106  -4.303  1.00  0.00     0.345 HD
ENDBRANCH   6  20
ENDBRANCH   4   6
ENDBRANCH   3   4
ENDBRANCH   2   3
ENDBRANCH   1   2
BRANCH   1  24
ATOM     24  O   UNL     1       6.696   2.543  -3.926  1.00  0.00    -0.458 OA
BRANCH  24  25
ATOM     25  C   UNL     1       5.878   3.415  -3.300  1.00  0.00     0.338 C 
ATOM     26  O   UNL     1       5.098   4.208  -3.810  1.00  0.00    -0.246 OA
BRANCH  25  27
ATOM     27  C   UNL     1       5.974   3.230  -1.848  1.00  0.00     0.060 A 
ATOM     28  C   UNL     1       5.173   2.256  -1.259  1.00  0.00     0.016 A 
ATOM     29  C   UNL     1       6.711   4.110  -1.057  1.00  0.00     0.016 A 
ATOM     30  C   UNL     1       5.015   2.224   0.123  1.00  0.00     0.010 A 
ATOM     31  C   UNL     1       6.625   4.014   0.339  1.00  0.00     0.010 A 
ATOM     32  C   UNL     1       5.745   3.096   0.942  1.00  0.00    -0.014 A 
BRANCH  32  33
ATOM     33  C   UNL     1       5.544   3.074   2.417  1.00  0.00     0.031 A 
ATOM     34  C   UNL     1       5.012   4.288   3.130  1.00  0.00     0.074 A 
ATOM     35  C   UNL     1       5.792   1.953   3.123  1.00  0.00     0.049 A 
ATOM     36  N   UNL     1       4.921   4.519   4.416  1.00  0.00    -0.248 NA
ATOM     37  C   UNL     1       4.524   5.391   2.288  1.00  0.00     0.031 C 
ATOM     38  C   UNL     1       6.258   0.684   2.564  1.00  0.00     0.029 A 
ATOM     39  N   UNL     1       5.665   1.697   4.466  1.00  0.00    -0.354 N 
ATOM     40  C   UNL     1       4.434   5.814   4.536  1.00  0.00     0.074 A 
ATOM     41  C   UNL     1       4.224   6.313   3.193  1.00  0.00     0.031 C 
ATOM     42  C   UNL     1       6.323  -0.230   3.544  1.00  0.00     0.029 A 
ATOM     43  C   UNL     1       5.977   0.406   4.811  1.00  0.00     0.049 A 
ATOM     44  H   UNL     1       5.376   2.374   5.119  1.00  0.00     0.167 HD
ATOM     45  C   UNL     1       4.194   6.524   5.664  1.00  0.00     0.037 A 
ATOM     46  C   UNL     1       6.008  -0.195   6.015  1.00  0.00     0.037 A 
ATOM     47  C   UNL     1       4.333   6.010   7.000  1.00  0.00     0.049 A 
ATOM     48  C   UNL     1       5.708   0.603   7.250  1.00  0.00     0.074 A 
ATOM     49  C   UNL     1       4.141   6.664   8.205  1.00  0.00     0.029 A 
ATOM     50  N   UNL     1       4.665   4.699   7.306  1.00  0.00    -0.354 N 
ATOM     51  N   UNL     1       5.365   1.863   7.355  1.00  0.00    -0.248 NA
ATOM     52  C   UNL     1       5.831  -0.097   8.537  1.00  0.00     0.031 C 
ATOM     53  C   UNL     1       4.361   5.748   9.242  1.00  0.00     0.029 A 
ATOM     54  C   UNL     1       4.673   4.522   8.679  1.00  0.00     0.049 A 
ATOM     55  H   UNL     1       4.867   3.998   6.644  1.00  0.00     0.167 HD
ATOM     56  C   UNL     1       5.247   2.112   8.714  1.00  0.00     0.074 A 
ATOM     57  C   UNL     1       5.523   0.865   9.397  1.00  0.00     0.031 C 
ATOM     58  C   UNL     1       4.955   3.276   9.340  1.00  0.00     0.037 A 
BRANCH  45  59
ATOM     59  C   UNL     1       3.791   7.957   5.502  1.00  0.00     0.064 A 
ATOM     60  C   UNL     1       2.478   8.323   5.182  1.00  0.00     0.173 A 
ATOM     61  C   UNL     1       4.732   8.977   5.710  1.00  0.00     0.173 A 
ATOM     62  F   UNL     1       1.550   7.381   4.960  1.00  0.00    -0.203 F 
ATOM     63  C   UNL     1       2.122   9.664   5.063  1.00  0.00     0.198 A 
ATOM     64  C   UNL     1       4.369  10.316   5.607  1.00  0.00     0.198 A 
ATOM     65  F   UNL     1       6.001   8.673   6.021  1.00  0.00    -0.203 F 
ATOM     66  F   UNL     1       0.867   9.996   4.729  1.00  0.00    -0.200 F 
ATOM     67  C   UNL     1       3.065  10.659   5.280  1.00  0.00     0.200 A 
ATOM     68  F   UNL     1       5.280  11.275   5.822  1.00  0.00    -0.200 F 
ATOM     69  F   UNL     1       2.719  11.949   5.169  1.00  0.00    -0.200 F 
ENDBRANCH  45  59
BRANCH  46  70
ATOM     70  C   UNL     1       6.367  -1.631   6.109  1.00  0.00     0.064 A 
ATOM     71  C   UNL     1       5.389  -2.595   6.383  1.00  0.00     0.173 A 
ATOM     72  C   UNL     1       7.684  -2.066   5.912  1.00  0.00     0.173 A 
ATOM     73  F   UNL     1       4.121  -2.219   6.603  1.00  0.00    -0.203 F 
ATOM     74  C   UNL     1       5.717  -3.947   6.458  1.00  0.00     0.198 A 
ATOM     75  C   UNL     1       8.007  -3.420   5.967  1.00  0.00     0.198 A 
ATOM     76  F   UNL     1       8.653  -1.177   5.650  1.00  0.00    -0.203 F 
ATOM     77  F   UNL     1       4.769  -4.849   6.746  1.00  0.00    -0.200 F 
ATOM     78  C   UNL     1       7.024  -4.358   6.242  1.00  0.00     0.200 A 
ATOM     79  F   UNL     1       9.269  -3.814   5.751  1.00  0.00    -0.200 F 
ATOM     80  F   UNL     1       7.338  -5.660   6.306  1.00  0.00    -0.200 F 
ENDBRANCH  46  70
BRANCH  58  81
ATOM     81  C   UNL     1       4.928   3.255  10.836  1.00  0.00     0.064 A 
ATOM     82  C   UNL     1       6.115   3.316  11.578  1.00  0.00     0.173 A 
ATOM     83  C   UNL     1       3.712   3.204  11.530  1.00  0.00     0.173 A 
ATOM     84  F   UNL     1       7.302   3.351  10.953  1.00  0.00    -0.203 F 
ATOM     85  C   UNL     1       6.086   3.314  12.970  1.00  0.00     0.198 A 
ATOM     86  C   UNL     1       3.686   3.214  12.921  1.00  0.00     0.198 A 
ATOM     87  F   UNL     1       2.553   3.143  10.858  1.00  0.00    -0.203 F 
ATOM     88  F   UNL     1       7.233   3.346  13.663  1.00  0.00    -0.200 F 
ATOM     89  C   UNL     1       4.872   3.267  13.640  1.00  0.00     0.200 A 
ATOM     90  F   UNL     1       2.514   3.168  13.569  1.00  0.00    -0.200 F 
ATOM     91  F   UNL     1       4.846   3.263  14.979  1.00  0.00    -0.200 F 
ENDBRANCH  58  81
ENDBRANCH  32  33
ENDBRANCH  25  27
ENDBRANCH  24  25
ENDBRANCH   1  24
TORSDOF 13
