REMARK SMILES COc1cc(C(=O)OCCOC(=O)c2ccc(-c3c4nc(c(-c5c(F)c(F)c(F)c(F)c5F)c5ccc([nH]5)c(-c5c(F)c(F)c(F)c(F)c5F)c5nc(c(-c6c(F)c(F)c(F)c(F)c6F)c6ccc3[nH]6)C=C5)C=C4)cc2)ccc1OCC(=O)N[C@H]1CCCC[C@H]1C
REMARK SMILES IDX 9 1 8 2 6 3 7 4 5 5 3 6 4 7 79 8 78 9 77 10 2 11 1 12 80 13
REMARK SMILES IDX 81 14 82 15 83 16 84 17 85 19 86 20 90 21 87 22 89 23 91 24
REMARK SMILES IDX 88 25 10 26 11 27 12 28 13 29 14 30 15 31 76 32 16 33 75 34
REMARK SMILES IDX 17 35 18 36 19 37 69 38 20 39 74 40 68 41 70 42 21 43 73 44
REMARK SMILES IDX 67 45 66 46 22 48 54 49 34 50 53 51 35 52 38 53 52 54 71 55
REMARK SMILES IDX 36 56 37 57 51 59 72 60 39 61 23 62 24 63 32 64 25 65 26 66
REMARK SMILES IDX 30 67 33 68 27 69 28 70 31 71 29 72 55 73 56 74 64 75 57 76
REMARK SMILES IDX 58 77 62 78 65 79 59 80 60 81 63 82 61 83 40 84 41 85 49 86
REMARK SMILES IDX 42 87 43 88 47 89 50 90 44 91 45 92 48 93 46 94
REMARK H PARENT 84 18 70 47 38 58
REMARK Flexibility Score: inf
ROOT
ATOM      1  C   UNL     1      -0.806   1.517   7.647  1.00  0.00     0.275 C 
ENDROOT
BRANCH   1   2
ATOM      2  O   UNL     1       0.120   1.198   6.587  1.00  0.00    -0.458 OA
BRANCH   2   3
ATOM      3  C   UNL     1      -0.337   0.396   5.589  1.00  0.00     0.338 C 
ATOM      4  O   UNL     1      -1.408  -0.167   5.532  1.00  0.00    -0.246 OA
BRANCH   3   5
ATOM      5  C   UNL     1       0.634   0.430   4.464  1.00  0.00     0.064 A 
ATOM      6  C   UNL     1       1.029   0.633   2.068  1.00  0.00     0.161 A 
ATOM      7  C   UNL     1       0.150   0.478   3.145  1.00  0.00     0.066 A 
ATOM      8  C   UNL     1       2.406   0.601   2.307  1.00  0.00     0.161 A 
ATOM      9  C   UNL     1       2.883   0.554   3.626  1.00  0.00     0.051 A 
ATOM     10  C   UNL     1       2.006   0.475   4.705  1.00  0.00     0.020 A 
BRANCH   6  11
ATOM     11  O   UNL     1       0.622   0.944   0.803  1.00  0.00    -0.493 OA
ATOM     12  C   UNL     1      -0.634   0.443   0.366  1.00  0.00     0.278 C 
ENDBRANCH   6  11
BRANCH   8  13
ATOM     13  O   UNL     1       3.401   0.601   1.369  1.00  0.00    -0.480 OA
BRANCH  13  14
ATOM     14  C   UNL     1       3.147   0.109   0.063  1.00  0.00     0.329 C 
BRANCH  14  15
ATOM     15  C   UNL     1       2.284  -1.127  -0.269  1.00  0.00     0.258 C 
ATOM     16  O   UNL     1       1.421  -1.076  -1.156  1.00  0.00    -0.271 OA
ATOM     17  N   UNL     1       2.427  -2.332   0.339  1.00  0.00    -0.350 N 
ATOM     18  H   UNL     1       1.595  -2.856   0.376  1.00  0.00     0.163 HD
BRANCH  17  19
ATOM     19  C   UNL     1       3.572  -3.006   0.953  1.00  0.00     0.085 C 
ATOM     20  C   UNL     1       4.279  -2.247   2.074  1.00  0.00     0.025 C 
ATOM     21  C   UNL     1       3.125  -4.415   1.439  1.00  0.00     0.008 C 
ATOM     22  C   UNL     1       5.442  -3.033   2.670  1.00  0.00     0.002 C 
ATOM     23  C   UNL     1       4.312  -5.185   2.036  1.00  0.00     0.005 C 
ATOM     24  C   UNL     1       1.936  -4.371   2.421  1.00  0.00     0.010 C 
ATOM     25  C   UNL     1       5.012  -4.410   3.149  1.00  0.00     0.000 C 
ENDBRANCH  17  19
ENDBRANCH  14  15
ENDBRANCH  13  14
ENDBRANCH   8  13
ENDBRANCH   3   5
ENDBRANCH   2   3
ENDBRANCH   1   2
BRANCH   1  26
ATOM     26  C   UNL     1      -1.274   2.965   7.497  1.00  0.00     0.275 C 
BRANCH  26  27
ATOM     27  O   UNL     1      -2.100   3.054   6.323  1.00  0.00    -0.458 OA
BRANCH  27  28
ATOM     28  C   UNL     1      -1.786   4.018   5.428  1.00  0.00     0.338 C 
ATOM     29  O   UNL     1      -0.961   4.908   5.548  1.00  0.00    -0.246 OA
BRANCH  28  30
ATOM     30  C   UNL     1      -2.588   3.811   4.206  1.00  0.00     0.060 A 
ATOM     31  C   UNL     1      -2.675   2.537   3.657  1.00  0.00     0.016 A 
ATOM     32  C   UNL     1      -3.171   4.886   3.541  1.00  0.00     0.016 A 
ATOM     33  C   UNL     1      -3.232   2.351   2.395  1.00  0.00     0.010 A 
ATOM     34  C   UNL     1      -3.834   4.673   2.321  1.00  0.00     0.010 A 
ATOM     35  C   UNL     1      -3.828   3.410   1.700  1.00  0.00    -0.014 A 
BRANCH  35  36
ATOM     36  C   UNL     1      -4.388   3.208   0.324  1.00  0.00     0.031 A 
ATOM     37  C   UNL     1      -3.989   4.130  -0.806  1.00  0.00     0.074 A 
ATOM     38  C   UNL     1      -5.240   2.194   0.054  1.00  0.00     0.049 A 
ATOM     39  N   UNL     1      -4.534   4.279  -1.989  1.00  0.00    -0.248 NA
ATOM     40  C   UNL     1      -2.840   5.017  -0.567  1.00  0.00     0.031 C 
ATOM     41  C   UNL     1      -5.692   1.179   1.007  1.00  0.00     0.029 A 
ATOM     42  N   UNL     1      -5.879   1.846  -1.115  1.00  0.00    -0.354 N 
ATOM     43  C   UNL     1      -3.854   5.332  -2.593  1.00  0.00     0.074 A 
ATOM     44  C   UNL     1      -2.848   5.776  -1.653  1.00  0.00     0.031 C 
ATOM     45  C   UNL     1      -6.485   0.300   0.380  1.00  0.00     0.029 A 
ATOM     46  C   UNL     1      -6.701   0.752  -0.989  1.00  0.00     0.049 A 
ATOM     47  H   UNL     1      -5.758   2.335  -1.961  1.00  0.00     0.167 HD
ATOM     48  C   UNL     1      -4.055   5.880  -3.817  1.00  0.00     0.037 A 
ATOM     49  C   UNL     1      -7.583   0.201  -1.846  1.00  0.00     0.037 A 
ATOM     50  C   UNL     1      -4.984   5.375  -4.795  1.00  0.00     0.049 A 
ATOM     51  C   UNL     1      -7.790   0.825  -3.197  1.00  0.00     0.074 A 
ATOM     52  C   UNL     1      -5.225   5.840  -6.077  1.00  0.00     0.029 A 
ATOM     53  N   UNL     1      -5.805   4.273  -4.611  1.00  0.00    -0.354 N 
ATOM     54  N   UNL     1      -7.199   1.868  -3.725  1.00  0.00    -0.248 NA
ATOM     55  C   UNL     1      -8.807   0.209  -4.061  1.00  0.00     0.031 C 
ATOM     56  C   UNL     1      -6.216   5.041  -6.657  1.00  0.00     0.029 A 
ATOM     57  C   UNL     1      -6.562   4.052  -5.751  1.00  0.00     0.049 A 
ATOM     58  H   UNL     1      -5.844   3.728  -3.792  1.00  0.00     0.167 HD
ATOM     59  C   UNL     1      -7.765   2.029  -4.981  1.00  0.00     0.074 A 
ATOM     60  C   UNL     1      -8.729   0.963  -5.148  1.00  0.00     0.031 C 
ATOM     61  C   UNL     1      -7.514   2.984  -5.909  1.00  0.00     0.037 A 
BRANCH  48  62
ATOM     62  C   UNL     1      -3.284   7.120  -4.167  1.00  0.00     0.064 A 
ATOM     63  C   UNL     1      -1.918   7.092  -4.478  1.00  0.00     0.173 A 
ATOM     64  C   UNL     1      -3.951   8.354  -4.253  1.00  0.00     0.173 A 
ATOM     65  F   UNL     1      -1.233   5.942  -4.404  1.00  0.00    -0.203 F 
ATOM     66  C   UNL     1      -1.243   8.257  -4.840  1.00  0.00     0.198 A 
ATOM     67  C   UNL     1      -3.280   9.509  -4.643  1.00  0.00     0.198 A 
ATOM     68  F   UNL     1      -5.262   8.434  -3.977  1.00  0.00    -0.203 F 
ATOM     69  F   UNL     1       0.072   8.214  -5.097  1.00  0.00    -0.200 F 
ATOM     70  C   UNL     1      -1.925   9.461  -4.931  1.00  0.00     0.200 A 
ATOM     71  F   UNL     1      -3.946  10.668  -4.745  1.00  0.00    -0.200 F 
ATOM     72  F   UNL     1      -1.276  10.576  -5.293  1.00  0.00    -0.200 F 
ENDBRANCH  48  62
BRANCH  49  73
ATOM     73  C   UNL     1      -8.391  -0.973  -1.421  1.00  0.00     0.064 A 
ATOM     74  C   UNL     1      -8.206  -2.231  -2.010  1.00  0.00     0.173 A 
ATOM     75  C   UNL     1      -9.365  -0.861  -0.416  1.00  0.00     0.173 A 
ATOM     76  F   UNL     1      -7.309  -2.384  -2.996  1.00  0.00    -0.203 F 
ATOM     77  C   UNL     1      -8.969  -3.329  -1.616  1.00  0.00     0.198 A 
ATOM     78  C   UNL     1     -10.102  -1.965   0.001  1.00  0.00     0.198 A 
ATOM     79  F   UNL     1      -9.584   0.322   0.178  1.00  0.00    -0.203 F 
ATOM     80  F   UNL     1      -8.803  -4.511  -2.225  1.00  0.00    -0.200 F 
ATOM     81  C   UNL     1      -9.909  -3.197  -0.604  1.00  0.00     0.200 A 
ATOM     82  F   UNL     1     -10.996  -1.836   0.990  1.00  0.00    -0.200 F 
ATOM     83  F   UNL     1     -10.634  -4.256  -0.218  1.00  0.00    -0.200 F 
ENDBRANCH  49  73
BRANCH  61  84
ATOM     84  C   UNL     1      -8.271   2.901  -7.200  1.00  0.00     0.064 A 
ATOM     85  C   UNL     1      -9.630   3.240  -7.276  1.00  0.00     0.173 A 
ATOM     86  C   UNL     1      -7.624   2.502  -8.379  1.00  0.00     0.173 A 
ATOM     87  F   UNL     1     -10.296   3.609  -6.172  1.00  0.00    -0.203 F 
ATOM     88  C   UNL     1     -10.319   3.162  -8.483  1.00  0.00     0.198 A 
ATOM     89  C   UNL     1      -8.311   2.450  -9.589  1.00  0.00     0.198 A 
ATOM     90  F   UNL     1      -6.325   2.171  -8.359  1.00  0.00    -0.203 F 
ATOM     91  F   UNL     1     -11.628   3.449  -8.525  1.00  0.00    -0.200 F 
ATOM     92  C   UNL     1      -9.658   2.774  -9.639  1.00  0.00     0.200 A 
ATOM     93  F   UNL     1      -7.669   2.083 -10.707  1.00  0.00    -0.200 F 
ATOM     94  F   UNL     1     -10.323   2.702 -10.800  1.00  0.00    -0.200 F 
ENDBRANCH  61  84
ENDBRANCH  35  36
ENDBRANCH  28  30
ENDBRANCH  27  28
ENDBRANCH  26  27
ENDBRANCH   1  26
TORSDOF 16
