REMARK SMILES O=C(OCCOC(=O)c1ccc([S@@](=O)[C@H]2CCOC3(CCCC3)C2)cc1)c1ccc(-c2c3nc(c(-c4c(F)c(F)c(F)c(F)c4F)c4ccc([nH]4)c(-c4c(F)c(F)c(F)c(F)c4F)c4nc(c(-c5c(F)c(F)c(F)c(F)c5F)c5ccc2[nH]5)C=C4)C=C3)cc1
REMARK SMILES IDX 4 1 3 2 2 3 1 4 27 5 28 6 89 7 29 8 88 9 30 10 31 11 32 12
REMARK SMILES IDX 82 13 33 14 87 15 81 16 83 17 34 18 86 19 80 20 79 21 35 23
REMARK SMILES IDX 67 24 47 25 66 26 48 27 51 28 65 29 84 30 49 31 50 32 64 34
REMARK SMILES IDX 85 35 52 36 36 37 37 38 45 39 38 40 39 41 43 42 46 43 40 44
REMARK SMILES IDX 41 45 44 46 42 47 68 48 69 49 77 50 70 51 71 52 75 53 78 54
REMARK SMILES IDX 72 55 73 56 76 57 74 58 53 59 54 60 62 61 55 62 56 63 60 64
REMARK SMILES IDX 63 65 57 66 58 67 61 68 59 69 5 70 6 71 7 72 8 73 9 74 10 75
REMARK SMILES IDX 26 76 11 77 25 78 12 79 13 80 14 81 15 82 16 83 24 84 17 85
REMARK SMILES IDX 19 86 18 87 20 88 23 89 21 90 22 91
REMARK H PARENT 83 22 51 33
REMARK Flexibility Score: inf
ROOT
ATOM      1  C   UNL     1       6.463  15.108  -0.682  1.00  0.00     0.275 C 
ENDROOT
BRANCH   1   2
ATOM      2  O   UNL     1       5.642  14.279  -1.527  1.00  0.00    -0.458 OA
BRANCH   2   3
ATOM      3  C   UNL     1       5.507  12.933  -1.570  1.00  0.00     0.338 C 
ATOM      4  O   UNL     1       4.896  12.422  -2.507  1.00  0.00    -0.246 OA
BRANCH   3   5
ATOM      5  C   UNL     1       5.955  12.023  -0.473  1.00  0.00     0.060 A 
ATOM      6  C   UNL     1       7.102  12.193   0.303  1.00  0.00     0.016 A 
ATOM      7  C   UNL     1       5.169  10.874  -0.252  1.00  0.00     0.016 A 
ATOM      8  C   UNL     1       7.428  11.280   1.308  1.00  0.00     0.010 A 
ATOM      9  C   UNL     1       5.492   9.953   0.749  1.00  0.00     0.010 A 
ATOM     10  C   UNL     1       6.637  10.149   1.526  1.00  0.00    -0.014 A 
BRANCH  10  11
ATOM     11  C   UNL     1       7.143   9.101   2.437  1.00  0.00     0.031 A 
ATOM     12  C   UNL     1       7.903   7.955   1.842  1.00  0.00     0.074 A 
ATOM     13  C   UNL     1       7.026   9.230   3.770  1.00  0.00     0.049 A 
ATOM     14  N   UNL     1       8.594   7.022   2.442  1.00  0.00    -0.248 NA
ATOM     15  C   UNL     1       7.917   7.871   0.372  1.00  0.00     0.031 C 
ATOM     16  C   UNL     1       6.375  10.345   4.449  1.00  0.00     0.029 A 
ATOM     17  N   UNL     1       7.470   8.432   4.793  1.00  0.00    -0.354 N 
ATOM     18  C   UNL     1       9.158   6.268   1.423  1.00  0.00     0.074 A 
ATOM     19  C   UNL     1       8.681   6.809   0.171  1.00  0.00     0.031 C 
ATOM     20  C   UNL     1       6.435  10.154   5.777  1.00  0.00     0.029 A 
ATOM     21  C   UNL     1       7.155   8.912   6.041  1.00  0.00     0.049 A 
ATOM     22  H   UNL     1       7.967   7.596   4.646  1.00  0.00     0.167 HD
ATOM     23  C   UNL     1      10.023   5.233   1.526  1.00  0.00     0.037 A 
ATOM     24  C   UNL     1       7.442   8.412   7.258  1.00  0.00     0.037 A 
ATOM     25  C   UNL     1      10.463   4.680   2.777  1.00  0.00     0.049 A 
ATOM     26  C   UNL     1       8.316   7.190   7.345  1.00  0.00     0.074 A 
ATOM     27  C   UNL     1      11.311   3.613   3.002  1.00  0.00     0.029 A 
ATOM     28  N   UNL     1      10.065   5.150   4.021  1.00  0.00    -0.354 N 
ATOM     29  N   UNL     1       8.888   6.514   6.377  1.00  0.00    -0.248 NA
ATOM     30  C   UNL     1       8.612   6.681   8.690  1.00  0.00     0.031 C 
ATOM     31  C   UNL     1      11.389   3.406   4.384  1.00  0.00     0.029 A 
ATOM     32  C   UNL     1      10.630   4.377   5.021  1.00  0.00     0.049 A 
ATOM     33  H   UNL     1       9.469   5.919   4.171  1.00  0.00     0.167 HD
ATOM     34  C   UNL     1       9.649   5.531   6.994  1.00  0.00     0.074 A 
ATOM     35  C   UNL     1       9.464   5.701   8.422  1.00  0.00     0.031 C 
ATOM     36  C   UNL     1      10.437   4.581   6.434  1.00  0.00     0.037 A 
BRANCH  23  37
ATOM     37  C   UNL     1      10.511   4.632   0.243  1.00  0.00     0.064 A 
ATOM     38  C   UNL     1      11.415   5.312  -0.588  1.00  0.00     0.173 A 
ATOM     39  C   UNL     1      10.042   3.380  -0.179  1.00  0.00     0.173 A 
ATOM     40  F   UNL     1      11.873   6.524  -0.239  1.00  0.00    -0.203 F 
ATOM     41  C   UNL     1      11.806   4.774  -1.812  1.00  0.00     0.198 A 
ATOM     42  C   UNL     1      10.454   2.834  -1.392  1.00  0.00     0.198 A 
ATOM     43  F   UNL     1       9.173   2.694   0.578  1.00  0.00    -0.203 F 
ATOM     44  F   UNL     1      12.624   5.466  -2.616  1.00  0.00    -0.200 F 
ATOM     45  C   UNL     1      11.327   3.535  -2.211  1.00  0.00     0.200 A 
ATOM     46  F   UNL     1       9.993   1.636  -1.776  1.00  0.00    -0.200 F 
ATOM     47  F   UNL     1      11.695   3.022  -3.393  1.00  0.00    -0.200 F 
ENDBRANCH  23  37
BRANCH  24  48
ATOM     48  C   UNL     1       6.937   9.087   8.483  1.00  0.00     0.064 A 
ATOM     49  C   UNL     1       7.806   9.733   9.373  1.00  0.00     0.173 A 
ATOM     50  C   UNL     1       5.570   9.082   8.798  1.00  0.00     0.173 A 
ATOM     51  F   UNL     1       9.124   9.753   9.124  1.00  0.00    -0.203 F 
ATOM     52  C   UNL     1       7.332  10.327  10.541  1.00  0.00     0.198 A 
ATOM     53  C   UNL     1       5.093   9.697   9.954  1.00  0.00     0.198 A 
ATOM     54  F   UNL     1       4.694   8.485   7.976  1.00  0.00    -0.203 F 
ATOM     55  F   UNL     1       8.191  10.901  11.395  1.00  0.00    -0.200 F 
ATOM     56  C   UNL     1       5.976  10.312  10.830  1.00  0.00     0.200 A 
ATOM     57  F   UNL     1       3.780   9.690  10.221  1.00  0.00    -0.200 F 
ATOM     58  F   UNL     1       5.520  10.882  11.953  1.00  0.00    -0.200 F 
ENDBRANCH  24  48
BRANCH  36  59
ATOM     59  C   UNL     1      11.192   3.683   7.369  1.00  0.00     0.064 A 
ATOM     60  C   UNL     1      10.548   2.683   8.111  1.00  0.00     0.173 A 
ATOM     61  C   UNL     1      12.585   3.802   7.489  1.00  0.00     0.173 A 
ATOM     62  F   UNL     1       9.216   2.543   8.041  1.00  0.00    -0.203 F 
ATOM     63  C   UNL     1      11.269   1.850   8.961  1.00  0.00     0.198 A 
ATOM     64  C   UNL     1      13.306   2.947   8.317  1.00  0.00     0.198 A 
ATOM     65  F   UNL     1      13.247   4.739   6.795  1.00  0.00    -0.203 F 
ATOM     66  F   UNL     1      10.628   0.933   9.698  1.00  0.00    -0.200 F 
ATOM     67  C   UNL     1      12.647   1.978   9.057  1.00  0.00     0.200 A 
ATOM     68  F   UNL     1      14.639   3.063   8.399  1.00  0.00    -0.200 F 
ATOM     69  F   UNL     1      13.340   1.170   9.871  1.00  0.00    -0.200 F 
ENDBRANCH  36  59
ENDBRANCH  10  11
ENDBRANCH   3   5
ENDBRANCH   2   3
ENDBRANCH   1   2
BRANCH   1  70
ATOM     70  C   UNL     1       5.838  15.491   0.662  1.00  0.00     0.275 C 
BRANCH  70  71
ATOM     71  O   UNL     1       5.195  14.395   1.331  1.00  0.00    -0.458 OA
BRANCH  71  72
ATOM     72  C   UNL     1       3.863  14.290   1.083  1.00  0.00     0.338 C 
ATOM     73  O   UNL     1       3.193  15.044   0.396  1.00  0.00    -0.246 OA
BRANCH  72  74
ATOM     74  C   UNL     1       3.321  13.046   1.676  1.00  0.00     0.060 A 
ATOM     75  C   UNL     1       2.356  12.336   0.953  1.00  0.00     0.017 A 
ATOM     76  C   UNL     1       3.710  12.593   2.938  1.00  0.00     0.017 A 
ATOM     77  C   UNL     1       1.777  11.181   1.493  1.00  0.00     0.018 A 
ATOM     78  C   UNL     1       3.125  11.435   3.474  1.00  0.00     0.018 A 
ATOM     79  C   UNL     1       2.157  10.717   2.757  1.00  0.00     0.039 A 
BRANCH  79  80
ATOM     80  S   UNL     1       1.210   9.455   3.626  1.00  0.00     0.056 S 
ATOM     81  O   UNL     1      -0.222   9.776   3.313  1.00  0.00    -0.254 OA
BRANCH  80  82
ATOM     82  C   UNL     1       1.577   7.878   2.816  1.00  0.00     0.089 C 
ATOM     83  C   UNL     1       1.405   7.837   1.307  1.00  0.00     0.046 C 
ATOM     84  C   UNL     1       2.915   7.257   3.209  1.00  0.00     0.053 C 
ATOM     85  C   UNL     1       1.511   6.390   0.841  1.00  0.00     0.162 C 
ATOM     86  C   UNL     1       2.970   5.800   2.697  1.00  0.00     0.069 C 
ATOM     87  O   UNL     1       2.725   5.782   1.280  1.00  0.00    -0.375 OA
ATOM     88  C   UNL     1       4.366   5.164   2.906  1.00  0.00     0.035 C 
ATOM     89  C   UNL     1       2.000   4.864   3.462  1.00  0.00     0.035 C 
ATOM     90  C   UNL     1       4.168   4.001   3.874  1.00  0.00     0.003 C 
ATOM     91  C   UNL     1       2.747   3.547   3.612  1.00  0.00     0.003 C 
ENDBRANCH  80  82
ENDBRANCH  79  80
ENDBRANCH  72  74
ENDBRANCH  71  72
ENDBRANCH  70  71
ENDBRANCH   1  70
TORSDOF 13
