REMARK SMILES CC[NH2+][C@@]1(C(=O)OCCOC(=O)c2ccc(-c3c4nc(c(-c5c(F)c(F)c(F)c(F)c5F)c5ccc([nH]5)c(-c5c(F)c(F)c(F)c(F)c5F)c5nc(c(-c6c(F)c(F)c(F)c(F)c6F)c6ccc3[nH]6)C=C5)C=C4)cc2)CCC[C@H]1CCSc1cnn(C)c1
REMARK SMILES IDX 8 1 7 2 5 3 6 4 4 5 76 6 79 7 77 8 78 9 3 10 2 13 1 14 80 15
REMARK SMILES IDX 81 16 82 17 83 18 84 19 88 20 85 21 86 22 87 23 9 24 10 25
REMARK SMILES IDX 11 26 12 27 13 28 14 29 75 30 15 31 74 32 16 33 17 34 18 35
REMARK SMILES IDX 68 36 19 37 73 38 67 39 69 40 20 41 72 42 66 43 65 44 21 46
REMARK SMILES IDX 53 47 33 48 52 49 34 50 37 51 51 52 70 53 35 54 36 55 50 57
REMARK SMILES IDX 71 58 38 59 22 60 23 61 31 62 24 63 25 64 29 65 32 66 26 67
REMARK SMILES IDX 27 68 30 69 28 70 54 71 55 72 63 73 56 74 57 75 61 76 64 77
REMARK SMILES IDX 58 78 59 79 62 80 60 81 39 82 40 83 48 84 41 85 42 86 46 87
REMARK SMILES IDX 49 88 43 89 44 90 47 91 45 92
REMARK H PARENT 3 11 3 12 69 45 37 56
REMARK Flexibility Score: inf
ROOT
ATOM      1  C   UNL     1      -3.084  -1.597  -3.564  1.00  0.00     0.274 C 
ENDROOT
BRANCH   1   2
ATOM      2  O   UNL     1      -1.746  -2.158  -3.435  1.00  0.00    -0.457 OA
BRANCH   2   3
ATOM      3  C   UNL     1      -0.757  -1.460  -4.078  1.00  0.00     0.368 C 
ATOM      4  O   UNL     1      -0.998  -0.484  -4.786  1.00  0.00    -0.245 OA
BRANCH   3   5
ATOM      5  C   UNL     1       0.732  -1.906  -3.700  1.00  0.00     0.197 C 
ATOM      6  C   UNL     1       1.682  -1.377  -4.804  1.00  0.00     0.081 C 
ATOM      7  C   UNL     1       1.031  -3.461  -3.793  1.00  0.00     0.063 C 
ATOM      8  C   UNL     1       1.528  -2.358  -5.954  1.00  0.00     0.008 C 
ATOM      9  C   UNL     1       1.171  -3.695  -5.319  1.00  0.00     0.011 C 
BRANCH   5  10
ATOM     10  N   UNL     1       1.085  -1.323  -2.366  1.00  0.00    -0.332 N 
ATOM     11  H   UNL     1       0.478  -1.740  -1.660  1.00  0.00     0.347 HD
ATOM     12  H   UNL     1       2.069  -1.530  -2.198  1.00  0.00     0.347 HD
BRANCH  10  13
ATOM     13  C   UNL     1       0.932   0.144  -2.309  1.00  0.00     0.257 C 
ATOM     14  C   UNL     1       1.624   0.711  -1.076  1.00  0.00     0.071 C 
ENDBRANCH  10  13
ENDBRANCH   5  10
BRANCH   7  15
ATOM     15  C   UNL     1       2.344  -3.985  -3.099  1.00  0.00     0.022 C 
BRANCH  15  16
ATOM     16  C   UNL     1       2.314  -4.351  -1.599  1.00  0.00     0.075 C 
BRANCH  16  17
ATOM     17  S   UNL     1       1.984  -6.134  -1.235  1.00  0.00    -0.123 SA
BRANCH  17  18
ATOM     18  C   UNL     1       0.354  -6.078  -0.656  1.00  0.00     0.045 A 
ATOM     19  C   UNL     1      -0.749  -6.841  -1.101  1.00  0.00     0.150 A 
ATOM     20  C   UNL     1      -0.199  -5.124   0.176  1.00  0.00     0.123 A 
ATOM     21  N   UNL     1      -1.897  -6.208  -0.810  1.00  0.00    -0.181 NA
ATOM     22  N   UNL     1      -1.423  -4.988  -0.462  1.00  0.00    -0.275 N 
ATOM     23  C   UNL     1      -1.504  -3.957  -1.470  1.00  0.00     0.173 C 
ENDBRANCH  17  18
ENDBRANCH  16  17
ENDBRANCH  15  16
ENDBRANCH   7  15
ENDBRANCH   3   5
ENDBRANCH   2   3
ENDBRANCH   1   2
BRANCH   1  24
ATOM     24  C   UNL     1      -4.149  -2.290  -2.669  1.00  0.00     0.275 C 
BRANCH  24  25
ATOM     25  O   UNL     1      -3.883  -2.317  -1.241  1.00  0.00    -0.458 OA
BRANCH  25  26
ATOM     26  C   UNL     1      -3.651  -1.160  -0.581  1.00  0.00     0.338 C 
ATOM     27  O   UNL     1      -3.902  -0.039  -0.993  1.00  0.00    -0.246 OA
BRANCH  26  28
ATOM     28  C   UNL     1      -2.761  -1.421   0.592  1.00  0.00     0.060 A 
ATOM     29  C   UNL     1      -1.394  -1.198   0.402  1.00  0.00     0.016 A 
ATOM     30  C   UNL     1      -3.199  -1.853   1.845  1.00  0.00     0.016 A 
ATOM     31  C   UNL     1      -0.480  -1.362   1.448  1.00  0.00     0.010 A 
ATOM     32  C   UNL     1      -2.286  -1.913   2.928  1.00  0.00     0.010 A 
ATOM     33  C   UNL     1      -0.923  -1.605   2.753  1.00  0.00    -0.014 A 
BRANCH  33  34
ATOM     34  C   UNL     1       0.012  -1.340   3.901  1.00  0.00     0.031 A 
ATOM     35  C   UNL     1       0.445  -2.408   4.867  1.00  0.00     0.074 A 
ATOM     36  C   UNL     1       0.506  -0.091   4.071  1.00  0.00     0.049 A 
ATOM     37  N   UNL     1       1.103  -2.285   5.997  1.00  0.00    -0.248 NA
ATOM     38  C   UNL     1       0.120  -3.793   4.509  1.00  0.00     0.031 C 
ATOM     39  C   UNL     1       0.258   1.044   3.179  1.00  0.00     0.029 A 
ATOM     40  N   UNL     1       1.322   0.439   5.047  1.00  0.00    -0.354 N 
ATOM     41  C   UNL     1       1.242  -3.570   6.506  1.00  0.00     0.074 A 
ATOM     42  C   UNL     1       0.612  -4.460   5.548  1.00  0.00     0.031 C 
ATOM     43  C   UNL     1       0.920   2.119   3.629  1.00  0.00     0.029 A 
ATOM     44  C   UNL     1       1.554   1.788   4.899  1.00  0.00     0.049 A 
ATOM     45  H   UNL     1       1.703  -0.096   5.780  1.00  0.00     0.167 HD
ATOM     46  C   UNL     1       1.824  -3.967   7.668  1.00  0.00     0.037 A 
ATOM     47  C   UNL     1       2.147   2.686   5.712  1.00  0.00     0.037 A 
ATOM     48  C   UNL     1       2.459  -3.087   8.623  1.00  0.00     0.049 A 
ATOM     49  C   UNL     1       2.692   2.240   7.040  1.00  0.00     0.074 A 
ATOM     50  C   UNL     1       3.024  -3.402   9.849  1.00  0.00     0.029 A 
ATOM     51  N   UNL     1       2.619  -1.719   8.459  1.00  0.00    -0.354 N 
ATOM     52  N   UNL     1       2.737   1.035   7.552  1.00  0.00    -0.248 NA
ATOM     53  C   UNL     1       3.250   3.283   7.913  1.00  0.00     0.031 C 
ATOM     54  C   UNL     1       3.483  -2.221  10.445  1.00  0.00     0.029 A 
ATOM     55  C   UNL     1       3.258  -1.176   9.567  1.00  0.00     0.049 A 
ATOM     56  H   UNL     1       2.324  -1.207   7.672  1.00  0.00     0.167 HD
ATOM     57  C   UNL     1       3.342   1.172   8.794  1.00  0.00     0.074 A 
ATOM     58  C   UNL     1       3.668   2.573   8.951  1.00  0.00     0.031 C 
ATOM     59  C   UNL     1       3.595   0.217   9.722  1.00  0.00     0.037 A 
BRANCH  46  60
ATOM     60  C   UNL     1       1.741  -5.429   8.016  1.00  0.00     0.064 A 
ATOM     61  C   UNL     1       2.498  -6.400   7.346  1.00  0.00     0.173 A 
ATOM     62  C   UNL     1       0.903  -5.858   9.059  1.00  0.00     0.173 A 
ATOM     63  F   UNL     1       3.314  -6.045   6.342  1.00  0.00    -0.203 F 
ATOM     64  C   UNL     1       2.390  -7.749   7.679  1.00  0.00     0.198 A 
ATOM     65  C   UNL     1       0.820  -7.203   9.410  1.00  0.00     0.198 A 
ATOM     66  F   UNL     1       0.172  -4.968   9.748  1.00  0.00    -0.203 F 
ATOM     67  F   UNL     1       3.084  -8.666   6.991  1.00  0.00    -0.200 F 
ATOM     68  C   UNL     1       1.553  -8.149   8.712  1.00  0.00     0.200 A 
ATOM     69  F   UNL     1       0.026  -7.582  10.421  1.00  0.00    -0.200 F 
ATOM     70  F   UNL     1       1.449  -9.447   9.029  1.00  0.00    -0.200 F 
ENDBRANCH  46  60
BRANCH  47  71
ATOM     71  C   UNL     1       2.189   4.126   5.328  1.00  0.00     0.064 A 
ATOM     72  C   UNL     1       3.405   4.778   5.081  1.00  0.00     0.173 A 
ATOM     73  C   UNL     1       1.013   4.887   5.232  1.00  0.00     0.173 A 
ATOM     74  F   UNL     1       4.560   4.105   5.192  1.00  0.00    -0.203 F 
ATOM     75  C   UNL     1       3.444   6.136   4.769  1.00  0.00     0.198 A 
ATOM     76  C   UNL     1       1.051   6.235   4.883  1.00  0.00     0.198 A 
ATOM     77  F   UNL     1      -0.178   4.317   5.466  1.00  0.00    -0.203 F 
ATOM     78  F   UNL     1       4.624   6.747   4.594  1.00  0.00    -0.200 F 
ATOM     79  C   UNL     1       2.267   6.861   4.662  1.00  0.00     0.200 A 
ATOM     80  F   UNL     1      -0.091   6.926   4.766  1.00  0.00    -0.200 F 
ATOM     81  F   UNL     1       2.305   8.165   4.358  1.00  0.00    -0.200 F 
ENDBRANCH  47  71
BRANCH  59  82
ATOM     82  C   UNL     1       4.304   0.645  10.976  1.00  0.00     0.064 A 
ATOM     83  C   UNL     1       3.672   1.426  11.956  1.00  0.00     0.173 A 
ATOM     84  C   UNL     1       5.632   0.254  11.210  1.00  0.00     0.173 A 
ATOM     85  F   UNL     1       2.411   1.847  11.774  1.00  0.00    -0.203 F 
ATOM     86  C   UNL     1       4.349   1.819  13.109  1.00  0.00     0.198 A 
ATOM     87  C   UNL     1       6.296   0.623  12.377  1.00  0.00     0.198 A 
ATOM     88  F   UNL     1       6.285  -0.492  10.306  1.00  0.00    -0.203 F 
ATOM     89  F   UNL     1       3.741   2.608  14.006  1.00  0.00    -0.200 F 
ATOM     90  C   UNL     1       5.657   1.412  13.322  1.00  0.00     0.200 A 
ATOM     91  F   UNL     1       7.558   0.221  12.584  1.00  0.00    -0.200 F 
ATOM     92  F   UNL     1       6.306   1.787  14.433  1.00  0.00    -0.200 F 
ENDBRANCH  59  82
ENDBRANCH  33  34
ENDBRANCH  26  28
ENDBRANCH  25  26
ENDBRANCH  24  25
ENDBRANCH   1  24
TORSDOF 17
