REMARK SMILES CN(C(=O)CC(=O)OCCOC(=O)c1ccc(-c2c3nc(c(-c4c(F)c(F)c(F)c(F)c4F)c4ccc([nH]4)c(-c4c(F)c(F)c(F)c(F)c4F)c4nc(c(-c5c(F)c(F)c(F)c(F)c5F)c5ccc2[nH]5)C=C4)C=C3)cc1)C1CCC(C)(C)CC1
REMARK SMILES IDX 9 1 8 2 6 3 7 4 5 5 3 6 4 7 2 8 1 9 77 10 78 11 84 12 79 13
REMARK SMILES IDX 83 14 80 15 81 16 82 17 10 18 11 19 12 20 13 21 14 22 15 23
REMARK SMILES IDX 76 24 16 25 75 26 17 27 18 28 19 29 69 30 20 31 74 32 68 33
REMARK SMILES IDX 70 34 21 35 73 36 67 37 66 38 22 40 54 41 34 42 53 43 35 44
REMARK SMILES IDX 38 45 52 46 71 47 36 48 37 49 51 51 72 52 39 53 23 54 24 55
REMARK SMILES IDX 32 56 25 57 26 58 30 59 33 60 27 61 28 62 31 63 29 64 55 65
REMARK SMILES IDX 56 66 64 67 57 68 58 69 62 70 65 71 59 72 60 73 63 74 61 75
REMARK SMILES IDX 40 76 41 77 49 78 42 79 43 80 47 81 50 82 44 83 45 84 48 85
REMARK SMILES IDX 46 86
REMARK H PARENT 70 39 38 50
REMARK Flexibility Score: inf
ROOT
ATOM      1  C   UNL     1       2.212  -3.969  -2.057  1.00  0.00     0.274 C 
ENDROOT
BRANCH   1   2
ATOM      2  O   UNL     1       1.361  -2.869  -2.437  1.00  0.00    -0.462 OA
BRANCH   2   3
ATOM      3  C   UNL     1       0.081  -2.907  -1.989  1.00  0.00     0.315 C 
ATOM      4  O   UNL     1      -0.388  -3.794  -1.283  1.00  0.00    -0.252 OA
BRANCH   3   5
ATOM      5  C   UNL     1      -0.758  -1.785  -2.515  1.00  0.00     0.222 C 
BRANCH   5   6
ATOM      6  C   UNL     1      -0.034  -0.486  -2.765  1.00  0.00     0.233 C 
ATOM      7  O   UNL     1       0.339  -0.231  -3.914  1.00  0.00    -0.274 OA
BRANCH   6   8
ATOM      8  N   UNL     1       0.151   0.415  -1.710  1.00  0.00    -0.342 N 
ATOM      9  C   UNL     1      -0.272   0.159  -0.342  1.00  0.00     0.147 C 
BRANCH   8  10
ATOM     10  C   UNL     1       0.747   1.735  -2.044  1.00  0.00     0.084 C 
ATOM     11  C   UNL     1      -0.318   2.719  -2.557  1.00  0.00     0.025 C 
ATOM     12  C   UNL     1       1.637   2.374  -0.963  1.00  0.00     0.025 C 
ATOM     13  C   UNL     1      -1.091   3.425  -1.444  1.00  0.00     0.008 C 
ATOM     14  C   UNL     1       0.892   3.151   0.126  1.00  0.00     0.008 C 
ATOM     15  C   UNL     1      -0.186   4.121  -0.404  1.00  0.00    -0.035 C 
ATOM     16  C   UNL     1      -1.057   4.585   0.780  1.00  0.00     0.011 C 
ATOM     17  C   UNL     1       0.476   5.367  -1.024  1.00  0.00     0.011 C 
ENDBRANCH   8  10
ENDBRANCH   6   8
ENDBRANCH   5   6
ENDBRANCH   3   5
ENDBRANCH   2   3
ENDBRANCH   1   2
BRANCH   1  18
ATOM     18  C   UNL     1       3.074  -3.588  -0.858  1.00  0.00     0.275 C 
BRANCH  18  19
ATOM     19  O   UNL     1       2.224  -3.346   0.277  1.00  0.00    -0.458 OA
BRANCH  19  20
ATOM     20  C   UNL     1       2.552  -2.287   1.043  1.00  0.00     0.338 C 
ATOM     21  O   UNL     1       3.519  -1.545   0.905  1.00  0.00    -0.246 OA
BRANCH  20  22
ATOM     22  C   UNL     1       1.569  -2.116   2.131  1.00  0.00     0.060 A 
ATOM     23  C   UNL     1       0.204  -2.334   1.922  1.00  0.00     0.016 A 
ATOM     24  C   UNL     1       2.014  -1.635   3.364  1.00  0.00     0.016 A 
ATOM     25  C   UNL     1      -0.718  -1.992   2.913  1.00  0.00     0.010 A 
ATOM     26  C   UNL     1       1.097  -1.385   4.387  1.00  0.00     0.010 A 
ATOM     27  C   UNL     1      -0.282  -1.533   4.165  1.00  0.00    -0.014 A 
BRANCH  27  28
ATOM     28  C   UNL     1      -1.250  -1.210   5.250  1.00  0.00     0.031 A 
ATOM     29  C   UNL     1      -1.298   0.172   5.846  1.00  0.00     0.074 A 
ATOM     30  C   UNL     1      -2.069  -2.166   5.731  1.00  0.00     0.049 A 
ATOM     31  N   UNL     1      -1.922   0.590   6.919  1.00  0.00    -0.248 NA
ATOM     32  C   UNL     1      -0.533   1.220   5.152  1.00  0.00     0.031 C 
ATOM     33  C   UNL     1      -2.148  -3.542   5.238  1.00  0.00     0.029 A 
ATOM     34  N   UNL     1      -2.988  -2.126   6.750  1.00  0.00    -0.354 N 
ATOM     35  C   UNL     1      -1.583   1.930   7.059  1.00  0.00     0.074 A 
ATOM     36  C   UNL     1      -0.702   2.259   5.959  1.00  0.00     0.031 C 
ATOM     37  C   UNL     1      -3.084  -4.205   5.933  1.00  0.00     0.029 A 
ATOM     38  C   UNL     1      -3.617  -3.327   6.969  1.00  0.00     0.049 A 
ATOM     39  H   UNL     1      -3.179  -1.314   7.273  1.00  0.00     0.167 HD
ATOM     40  C   UNL     1      -1.969   2.802   8.021  1.00  0.00     0.037 A 
ATOM     41  C   UNL     1      -4.494  -3.697   7.920  1.00  0.00     0.037 A 
ATOM     42  C   UNL     1      -2.886   2.494   9.087  1.00  0.00     0.049 A 
ATOM     43  C   UNL     1      -4.901  -2.713   8.977  1.00  0.00     0.074 A 
ATOM     44  C   UNL     1      -3.354   3.324  10.092  1.00  0.00     0.029 A 
ATOM     45  N   UNL     1      -3.490   1.260   9.276  1.00  0.00    -0.354 N 
ATOM     46  N   UNL     1      -4.532  -1.466   9.130  1.00  0.00    -0.248 NA
ATOM     47  C   UNL     1      -5.832  -3.197  10.007  1.00  0.00     0.031 C 
ATOM     48  C   UNL     1      -4.225   2.586  10.903  1.00  0.00     0.029 A 
ATOM     49  C   UNL     1      -4.322   1.306  10.384  1.00  0.00     0.049 A 
ATOM     50  H   UNL     1      -3.349   0.469   8.707  1.00  0.00     0.167 HD
ATOM     51  C   UNL     1      -5.182  -1.015  10.269  1.00  0.00     0.074 A 
ATOM     52  C   UNL     1      -5.988  -2.115  10.757  1.00  0.00     0.031 C 
ATOM     53  C   UNL     1      -5.112   0.202  10.860  1.00  0.00     0.037 A 
BRANCH  40  54
ATOM     54  C   UNL     1      -1.384   4.183   7.983  1.00  0.00     0.064 A 
ATOM     55  C   UNL     1      -1.828   5.146   7.067  1.00  0.00     0.173 A 
ATOM     56  C   UNL     1      -0.408   4.561   8.918  1.00  0.00     0.173 A 
ATOM     57  F   UNL     1      -2.749   4.827   6.146  1.00  0.00    -0.203 F 
ATOM     58  C   UNL     1      -1.306   6.437   7.081  1.00  0.00     0.198 A 
ATOM     59  C   UNL     1       0.096   5.858   8.942  1.00  0.00     0.198 A 
ATOM     60  F   UNL     1       0.045   3.675   9.818  1.00  0.00    -0.203 F 
ATOM     61  F   UNL     1      -1.723   7.336   6.178  1.00  0.00    -0.200 F 
ATOM     62  C   UNL     1      -0.351   6.794   8.022  1.00  0.00     0.200 A 
ATOM     63  F   UNL     1       1.012   6.203   9.857  1.00  0.00    -0.200 F 
ATOM     64  F   UNL     1       0.142   8.040   8.039  1.00  0.00    -0.200 F 
ENDBRANCH  40  54
BRANCH  41  65
ATOM     65  C   UNL     1      -5.024  -5.083   7.926  1.00  0.00     0.064 A 
ATOM     66  C   UNL     1      -6.346  -5.345   7.547  1.00  0.00     0.173 A 
ATOM     67  C   UNL     1      -4.215  -6.170   8.284  1.00  0.00     0.173 A 
ATOM     68  F   UNL     1      -7.162  -4.331   7.220  1.00  0.00    -0.203 F 
ATOM     69  C   UNL     1      -6.842  -6.646   7.529  1.00  0.00     0.198 A 
ATOM     70  C   UNL     1      -4.704  -7.473   8.243  1.00  0.00     0.198 A 
ATOM     71  F   UNL     1      -2.941  -5.967   8.654  1.00  0.00    -0.203 F 
ATOM     72  F   UNL     1      -8.119  -6.869   7.189  1.00  0.00    -0.200 F 
ATOM     73  C   UNL     1      -6.019  -7.710   7.869  1.00  0.00     0.200 A 
ATOM     74  F   UNL     1      -3.903  -8.498   8.561  1.00  0.00    -0.200 F 
ATOM     75  F   UNL     1      -6.493  -8.962   7.840  1.00  0.00    -0.200 F 
ENDBRANCH  41  65
BRANCH  53  76
ATOM     76  C   UNL     1      -5.938   0.406  12.092  1.00  0.00     0.064 A 
ATOM     77  C   UNL     1      -5.543  -0.123  13.329  1.00  0.00     0.173 A 
ATOM     78  C   UNL     1      -7.124   1.152  12.039  1.00  0.00     0.173 A 
ATOM     79  F   UNL     1      -4.425  -0.858  13.423  1.00  0.00    -0.203 F 
ATOM     80  C   UNL     1      -6.319   0.072  14.469  1.00  0.00     0.198 A 
ATOM     81  C   UNL     1      -7.888   1.360  13.184  1.00  0.00     0.198 A 
ATOM     82  F   UNL     1      -7.540   1.678  10.878  1.00  0.00    -0.203 F 
ATOM     83  F   UNL     1      -5.945  -0.474  15.634  1.00  0.00    -0.200 F 
ATOM     84  C   UNL     1      -7.488   0.816  14.396  1.00  0.00     0.200 A 
ATOM     85  F   UNL     1      -9.014   2.082  13.114  1.00  0.00    -0.200 F 
ATOM     86  F   UNL     1      -8.235   1.000  15.493  1.00  0.00    -0.200 F 
ENDBRANCH  53  76
ENDBRANCH  27  28
ENDBRANCH  20  22
ENDBRANCH  19  20
ENDBRANCH  18  19
ENDBRANCH   1  18
TORSDOF 14
