REMARK SMILES O=C(Nc1cccc(F)c1)N[C@@H]1C=C[C@@H](C(=O)OCCOC(=O)c2ccc(-c3c4nc(c(-c5c(F)c(F)c(F)c(F)c5F)c5ccc([nH]5)c(-c5c(F)c(F)c(F)c(F)c5F)c5nc(c(-c6c(F)c(F)c(F)c(F)c6F)c6ccc3[nH]6)C=C5)C=C4)cc2)C1
REMARK SMILES IDX 19 1 18 2 16 3 17 4 15 5 12 6 13 7 87 8 14 9 11 10 1 11 2 12
REMARK SMILES IDX 3 13 4 16 5 17 10 18 6 19 8 20 7 21 9 22 20 23 21 24 22 25
REMARK SMILES IDX 23 26 24 27 25 28 86 29 26 30 85 31 27 32 28 33 29 34 79 35
REMARK SMILES IDX 30 36 84 37 78 38 80 39 31 40 83 41 77 42 76 43 32 45 64 46
REMARK SMILES IDX 44 47 63 48 45 49 48 50 62 51 81 52 46 53 47 54 61 56 82 57
REMARK SMILES IDX 49 58 33 59 34 60 42 61 35 62 36 63 40 64 43 65 37 66 38 67
REMARK SMILES IDX 41 68 39 69 65 70 66 71 74 72 67 73 68 74 72 75 75 76 69 77
REMARK SMILES IDX 70 78 73 79 71 80 50 81 51 82 59 83 52 84 53 85 57 86 60 87
REMARK SMILES IDX 54 88 55 89 58 90 56 91
REMARK H PARENT 3 14 11 15 80 44 48 55
REMARK Flexibility Score: inf
ROOT
ATOM      1  C   UNL     1       5.701   5.895   2.079  1.00  0.00     0.274 C 
ENDROOT
BRANCH   1   2
ATOM      2  O   UNL     1       4.786   4.785   2.063  1.00  0.00    -0.462 OA
BRANCH   2   3
ATOM      3  C   UNL     1       4.133   4.499   3.219  1.00  0.00     0.312 C 
ATOM      4  O   UNL     1       4.348   5.050   4.293  1.00  0.00    -0.252 OA
BRANCH   3   5
ATOM      5  C   UNL     1       3.049   3.443   3.035  1.00  0.00     0.124 C 
ATOM      6  C   UNL     1       2.429   1.386   1.890  1.00  0.00     0.107 C 
ATOM      7  C   UNL     1       2.888   1.118   3.289  1.00  0.00    -0.006 C 
ATOM      8  C   UNL     1       2.928   2.811   1.642  1.00  0.00     0.048 C 
ATOM      9  C   UNL     1       3.256   2.243   3.914  1.00  0.00    -0.014 C 
BRANCH   6  10
ATOM     10  N   UNL     1       1.009   1.117   1.812  1.00  0.00    -0.332 N 
ATOM     11  O   UNL     1       0.081   3.220   1.907  1.00  0.00    -0.248 OA
ATOM     12  C   UNL     1      -0.031   2.000   1.853  1.00  0.00     0.319 C 
ATOM     13  N   UNL     1      -1.274   1.446   1.682  1.00  0.00    -0.308 N 
ATOM     14  H   UNL     1      -1.946   2.045   1.284  1.00  0.00     0.171 HD
ATOM     15  H   UNL     1       0.760   0.170   1.717  1.00  0.00     0.165 HD
BRANCH  13  16
ATOM     16  C   UNL     1      -1.732   0.154   1.988  1.00  0.00     0.045 A 
ATOM     17  C   UNL     1      -1.167  -0.614   3.014  1.00  0.00     0.026 A 
ATOM     18  C   UNL     1      -2.826  -0.345   1.281  1.00  0.00     0.065 A 
ATOM     19  C   UNL     1      -1.662  -1.889   3.301  1.00  0.00     0.005 A 
ATOM     20  C   UNL     1      -3.294  -1.627   1.558  1.00  0.00     0.125 A 
ATOM     21  C   UNL     1      -2.721  -2.403   2.559  1.00  0.00     0.039 A 
ATOM     22  F   UNL     1      -4.312  -2.124   0.843  1.00  0.00    -0.207 F 
ENDBRANCH  13  16
ENDBRANCH   6  10
ENDBRANCH   3   5
ENDBRANCH   2   3
ENDBRANCH   1   2
BRANCH   1  23
ATOM     23  C   UNL     1       5.214   6.980   1.115  1.00  0.00     0.275 C 
BRANCH  23  24
ATOM     24  O   UNL     1       3.969   7.551   1.565  1.00  0.00    -0.458 OA
BRANCH  24  25
ATOM     25  C   UNL     1       2.856   6.971   1.056  1.00  0.00     0.338 C 
ATOM     26  O   UNL     1       2.795   6.070   0.239  1.00  0.00    -0.246 OA
BRANCH  25  27
ATOM     27  C   UNL     1       1.671   7.526   1.730  1.00  0.00     0.060 A 
ATOM     28  C   UNL     1       0.887   6.665   2.499  1.00  0.00     0.016 A 
ATOM     29  C   UNL     1       1.293   8.858   1.552  1.00  0.00     0.016 A 
ATOM     30  C   UNL     1      -0.275   7.131   3.108  1.00  0.00     0.010 A 
ATOM     31  C   UNL     1       0.119   9.324   2.155  1.00  0.00     0.010 A 
ATOM     32  C   UNL     1      -0.673   8.461   2.932  1.00  0.00    -0.014 A 
BRANCH  32  33
ATOM     33  C   UNL     1      -1.949   8.924   3.525  1.00  0.00     0.031 A 
ATOM     34  C   UNL     1      -3.165   9.074   2.660  1.00  0.00     0.074 A 
ATOM     35  C   UNL     1      -2.025   9.166   4.846  1.00  0.00     0.049 A 
ATOM     36  N   UNL     1      -4.356   9.517   2.975  1.00  0.00    -0.248 NA
ATOM     37  C   UNL     1      -3.026   8.668   1.253  1.00  0.00     0.031 C 
ATOM     38  C   UNL     1      -0.926   8.998   5.795  1.00  0.00     0.029 A 
ATOM     39  N   UNL     1      -3.075   9.597   5.618  1.00  0.00    -0.354 N 
ATOM     40  C   UNL     1      -5.102   9.457   1.807  1.00  0.00     0.074 A 
ATOM     41  C   UNL     1      -4.229   8.948   0.770  1.00  0.00     0.031 C 
ATOM     42  C   UNL     1      -1.362   9.312   7.026  1.00  0.00     0.029 A 
ATOM     43  C   UNL     1      -2.756   9.743   6.944  1.00  0.00     0.049 A 
ATOM     44  H   UNL     1      -3.970   9.784   5.254  1.00  0.00     0.167 HD
ATOM     45  C   UNL     1      -6.401   9.791   1.622  1.00  0.00     0.037 A 
ATOM     46  C   UNL     1      -3.498  10.194   7.974  1.00  0.00     0.037 A 
ATOM     47  C   UNL     1      -7.272  10.279   2.660  1.00  0.00     0.049 A 
ATOM     48  C   UNL     1      -4.920  10.619   7.728  1.00  0.00     0.074 A 
ATOM     49  C   UNL     1      -8.604  10.642   2.567  1.00  0.00     0.029 A 
ATOM     50  N   UNL     1      -6.897  10.467   3.982  1.00  0.00    -0.354 N 
ATOM     51  N   UNL     1      -5.610  10.587   6.615  1.00  0.00    -0.248 NA
ATOM     52  C   UNL     1      -5.662  11.154   8.879  1.00  0.00     0.031 C 
ATOM     53  C   UNL     1      -9.026  11.083   3.825  1.00  0.00     0.029 A 
ATOM     54  C   UNL     1      -7.968  10.958   4.710  1.00  0.00     0.049 A 
ATOM     55  H   UNL     1      -6.002  10.279   4.348  1.00  0.00     0.167 HD
ATOM     56  C   UNL     1      -6.866  11.085   6.929  1.00  0.00     0.074 A 
ATOM     57  C   UNL     1      -6.851  11.398   8.343  1.00  0.00     0.031 C 
ATOM     58  C   UNL     1      -7.935  11.268   6.117  1.00  0.00     0.037 A 
BRANCH  45  59
ATOM     59  C   UNL     1      -6.963   9.661   0.239  1.00  0.00     0.064 A 
ATOM     60  C   UNL     1      -7.238  10.806  -0.523  1.00  0.00     0.173 A 
ATOM     61  C   UNL     1      -7.290   8.412  -0.306  1.00  0.00     0.173 A 
ATOM     62  F   UNL     1      -6.947  12.024  -0.043  1.00  0.00    -0.203 F 
ATOM     63  C   UNL     1      -7.830  10.705  -1.778  1.00  0.00     0.198 A 
ATOM     64  C   UNL     1      -7.863   8.313  -1.571  1.00  0.00     0.198 A 
ATOM     65  F   UNL     1      -7.035   7.288   0.381  1.00  0.00    -0.203 F 
ATOM     66  F   UNL     1      -8.108  11.813  -2.479  1.00  0.00    -0.200 F 
ATOM     67  C   UNL     1      -8.140   9.459  -2.302  1.00  0.00     0.200 A 
ATOM     68  F   UNL     1      -8.144   7.107  -2.085  1.00  0.00    -0.200 F 
ATOM     69  F   UNL     1      -8.704   9.362  -3.514  1.00  0.00    -0.200 F 
ENDBRANCH  45  59
BRANCH  46  70
ATOM     70  C   UNL     1      -2.899  10.273   9.329  1.00  0.00     0.064 A 
ATOM     71  C   UNL     1      -1.906  11.217   9.630  1.00  0.00     0.173 A 
ATOM     72  C   UNL     1      -3.291   9.389  10.342  1.00  0.00     0.173 A 
ATOM     73  F   UNL     1      -1.501  12.088   8.694  1.00  0.00    -0.203 F 
ATOM     74  C   UNL     1      -1.311  11.257  10.889  1.00  0.00     0.198 A 
ATOM     75  C   UNL     1      -2.711   9.445  11.608  1.00  0.00     0.198 A 
ATOM     76  F   UNL     1      -4.255   8.487  10.109  1.00  0.00    -0.203 F 
ATOM     77  F   UNL     1      -0.343  12.149  11.142  1.00  0.00    -0.200 F 
ATOM     78  C   UNL     1      -1.715  10.373  11.878  1.00  0.00     0.200 A 
ATOM     79  F   UNL     1      -3.122   8.607  12.569  1.00  0.00    -0.200 F 
ATOM     80  F   UNL     1      -1.150  10.420  13.092  1.00  0.00    -0.200 F 
ENDBRANCH  46  70
BRANCH  58  81
ATOM     81  C   UNL     1      -9.183  11.826   6.731  1.00  0.00     0.064 A 
ATOM     82  C   UNL     1     -10.305  11.008   6.934  1.00  0.00     0.173 A 
ATOM     83  C   UNL     1      -9.291  13.187   7.052  1.00  0.00     0.173 A 
ATOM     84  F   UNL     1     -10.252   9.702   6.635  1.00  0.00    -0.203 F 
ATOM     85  C   UNL     1     -11.495  11.537   7.425  1.00  0.00     0.198 A 
ATOM     86  C   UNL     1     -10.477  13.707   7.564  1.00  0.00     0.198 A 
ATOM     87  F   UNL     1      -8.241  14.005   6.887  1.00  0.00    -0.203 F 
ATOM     88  F   UNL     1     -12.563  10.743   7.585  1.00  0.00    -0.200 F 
ATOM     89  C   UNL     1     -11.579  12.884   7.741  1.00  0.00     0.200 A 
ATOM     90  F   UNL     1     -10.552  15.005   7.888  1.00  0.00    -0.200 F 
ATOM     91  F   UNL     1     -12.724  13.390   8.221  1.00  0.00    -0.200 F 
ENDBRANCH  58  81
ENDBRANCH  32  33
ENDBRANCH  25  27
ENDBRANCH  24  25
ENDBRANCH  23  24
ENDBRANCH   1  23
TORSDOF 13
