REMARK SMILES COc1ccc2c(c1)[C@H]([NH2+][C@@H](C(=O)OCCOC(=O)c1ccc(-c3c4nc(c(-c5c(F)c(F)c(F)c(F)c5F)c5ccc([nH]5)c(-c5c(F)c(F)c(F)c(F)c5F)c5nc(c(-c6c(F)c(F)c(F)c(F)c6F)c6ccc3[nH]6)C=C5)C=C4)cc1)C1CC1)CC2
REMARK SMILES IDX 15 1 14 2 12 3 13 4 11 5 10 6 9 9 3 10 4 11 8 12 5 13 7 14
REMARK SMILES IDX 6 15 87 16 86 17 2 18 1 19 83 20 84 21 85 22 16 23 17 24
REMARK SMILES IDX 18 25 19 26 20 27 21 28 82 29 22 30 81 31 23 32 24 33 25 34
REMARK SMILES IDX 75 35 26 36 80 37 74 38 76 39 27 40 79 41 73 42 72 43 28 45
REMARK SMILES IDX 60 46 40 47 59 48 41 49 44 50 58 51 77 52 42 53 43 54 57 56
REMARK SMILES IDX 78 57 45 58 29 59 30 60 38 61 31 62 32 63 36 64 39 65 33 66
REMARK SMILES IDX 34 67 37 68 35 69 61 70 62 71 70 72 63 73 64 74 68 75 71 76
REMARK SMILES IDX 65 77 66 78 69 79 67 80 46 81 47 82 55 83 48 84 49 85 53 86
REMARK SMILES IDX 56 87 50 88 51 89 54 90 52 91
REMARK H PARENT 10 7 10 8 76 44 44 55
REMARK Flexibility Score: inf
ROOT
ATOM      1  C   UNL     1      -3.380   3.200  -7.895  1.00  0.00     0.274 C 
ENDROOT
BRANCH   1   2
ATOM      2  O   UNL     1      -2.549   3.673  -6.814  1.00  0.00    -0.458 OA
BRANCH   2   3
ATOM      3  C   UNL     1      -2.626   5.003  -6.528  1.00  0.00     0.365 C 
ATOM      4  O   UNL     1      -3.355   5.792  -7.125  1.00  0.00    -0.245 OA
BRANCH   3   5
ATOM      5  C   UNL     1      -1.714   5.442  -5.347  1.00  0.00     0.297 C 
BRANCH   5   6
ATOM      6  N   UNL     1      -1.016   4.295  -4.722  1.00  0.00    -0.328 N 
ATOM      7  H   UNL     1      -1.714   3.680  -4.304  1.00  0.00     0.347 HD
ATOM      8  H   UNL     1      -0.483   3.830  -5.458  1.00  0.00     0.347 HD
BRANCH   6   9
ATOM      9  C   UNL     1      -0.068   4.687  -3.688  1.00  0.00     0.215 C 
ATOM     10  C   UNL     1       1.034   1.510  -1.819  1.00  0.00     0.119 A 
ATOM     11  C   UNL     1       2.346   1.917  -1.526  1.00  0.00     0.047 A 
ATOM     12  C   UNL     1       0.194   2.326  -2.586  1.00  0.00     0.056 A 
ATOM     13  C   UNL     1       2.822   3.156  -1.961  1.00  0.00     0.008 A 
ATOM     14  C   UNL     1       0.669   3.556  -3.016  1.00  0.00     0.016 A 
ATOM     15  C   UNL     1       1.975   3.962  -2.699  1.00  0.00    -0.038 A 
ATOM     16  C   UNL     1       2.242   5.348  -3.196  1.00  0.00     0.042 C 
ATOM     17  C   UNL     1       1.128   5.497  -4.235  1.00  0.00     0.075 C 
BRANCH  10  18
ATOM     18  O   UNL     1       0.481   0.325  -1.409  1.00  0.00    -0.497 OA
ATOM     19  C   UNL     1       0.976  -0.173  -0.170  1.00  0.00     0.278 C 
ENDBRANCH  10  18
ENDBRANCH   6   9
ENDBRANCH   5   6
BRANCH   5  20
ATOM     20  C   UNL     1      -2.529   6.190  -4.308  1.00  0.00     0.059 C 
ATOM     21  C   UNL     1      -1.978   7.344  -3.497  1.00  0.00     0.011 C 
ATOM     22  C   UNL     1      -2.970   7.611  -4.585  1.00  0.00     0.011 C 
ENDBRANCH   5  20
ENDBRANCH   3   5
ENDBRANCH   2   3
ENDBRANCH   1   2
BRANCH   1  23
ATOM     23  C   UNL     1      -4.551   2.393  -7.342  1.00  0.00     0.275 C 
BRANCH  23  24
ATOM     24  O   UNL     1      -5.372   3.257  -6.537  1.00  0.00    -0.458 OA
BRANCH  24  25
ATOM     25  C   UNL     1      -5.746   2.770  -5.334  1.00  0.00     0.338 C 
ATOM     26  O   UNL     1      -5.544   1.650  -4.890  1.00  0.00    -0.246 OA
BRANCH  25  27
ATOM     27  C   UNL     1      -6.442   3.821  -4.567  1.00  0.00     0.060 A 
ATOM     28  C   UNL     1      -5.912   5.107  -4.504  1.00  0.00     0.016 A 
ATOM     29  C   UNL     1      -7.563   3.494  -3.803  1.00  0.00     0.016 A 
ATOM     30  C   UNL     1      -6.430   6.029  -3.596  1.00  0.00     0.010 A 
ATOM     31  C   UNL     1      -8.149   4.460  -2.974  1.00  0.00     0.010 A 
ATOM     32  C   UNL     1      -7.562   5.727  -2.824  1.00  0.00    -0.014 A 
BRANCH  32  33
ATOM     33  C   UNL     1      -8.078   6.717  -1.831  1.00  0.00     0.031 A 
ATOM     34  C   UNL     1      -8.187   6.351  -0.372  1.00  0.00     0.074 A 
ATOM     35  C   UNL     1      -8.403   7.969  -2.214  1.00  0.00     0.049 A 
ATOM     36  N   UNL     1      -8.735   7.022   0.613  1.00  0.00    -0.248 NA
ATOM     37  C   UNL     1      -7.621   5.056   0.035  1.00  0.00     0.031 C 
ATOM     38  C   UNL     1      -8.319   8.488  -3.580  1.00  0.00     0.029 A 
ATOM     39  N   UNL     1      -8.841   9.046  -1.480  1.00  0.00    -0.354 N 
ATOM     40  C   UNL     1      -8.648   6.201   1.729  1.00  0.00     0.074 A 
ATOM     41  C   UNL     1      -7.979   4.988   1.310  1.00  0.00     0.031 C 
ATOM     42  C   UNL     1      -8.613   9.797  -3.573  1.00  0.00     0.029 A 
ATOM     43  C   UNL     1      -8.992  10.193  -2.221  1.00  0.00     0.049 A 
ATOM     44  H   UNL     1      -9.027   8.999  -0.515  1.00  0.00     0.167 HD
ATOM     45  C   UNL     1      -9.091   6.433   2.988  1.00  0.00     0.037 A 
ATOM     46  C   UNL     1      -9.411  11.421  -1.862  1.00  0.00     0.037 A 
ATOM     47  C   UNL     1      -9.679   7.669   3.435  1.00  0.00     0.049 A 
ATOM     48  C   UNL     1      -9.854  11.670  -0.449  1.00  0.00     0.074 A 
ATOM     49  C   UNL     1     -10.157   7.995   4.693  1.00  0.00     0.029 A 
ATOM     50  N   UNL     1      -9.835   8.797   2.645  1.00  0.00    -0.354 N 
ATOM     51  N   UNL     1      -9.861  10.849   0.570  1.00  0.00    -0.248 NA
ATOM     52  C   UNL     1     -10.380  13.009  -0.148  1.00  0.00     0.031 C 
ATOM     53  C   UNL     1     -10.614   9.317   4.661  1.00  0.00     0.029 A 
ATOM     54  C   UNL     1     -10.398   9.821   3.390  1.00  0.00     0.049 A 
ATOM     55  H   UNL     1      -9.584   8.861   1.695  1.00  0.00     0.167 HD
ATOM     56  C   UNL     1     -10.407  11.561   1.628  1.00  0.00     0.074 A 
ATOM     57  C   UNL     1     -10.682  12.896   1.138  1.00  0.00     0.031 C 
ATOM     58  C   UNL     1     -10.677  11.139   2.886  1.00  0.00     0.037 A 
BRANCH  45  59
ATOM     59  C   UNL     1      -8.989   5.311   3.976  1.00  0.00     0.064 A 
ATOM     60  C   UNL     1      -7.775   4.966   4.586  1.00  0.00     0.173 A 
ATOM     61  C   UNL     1     -10.140   4.599   4.349  1.00  0.00     0.173 A 
ATOM     62  F   UNL     1      -6.646   5.608   4.250  1.00  0.00    -0.203 F 
ATOM     63  C   UNL     1      -7.714   3.937   5.522  1.00  0.00     0.198 A 
ATOM     64  C   UNL     1     -10.079   3.585   5.300  1.00  0.00     0.198 A 
ATOM     65  F   UNL     1     -11.326   4.895   3.796  1.00  0.00    -0.203 F 
ATOM     66  F   UNL     1      -6.538   3.600   6.069  1.00  0.00    -0.200 F 
ATOM     67  C   UNL     1      -8.866   3.252   5.883  1.00  0.00     0.200 A 
ATOM     68  F   UNL     1     -11.194   2.931   5.654  1.00  0.00    -0.200 F 
ATOM     69  F   UNL     1      -8.805   2.267   6.790  1.00  0.00    -0.200 F 
ENDBRANCH  45  59
BRANCH  46  70
ATOM     70  C   UNL     1      -9.452  12.509  -2.872  1.00  0.00     0.064 A 
ATOM     71  C   UNL     1      -8.537  13.569  -2.820  1.00  0.00     0.173 A 
ATOM     72  C   UNL     1     -10.393  12.505  -3.911  1.00  0.00     0.173 A 
ATOM     73  F   UNL     1      -7.638  13.629  -1.826  1.00  0.00    -0.203 F 
ATOM     74  C   UNL     1      -8.562  14.586  -3.771  1.00  0.00     0.198 A 
ATOM     75  C   UNL     1     -10.400  13.509  -4.877  1.00  0.00     0.198 A 
ATOM     76  F   UNL     1     -11.291  11.514  -4.000  1.00  0.00    -0.203 F 
ATOM     77  F   UNL     1      -7.696  15.604  -3.683  1.00  0.00    -0.200 F 
ATOM     78  C   UNL     1      -9.487  14.550  -4.804  1.00  0.00     0.200 A 
ATOM     79  F   UNL     1     -11.289  13.465  -5.878  1.00  0.00    -0.200 F 
ATOM     80  F   UNL     1      -9.503  15.523  -5.726  1.00  0.00    -0.200 F 
ENDBRANCH  46  70
BRANCH  58  81
ATOM     81  C   UNL     1     -11.312  12.129   3.812  1.00  0.00     0.064 A 
ATOM     82  C   UNL     1     -12.676  12.440   3.712  1.00  0.00     0.173 A 
ATOM     83  C   UNL     1     -10.561  12.758   4.815  1.00  0.00     0.173 A 
ATOM     84  F   UNL     1     -13.429  11.873   2.757  1.00  0.00    -0.203 F 
ATOM     85  C   UNL     1     -13.262  13.362   4.573  1.00  0.00     0.198 A 
ATOM     86  C   UNL     1     -11.155  13.668   5.685  1.00  0.00     0.198 A 
ATOM     87  F   UNL     1      -9.254  12.491   4.948  1.00  0.00    -0.203 F 
ATOM     88  F   UNL     1     -14.559  13.673   4.438  1.00  0.00    -0.200 F 
ATOM     89  C   UNL     1     -12.503  13.973   5.561  1.00  0.00     0.200 A 
ATOM     90  F   UNL     1     -10.422  14.255   6.640  1.00  0.00    -0.200 F 
ATOM     91  F   UNL     1     -13.068  14.864   6.386  1.00  0.00    -0.200 F 
ENDBRANCH  58  81
ENDBRANCH  32  33
ENDBRANCH  25  27
ENDBRANCH  24  25
ENDBRANCH  23  24
ENDBRANCH   1  23
TORSDOF 15
