REMARK SMILES CC[NH2+][C@]1(C(=O)OCCOC(=O)c2ccc(-c3c4nc(c(-c5c(F)c(F)c(F)c(F)c5F)c5ccc([nH]5)c(-c5c(F)c(F)c(F)c(F)c5F)c5nc(c(-c6c(F)c(F)c(F)c(F)c6F)c6ccc3[nH]6)C=C5)C=C4)cc2)CCC[C@H]1CCSc1n[nH]c(=O)n1C
REMARK SMILES IDX 8 1 7 2 5 3 6 4 4 5 76 6 79 7 77 8 78 9 3 10 2 13 1 14 80 15
REMARK SMILES IDX 81 16 82 17 83 18 84 19 88 20 85 21 86 22 89 23 87 25 9 26
REMARK SMILES IDX 10 27 11 28 12 29 13 30 14 31 75 32 15 33 74 34 16 35 17 36
REMARK SMILES IDX 18 37 68 38 19 39 73 40 67 41 69 42 20 43 72 44 66 45 65 46
REMARK SMILES IDX 21 48 53 49 33 50 52 51 34 52 37 53 51 54 70 55 35 56 36 57
REMARK SMILES IDX 50 59 71 60 38 61 22 62 23 63 31 64 24 65 25 66 29 67 32 68
REMARK SMILES IDX 26 69 27 70 30 71 28 72 54 73 55 74 63 75 56 76 57 77 61 78
REMARK SMILES IDX 64 79 58 80 59 81 62 82 60 83 39 84 40 85 48 86 41 87 42 88
REMARK SMILES IDX 46 89 49 90 43 91 44 92 47 93 45 94
REMARK H PARENT 3 11 3 12 85 24 69 47 37 58
REMARK Flexibility Score: inf
ROOT
ATOM      1  C   UNL     1       0.722  -0.377  -1.675  1.00  0.00     0.274 C 
ENDROOT
BRANCH   1   2
ATOM      2  O   UNL     1       0.492   0.949  -2.201  1.00  0.00    -0.457 OA
BRANCH   2   3
ATOM      3  C   UNL     1       0.476   1.961  -1.298  1.00  0.00     0.368 C 
ATOM      4  O   UNL     1       0.597   1.796  -0.087  1.00  0.00    -0.245 OA
BRANCH   3   5
ATOM      5  C   UNL     1       0.130   3.331  -1.939  1.00  0.00     0.197 C 
ATOM      6  C   UNL     1       0.727   4.483  -1.105  1.00  0.00     0.081 C 
ATOM      7  C   UNL     1       0.693   3.687  -3.358  1.00  0.00     0.063 C 
ATOM      8  C   UNL     1       0.500   5.723  -1.943  1.00  0.00     0.008 C 
ATOM      9  C   UNL     1       0.764   5.249  -3.365  1.00  0.00     0.011 C 
BRANCH   5  10
ATOM     10  N   UNL     1      -1.363   3.421  -2.035  1.00  0.00    -0.332 N 
ATOM     11  H   UNL     1      -1.597   4.235  -2.603  1.00  0.00     0.347 HD
ATOM     12  H   UNL     1      -1.679   2.542  -2.445  1.00  0.00     0.347 HD
BRANCH  10  13
ATOM     13  C   UNL     1      -2.050   3.549  -0.747  1.00  0.00     0.257 C 
ATOM     14  C   UNL     1      -3.522   3.201  -0.898  1.00  0.00     0.071 C 
ENDBRANCH  10  13
ENDBRANCH   5  10
BRANCH   7  15
ATOM     15  C   UNL     1       2.059   3.110  -3.812  1.00  0.00     0.022 C 
BRANCH  15  16
ATOM     16  C   UNL     1       2.072   1.818  -4.654  1.00  0.00     0.079 C 
BRANCH  16  17
ATOM     17  S   UNL     1       1.232   1.913  -6.268  1.00  0.00    -0.086 SA
BRANCH  17  18
ATOM     18  C   UNL     1      -0.409   1.696  -5.777  1.00  0.00     0.191 A 
ATOM     19  N   UNL     1      -0.848   0.667  -5.113  1.00  0.00    -0.146 NA
ATOM     20  N   UNL     1      -1.334   2.651  -6.035  1.00  0.00    -0.273 N 
ATOM     21  N   UNL     1      -2.167   0.963  -4.900  1.00  0.00    -0.226 N 
ATOM     22  C   UNL     1      -2.485   2.199  -5.450  1.00  0.00     0.343 A 
ATOM     23  C   UNL     1      -1.203   3.958  -6.641  1.00  0.00     0.157 C 
ATOM     24  H   UNL     1      -2.802   0.382  -4.422  1.00  0.00     0.195 HD
ATOM     25  O   UNL     1      -3.567   2.758  -5.378  1.00  0.00    -0.246 OA
ENDBRANCH  17  18
ENDBRANCH  16  17
ENDBRANCH  15  16
ENDBRANCH   7  15
ENDBRANCH   3   5
ENDBRANCH   2   3
ENDBRANCH   1   2
BRANCH   1  26
ATOM     26  C   UNL     1       2.208  -0.749  -1.707  1.00  0.00     0.275 C 
BRANCH  26  27
ATOM     27  O   UNL     1       2.961   0.194  -0.925  1.00  0.00    -0.458 OA
BRANCH  27  28
ATOM     28  C   UNL     1       4.138   0.615  -1.445  1.00  0.00     0.338 C 
ATOM     29  O   UNL     1       4.683   0.208  -2.456  1.00  0.00    -0.246 OA
BRANCH  28  30
ATOM     30  C   UNL     1       4.669   1.737  -0.636  1.00  0.00     0.060 A 
ATOM     31  C   UNL     1       3.797   2.700  -0.138  1.00  0.00     0.016 A 
ATOM     32  C   UNL     1       6.040   1.911  -0.465  1.00  0.00     0.016 A 
ATOM     33  C   UNL     1       4.271   3.869   0.445  1.00  0.00     0.010 A 
ATOM     34  C   UNL     1       6.518   3.034   0.229  1.00  0.00     0.010 A 
ATOM     35  C   UNL     1       5.638   4.037   0.675  1.00  0.00    -0.014 A 
BRANCH  35  36
ATOM     36  C   UNL     1       6.128   5.258   1.374  1.00  0.00     0.031 A 
ATOM     37  C   UNL     1       7.140   6.151   0.713  1.00  0.00     0.074 A 
ATOM     38  C   UNL     1       5.651   5.580   2.594  1.00  0.00     0.049 A 
ATOM     39  N   UNL     1       7.858   7.115   1.232  1.00  0.00    -0.248 NA
ATOM     40  C   UNL     1       7.387   5.925  -0.720  1.00  0.00     0.031 C 
ATOM     41  C   UNL     1       4.615   4.844   3.324  1.00  0.00     0.029 A 
ATOM     42  N   UNL     1       5.970   6.616   3.439  1.00  0.00    -0.354 N 
ATOM     43  C   UNL     1       8.686   7.564   0.211  1.00  0.00     0.074 A 
ATOM     44  C   UNL     1       8.373   6.778  -0.964  1.00  0.00     0.031 C 
ATOM     45  C   UNL     1       4.359   5.468   4.482  1.00  0.00     0.029 A 
ATOM     46  C   UNL     1       5.288   6.580   4.631  1.00  0.00     0.049 A 
ATOM     47  H   UNL     1       6.624   7.316   3.211  1.00  0.00     0.167 HD
ATOM     48  C   UNL     1       9.629   8.535   0.262  1.00  0.00     0.037 A 
ATOM     49  C   UNL     1       5.434   7.316   5.750  1.00  0.00     0.037 A 
ATOM     50  C   UNL     1       9.893   9.345   1.424  1.00  0.00     0.049 A 
ATOM     51  C   UNL     1       6.510   8.362   5.792  1.00  0.00     0.074 A 
ATOM     52  C   UNL     1      10.832  10.349   1.584  1.00  0.00     0.029 A 
ATOM     53  N   UNL     1       9.199   9.253   2.622  1.00  0.00    -0.354 N 
ATOM     54  N   UNL     1       7.356   8.714   4.855  1.00  0.00    -0.248 NA
ATOM     55  C   UNL     1       6.671   9.092   7.056  1.00  0.00     0.031 C 
ATOM     56  C   UNL     1      10.726  10.845   2.889  1.00  0.00     0.029 A 
ATOM     57  C   UNL     1       9.693  10.178   3.528  1.00  0.00     0.049 A 
ATOM     58  H   UNL     1       8.463   8.624   2.802  1.00  0.00     0.167 HD
ATOM     59  C   UNL     1       8.149   9.705   5.413  1.00  0.00     0.074 A 
ATOM     60  C   UNL     1       7.663   9.920   6.761  1.00  0.00     0.031 C 
ATOM     61  C   UNL     1       9.195  10.370   4.864  1.00  0.00     0.037 A 
BRANCH  48  62
ATOM     62  C   UNL     1      10.477   8.753  -0.957  1.00  0.00     0.064 A 
ATOM     63  C   UNL     1       9.982   9.384  -2.107  1.00  0.00     0.173 A 
ATOM     64  C   UNL     1      11.827   8.366  -0.951  1.00  0.00     0.173 A 
ATOM     65  F   UNL     1       8.695   9.758  -2.171  1.00  0.00    -0.203 F 
ATOM     66  C   UNL     1      10.804   9.608  -3.210  1.00  0.00     0.198 A 
ATOM     67  C   UNL     1      12.651   8.614  -2.045  1.00  0.00     0.198 A 
ATOM     68  F   UNL     1      12.351   7.760   0.126  1.00  0.00    -0.203 F 
ATOM     69  F   UNL     1      10.301  10.182  -4.312  1.00  0.00    -0.200 F 
ATOM     70  C   UNL     1      12.138   9.231  -3.175  1.00  0.00     0.200 A 
ATOM     71  F   UNL     1      13.943   8.258  -2.004  1.00  0.00    -0.200 F 
ATOM     72  F   UNL     1      12.929   9.458  -4.233  1.00  0.00    -0.200 F 
ENDBRANCH  48  62
BRANCH  49  73
ATOM     73  C   UNL     1       4.587   7.033   6.939  1.00  0.00     0.064 A 
ATOM     74  C   UNL     1       3.635   7.958   7.386  1.00  0.00     0.173 A 
ATOM     75  C   UNL     1       4.705   5.825   7.646  1.00  0.00     0.173 A 
ATOM     76  F   UNL     1       3.505   9.139   6.763  1.00  0.00    -0.203 F 
ATOM     77  C   UNL     1       2.837   7.689   8.497  1.00  0.00     0.198 A 
ATOM     78  C   UNL     1       3.883   5.543   8.734  1.00  0.00     0.198 A 
ATOM     79  F   UNL     1       5.604   4.907   7.262  1.00  0.00    -0.203 F 
ATOM     80  F   UNL     1       1.961   8.607   8.928  1.00  0.00    -0.200 F 
ATOM     81  C   UNL     1       2.954   6.478   9.163  1.00  0.00     0.200 A 
ATOM     82  F   UNL     1       3.989   4.364   9.363  1.00  0.00    -0.200 F 
ATOM     83  F   UNL     1       2.176   6.214  10.221  1.00  0.00    -0.200 F 
ENDBRANCH  49  73
BRANCH  61  84
ATOM     84  C   UNL     1       9.861  11.401   5.723  1.00  0.00     0.064 A 
ATOM     85  C   UNL     1      10.694  11.037   6.790  1.00  0.00     0.173 A 
ATOM     86  C   UNL     1       9.668  12.767   5.471  1.00  0.00     0.173 A 
ATOM     87  F   UNL     1      10.892   9.742   7.080  1.00  0.00    -0.203 F 
ATOM     88  C   UNL     1      11.287  12.005   7.595  1.00  0.00     0.198 A 
ATOM     89  C   UNL     1      10.283  13.732   6.262  1.00  0.00     0.198 A 
ATOM     90  F   UNL     1       8.882  13.164   4.459  1.00  0.00    -0.203 F 
ATOM     91  F   UNL     1      12.038  11.636   8.642  1.00  0.00    -0.200 F 
ATOM     92  C   UNL     1      11.085  13.351   7.328  1.00  0.00     0.200 A 
ATOM     93  F   UNL     1      10.093  15.033   5.999  1.00  0.00    -0.200 F 
ATOM     94  F   UNL     1      11.653  14.282   8.106  1.00  0.00    -0.200 F 
ENDBRANCH  61  84
ENDBRANCH  35  36
ENDBRANCH  28  30
ENDBRANCH  27  28
ENDBRANCH  26  27
ENDBRANCH   1  26
TORSDOF 17
