REMARK SMILES CCOC(=O)C1=NN(c2ccc([N+](=O)[O-])cc2C(F)(F)F)[C@@](C)(C(=O)OCCOC(=O)c2ccc(-c3c4nc(c(-c5c(F)c(F)c(F)c(F)c5F)c5ccc([nH]5)c(-c5c(F)c(F)c(F)c(F)c5F)c5nc(c(-c6c(F)c(F)c(F)c(F)c6F)c6ccc3[nH]6)C=C5)C=C4)cc2)C1
REMARK SMILES IDX 27 1 26 2 24 3 25 4 22 5 6 6 7 7 95 8 8 9 23 10 4 11 5 12
REMARK SMILES IDX 3 13 2 14 1 15 9 16 10 17 17 18 11 19 16 20 12 21 18 22
REMARK SMILES IDX 19 23 20 24 21 25 13 26 14 27 15 28 28 29 29 30 30 31 31 32
REMARK SMILES IDX 32 33 33 34 94 35 34 36 93 37 35 38 36 39 37 40 87 41 38 42
REMARK SMILES IDX 92 43 86 44 88 45 39 46 91 47 85 48 84 49 40 51 72 52 52 53
REMARK SMILES IDX 71 54 53 55 56 56 70 57 89 58 54 59 55 60 69 62 90 63 57 64
REMARK SMILES IDX 41 65 42 66 50 67 43 68 44 69 48 70 51 71 45 72 46 73 49 74
REMARK SMILES IDX 47 75 73 76 74 77 82 78 75 79 76 80 80 81 83 82 77 83 78 84
REMARK SMILES IDX 81 85 79 86 58 87 59 88 67 89 60 90 61 91 65 92 68 93 62 94
REMARK SMILES IDX 63 95 66 96 64 97
REMARK H PARENT 88 50 56 61
REMARK Flexibility Score: inf
ROOT
ATOM      1  C   UNL     1       6.860   7.004   1.544  1.00  0.00     0.274 C 
ENDROOT
BRANCH   1   2
ATOM      2  O   UNL     1       5.656   6.874   0.756  1.00  0.00    -0.460 OA
BRANCH   2   3
ATOM      3  C   UNL     1       5.661   5.890  -0.181  1.00  0.00     0.334 C 
ATOM      4  O   UNL     1       6.600   5.112  -0.343  1.00  0.00    -0.249 OA
BRANCH   3   5
ATOM      5  C   UNL     1       4.436   5.874  -1.114  1.00  0.00     0.163 C 
ATOM      6  C   UNL     1       2.752   4.578  -0.208  1.00  0.00     0.149 C 
ATOM      7  N   UNL     1       2.395   5.789   0.079  1.00  0.00    -0.169 NA
ATOM      8  C   UNL     1       3.869   4.437  -1.191  1.00  0.00     0.108 C 
ATOM      9  N   UNL     1       3.251   6.605  -0.607  1.00  0.00    -0.247 N 
ATOM     10  C   UNL     1       4.963   6.331  -2.470  1.00  0.00     0.050 C 
BRANCH   6  11
ATOM     11  C   UNL     1       2.049   3.376   0.362  1.00  0.00     0.354 C 
ATOM     12  O   UNL     1       2.221   3.016   1.513  1.00  0.00    -0.245 OA
BRANCH  11  13
ATOM     13  O   UNL     1       1.236   2.844  -0.567  1.00  0.00    -0.461 OA
BRANCH  13  14
ATOM     14  C   UNL     1       0.388   1.778  -0.110  1.00  0.00     0.230 C 
ATOM     15  C   UNL     1       0.872   0.463  -0.687  1.00  0.00     0.049 C 
ENDBRANCH  13  14
ENDBRANCH  11  13
ENDBRANCH   6  11
BRANCH   9  16
ATOM     16  C   UNL     1       2.958   7.956  -0.591  1.00  0.00     0.073 A 
ATOM     17  C   UNL     1       2.955   8.621   0.656  1.00  0.00     0.036 A 
ATOM     18  C   UNL     1       2.490   8.664  -1.716  1.00  0.00     0.088 A 
ATOM     19  C   UNL     1       2.556   9.953   0.794  1.00  0.00     0.088 A 
ATOM     20  C   UNL     1       2.130  10.027  -1.586  1.00  0.00     0.101 A 
ATOM     21  C   UNL     1       2.151  10.656  -0.337  1.00  0.00     0.270 A 
BRANCH  18  22
ATOM     22  C   UNL     1       2.274   8.033  -3.070  1.00  0.00     0.418 C 
ATOM     23  F   UNL     1       1.205   8.566  -3.732  1.00  0.00    -0.166 F 
ATOM     24  F   UNL     1       3.338   8.236  -3.899  1.00  0.00    -0.166 F 
ATOM     25  F   UNL     1       2.050   6.690  -3.062  1.00  0.00    -0.166 F 
ENDBRANCH  18  22
BRANCH  21  26
ATOM     26  N   UNL     1       1.699  12.047  -0.216  1.00  0.00     0.062 N 
ATOM     27  O   UNL     1       1.524  12.500   0.923  1.00  0.00    -0.258 OA
ATOM     28  O   UNL     1       1.520  12.684  -1.264  1.00  0.00    -0.258 OA
ENDBRANCH  21  26
ENDBRANCH   9  16
ENDBRANCH   3   5
ENDBRANCH   2   3
ENDBRANCH   1   2
BRANCH   1  29
ATOM     29  C   UNL     1       6.732   6.286   2.885  1.00  0.00     0.275 C 
BRANCH  29  30
ATOM     30  O   UNL     1       6.534   4.880   2.660  1.00  0.00    -0.458 OA
BRANCH  30  31
ATOM     31  C   UNL     1       5.514   4.313   3.345  1.00  0.00     0.338 C 
ATOM     32  O   UNL     1       4.806   4.848   4.181  1.00  0.00    -0.246 OA
BRANCH  31  33
ATOM     33  C   UNL     1       5.345   2.905   2.927  1.00  0.00     0.060 A 
ATOM     34  C   UNL     1       5.419   2.550   1.582  1.00  0.00     0.016 A 
ATOM     35  C   UNL     1       4.967   1.952   3.871  1.00  0.00     0.016 A 
ATOM     36  C   UNL     1       4.971   1.299   1.161  1.00  0.00     0.010 A 
ATOM     37  C   UNL     1       4.636   0.656   3.458  1.00  0.00     0.010 A 
ATOM     38  C   UNL     1       4.569   0.331   2.092  1.00  0.00    -0.014 A 
BRANCH  38  39
ATOM     39  C   UNL     1       4.007  -0.979   1.646  1.00  0.00     0.031 A 
ATOM     40  C   UNL     1       2.642  -1.418   2.121  1.00  0.00     0.074 A 
ATOM     41  C   UNL     1       4.679  -1.772   0.786  1.00  0.00     0.049 A 
ATOM     42  N   UNL     1       2.059  -2.587   2.010  1.00  0.00    -0.248 NA
ATOM     43  C   UNL     1       1.822  -0.409   2.812  1.00  0.00     0.031 C 
ATOM     44  C   UNL     1       5.972  -1.461   0.177  1.00  0.00     0.029 A 
ATOM     45  N   UNL     1       4.361  -3.006   0.268  1.00  0.00    -0.354 N 
ATOM     46  C   UNL     1       0.839  -2.469   2.665  1.00  0.00     0.074 A 
ATOM     47  C   UNL     1       0.759  -1.116   3.170  1.00  0.00     0.031 C 
ATOM     48  C   UNL     1       6.314  -2.448  -0.663  1.00  0.00     0.029 A 
ATOM     49  C   UNL     1       5.324  -3.515  -0.568  1.00  0.00     0.049 A 
ATOM     50  H   UNL     1       3.522  -3.478   0.476  1.00  0.00     0.167 HD
ATOM     51  C   UNL     1      -0.128  -3.404   2.829  1.00  0.00     0.037 A 
ATOM     52  C   UNL     1       5.441  -4.726  -1.146  1.00  0.00     0.037 A 
ATOM     53  C   UNL     1      -0.079  -4.736   2.284  1.00  0.00     0.049 A 
ATOM     54  C   UNL     1       4.401  -5.776  -0.878  1.00  0.00     0.074 A 
ATOM     55  C   UNL     1      -1.016  -5.750   2.394  1.00  0.00     0.029 A 
ATOM     56  N   UNL     1       0.959  -5.234   1.514  1.00  0.00    -0.354 N 
ATOM     57  N   UNL     1       3.293  -5.683  -0.185  1.00  0.00    -0.248 NA
ATOM     58  C   UNL     1       4.646  -7.110  -1.444  1.00  0.00     0.031 C 
ATOM     59  C   UNL     1      -0.529  -6.872   1.715  1.00  0.00     0.029 A 
ATOM     60  C   UNL     1       0.694  -6.546   1.154  1.00  0.00     0.049 A 
ATOM     61  H   UNL     1       1.766  -4.731   1.260  1.00  0.00     0.167 HD
ATOM     62  C   UNL     1       2.710  -6.941  -0.229  1.00  0.00     0.074 A 
ATOM     63  C   UNL     1       3.574  -7.776  -1.038  1.00  0.00     0.031 C 
ATOM     64  C   UNL     1       1.565  -7.368   0.356  1.00  0.00     0.037 A 
BRANCH  51  65
ATOM     65  C   UNL     1      -1.321  -3.030   3.658  1.00  0.00     0.064 A 
ATOM     66  C   UNL     1      -2.327  -2.185   3.168  1.00  0.00     0.173 A 
ATOM     67  C   UNL     1      -1.480  -3.565   4.946  1.00  0.00     0.173 A 
ATOM     68  F   UNL     1      -2.213  -1.637   1.949  1.00  0.00    -0.203 F 
ATOM     69  C   UNL     1      -3.441  -1.877   3.945  1.00  0.00     0.198 A 
ATOM     70  C   UNL     1      -2.605  -3.272   5.711  1.00  0.00     0.198 A 
ATOM     71  F   UNL     1      -0.547  -4.383   5.457  1.00  0.00    -0.203 F 
ATOM     72  F   UNL     1      -4.375  -1.041   3.470  1.00  0.00    -0.200 F 
ATOM     73  C   UNL     1      -3.583  -2.425   5.211  1.00  0.00     0.200 A 
ATOM     74  F   UNL     1      -2.745  -3.811   6.930  1.00  0.00    -0.200 F 
ATOM     75  F   UNL     1      -4.661  -2.134   5.953  1.00  0.00    -0.200 F 
ENDBRANCH  51  65
BRANCH  52  76
ATOM     76  C   UNL     1       6.633  -5.032  -1.980  1.00  0.00     0.064 A 
ATOM     77  C   UNL     1       6.519  -5.219  -3.363  1.00  0.00     0.173 A 
ATOM     78  C   UNL     1       7.912  -5.125  -1.410  1.00  0.00     0.173 A 
ATOM     79  F   UNL     1       5.314  -5.171  -3.948  1.00  0.00    -0.203 F 
ATOM     80  C   UNL     1       7.641  -5.486  -4.146  1.00  0.00     0.198 A 
ATOM     81  C   UNL     1       9.036  -5.360  -2.197  1.00  0.00     0.198 A 
ATOM     82  F   UNL     1       8.073  -4.960  -0.089  1.00  0.00    -0.203 F 
ATOM     83  F   UNL     1       7.503  -5.693  -5.462  1.00  0.00    -0.200 F 
ATOM     84  C   UNL     1       8.899  -5.545  -3.564  1.00  0.00     0.200 A 
ATOM     85  F   UNL     1      10.250  -5.400  -1.632  1.00  0.00    -0.200 F 
ATOM     86  F   UNL     1       9.979  -5.784  -4.320  1.00  0.00    -0.200 F 
ENDBRANCH  52  76
BRANCH  64  87
ATOM     87  C   UNL     1       1.176  -8.798   0.131  1.00  0.00     0.064 A 
ATOM     88  C   UNL     1       1.833  -9.845   0.792  1.00  0.00     0.173 A 
ATOM     89  C   UNL     1       0.121  -9.122  -0.734  1.00  0.00     0.173 A 
ATOM     90  F   UNL     1       2.861  -9.585   1.614  1.00  0.00    -0.203 F 
ATOM     91  C   UNL     1       1.461 -11.169   0.578  1.00  0.00     0.198 A 
ATOM     92  C   UNL     1      -0.264 -10.445  -0.928  1.00  0.00     0.198 A 
ATOM     93  F   UNL     1      -0.540  -8.154  -1.387  1.00  0.00    -0.203 F 
ATOM     94  F   UNL     1       2.130 -12.159   1.187  1.00  0.00    -0.200 F 
ATOM     95  C   UNL     1       0.410 -11.468  -0.277  1.00  0.00     0.200 A 
ATOM     96  F   UNL     1      -1.283 -10.732  -1.749  1.00  0.00    -0.200 F 
ATOM     97  F   UNL     1       0.053 -12.743  -0.481  1.00  0.00    -0.200 F 
ENDBRANCH  64  87
ENDBRANCH  38  39
ENDBRANCH  31  33
ENDBRANCH  30  31
ENDBRANCH  29  30
ENDBRANCH   1  29
TORSDOF 17
