REMARK SMILES Cc1c(C(=O)OCCOC(=O)c2ccc(-c3c4nc(c(-c5c(F)c(F)c(F)c(F)c5F)c5ccc([nH]5)c(-c5c(F)c(F)c(F)c(F)c5F)c5nc(c(-c6c(F)c(F)c(F)c(F)c6F)c6ccc3[nH]6)C=C5)C=C4)cc2)nnn1-c1ccc(Cl)cc1[N+](=O)[O-]
REMARK SMILES IDX 7 1 6 2 4 3 5 4 3 5 1 6 2 7 77 8 75 9 76 10 78 11 79 12
REMARK SMILES IDX 84 13 80 14 83 15 81 16 82 17 85 18 86 19 87 20 8 21 9 22
REMARK SMILES IDX 10 23 11 24 12 25 13 26 74 27 14 28 73 29 15 30 16 31 17 32
REMARK SMILES IDX 67 33 18 34 72 35 66 36 68 37 19 38 71 39 65 40 64 41 20 43
REMARK SMILES IDX 52 44 32 45 51 46 33 47 36 48 50 49 69 50 34 51 35 52 49 54
REMARK SMILES IDX 70 55 37 56 21 57 22 58 30 59 23 60 24 61 28 62 31 63 25 64
REMARK SMILES IDX 26 65 29 66 27 67 53 68 54 69 62 70 55 71 56 72 60 73 63 74
REMARK SMILES IDX 57 75 58 76 61 77 59 78 38 79 39 80 47 81 40 82 41 83 45 84
REMARK SMILES IDX 48 85 42 86 43 87 46 88 44 89
REMARK H PARENT 68 42 36 53
REMARK Flexibility Score: inf
ROOT
ATOM      1  C   UNL     1       0.980  -4.426  -0.645  1.00  0.00     0.275 C 
ENDROOT
BRANCH   1   2
ATOM      2  O   UNL     1       0.641  -3.113  -0.166  1.00  0.00    -0.457 OA
BRANCH   2   3
ATOM      3  C   UNL     1      -0.062  -3.067   1.014  1.00  0.00     0.360 C 
ATOM      4  O   UNL     1      -0.567  -4.042   1.541  1.00  0.00    -0.244 OA
BRANCH   3   5
ATOM      5  C   UNL     1      -0.055  -1.738   1.622  1.00  0.00     0.193 A 
ATOM      6  C   UNL     1       0.982  -0.170  -0.200  1.00  0.00     0.069 C 
ATOM      7  C   UNL     1       0.323  -0.516   1.083  1.00  0.00     0.077 A 
ATOM      8  N   UNL     1       0.009   0.381   2.084  1.00  0.00    -0.210 N 
ATOM      9  N   UNL     1      -0.350  -1.556   2.955  1.00  0.00    -0.122 NA
ATOM     10  N   UNL     1      -0.187  -0.273   3.247  1.00  0.00    -0.061 NA
BRANCH   8  11
ATOM     11  C   UNL     1      -0.174   1.777   2.018  1.00  0.00     0.144 A 
ATOM     12  C   UNL     1       0.428   2.578   2.999  1.00  0.00     0.037 A 
ATOM     13  C   UNL     1      -0.962   2.383   1.026  1.00  0.00     0.296 A 
ATOM     14  C   UNL     1       0.297   3.970   2.937  1.00  0.00     0.023 A 
ATOM     15  C   UNL     1      -1.104   3.776   0.969  1.00  0.00     0.108 A 
ATOM     16  C   UNL     1      -0.460   4.559   1.923  1.00  0.00     0.048 A 
ATOM     17  Cl  UNL     1      -0.625   6.270   1.865  1.00  0.00    -0.084 Cl
BRANCH  13  18
ATOM     18  N   UNL     1      -1.786   1.603   0.110  1.00  0.00     0.065 N 
ATOM     19  O   UNL     1      -1.772   1.941  -1.081  1.00  0.00    -0.258 OA
ATOM     20  O   UNL     1      -2.451   0.675   0.583  1.00  0.00    -0.258 OA
ENDBRANCH  13  18
ENDBRANCH   8  11
ENDBRANCH   3   5
ENDBRANCH   2   3
ENDBRANCH   1   2
BRANCH   1  21
ATOM     21  C   UNL     1       2.300  -4.910  -0.053  1.00  0.00     0.275 C 
BRANCH  21  22
ATOM     22  O   UNL     1       2.171  -5.154   1.346  1.00  0.00    -0.458 OA
BRANCH  22  23
ATOM     23  C   UNL     1       2.484  -4.108   2.143  1.00  0.00     0.338 C 
ATOM     24  O   UNL     1       2.711  -2.960   1.794  1.00  0.00    -0.246 OA
BRANCH  23  25
ATOM     25  C   UNL     1       2.717  -4.590   3.506  1.00  0.00     0.060 A 
ATOM     26  C   UNL     1       2.955  -3.627   4.494  1.00  0.00     0.016 A 
ATOM     27  C   UNL     1       3.048  -5.939   3.683  1.00  0.00     0.016 A 
ATOM     28  C   UNL     1       3.727  -3.978   5.580  1.00  0.00     0.010 A 
ATOM     29  C   UNL     1       3.848  -6.277   4.742  1.00  0.00     0.010 A 
ATOM     30  C   UNL     1       4.239  -5.274   5.630  1.00  0.00    -0.014 A 
BRANCH  30  31
ATOM     31  C   UNL     1       5.237  -5.592   6.628  1.00  0.00     0.031 A 
ATOM     32  C   UNL     1       4.690  -6.015   7.938  1.00  0.00     0.074 A 
ATOM     33  C   UNL     1       6.530  -5.701   6.268  1.00  0.00     0.049 A 
ATOM     34  N   UNL     1       4.945  -5.536   9.111  1.00  0.00    -0.248 NA
ATOM     35  C   UNL     1       3.637  -7.046   7.928  1.00  0.00     0.031 C 
ATOM     36  C   UNL     1       7.090  -5.650   4.912  1.00  0.00     0.029 A 
ATOM     37  N   UNL     1       7.603  -6.040   7.026  1.00  0.00    -0.354 N 
ATOM     38  C   UNL     1       4.209  -6.316  10.001  1.00  0.00     0.074 A 
ATOM     39  C   UNL     1       3.294  -7.092   9.212  1.00  0.00     0.031 C 
ATOM     40  C   UNL     1       8.329  -6.192   4.928  1.00  0.00     0.029 A 
ATOM     41  C   UNL     1       8.673  -6.533   6.299  1.00  0.00     0.049 A 
ATOM     42  H   UNL     1       7.619  -5.944   8.006  1.00  0.00     0.167 HD
ATOM     43  C   UNL     1       4.587  -6.457  11.299  1.00  0.00     0.037 A 
ATOM     44  C   UNL     1       9.686  -7.287   6.794  1.00  0.00     0.037 A 
ATOM     45  C   UNL     1       5.438  -5.372  11.715  1.00  0.00     0.049 A 
ATOM     46  C   UNL     1       9.672  -7.135   8.277  1.00  0.00     0.074 A 
ATOM     47  C   UNL     1       5.301  -3.995  11.729  1.00  0.00     0.029 A 
ATOM     48  N   UNL     1       6.784  -5.604  11.868  1.00  0.00    -0.354 N 
ATOM     49  N   UNL     1       9.968  -6.029   8.905  1.00  0.00    -0.248 NA
ATOM     50  C   UNL     1       8.874  -8.087   9.040  1.00  0.00     0.031 C 
ATOM     51  C   UNL     1       6.587  -3.493  11.371  1.00  0.00     0.029 A 
ATOM     52  C   UNL     1       7.434  -4.589  11.213  1.00  0.00     0.049 A 
ATOM     53  H   UNL     1       7.200  -6.353  12.353  1.00  0.00     0.167 HD
ATOM     54  C   UNL     1       9.070  -5.966   9.962  1.00  0.00     0.074 A 
ATOM     55  C   UNL     1       8.475  -7.297  10.040  1.00  0.00     0.031 C 
ATOM     56  C   UNL     1       8.668  -4.771  10.489  1.00  0.00     0.037 A 
BRANCH  43  57
ATOM     57  C   UNL     1       4.488  -7.762  12.057  1.00  0.00     0.064 A 
ATOM     58  C   UNL     1       4.845  -7.781  13.420  1.00  0.00     0.173 A 
ATOM     59  C   UNL     1       4.355  -9.033  11.451  1.00  0.00     0.173 A 
ATOM     60  F   UNL     1       5.006  -6.636  14.101  1.00  0.00    -0.203 F 
ATOM     61  C   UNL     1       5.147  -8.970  14.088  1.00  0.00     0.198 A 
ATOM     62  C   UNL     1       4.598 -10.220  12.139  1.00  0.00     0.198 A 
ATOM     63  F   UNL     1       4.096  -9.191  10.149  1.00  0.00    -0.203 F 
ATOM     64  F   UNL     1       5.622  -8.924  15.340  1.00  0.00    -0.200 F 
ATOM     65  C   UNL     1       5.034 -10.188  13.444  1.00  0.00     0.200 A 
ATOM     66  F   UNL     1       4.492 -11.389  11.491  1.00  0.00    -0.200 F 
ATOM     67  F   UNL     1       5.390 -11.322  14.060  1.00  0.00    -0.200 F 
ENDBRANCH  43  57
BRANCH  44  68
ATOM     68  C   UNL     1      10.396  -8.391   6.098  1.00  0.00     0.064 A 
ATOM     69  C   UNL     1      11.616  -8.889   6.581  1.00  0.00     0.173 A 
ATOM     70  C   UNL     1       9.785  -9.138   5.069  1.00  0.00     0.173 A 
ATOM     71  F   UNL     1      12.236  -8.279   7.600  1.00  0.00    -0.203 F 
ATOM     72  C   UNL     1      12.188 -10.058   6.062  1.00  0.00     0.198 A 
ATOM     73  C   UNL     1      10.365 -10.291   4.540  1.00  0.00     0.198 A 
ATOM     74  F   UNL     1       8.566  -8.819   4.610  1.00  0.00    -0.203 F 
ATOM     75  F   UNL     1      13.328 -10.532   6.584  1.00  0.00    -0.200 F 
ATOM     76  C   UNL     1      11.562 -10.757   5.043  1.00  0.00     0.200 A 
ATOM     77  F   UNL     1       9.727 -10.974   3.579  1.00  0.00    -0.200 F 
ATOM     78  F   UNL     1      12.089 -11.897   4.575  1.00  0.00    -0.200 F 
ENDBRANCH  44  68
BRANCH  56  79
ATOM     79  C   UNL     1       9.386  -3.522  10.065  1.00  0.00     0.064 A 
ATOM     80  C   UNL     1       9.416  -3.055   8.740  1.00  0.00     0.173 A 
ATOM     81  C   UNL     1       9.901  -2.676  11.057  1.00  0.00     0.173 A 
ATOM     82  F   UNL     1       8.841  -3.750   7.752  1.00  0.00    -0.203 F 
ATOM     83  C   UNL     1       9.975  -1.820   8.419  1.00  0.00     0.198 A 
ATOM     84  C   UNL     1      10.425  -1.426  10.739  1.00  0.00     0.198 A 
ATOM     85  F   UNL     1       9.844  -3.039  12.348  1.00  0.00    -0.203 F 
ATOM     86  F   UNL     1       9.994  -1.403   7.144  1.00  0.00    -0.200 F 
ATOM     87  C   UNL     1      10.471  -1.003   9.420  1.00  0.00     0.200 A 
ATOM     88  F   UNL     1      10.854  -0.615  11.716  1.00  0.00    -0.200 F 
ATOM     89  F   UNL     1      10.963   0.207   9.118  1.00  0.00    -0.200 F 
ENDBRANCH  56  79
ENDBRANCH  30  31
ENDBRANCH  23  25
ENDBRANCH  22  23
ENDBRANCH  21  22
ENDBRANCH   1  21
TORSDOF 13
