REMARK SMILES Cc1sc2[nH]c(SCC(=O)OCCOC(=O)c3ccc(-c4c5nc(c(-c6c(F)c(F)c(F)c(F)c6F)c6ccc([nH]6)c(-c6c(F)c(F)c(F)c(F)c6F)c6nc(c(-c7c(F)c(F)c(F)c(F)c7F)c7ccc4[nH]7)C=C6)C=C5)cc3)nc(=O)c2c1C
REMARK SMILES IDX 12 1 11 2 9 3 10 4 8 5 7 6 6 7 1 8 2 9 3 10 84 11 4 12 83 13
REMARK SMILES IDX 85 14 5 15 81 16 80 18 82 19 13 20 14 21 15 22 16 23 17 24
REMARK SMILES IDX 18 25 79 26 19 27 78 28 20 29 21 30 22 31 72 32 23 33 77 34
REMARK SMILES IDX 71 35 73 36 24 37 76 38 70 39 69 40 25 42 57 43 37 44 56 45
REMARK SMILES IDX 38 46 41 47 55 48 74 49 39 50 40 51 54 53 75 54 42 55 26 56
REMARK SMILES IDX 27 57 35 58 28 59 29 60 33 61 36 62 30 63 31 64 34 65 32 66
REMARK SMILES IDX 58 67 59 68 67 69 60 70 61 71 65 72 68 73 62 74 63 75 66 76
REMARK SMILES IDX 64 77 43 78 44 79 52 80 45 81 46 82 50 83 53 84 47 85 48 86
REMARK SMILES IDX 51 87 49 88
REMARK H PARENT 5 17 73 41 41 52
REMARK Flexibility Score: inf
ROOT
ATOM      1  C   UNL     1      -3.312   8.056  -1.891  1.00  0.00     0.274 C 
ENDROOT
BRANCH   1   2
ATOM      2  O   UNL     1      -2.027   7.809  -1.273  1.00  0.00    -0.461 OA
BRANCH   2   3
ATOM      3  C   UNL     1      -1.797   8.483  -0.117  1.00  0.00     0.316 C 
ATOM      4  O   UNL     1      -2.599   9.278   0.376  1.00  0.00    -0.251 OA
BRANCH   3   5
ATOM      5  C   UNL     1      -0.489   8.188   0.585  1.00  0.00     0.200 C 
BRANCH   5   6
ATOM      6  S   UNL     1       0.772   7.281  -0.332  1.00  0.00    -0.076 SA
BRANCH   6   7
ATOM      7  C   UNL     1       0.517   5.620   0.173  1.00  0.00     0.170 A 
ATOM      8  C   UNL     1       1.522  -0.466  -0.189  1.00  0.00     0.057 C 
ATOM      9  C   UNL     1       1.183   0.980  -0.047  1.00  0.00     0.007 A 
ATOM     10  S   UNL     1       2.271   2.173  -0.641  1.00  0.00    -0.122 S 
ATOM     11  C   UNL     1       0.038   1.544   0.499  1.00  0.00    -0.022 A 
ATOM     12  C   UNL     1       1.270   3.428  -0.122  1.00  0.00     0.108 A 
ATOM     13  C   UNL     1       0.165   2.979   0.549  1.00  0.00     0.080 A 
ATOM     14  C   UNL     1      -1.171   0.793   0.972  1.00  0.00     0.046 C 
ATOM     15  N   UNL     1       1.456   4.747  -0.307  1.00  0.00    -0.326 N 
ATOM     16  C   UNL     1      -0.717   3.954   1.183  1.00  0.00     0.282 A 
ATOM     17  H   UNL     1       2.253   5.079  -0.780  1.00  0.00     0.169 HD
ATOM     18  N   UNL     1      -0.489   5.301   0.915  1.00  0.00    -0.185 NA
ATOM     19  O   UNL     1      -1.585   3.564   1.946  1.00  0.00    -0.267 OA
ENDBRANCH   6   7
ENDBRANCH   5   6
ENDBRANCH   3   5
ENDBRANCH   2   3
ENDBRANCH   1   2
BRANCH   1  20
ATOM     20  C   UNL     1      -4.377   7.046  -1.456  1.00  0.00     0.275 C 
BRANCH  20  21
ATOM     21  O   UNL     1      -4.476   6.977  -0.018  1.00  0.00    -0.458 OA
BRANCH  21  22
ATOM     22  C   UNL     1      -3.725   5.973   0.487  1.00  0.00     0.338 C 
ATOM     23  O   UNL     1      -3.099   5.162  -0.182  1.00  0.00    -0.246 OA
BRANCH  22  24
ATOM     24  C   UNL     1      -3.765   5.872   1.958  1.00  0.00     0.060 A 
ATOM     25  C   UNL     1      -3.129   6.784   2.812  1.00  0.00     0.016 A 
ATOM     26  C   UNL     1      -4.138   4.624   2.436  1.00  0.00     0.016 A 
ATOM     27  C   UNL     1      -2.752   6.385   4.111  1.00  0.00     0.010 A 
ATOM     28  C   UNL     1      -3.751   4.234   3.713  1.00  0.00     0.010 A 
ATOM     29  C   UNL     1      -3.021   5.085   4.565  1.00  0.00    -0.014 A 
BRANCH  29  30
ATOM     30  C   UNL     1      -2.709   4.652   5.958  1.00  0.00     0.031 A 
ATOM     31  C   UNL     1      -3.601   3.552   6.460  1.00  0.00     0.074 A 
ATOM     32  C   UNL     1      -1.511   4.693   6.585  1.00  0.00     0.049 A 
ATOM     33  N   UNL     1      -3.372   2.283   6.262  1.00  0.00    -0.248 NA
ATOM     34  C   UNL     1      -4.959   3.851   6.912  1.00  0.00     0.031 C 
ATOM     35  C   UNL     1      -0.219   4.437   5.941  1.00  0.00     0.029 A 
ATOM     36  N   UNL     1      -1.233   4.645   7.940  1.00  0.00    -0.354 N 
ATOM     37  C   UNL     1      -4.576   1.629   6.438  1.00  0.00     0.074 A 
ATOM     38  C   UNL     1      -5.521   2.635   6.878  1.00  0.00     0.031 C 
ATOM     39  C   UNL     1       0.670   4.079   6.896  1.00  0.00     0.029 A 
ATOM     40  C   UNL     1       0.065   4.231   8.219  1.00  0.00     0.049 A 
ATOM     41  H   UNL     1      -1.889   4.880   8.637  1.00  0.00     0.167 HD
ATOM     42  C   UNL     1      -4.773   0.313   6.161  1.00  0.00     0.037 A 
ATOM     43  C   UNL     1       0.459   3.587   9.354  1.00  0.00     0.037 A 
ATOM     44  C   UNL     1      -3.648  -0.436   5.694  1.00  0.00     0.049 A 
ATOM     45  C   UNL     1      -0.029   2.188   9.075  1.00  0.00     0.074 A 
ATOM     46  C   UNL     1      -3.127  -0.848   4.485  1.00  0.00     0.029 A 
ATOM     47  N   UNL     1      -2.770  -0.933   6.627  1.00  0.00    -0.354 N 
ATOM     48  N   UNL     1       0.557   1.272   8.353  1.00  0.00    -0.248 NA
ATOM     49  C   UNL     1      -1.432   1.913   9.398  1.00  0.00     0.031 C 
ATOM     50  C   UNL     1      -1.749  -1.144   4.740  1.00  0.00     0.029 A 
ATOM     51  C   UNL     1      -1.518  -0.831   6.077  1.00  0.00     0.049 A 
ATOM     52  H   UNL     1      -2.996  -1.292   7.516  1.00  0.00     0.167 HD
ATOM     53  C   UNL     1      -0.480   0.447   7.908  1.00  0.00     0.074 A 
ATOM     54  C   UNL     1      -1.661   0.858   8.633  1.00  0.00     0.031 C 
ATOM     55  C   UNL     1      -0.372  -0.384   6.832  1.00  0.00     0.037 A 
BRANCH  42  56
ATOM     56  C   UNL     1      -6.027  -0.397   6.460  1.00  0.00     0.064 A 
ATOM     57  C   UNL     1      -6.087  -1.147   7.642  1.00  0.00     0.173 A 
ATOM     58  C   UNL     1      -7.070  -0.512   5.539  1.00  0.00     0.173 A 
ATOM     59  F   UNL     1      -5.088  -1.067   8.537  1.00  0.00    -0.203 F 
ATOM     60  C   UNL     1      -7.141  -2.018   7.881  1.00  0.00     0.198 A 
ATOM     61  C   UNL     1      -8.132  -1.381   5.786  1.00  0.00     0.198 A 
ATOM     62  F   UNL     1      -7.043   0.182   4.392  1.00  0.00    -0.203 F 
ATOM     63  F   UNL     1      -7.151  -2.757   8.998  1.00  0.00    -0.200 F 
ATOM     64  C   UNL     1      -8.159  -2.142   6.949  1.00  0.00     0.200 A 
ATOM     65  F   UNL     1      -9.117  -1.506   4.886  1.00  0.00    -0.200 F 
ATOM     66  F   UNL     1      -9.159  -3.006   7.165  1.00  0.00    -0.200 F 
ENDBRANCH  42  56
BRANCH  43  67
ATOM     67  C   UNL     1       0.188   4.276  10.665  1.00  0.00     0.064 A 
ATOM     68  C   UNL     1       0.544   5.634  10.803  1.00  0.00     0.173 A 
ATOM     69  C   UNL     1      -0.384   3.679  11.801  1.00  0.00     0.173 A 
ATOM     70  F   UNL     1       1.223   6.256   9.827  1.00  0.00    -0.203 F 
ATOM     71  C   UNL     1       0.213   6.376  11.939  1.00  0.00     0.198 A 
ATOM     72  C   UNL     1      -0.746   4.427  12.925  1.00  0.00     0.198 A 
ATOM     73  F   UNL     1      -0.620   2.361  11.847  1.00  0.00    -0.203 F 
ATOM     74  F   UNL     1       0.540   7.674  12.009  1.00  0.00    -0.200 F 
ATOM     75  C   UNL     1      -0.467   5.780  12.985  1.00  0.00     0.200 A 
ATOM     76  F   UNL     1      -1.388   3.833  13.941  1.00  0.00    -0.200 F 
ATOM     77  F   UNL     1      -0.844   6.502  14.049  1.00  0.00    -0.200 F 
ENDBRANCH  43  67
BRANCH  55  78
ATOM     78  C   UNL     1       1.001  -0.573   6.297  1.00  0.00     0.064 A 
ATOM     79  C   UNL     1       1.925  -1.348   7.010  1.00  0.00     0.173 A 
ATOM     80  C   UNL     1       1.400  -0.033   5.066  1.00  0.00     0.173 A 
ATOM     81  F   UNL     1       1.584  -1.896   8.187  1.00  0.00    -0.203 F 
ATOM     82  C   UNL     1       3.194  -1.594   6.497  1.00  0.00     0.198 A 
ATOM     83  C   UNL     1       2.662  -0.302   4.545  1.00  0.00     0.198 A 
ATOM     84  F   UNL     1       0.565   0.733   4.347  1.00  0.00    -0.203 F 
ATOM     85  F   UNL     1       4.059  -2.351   7.188  1.00  0.00    -0.200 F 
ATOM     86  C   UNL     1       3.556  -1.083   5.260  1.00  0.00     0.200 A 
ATOM     87  F   UNL     1       3.003   0.172   3.338  1.00  0.00    -0.200 F 
ATOM     88  F   UNL     1       4.764  -1.358   4.748  1.00  0.00    -0.200 F 
ENDBRANCH  55  78
ENDBRANCH  29  30
ENDBRANCH  22  24
ENDBRANCH  21  22
ENDBRANCH  20  21
ENDBRANCH   1  20
TORSDOF 13
