REMARK SMILES O=C(COc1ccc(/C=C/C(=O)c2ccc(F)cc2F)cc1[N+](=O)[O-])OCCOC(=O)c1ccc(-c2c3nc(c(-c4c(F)c(F)c(F)c(F)c4F)c4ccc([nH]4)c(-c4c(F)c(F)c(F)c(F)c4F)c4nc(c(-c5c(F)c(F)c(F)c(F)c5F)c5ccc2[nH]5)C=C4)C=C3)cc1
REMARK SMILES IDX 26 1 2 2 1 3 3 4 4 5 5 6 6 7 22 8 7 9 21 10 8 11 23 12 24 13
REMARK SMILES IDX 25 14 9 15 10 16 11 17 12 18 13 19 14 20 19 21 15 22 18 23
REMARK SMILES IDX 20 24 16 25 17 26 27 27 28 28 29 29 30 30 31 31 32 32 33 33
REMARK SMILES IDX 94 34 34 35 93 36 35 37 36 38 37 39 87 40 38 41 92 42 86 43
REMARK SMILES IDX 88 44 39 45 91 46 85 47 84 48 40 50 72 51 52 52 71 53 53 54
REMARK SMILES IDX 56 55 70 56 89 57 54 58 55 59 69 61 90 62 57 63 41 64 42 65
REMARK SMILES IDX 50 66 43 67 44 68 48 69 51 70 45 71 46 72 49 73 47 74 73 75
REMARK SMILES IDX 74 76 82 77 75 78 76 79 80 80 83 81 77 82 78 83 81 84 79 85
REMARK SMILES IDX 58 86 59 87 67 88 60 89 61 90 65 91 68 92 62 93 63 94 66 95
REMARK SMILES IDX 64 96
REMARK H PARENT 88 49 56 60
REMARK Flexibility Score: inf
ROOT
ATOM      1  O   UNL     1       3.394  -1.244   0.420  1.00  0.00    -0.460 OA
ENDROOT
BRANCH   1   2
ATOM      2  C   UNL     1       2.506  -0.306   0.015  1.00  0.00     0.344 C 
ATOM      3  O   UNL     1       1.319  -0.583  -0.132  1.00  0.00    -0.248 OA
BRANCH   2   4
ATOM      4  C   UNL     1       3.019   1.111  -0.208  1.00  0.00     0.352 C 
BRANCH   4   5
ATOM      5  O   UNL     1       3.768   1.608   0.894  1.00  0.00    -0.475 OA
BRANCH   5   6
ATOM      6  C   UNL     1       3.202   2.679   1.522  1.00  0.00     0.197 A 
ATOM      7  C   UNL     1       3.962   3.852   1.535  1.00  0.00     0.054 A 
ATOM      8  C   UNL     1       2.006   2.664   2.238  1.00  0.00     0.311 A 
ATOM      9  C   UNL     1       3.536   4.973   2.265  1.00  0.00     0.012 A 
ATOM     10  C   UNL     1       1.571   3.771   2.969  1.00  0.00     0.098 A 
ATOM     11  C   UNL     1       2.353   4.928   3.013  1.00  0.00    -0.018 A 
BRANCH   8  12
ATOM     12  N   UNL     1       1.162   1.497   2.299  1.00  0.00     0.066 N 
ATOM     13  O   UNL     1       1.563   0.544   2.975  1.00  0.00    -0.258 OA
ATOM     14  O   UNL     1       0.082   1.576   1.700  1.00  0.00    -0.258 OA
ENDBRANCH   8  12
BRANCH  11  15
ATOM     15  C   UNL     1       1.881   6.001   3.890  1.00  0.00     0.012 C 
ATOM     16  C   UNL     1       2.665   6.878   4.535  1.00  0.00     0.053 C 
BRANCH  16  17
ATOM     17  C   UNL     1       2.094   7.777   5.571  1.00  0.00     0.188 C 
ATOM     18  O   UNL     1       2.472   8.939   5.661  1.00  0.00    -0.289 OA
BRANCH  17  19
ATOM     19  C   UNL     1       1.052   7.251   6.486  1.00  0.00     0.058 A 
ATOM     20  C   UNL     1      -0.055   8.055   6.782  1.00  0.00     0.018 A 
ATOM     21  C   UNL     1       1.148   5.971   7.045  1.00  0.00     0.137 A 
ATOM     22  C   UNL     1      -1.073   7.553   7.597  1.00  0.00     0.040 A 
ATOM     23  C   UNL     1       0.136   5.470   7.856  1.00  0.00     0.079 A 
ATOM     24  F   UNL     1       2.216   5.195   6.813  1.00  0.00    -0.206 F 
ATOM     25  C   UNL     1      -0.971   6.266   8.119  1.00  0.00     0.126 A 
ATOM     26  F   UNL     1      -1.956   5.787   8.888  1.00  0.00    -0.207 F 
ENDBRANCH  17  19
ENDBRANCH  16  17
ENDBRANCH  11  15
ENDBRANCH   5   6
ENDBRANCH   4   5
ENDBRANCH   2   4
ENDBRANCH   1   2
BRANCH   1  27
ATOM     27  C   UNL     1       4.729  -1.285  -0.120  1.00  0.00     0.274 C 
BRANCH  27  28
ATOM     28  C   UNL     1       4.711  -1.890  -1.527  1.00  0.00     0.275 C 
BRANCH  28  29
ATOM     29  O   UNL     1       4.204  -0.910  -2.456  1.00  0.00    -0.458 OA
BRANCH  29  30
ATOM     30  C   UNL     1       2.991  -1.155  -3.015  1.00  0.00     0.338 C 
ATOM     31  O   UNL     1       2.315  -2.160  -2.911  1.00  0.00    -0.246 OA
BRANCH  30  32
ATOM     32  C   UNL     1       2.537   0.104  -3.644  1.00  0.00     0.060 A 
ATOM     33  C   UNL     1       1.297   0.645  -3.280  1.00  0.00     0.016 A 
ATOM     34  C   UNL     1       3.357   0.773  -4.555  1.00  0.00     0.016 A 
ATOM     35  C   UNL     1       0.883   1.870  -3.815  1.00  0.00     0.010 A 
ATOM     36  C   UNL     1       2.931   1.982  -5.109  1.00  0.00     0.010 A 
ATOM     37  C   UNL     1       1.690   2.536  -4.747  1.00  0.00    -0.014 A 
BRANCH  37  38
ATOM     38  C   UNL     1       1.221   3.756  -5.450  1.00  0.00     0.031 A 
ATOM     39  C   UNL     1       0.556   3.609  -6.789  1.00  0.00     0.074 A 
ATOM     40  C   UNL     1       1.458   4.981  -4.948  1.00  0.00     0.049 A 
ATOM     41  N   UNL     1       0.225   4.532  -7.656  1.00  0.00    -0.248 NA
ATOM     42  C   UNL     1       0.229   2.238  -7.210  1.00  0.00     0.031 C 
ATOM     43  C   UNL     1       2.067   5.261  -3.650  1.00  0.00     0.029 A 
ATOM     44  N   UNL     1       1.245   6.224  -5.495  1.00  0.00    -0.354 N 
ATOM     45  C   UNL     1      -0.338   3.854  -8.728  1.00  0.00     0.074 A 
ATOM     46  C   UNL     1      -0.295   2.443  -8.410  1.00  0.00     0.031 C 
ATOM     47  C   UNL     1       2.215   6.592  -3.516  1.00  0.00     0.029 A 
ATOM     48  C   UNL     1       1.748   7.252  -4.735  1.00  0.00     0.049 A 
ATOM     49  H   UNL     1       0.776   6.364  -6.350  1.00  0.00     0.167 HD
ATOM     50  C   UNL     1      -0.842   4.365  -9.876  1.00  0.00     0.037 A 
ATOM     51  C   UNL     1       1.859   8.568  -5.012  1.00  0.00     0.037 A 
ATOM     52  C   UNL     1      -0.892   5.766 -10.194  1.00  0.00     0.049 A 
ATOM     53  C   UNL     1       1.366   9.098  -6.337  1.00  0.00     0.074 A 
ATOM     54  C   UNL     1      -1.445   6.376 -11.307  1.00  0.00     0.029 A 
ATOM     55  N   UNL     1      -0.358   6.774  -9.408  1.00  0.00    -0.354 N 
ATOM     56  N   UNL     1       0.782   8.458  -7.321  1.00  0.00    -0.248 NA
ATOM     57  C   UNL     1       1.559  10.534  -6.594  1.00  0.00     0.031 C 
ATOM     58  C   UNL     1      -1.192   7.748 -11.223  1.00  0.00     0.029 A 
ATOM     59  C   UNL     1      -0.526   7.998 -10.035  1.00  0.00     0.049 A 
ATOM     60  H   UNL     1       0.077   6.640  -8.535  1.00  0.00     0.167 HD
ATOM     61  C   UNL     1       0.519   9.414  -8.296  1.00  0.00     0.074 A 
ATOM     62  C   UNL     1       0.990  10.680  -7.782  1.00  0.00     0.031 C 
ATOM     63  C   UNL     1      -0.058   9.254  -9.512  1.00  0.00     0.037 A 
BRANCH  50  64
ATOM     64  C   UNL     1      -1.363   3.404 -10.898  1.00  0.00     0.064 A 
ATOM     65  C   UNL     1      -2.598   2.759 -10.739  1.00  0.00     0.173 A 
ATOM     66  C   UNL     1      -0.654   3.191 -12.090  1.00  0.00     0.173 A 
ATOM     67  F   UNL     1      -3.305   2.925  -9.612  1.00  0.00    -0.203 F 
ATOM     68  C   UNL     1      -3.102   1.929 -11.737  1.00  0.00     0.198 A 
ATOM     69  C   UNL     1      -1.171   2.378 -13.094  1.00  0.00     0.198 A 
ATOM     70  F   UNL     1       0.531   3.789 -12.287  1.00  0.00    -0.203 F 
ATOM     71  F   UNL     1      -4.274   1.306 -11.559  1.00  0.00    -0.200 F 
ATOM     72  C   UNL     1      -2.393   1.748 -12.916  1.00  0.00     0.200 A 
ATOM     73  F   UNL     1      -0.491   2.213 -14.237  1.00  0.00    -0.200 F 
ATOM     74  F   UNL     1      -2.889   0.963 -13.883  1.00  0.00    -0.200 F 
ENDBRANCH  50  64
BRANCH  51  75
ATOM     75  C   UNL     1       2.517   9.488  -4.046  1.00  0.00     0.064 A 
ATOM     76  C   UNL     1       1.795  10.508  -3.410  1.00  0.00     0.173 A 
ATOM     77  C   UNL     1       3.895   9.413  -3.796  1.00  0.00     0.173 A 
ATOM     78  F   UNL     1       0.481  10.642  -3.642  1.00  0.00    -0.203 F 
ATOM     79  C   UNL     1       2.432  11.437  -2.588  1.00  0.00     0.198 A 
ATOM     80  C   UNL     1       4.525  10.322  -2.950  1.00  0.00     0.198 A 
ATOM     81  F   UNL     1       4.634   8.460  -4.384  1.00  0.00    -0.203 F 
ATOM     82  F   UNL     1       1.729  12.441  -2.048  1.00  0.00    -0.200 F 
ATOM     83  C   UNL     1       3.796  11.341  -2.357  1.00  0.00     0.200 A 
ATOM     84  F   UNL     1       5.842  10.221  -2.722  1.00  0.00    -0.200 F 
ATOM     85  F   UNL     1       4.410  12.240  -1.576  1.00  0.00    -0.200 F 
ENDBRANCH  51  75
BRANCH  63  86
ATOM     86  C   UNL     1      -0.235  10.475 -10.368  1.00  0.00     0.064 A 
ATOM     87  C   UNL     1       0.855  11.086 -11.006  1.00  0.00     0.173 A 
ATOM     88  C   UNL     1      -1.514  11.004 -10.602  1.00  0.00     0.173 A 
ATOM     89  F   UNL     1       2.099  10.628 -10.802  1.00  0.00    -0.203 F 
ATOM     90  C   UNL     1       0.672  12.189 -11.836  1.00  0.00     0.198 A 
ATOM     91  C   UNL     1      -1.696  12.089 -11.455  1.00  0.00     0.198 A 
ATOM     92  F   UNL     1      -2.590  10.452 -10.021  1.00  0.00    -0.203 F 
ATOM     93  F   UNL     1       1.731  12.778 -12.407  1.00  0.00    -0.200 F 
ATOM     94  C   UNL     1      -0.603  12.684 -12.067  1.00  0.00     0.200 A 
ATOM     95  F   UNL     1      -2.930  12.556 -11.688  1.00  0.00    -0.200 F 
ATOM     96  F   UNL     1      -0.778  13.737 -12.877  1.00  0.00    -0.200 F 
ENDBRANCH  63  86
ENDBRANCH  37  38
ENDBRANCH  30  32
ENDBRANCH  29  30
ENDBRANCH  28  29
ENDBRANCH  27  28
ENDBRANCH   1  27
TORSDOF 17
