REMARK SMILES Cc1c(Br)c(C)c2c(c1Br)O[C@H](C(F)(F)F)C(C(=O)OCCOC(=O)c1ccc(-c3c4nc(c(-c5c(F)c(F)c(F)c(F)c5F)c5ccc([nH]5)c(-c5c(F)c(F)c(F)c(F)c5F)c5nc(c(-c6c(F)c(F)c(F)c(F)c6F)c6ccc3[nH]6)C=C5)C=C4)cc1)=C2
REMARK SMILES IDX 22 1 21 2 20 3 18 4 19 5 17 6 1 7 2 8 3 9 9 10 4 11 5 12
REMARK SMILES IDX 8 13 10 14 6 15 7 16 11 17 89 18 12 19 13 20 14 21 15 22
REMARK SMILES IDX 16 23 23 24 24 25 25 26 26 27 27 28 88 29 28 30 87 31 29 32
REMARK SMILES IDX 30 33 31 34 81 35 32 36 86 37 80 38 82 39 33 40 85 41 79 42
REMARK SMILES IDX 78 43 34 45 66 46 46 47 65 48 47 49 50 50 64 51 83 52 48 53
REMARK SMILES IDX 49 54 63 56 84 57 51 58 35 59 36 60 44 61 37 62 38 63 42 64
REMARK SMILES IDX 45 65 39 66 40 67 43 68 41 69 67 70 68 71 76 72 69 73 70 74
REMARK SMILES IDX 74 75 77 76 71 77 72 78 75 79 73 80 52 81 53 82 61 83 54 84
REMARK SMILES IDX 55 85 59 86 62 87 56 88 57 89 60 90 58 91
REMARK H PARENT 82 44 50 55
REMARK Flexibility Score: inf
ROOT
ATOM      1  C   UNL     1      -2.824  -4.272  -8.948  1.00  0.00     0.275 C 
ENDROOT
BRANCH   1   2
ATOM      2  C   UNL     1      -1.431  -4.695  -8.483  1.00  0.00     0.275 C 
BRANCH   2   3
ATOM      3  O   UNL     1      -1.202  -4.312  -7.109  1.00  0.00    -0.459 OA
BRANCH   3   4
ATOM      4  C   UNL     1      -0.426  -3.219  -6.930  1.00  0.00     0.338 C 
ATOM      5  O   UNL     1       0.094  -2.539  -7.801  1.00  0.00    -0.246 OA
BRANCH   4   6
ATOM      6  C   UNL     1      -0.291  -2.913  -5.493  1.00  0.00     0.087 C 
ATOM      7  C   UNL     1       0.963  -0.273   0.354  1.00  0.00     0.047 C 
ATOM      8  C   UNL     1       0.517  -0.606  -1.052  1.00  0.00    -0.019 A 
ATOM      9  C   UNL     1       0.110   0.401  -1.960  1.00  0.00     0.025 A 
ATOM     10  C   UNL     1       0.570  -1.940  -1.515  1.00  0.00     0.064 A 
ATOM     11  Br  UNL     1       0.134   2.237  -1.395  1.00  0.00    -0.050 Br
ATOM     12  C   UNL     1      -0.276   0.085  -3.287  1.00  0.00    -0.026 A 
ATOM     13  C   UNL     1       0.213  -2.270  -2.834  1.00  0.00     0.142 A 
ATOM     14  Br  UNL     1       1.193  -3.352  -0.375  1.00  0.00    -0.046 Br
ATOM     15  C   UNL     1      -0.764   1.141  -4.256  1.00  0.00     0.046 C 
ATOM     16  C   UNL     1      -0.194  -1.265  -3.720  1.00  0.00     0.022 A 
ATOM     17  O   UNL     1       0.256  -3.597  -3.183  1.00  0.00    -0.474 OA
ATOM     18  C   UNL     1      -0.478  -1.648  -5.102  1.00  0.00     0.027 C 
ATOM     19  C   UNL     1       0.185  -3.990  -4.574  1.00  0.00     0.316 C 
BRANCH  19  20
ATOM     20  C   UNL     1       1.548  -4.549  -5.015  1.00  0.00     0.430 C 
ATOM     21  F   UNL     1       1.989  -5.507  -4.167  1.00  0.00    -0.167 F 
ATOM     22  F   UNL     1       1.476  -5.120  -6.242  1.00  0.00    -0.167 F 
ATOM     23  F   UNL     1       2.496  -3.586  -5.073  1.00  0.00    -0.167 F 
ENDBRANCH  19  20
ENDBRANCH   4   6
ENDBRANCH   3   4
ENDBRANCH   2   3
ENDBRANCH   1   2
BRANCH   1  24
ATOM     24  O   UNL     1      -2.914  -2.836  -8.988  1.00  0.00    -0.458 OA
BRANCH  24  25
ATOM     25  C   UNL     1      -3.730  -2.274  -8.069  1.00  0.00     0.338 C 
ATOM     26  O   UNL     1      -4.431  -2.840  -7.248  1.00  0.00    -0.246 OA
BRANCH  25  27
ATOM     27  C   UNL     1      -3.619  -0.807  -8.132  1.00  0.00     0.060 A 
ATOM     28  C   UNL     1      -2.391  -0.215  -7.869  1.00  0.00     0.016 A 
ATOM     29  C   UNL     1      -4.757  -0.015  -8.269  1.00  0.00     0.016 A 
ATOM     30  C   UNL     1      -2.319   1.147  -7.593  1.00  0.00     0.010 A 
ATOM     31  C   UNL     1      -4.653   1.376  -8.129  1.00  0.00     0.010 A 
ATOM     32  C   UNL     1      -3.443   1.973  -7.731  1.00  0.00    -0.014 A 
BRANCH  32  33
ATOM     33  C   UNL     1      -3.351   3.432  -7.409  1.00  0.00     0.031 A 
ATOM     34  C   UNL     1      -4.308   4.063  -6.425  1.00  0.00     0.074 A 
ATOM     35  C   UNL     1      -2.378   4.196  -7.950  1.00  0.00     0.049 A 
ATOM     36  N   UNL     1      -4.498   5.330  -6.150  1.00  0.00    -0.248 NA
ATOM     37  C   UNL     1      -5.174   3.154  -5.657  1.00  0.00     0.031 C 
ATOM     38  C   UNL     1      -1.341   3.725  -8.870  1.00  0.00     0.029 A 
ATOM     39  N   UNL     1      -2.081   5.529  -7.783  1.00  0.00    -0.354 N 
ATOM     40  C   UNL     1      -5.545   5.371  -5.236  1.00  0.00     0.074 A 
ATOM     41  C   UNL     1      -5.952   4.003  -5.001  1.00  0.00     0.031 C 
ATOM     42  C   UNL     1      -0.478   4.720  -9.114  1.00  0.00     0.029 A 
ATOM     43  C   UNL     1      -0.966   5.937  -8.477  1.00  0.00     0.049 A 
ATOM     44  H   UNL     1      -2.616   6.133  -7.220  1.00  0.00     0.167 HD
ATOM     45  C   UNL     1      -6.113   6.452  -4.647  1.00  0.00     0.037 A 
ATOM     46  C   UNL     1      -0.417   7.157  -8.630  1.00  0.00     0.037 A 
ATOM     47  C   UNL     1      -5.655   7.806  -4.823  1.00  0.00     0.049 A 
ATOM     48  C   UNL     1      -1.088   8.345  -8.002  1.00  0.00     0.074 A 
ATOM     49  C   UNL     1      -6.165   8.967  -4.265  1.00  0.00     0.029 A 
ATOM     50  N   UNL     1      -4.563   8.179  -5.592  1.00  0.00    -0.354 N 
ATOM     51  N   UNL     1      -2.139   8.381  -7.221  1.00  0.00    -0.248 NA
ATOM     52  C   UNL     1      -0.521   9.666  -8.309  1.00  0.00     0.031 C 
ATOM     53  C   UNL     1      -5.403  10.046  -4.724  1.00  0.00     0.029 A 
ATOM     54  C   UNL     1      -4.391   9.553  -5.532  1.00  0.00     0.049 A 
ATOM     55  H   UNL     1      -3.995   7.560  -6.104  1.00  0.00     0.167 HD
ATOM     56  C   UNL     1      -2.360   9.722  -6.943  1.00  0.00     0.074 A 
ATOM     57  C   UNL     1      -1.318  10.468  -7.616  1.00  0.00     0.031 C 
ATOM     58  C   UNL     1      -3.348  10.283  -6.205  1.00  0.00     0.037 A 
BRANCH  45  59
ATOM     59  C   UNL     1      -7.312   6.231  -3.769  1.00  0.00     0.064 A 
ATOM     60  C   UNL     1      -7.204   5.660  -2.494  1.00  0.00     0.173 A 
ATOM     61  C   UNL     1      -8.579   6.670  -4.187  1.00  0.00     0.173 A 
ATOM     62  F   UNL     1      -6.019   5.214  -2.052  1.00  0.00    -0.203 F 
ATOM     63  C   UNL     1      -8.323   5.522  -1.675  1.00  0.00     0.198 A 
ATOM     64  C   UNL     1      -9.689   6.557  -3.354  1.00  0.00     0.198 A 
ATOM     65  F   UNL     1      -8.736   7.231  -5.395  1.00  0.00    -0.203 F 
ATOM     66  F   UNL     1      -8.203   4.943  -0.472  1.00  0.00    -0.200 F 
ATOM     67  C   UNL     1      -9.562   5.980  -2.101  1.00  0.00     0.200 A 
ATOM     68  F   UNL     1     -10.881   7.015  -3.763  1.00  0.00    -0.200 F 
ATOM     69  F   UNL     1     -10.633   5.862  -1.304  1.00  0.00    -0.200 F 
ENDBRANCH  45  59
BRANCH  46  70
ATOM     70  C   UNL     1       0.813   7.316  -9.451  1.00  0.00     0.064 A 
ATOM     71  C   UNL     1       2.030   7.681  -8.860  1.00  0.00     0.173 A 
ATOM     72  C   UNL     1       0.808   7.072 -10.834  1.00  0.00     0.173 A 
ATOM     73  F   UNL     1       2.082   7.954  -7.548  1.00  0.00    -0.203 F 
ATOM     74  C   UNL     1       3.195   7.790  -9.619  1.00  0.00     0.198 A 
ATOM     75  C   UNL     1       1.979   7.148 -11.584  1.00  0.00     0.198 A 
ATOM     76  F   UNL     1      -0.331   6.725 -11.450  1.00  0.00    -0.203 F 
ATOM     77  F   UNL     1       4.339   8.170  -9.034  1.00  0.00    -0.200 F 
ATOM     78  C   UNL     1       3.171   7.511 -10.977  1.00  0.00     0.200 A 
ATOM     79  F   UNL     1       1.953   6.858 -12.892  1.00  0.00    -0.200 F 
ATOM     80  F   UNL     1       4.295   7.593 -11.701  1.00  0.00    -0.200 F 
ENDBRANCH  46  70
BRANCH  58  81
ATOM     81  C   UNL     1      -3.350  11.776  -6.072  1.00  0.00     0.064 A 
ATOM     82  C   UNL     1      -3.749  12.602  -7.133  1.00  0.00     0.173 A 
ATOM     83  C   UNL     1      -3.017  12.383  -4.852  1.00  0.00     0.173 A 
ATOM     84  F   UNL     1      -4.063  12.068  -8.323  1.00  0.00    -0.203 F 
ATOM     85  C   UNL     1      -3.806  13.984  -6.979  1.00  0.00     0.198 A 
ATOM     86  C   UNL     1      -3.099  13.763  -4.694  1.00  0.00     0.198 A 
ATOM     87  F   UNL     1      -2.635  11.634  -3.807  1.00  0.00    -0.203 F 
ATOM     88  F   UNL     1      -4.162  14.758  -8.014  1.00  0.00    -0.200 F 
ATOM     89  C   UNL     1      -3.490  14.563  -5.758  1.00  0.00     0.200 A 
ATOM     90  F   UNL     1      -2.807  14.320  -3.511  1.00  0.00    -0.200 F 
ATOM     91  F   UNL     1      -3.561  15.892  -5.607  1.00  0.00    -0.200 F 
ENDBRANCH  58  81
ENDBRANCH  32  33
ENDBRANCH  25  27
ENDBRANCH  24  25
ENDBRANCH   1  24
TORSDOF 12
