REMARK SMILES Cc1coc2c(C)c3oc(=O)c(CCC(=O)N[C@H](CC(C)C)C(=O)OCCOC(=O)c4ccc(-c5c6nc(c(-c7c(F)c(F)c(F)c(F)c7F)c7ccc([nH]7)c(-c7c(F)c(F)c(F)c(F)c7F)c7nc(c(-c8c(F)c(F)c(F)c(F)c8F)c8ccc5[nH]8)C=C7)C=C6)cc4)c(C)c3cc12
REMARK SMILES IDX 26 1 25 2 23 3 24 4 18 5 17 6 15 7 16 8 14 10 13 11 12 12
REMARK SMILES IDX 1 13 2 14 3 15 98 16 4 17 5 18 97 19 6 20 96 21 7 22 8 23
REMARK SMILES IDX 94 24 9 25 95 26 10 27 11 28 19 29 20 30 21 31 22 32 27 33
REMARK SMILES IDX 28 34 29 35 30 36 31 37 32 38 93 39 33 40 92 41 34 42 35 43
REMARK SMILES IDX 36 44 86 45 37 46 91 47 85 48 87 49 38 50 90 51 84 52 83 53
REMARK SMILES IDX 39 55 71 56 51 57 70 58 52 59 55 60 69 61 88 62 53 63 54 64
REMARK SMILES IDX 68 66 89 67 56 68 40 69 41 70 49 71 42 72 43 73 47 74 50 75
REMARK SMILES IDX 44 76 45 77 48 78 46 79 72 80 73 81 81 82 74 83 75 84 79 85
REMARK SMILES IDX 82 86 76 87 77 88 80 89 78 90 57 91 58 92 66 93 59 94 60 95
REMARK SMILES IDX 64 96 67 97 61 98 62 99 65 100 63 101
REMARK H PARENT 17 9 87 54 55 65
REMARK Flexibility Score: inf
ROOT
ATOM      1  C   UNL     1       5.486   1.720   3.093  1.00  0.00     0.274 C 
ENDROOT
BRANCH   1   2
ATOM      2  O   UNL     1       4.853   2.449   2.021  1.00  0.00    -0.461 OA
BRANCH   2   3
ATOM      3  C   UNL     1       3.693   3.058   2.335  1.00  0.00     0.328 C 
ATOM      4  O   UNL     1       3.143   2.852   3.425  1.00  0.00    -0.250 OA
BRANCH   3   5
ATOM      5  C   UNL     1       2.980   4.146   1.182  1.00  0.00     0.192 C 
BRANCH   5   6
ATOM      6  N   UNL     1       1.525   3.534   1.732  1.00  0.00    -0.343 N 
ATOM      7  C   UNL     1       0.856   2.350   1.536  1.00  0.00     0.221 C 
ATOM      8  O   UNL     1      -0.158   2.103   2.186  1.00  0.00    -0.275 OA
ATOM      9  H   UNL     1       1.044   4.157   2.323  1.00  0.00     0.164 HD
BRANCH   7  10
ATOM     10  C   UNL     1       1.386   1.389   0.491  1.00  0.00     0.105 C 
BRANCH  10  11
ATOM     11  C   UNL     1       1.484   2.073  -0.866  1.00  0.00     0.053 C 
BRANCH  11  12
ATOM     12  C   UNL     1       2.139   3.384  -0.602  1.00  0.00     0.042 A 
ATOM     13  C   UNL     1       1.083  10.269   2.176  1.00  0.00     0.048 C 
ATOM     14  C   UNL     1       2.419   9.662   1.955  1.00  0.00    -0.005 A 
ATOM     15  C   UNL     1       3.643  10.280   2.069  1.00  0.00     0.199 A 
ATOM     16  C   UNL     1       2.683   8.319   1.516  1.00  0.00     0.024 A 
ATOM     17  O   UNL     1       4.649   9.422   1.789  1.00  0.00    -0.464 OA
ATOM     18  C   UNL     1       4.104   8.204   1.480  1.00  0.00     0.140 A 
ATOM     19  C   UNL     1       1.773   7.296   1.064  1.00  0.00     0.024 A 
ATOM     20  C   UNL     1       4.912   7.090   1.143  1.00  0.00     0.036 A 
ATOM     21  C   UNL     1       2.355   6.139   0.616  1.00  0.00     0.022 A 
ATOM     22  C   UNL     1       6.354   7.074   0.777  1.00  0.00     0.052 C 
ATOM     23  C   UNL     1       4.055   6.055   0.892  1.00  0.00     0.145 A 
ATOM     24  C   UNL     1       1.440   4.740  -0.249  1.00  0.00    -0.030 A 
ATOM     25  O   UNL     1       4.798   4.432   0.531  1.00  0.00    -0.422 OA
ATOM     26  C   UNL     1      -0.042   4.981  -0.332  1.00  0.00     0.046 C 
ATOM     27  C   UNL     1       4.019   3.030  -0.267  1.00  0.00     0.339 A 
ATOM     28  O   UNL     1       4.641   2.040  -0.612  1.00  0.00    -0.246 OA
ENDBRANCH  11  12
ENDBRANCH  10  11
ENDBRANCH   7  10
ENDBRANCH   5   6
BRANCH   5  29
ATOM     29  C   UNL     1       3.483   4.957  -0.795  1.00  0.00     0.040 C 
BRANCH  29  30
ATOM     30  C   UNL     1       2.877   6.229  -1.888  1.00  0.00    -0.015 C 
ATOM     31  C   UNL     1       3.541   7.622  -1.806  1.00  0.00     0.007 C 
ATOM     32  C   UNL     1       3.179   5.769  -3.337  1.00  0.00     0.007 C 
ENDBRANCH  29  30
ENDBRANCH   5  29
ENDBRANCH   3   5
ENDBRANCH   2   3
ENDBRANCH   1   2
BRANCH   1  33
ATOM     33  C   UNL     1       6.779   2.440   3.439  1.00  0.00     0.275 C 
BRANCH  33  34
ATOM     34  O   UNL     1       6.668   3.361   4.542  1.00  0.00    -0.458 OA
BRANCH  34  35
ATOM     35  C   UNL     1       6.070   4.538   4.264  1.00  0.00     0.338 C 
ATOM     36  O   UNL     1       4.983   4.718   3.748  1.00  0.00    -0.246 OA
BRANCH  35  37
ATOM     37  C   UNL     1       6.995   5.662   4.404  1.00  0.00     0.060 A 
ATOM     38  C   UNL     1       6.475   6.918   4.085  1.00  0.00     0.016 A 
ATOM     39  C   UNL     1       8.370   5.451   4.527  1.00  0.00     0.016 A 
ATOM     40  C   UNL     1       7.339   7.900   3.660  1.00  0.00     0.010 A 
ATOM     41  C   UNL     1       9.234   6.470   4.178  1.00  0.00     0.010 A 
ATOM     42  C   UNL     1       8.719   7.655   3.649  1.00  0.00    -0.014 A 
BRANCH  42  43
ATOM     43  C   UNL     1       9.591   8.765   3.256  1.00  0.00     0.031 A 
ATOM     44  C   UNL     1       9.238  10.037   3.965  1.00  0.00     0.074 A 
ATOM     45  C   UNL     1      10.676   8.586   2.472  1.00  0.00     0.049 A 
ATOM     46  N   UNL     1       9.075  11.224   3.474  1.00  0.00    -0.248 NA
ATOM     47  C   UNL     1       8.832   9.921   5.387  1.00  0.00     0.031 C 
ATOM     48  C   UNL     1      11.167   7.325   1.903  1.00  0.00     0.029 A 
ATOM     49  N   UNL     1      11.669   9.458   2.139  1.00  0.00    -0.354 N 
ATOM     50  C   UNL     1       8.711  12.022   4.558  1.00  0.00     0.074 A 
ATOM     51  C   UNL     1       8.387  11.146   5.648  1.00  0.00     0.031 C 
ATOM     52  C   UNL     1      12.472   7.456   1.582  1.00  0.00     0.029 A 
ATOM     53  C   UNL     1      12.869   8.832   1.808  1.00  0.00     0.049 A 
ATOM     54  H   UNL     1      11.551  10.435   2.132  1.00  0.00     0.167 HD
ATOM     55  C   UNL     1       8.979  13.352   4.591  1.00  0.00     0.037 A 
ATOM     56  C   UNL     1      14.107   9.389   1.855  1.00  0.00     0.037 A 
ATOM     57  C   UNL     1       9.148  13.897   3.277  1.00  0.00     0.049 A 
ATOM     58  C   UNL     1      13.919  10.860   1.881  1.00  0.00     0.074 A 
ATOM     59  C   UNL     1       8.322  14.096   2.192  1.00  0.00     0.029 A 
ATOM     60  N   UNL     1      10.431  14.005   2.814  1.00  0.00    -0.354 N 
ATOM     61  N   UNL     1      13.449  11.559   0.888  1.00  0.00    -0.248 NA
ATOM     62  C   UNL     1      13.886  11.517   3.179  1.00  0.00     0.031 C 
ATOM     63  C   UNL     1       9.152  13.916   1.048  1.00  0.00     0.029 A 
ATOM     64  C   UNL     1      10.451  13.662   1.490  1.00  0.00     0.049 A 
ATOM     65  H   UNL     1      11.211  14.283   3.347  1.00  0.00     0.167 HD
ATOM     66  C   UNL     1      12.679  12.543   1.487  1.00  0.00     0.074 A 
ATOM     67  C   UNL     1      13.082  12.541   2.889  1.00  0.00     0.031 C 
ATOM     68  C   UNL     1      11.592  13.056   0.842  1.00  0.00     0.037 A 
BRANCH  55  69
ATOM     69  C   UNL     1       9.504  14.019   5.836  1.00  0.00     0.064 A 
ATOM     70  C   UNL     1       9.541  15.420   5.922  1.00  0.00     0.173 A 
ATOM     71  C   UNL     1      10.229  13.325   6.834  1.00  0.00     0.173 A 
ATOM     72  F   UNL     1       8.941  16.174   4.990  1.00  0.00    -0.203 F 
ATOM     73  C   UNL     1      10.267  16.073   6.924  1.00  0.00     0.198 A 
ATOM     74  C   UNL     1      10.896  13.975   7.866  1.00  0.00     0.198 A 
ATOM     75  F   UNL     1      10.418  12.000   6.784  1.00  0.00    -0.203 F 
ATOM     76  F   UNL     1      10.365  17.409   6.910  1.00  0.00    -0.200 F 
ATOM     77  C   UNL     1      10.936  15.351   7.898  1.00  0.00     0.200 A 
ATOM     78  F   UNL     1      11.564  13.253   8.777  1.00  0.00    -0.200 F 
ATOM     79  F   UNL     1      11.664  15.975   8.833  1.00  0.00    -0.200 F 
ENDBRANCH  55  69
BRANCH  56  80
ATOM     80  C   UNL     1      15.384   8.760   2.293  1.00  0.00     0.064 A 
ATOM     81  C   UNL     1      16.606   9.435   2.115  1.00  0.00     0.173 A 
ATOM     82  C   UNL     1      15.415   7.644   3.153  1.00  0.00     0.173 A 
ATOM     83  F   UNL     1      16.665  10.531   1.343  1.00  0.00    -0.203 F 
ATOM     84  C   UNL     1      17.769   9.049   2.792  1.00  0.00     0.198 A 
ATOM     85  C   UNL     1      16.579   7.252   3.817  1.00  0.00     0.198 A 
ATOM     86  F   UNL     1      14.299   6.967   3.451  1.00  0.00    -0.203 F 
ATOM     87  F   UNL     1      18.892   9.769   2.657  1.00  0.00    -0.200 F 
ATOM     88  C   UNL     1      17.750   7.965   3.653  1.00  0.00     0.200 A 
ATOM     89  F   UNL     1      16.538   6.220   4.672  1.00  0.00    -0.200 F 
ATOM     90  F   UNL     1      18.843   7.637   4.356  1.00  0.00    -0.200 F 
ENDBRANCH  56  80
BRANCH  68  91
ATOM     91  C   UNL     1      11.470  12.783  -0.631  1.00  0.00     0.064 A 
ATOM     92  C   UNL     1      11.291  11.506  -1.190  1.00  0.00     0.173 A 
ATOM     93  C   UNL     1      11.403  13.882  -1.498  1.00  0.00     0.173 A 
ATOM     94  F   UNL     1      11.251  10.413  -0.417  1.00  0.00    -0.203 F 
ATOM     95  C   UNL     1      11.093  11.339  -2.560  1.00  0.00     0.198 A 
ATOM     96  C   UNL     1      11.165  13.716  -2.858  1.00  0.00     0.198 A 
ATOM     97  F   UNL     1      11.518  15.128  -1.012  1.00  0.00    -0.203 F 
ATOM     98  F   UNL     1      10.939  10.110  -3.074  1.00  0.00    -0.200 F 
ATOM     99  C   UNL     1      11.020  12.446  -3.391  1.00  0.00     0.200 A 
ATOM    100  F   UNL     1      11.047  14.792  -3.648  1.00  0.00    -0.200 F 
ATOM    101  F   UNL     1      10.784  12.290  -4.701  1.00  0.00    -0.200 F 
ENDBRANCH  68  91
ENDBRANCH  42  43
ENDBRANCH  35  37
ENDBRANCH  34  35
ENDBRANCH  33  34
ENDBRANCH   1  33
TORSDOF 17
