REMARK SMILES CC(C)S(=O)(=O)N[C@](C)(C(=O)OCCOC(=O)c1ccc(-c2c3nc(c(-c4c(F)c(F)c(F)c(F)c4F)c4ccc([nH]4)c(-c4c(F)c(F)c(F)c(F)c4F)c4nc(c(-c5c(F)c(F)c(F)c(F)c5F)c5ccc2[nH]5)C=C4)C=C3)cc1)C(F)(F)F
REMARK SMILES IDX 13 1 12 2 10 3 11 4 8 5 9 6 7 7 4 9 5 10 6 11 2 12 1 13 3 14
REMARK SMILES IDX 81 15 82 16 83 17 84 18 14 19 15 20 16 21 17 22 18 23 19 24
REMARK SMILES IDX 80 25 20 26 79 27 21 28 22 29 23 30 73 31 24 32 78 33 72 34
REMARK SMILES IDX 74 35 25 36 77 37 71 38 70 39 26 41 58 42 38 43 57 44 39 45
REMARK SMILES IDX 42 46 56 47 75 48 40 49 41 50 55 52 76 53 43 54 27 55 28 56
REMARK SMILES IDX 36 57 29 58 30 59 34 60 37 61 31 62 32 63 35 64 33 65 59 66
REMARK SMILES IDX 60 67 68 68 61 69 62 70 66 71 69 72 63 73 64 74 67 75 65 76
REMARK SMILES IDX 44 77 45 78 53 79 46 80 47 81 51 82 54 83 48 84 49 85 52 86
REMARK SMILES IDX 50 87
REMARK H PARENT 7 8 74 40 42 51
REMARK Flexibility Score: inf
ROOT
ATOM      1  C   UNL     1      -3.493   0.933   4.319  1.00  0.00     0.274 C 
ENDROOT
BRANCH   1   2
ATOM      2  O   UNL     1      -2.932   0.381   3.106  1.00  0.00    -0.460 OA
BRANCH   2   3
ATOM      3  C   UNL     1      -1.935   1.083   2.488  1.00  0.00     0.336 C 
ATOM      4  O   UNL     1      -1.573   2.191   2.864  1.00  0.00    -0.250 OA
BRANCH   3   5
ATOM      5  C   UNL     1      -1.448   0.396   1.190  1.00  0.00     0.222 C 
ATOM      6  C   UNL     1      -1.680  -1.113   1.280  1.00  0.00     0.052 C 
BRANCH   5   7
ATOM      7  N   UNL     1      -2.340   1.035   0.136  1.00  0.00    -0.190 NA
ATOM      8  H   UNL     1      -3.299   0.896   0.454  1.00  0.00     0.142 HD
BRANCH   7   9
ATOM      9  S   UNL     1      -2.311   0.570  -1.466  1.00  0.00     0.215 S 
ATOM     10  O   UNL     1      -1.122  -0.206  -1.721  1.00  0.00    -0.212 OA
ATOM     11  O   UNL     1      -2.565   1.798  -2.182  1.00  0.00    -0.212 OA
BRANCH   9  12
ATOM     12  C   UNL     1      -3.751  -0.496  -1.690  1.00  0.00     0.118 C 
ATOM     13  C   UNL     1      -3.488  -1.960  -1.349  1.00  0.00     0.026 C 
ATOM     14  C   UNL     1      -4.978   0.036  -0.964  1.00  0.00     0.026 C 
ENDBRANCH   9  12
ENDBRANCH   7   9
ENDBRANCH   5   7
BRANCH   5  15
ATOM     15  C   UNL     1       0.068   0.682   1.047  1.00  0.00     0.418 C 
ATOM     16  F   UNL     1       0.782  -0.187   1.802  1.00  0.00    -0.168 F 
ATOM     17  F   UNL     1       0.547   0.539  -0.202  1.00  0.00    -0.168 F 
ATOM     18  F   UNL     1       0.426   1.927   1.431  1.00  0.00    -0.168 F 
ENDBRANCH   5  15
ENDBRANCH   3   5
ENDBRANCH   2   3
ENDBRANCH   1   2
BRANCH   1  19
ATOM     19  C   UNL     1      -3.130   0.038   5.501  1.00  0.00     0.275 C 
BRANCH  19  20
ATOM     20  O   UNL     1      -1.706   0.086   5.709  1.00  0.00    -0.458 OA
BRANCH  20  21
ATOM     21  C   UNL     1      -1.029  -1.015   5.316  1.00  0.00     0.338 C 
ATOM     22  O   UNL     1      -1.489  -2.058   4.883  1.00  0.00    -0.246 OA
BRANCH  21  23
ATOM     23  C   UNL     1       0.417  -0.753   5.344  1.00  0.00     0.060 A 
ATOM     24  C   UNL     1       0.931   0.184   4.459  1.00  0.00     0.016 A 
ATOM     25  C   UNL     1       1.277  -1.583   6.057  1.00  0.00     0.016 A 
ATOM     26  C   UNL     1       2.288   0.173   4.154  1.00  0.00     0.010 A 
ATOM     27  C   UNL     1       2.661  -1.468   5.867  1.00  0.00     0.010 A 
ATOM     28  C   UNL     1       3.187  -0.624   4.872  1.00  0.00    -0.014 A 
BRANCH  28  29
ATOM     29  C   UNL     1       4.651  -0.579   4.571  1.00  0.00     0.031 A 
ATOM     30  C   UNL     1       5.430  -1.851   4.338  1.00  0.00     0.074 A 
ATOM     31  C   UNL     1       5.298   0.605   4.504  1.00  0.00     0.049 A 
ATOM     32  N   UNL     1       6.727  -2.040   4.313  1.00  0.00    -0.248 NA
ATOM     33  C   UNL     1       4.648  -3.079   4.123  1.00  0.00     0.031 C 
ATOM     34  C   UNL     1       4.677   1.925   4.637  1.00  0.00     0.029 A 
ATOM     35  N   UNL     1       6.627   0.894   4.303  1.00  0.00    -0.354 N 
ATOM     36  C   UNL     1       6.913  -3.409   4.155  1.00  0.00     0.074 A 
ATOM     37  C   UNL     1       5.596  -4.006   4.091  1.00  0.00     0.031 C 
ATOM     38  C   UNL     1       5.603   2.875   4.461  1.00  0.00     0.029 A 
ATOM     39  C   UNL     1       6.906   2.240   4.345  1.00  0.00     0.049 A 
ATOM     40  H   UNL     1       7.312   0.205   4.144  1.00  0.00     0.167 HD
ATOM     41  C   UNL     1       8.078  -4.100   4.079  1.00  0.00     0.037 A 
ATOM     42  C   UNL     1       8.079   2.900   4.364  1.00  0.00     0.037 A 
ATOM     43  C   UNL     1       9.383  -3.485   4.080  1.00  0.00     0.049 A 
ATOM     44  C   UNL     1       9.354   2.111   4.346  1.00  0.00     0.074 A 
ATOM     45  C   UNL     1      10.624  -4.091   3.980  1.00  0.00     0.029 A 
ATOM     46  N   UNL     1       9.615  -2.119   4.171  1.00  0.00    -0.354 N 
ATOM     47  N   UNL     1       9.523   0.814   4.267  1.00  0.00    -0.248 NA
ATOM     48  C   UNL     1      10.603   2.877   4.444  1.00  0.00     0.031 C 
ATOM     49  C   UNL     1      11.606  -3.100   4.076  1.00  0.00     0.029 A 
ATOM     50  C   UNL     1      10.979  -1.868   4.161  1.00  0.00     0.049 A 
ATOM     51  H   UNL     1       8.914  -1.430   4.235  1.00  0.00     0.167 HD
ATOM     52  C   UNL     1      10.895   0.608   4.278  1.00  0.00     0.074 A 
ATOM     53  C   UNL     1      11.512   1.917   4.354  1.00  0.00     0.031 C 
ATOM     54  C   UNL     1      11.580  -0.560   4.229  1.00  0.00     0.037 A 
BRANCH  41  55
ATOM     55  C   UNL     1       8.010  -5.603   4.040  1.00  0.00     0.064 A 
ATOM     56  C   UNL     1       7.523  -6.308   2.930  1.00  0.00     0.173 A 
ATOM     57  C   UNL     1       8.490  -6.354   5.127  1.00  0.00     0.173 A 
ATOM     58  F   UNL     1       7.044  -5.646   1.866  1.00  0.00    -0.203 F 
ATOM     59  C   UNL     1       7.490  -7.702   2.921  1.00  0.00     0.198 A 
ATOM     60  C   UNL     1       8.489  -7.746   5.101  1.00  0.00     0.198 A 
ATOM     61  F   UNL     1       8.978  -5.735   6.214  1.00  0.00    -0.203 F 
ATOM     62  F   UNL     1       6.973  -8.352   1.870  1.00  0.00    -0.200 F 
ATOM     63  C   UNL     1       7.981  -8.419   4.002  1.00  0.00     0.200 A 
ATOM     64  F   UNL     1       8.982  -8.435   6.140  1.00  0.00    -0.200 F 
ATOM     65  F   UNL     1       7.958  -9.759   3.987  1.00  0.00    -0.200 F 
ENDBRANCH  41  55
BRANCH  42  66
ATOM     66  C   UNL     1       8.093   4.385   4.464  1.00  0.00     0.064 A 
ATOM     67  C   UNL     1       8.580   5.173   3.413  1.00  0.00     0.173 A 
ATOM     68  C   UNL     1       7.612   5.048   5.605  1.00  0.00     0.173 A 
ATOM     69  F   UNL     1       9.074   4.588   2.312  1.00  0.00    -0.203 F 
ATOM     70  C   UNL     1       8.597   6.563   3.503  1.00  0.00     0.198 A 
ATOM     71  C   UNL     1       7.593   6.438   5.678  1.00  0.00     0.198 A 
ATOM     72  F   UNL     1       7.134   4.343   6.642  1.00  0.00    -0.203 F 
ATOM     73  F   UNL     1       9.113   7.290   2.504  1.00  0.00    -0.200 F 
ATOM     74  C   UNL     1       8.094   7.195   4.631  1.00  0.00     0.200 A 
ATOM     75  F   UNL     1       7.086   7.043   6.761  1.00  0.00    -0.200 F 
ATOM     76  F   UNL     1       8.100   8.532   4.712  1.00  0.00    -0.200 F 
ENDBRANCH  42  66
BRANCH  54  77
ATOM     77  C   UNL     1      13.078  -0.471   4.202  1.00  0.00     0.064 A 
ATOM     78  C   UNL     1      13.818  -0.065   5.323  1.00  0.00     0.173 A 
ATOM     79  C   UNL     1      13.784  -0.819   3.040  1.00  0.00     0.173 A 
ATOM     80  F   UNL     1      13.190   0.296   6.452  1.00  0.00    -0.203 F 
ATOM     81  C   UNL     1      15.206   0.020   5.271  1.00  0.00     0.198 A 
ATOM     82  C   UNL     1      15.174  -0.768   3.003  1.00  0.00     0.198 A 
ATOM     83  F   UNL     1      13.126  -1.218   1.942  1.00  0.00    -0.203 F 
ATOM     84  F   UNL     1      15.888   0.468   6.334  1.00  0.00    -0.200 F 
ATOM     85  C   UNL     1      15.883  -0.339   4.115  1.00  0.00     0.200 A 
ATOM     86  F   UNL     1      15.827  -1.131   1.891  1.00  0.00    -0.200 F 
ATOM     87  F   UNL     1      17.221  -0.263   4.069  1.00  0.00    -0.200 F 
ENDBRANCH  54  77
ENDBRANCH  28  29
ENDBRANCH  21  23
ENDBRANCH  20  21
ENDBRANCH  19  20
ENDBRANCH   1  19
TORSDOF 15
