REMARK SMILES CC(C)(C)OC(=O)N1[C@@H](C(=O)OCCOC(=O)c2ccc(-c3c4nc(c(-c5c(F)c(F)c(F)c(F)c5F)c5ccc([nH]5)c(-c5c(F)c(F)c(F)c(F)c5F)c5nc(c(-c6c(F)c(F)c(F)c(F)c6F)c6ccc3[nH]6)C=C5)C=C4)cc2)C[C@H]2CCCC[C@@H]21
REMARK SMILES IDX 13 1 12 2 10 3 11 4 9 5 8 6 87 7 81 8 82 9 86 10 83 11 85 12
REMARK SMILES IDX 84 13 6 14 7 15 5 16 2 17 1 18 3 19 4 20 14 21 15 22 16 23
REMARK SMILES IDX 17 24 18 25 19 26 80 27 20 28 79 29 21 30 22 31 23 32 73 33
REMARK SMILES IDX 24 34 78 35 72 36 74 37 25 38 77 39 71 40 70 41 26 43 58 44
REMARK SMILES IDX 38 45 57 46 39 47 42 48 56 49 75 50 40 51 41 52 55 54 76 55
REMARK SMILES IDX 43 56 27 57 28 58 36 59 29 60 30 61 34 62 37 63 31 64 32 65
REMARK SMILES IDX 35 66 33 67 59 68 60 69 68 70 61 71 62 72 66 73 69 74 63 75
REMARK SMILES IDX 64 76 67 77 65 78 44 79 45 80 53 81 46 82 47 83 51 84 54 85
REMARK SMILES IDX 48 86 49 87 52 88 50 89
REMARK H PARENT 74 42 42 53
REMARK Flexibility Score: inf
ROOT
ATOM      1  C   UNL     1       5.529   4.967   3.155  1.00  0.00     0.274 C 
ENDROOT
BRANCH   1   2
ATOM      2  O   UNL     1       4.638   3.842   3.339  1.00  0.00    -0.461 OA
BRANCH   2   3
ATOM      3  C   UNL     1       3.442   4.143   3.919  1.00  0.00     0.329 C 
ATOM      4  O   UNL     1       3.106   5.281   4.237  1.00  0.00    -0.250 OA
BRANCH   3   5
ATOM      5  C   UNL     1       2.613   2.886   4.266  1.00  0.00     0.199 C 
ATOM      6  N   UNL     1       1.190   3.027   3.888  1.00  0.00    -0.291 N 
ATOM      7  C   UNL     1       0.478   3.700   4.957  1.00  0.00     0.092 C 
ATOM      8  C   UNL     1       2.589   2.851   5.815  1.00  0.00     0.043 C 
ATOM      9  C   UNL     1       1.119   3.060   6.191  1.00  0.00     0.014 C 
ATOM     10  C   UNL     1      -1.040   3.599   5.101  1.00  0.00     0.025 C 
ATOM     11  C   UNL     1       0.812   3.908   7.416  1.00  0.00     0.006 C 
ATOM     12  C   UNL     1      -1.485   4.353   6.362  1.00  0.00     0.002 C 
ATOM     13  C   UNL     1      -0.708   3.957   7.625  1.00  0.00     0.000 C 
BRANCH   6  14
ATOM     14  C   UNL     1       0.602   2.668   2.697  1.00  0.00     0.411 C 
ATOM     15  O   UNL     1      -0.516   3.048   2.372  1.00  0.00    -0.224 OA
BRANCH  14  16
ATOM     16  O   UNL     1       1.353   1.817   1.952  1.00  0.00    -0.444 OA
BRANCH  16  17
ATOM     17  C   UNL     1       0.849   1.282   0.686  1.00  0.00     0.106 C 
ATOM     18  C   UNL     1       1.574  -0.057   0.491  1.00  0.00     0.056 C 
ATOM     19  C   UNL     1       1.240   2.226  -0.451  1.00  0.00     0.056 C 
ATOM     20  C   UNL     1      -0.664   0.999   0.631  1.00  0.00     0.056 C 
ENDBRANCH  16  17
ENDBRANCH  14  16
ENDBRANCH   6  14
ENDBRANCH   3   5
ENDBRANCH   2   3
ENDBRANCH   1   2
BRANCH   1  21
ATOM     21  C   UNL     1       5.461   5.534   1.738  1.00  0.00     0.275 C 
BRANCH  21  22
ATOM     22  O   UNL     1       4.152   6.068   1.466  1.00  0.00    -0.458 OA
BRANCH  22  23
ATOM     23  C   UNL     1       3.383   5.284   0.679  1.00  0.00     0.338 C 
ATOM     24  O   UNL     1       3.707   4.236   0.147  1.00  0.00    -0.246 OA
BRANCH  23  25
ATOM     25  C   UNL     1       2.024   5.835   0.557  1.00  0.00     0.060 A 
ATOM     26  C   UNL     1       1.168   5.771   1.650  1.00  0.00     0.016 A 
ATOM     27  C   UNL     1       1.526   6.185  -0.697  1.00  0.00     0.016 A 
ATOM     28  C   UNL     1      -0.201   5.942   1.479  1.00  0.00     0.010 A 
ATOM     29  C   UNL     1       0.159   6.450  -0.848  1.00  0.00     0.010 A 
ATOM     30  C   UNL     1      -0.728   6.285   0.231  1.00  0.00    -0.014 A 
BRANCH  30  31
ATOM     31  C   UNL     1      -2.201   6.399   0.048  1.00  0.00     0.031 A 
ATOM     32  C   UNL     1      -2.906   5.522  -0.952  1.00  0.00     0.074 A 
ATOM     33  C   UNL     1      -2.922   7.256   0.796  1.00  0.00     0.049 A 
ATOM     34  N   UNL     1      -4.115   5.626  -1.444  1.00  0.00    -0.248 NA
ATOM     35  C   UNL     1      -2.147   4.376  -1.472  1.00  0.00     0.031 C 
ATOM     36  C   UNL     1      -2.398   8.087   1.881  1.00  0.00     0.029 A 
ATOM     37  N   UNL     1      -4.259   7.570   0.757  1.00  0.00    -0.354 N 
ATOM     38  C   UNL     1      -4.238   4.597  -2.369  1.00  0.00     0.074 A 
ATOM     39  C   UNL     1      -2.985   3.872  -2.366  1.00  0.00     0.031 C 
ATOM     40  C   UNL     1      -3.401   8.797   2.416  1.00  0.00     0.029 A 
ATOM     41  C   UNL     1      -4.613   8.557   1.643  1.00  0.00     0.049 A 
ATOM     42  H   UNL     1      -4.901   7.130   0.153  1.00  0.00     0.167 HD
ATOM     43  C   UNL     1      -5.300   4.296  -3.155  1.00  0.00     0.037 A 
ATOM     44  C   UNL     1      -5.763   9.245   1.775  1.00  0.00     0.037 A 
ATOM     45  C   UNL     1      -6.560   4.991  -3.111  1.00  0.00     0.049 A 
ATOM     46  C   UNL     1      -6.900   8.954   0.838  1.00  0.00     0.074 A 
ATOM     47  C   UNL     1      -7.692   4.783  -3.880  1.00  0.00     0.029 A 
ATOM     48  N   UNL     1      -6.859   6.020  -2.229  1.00  0.00    -0.354 N 
ATOM     49  N   UNL     1      -6.978   8.056  -0.113  1.00  0.00    -0.248 NA
ATOM     50  C   UNL     1      -8.100   9.790   0.974  1.00  0.00     0.031 C 
ATOM     51  C   UNL     1      -8.663   5.712  -3.489  1.00  0.00     0.029 A 
ATOM     52  C   UNL     1      -8.152   6.466  -2.445  1.00  0.00     0.049 A 
ATOM     53  H   UNL     1      -6.242   6.381  -1.552  1.00  0.00     0.167 HD
ATOM     54  C   UNL     1      -8.237   8.204  -0.676  1.00  0.00     0.074 A 
ATOM     55  C   UNL     1      -8.895   9.272   0.048  1.00  0.00     0.031 C 
ATOM     56  C   UNL     1      -8.796   7.519  -1.702  1.00  0.00     0.037 A 
BRANCH  43  57
ATOM     57  C   UNL     1      -5.133   3.202  -4.169  1.00  0.00     0.064 A 
ATOM     58  C   UNL     1      -5.101   1.848  -3.811  1.00  0.00     0.173 A 
ATOM     59  C   UNL     1      -5.050   3.522  -5.534  1.00  0.00     0.173 A 
ATOM     60  F   UNL     1      -5.163   1.489  -2.520  1.00  0.00    -0.203 F 
ATOM     61  C   UNL     1      -4.974   0.854  -4.780  1.00  0.00     0.198 A 
ATOM     62  C   UNL     1      -4.949   2.526  -6.501  1.00  0.00     0.198 A 
ATOM     63  F   UNL     1      -5.081   4.803  -5.932  1.00  0.00    -0.203 F 
ATOM     64  F   UNL     1      -4.908  -0.433  -4.413  1.00  0.00    -0.200 F 
ATOM     65  C   UNL     1      -4.906   1.193  -6.123  1.00  0.00     0.200 A 
ATOM     66  F   UNL     1      -4.896   2.856  -7.799  1.00  0.00    -0.200 F 
ATOM     67  F   UNL     1      -4.793   0.235  -7.054  1.00  0.00    -0.200 F 
ENDBRANCH  43  57
BRANCH  44  68
ATOM     68  C   UNL     1      -5.859  10.328   2.789  1.00  0.00     0.064 A 
ATOM     69  C   UNL     1      -6.708  10.209   3.896  1.00  0.00     0.173 A 
ATOM     70  C   UNL     1      -5.093  11.499   2.676  1.00  0.00     0.173 A 
ATOM     71  F   UNL     1      -7.482   9.122   4.034  1.00  0.00    -0.203 F 
ATOM     72  C   UNL     1      -6.791  11.221   4.850  1.00  0.00     0.198 A 
ATOM     73  C   UNL     1      -5.152  12.495   3.647  1.00  0.00     0.198 A 
ATOM     74  F   UNL     1      -4.268  11.665   1.632  1.00  0.00    -0.203 F 
ATOM     75  F   UNL     1      -7.640  11.101   5.880  1.00  0.00    -0.200 F 
ATOM     76  C   UNL     1      -6.005  12.358   4.730  1.00  0.00     0.200 A 
ATOM     77  F   UNL     1      -4.379  13.584   3.534  1.00  0.00    -0.200 F 
ATOM     78  F   UNL     1      -6.076  13.326   5.654  1.00  0.00    -0.200 F 
ENDBRANCH  44  68
BRANCH  56  79
ATOM     79  C   UNL     1     -10.206   7.867  -2.072  1.00  0.00     0.064 A 
ATOM     80  C   UNL     1     -10.513   9.042  -2.772  1.00  0.00     0.173 A 
ATOM     81  C   UNL     1     -11.255   6.989  -1.760  1.00  0.00     0.173 A 
ATOM     82  F   UNL     1      -9.546   9.920  -3.076  1.00  0.00    -0.203 F 
ATOM     83  C   UNL     1     -11.826   9.334  -3.132  1.00  0.00     0.198 A 
ATOM     84  C   UNL     1     -12.561   7.272  -2.144  1.00  0.00     0.198 A 
ATOM     85  F   UNL     1     -11.008   5.850  -1.095  1.00  0.00    -0.203 F 
ATOM     86  F   UNL     1     -12.105  10.480  -3.768  1.00  0.00    -0.200 F 
ATOM     87  C   UNL     1     -12.847   8.446  -2.825  1.00  0.00     0.200 A 
ATOM     88  F   UNL     1     -13.545   6.408  -1.856  1.00  0.00    -0.200 F 
ATOM     89  F   UNL     1     -14.108   8.725  -3.181  1.00  0.00    -0.200 F 
ENDBRANCH  56  79
ENDBRANCH  30  31
ENDBRANCH  23  25
ENDBRANCH  22  23
ENDBRANCH  21  22
ENDBRANCH   1  21
TORSDOF 14
