REMARK SMILES C[C@](Nc1ccc(C(N)=O)nn1)(C(=O)OCCOC(=O)c1ccc(-c2c3nc(c(-c4c(F)c(F)c(F)c(F)c4F)c4ccc([nH]4)c(-c4c(F)c(F)c(F)c(F)c4F)c4nc(c(-c5c(F)c(F)c(F)c(F)c5F)c5ccc2[nH]5)C=C4)C=C3)cc1)c1ccccc1
REMARK SMILES IDX 16 1 15 2 13 3 14 4 2 5 1 6 84 7 85 8 89 9 86 10 88 11 87 12
REMARK SMILES IDX 3 13 4 15 5 16 12 17 6 18 11 19 7 20 8 21 9 22 10 23 17 26
REMARK SMILES IDX 18 27 19 28 20 29 21 30 22 31 83 32 23 33 82 34 24 35 25 36
REMARK SMILES IDX 26 37 76 38 27 39 81 40 75 41 77 42 28 43 80 44 74 45 73 46
REMARK SMILES IDX 29 48 61 49 41 50 60 51 42 52 45 53 59 54 78 55 43 56 44 57
REMARK SMILES IDX 58 59 79 60 46 61 30 62 31 63 39 64 32 65 33 66 37 67 40 68
REMARK SMILES IDX 34 69 35 70 38 71 36 72 62 73 63 74 71 75 64 76 65 77 69 78
REMARK SMILES IDX 72 79 66 80 67 81 70 82 68 83 47 84 48 85 56 86 49 87 50 88
REMARK SMILES IDX 54 89 57 90 51 91 52 92 55 93 53 94
REMARK H PARENT 3 14 9 24 9 25 77 47 45 58
REMARK Flexibility Score: inf
ROOT
ATOM      1  C   UNL     1      -2.852  -1.234  -0.378  1.00  0.00     0.274 C 
ENDROOT
BRANCH   1   2
ATOM      2  O   UNL     1      -1.429  -1.019  -0.308  1.00  0.00    -0.460 OA
BRANCH   2   3
ATOM      3  C   UNL     1      -0.693  -1.296  -1.429  1.00  0.00     0.336 C 
ATOM      4  O   UNL     1      -1.177  -1.677  -2.490  1.00  0.00    -0.249 OA
BRANCH   3   5
ATOM      5  C   UNL     1       0.848  -1.146  -1.154  1.00  0.00     0.160 C 
ATOM      6  C   UNL     1       1.355  -2.605  -1.200  1.00  0.00     0.053 C 
BRANCH   5   7
ATOM      7  C   UNL     1       1.502  -0.251  -2.232  1.00  0.00    -0.012 A 
ATOM      8  C   UNL     1       1.943  -0.770  -3.465  1.00  0.00     0.007 A 
ATOM      9  C   UNL     1       1.648   1.139  -2.033  1.00  0.00     0.007 A 
ATOM     10  C   UNL     1       2.530   0.052  -4.434  1.00  0.00     0.000 A 
ATOM     11  C   UNL     1       2.232   1.960  -3.003  1.00  0.00     0.000 A 
ATOM     12  C   UNL     1       2.679   1.415  -4.202  1.00  0.00     0.000 A 
ENDBRANCH   5   7
BRANCH   5  13
ATOM     13  N   UNL     1       1.039  -0.504   0.172  1.00  0.00    -0.350 N 
ATOM     14  H   UNL     1       0.648   0.393   0.278  1.00  0.00     0.163 HD
BRANCH  13  15
ATOM     15  C   UNL     1       1.692  -1.009   1.261  1.00  0.00     0.149 A 
ATOM     16  C   UNL     1       2.954  -1.578   1.215  1.00  0.00     0.051 A 
ATOM     17  N   UNL     1       1.027  -0.935   2.436  1.00  0.00    -0.132 NA
ATOM     18  C   UNL     1       3.490  -2.158   2.361  1.00  0.00     0.040 A 
ATOM     19  N   UNL     1       1.544  -1.488   3.577  1.00  0.00    -0.143 NA
ATOM     20  C   UNL     1       2.745  -2.104   3.522  1.00  0.00     0.150 A 
BRANCH  20  21
ATOM     21  C   UNL     1       3.225  -2.740   4.778  1.00  0.00     0.269 C 
ATOM     22  N   UNL     1       2.446  -2.541   5.887  1.00  0.00    -0.364 N 
ATOM     23  O   UNL     1       4.250  -3.409   4.821  1.00  0.00    -0.268 OA
ATOM     24  H   UNL     1       1.627  -1.999   5.823  1.00  0.00     0.160 HD
ATOM     25  H   UNL     1       2.706  -2.941   6.749  1.00  0.00     0.160 HD
ENDBRANCH  20  21
ENDBRANCH  13  15
ENDBRANCH   5  13
ENDBRANCH   3   5
ENDBRANCH   2   3
ENDBRANCH   1   2
BRANCH   1  26
ATOM     26  C   UNL     1      -3.600   0.096  -0.380  1.00  0.00     0.275 C 
BRANCH  26  27
ATOM     27  O   UNL     1      -3.346   0.803  -1.606  1.00  0.00    -0.458 OA
BRANCH  27  28
ATOM     28  C   UNL     1      -2.393   1.759  -1.532  1.00  0.00     0.338 C 
ATOM     29  O   UNL     1      -1.771   2.125  -0.550  1.00  0.00    -0.246 OA
BRANCH  28  30
ATOM     30  C   UNL     1      -2.123   2.265  -2.881  1.00  0.00     0.060 A 
ATOM     31  C   UNL     1      -1.300   1.512  -3.713  1.00  0.00     0.016 A 
ATOM     32  C   UNL     1      -2.556   3.530  -3.270  1.00  0.00     0.016 A 
ATOM     33  C   UNL     1      -0.828   2.055  -4.901  1.00  0.00     0.010 A 
ATOM     34  C   UNL     1      -2.149   4.038  -4.509  1.00  0.00     0.010 A 
ATOM     35  C   UNL     1      -1.252   3.319  -5.321  1.00  0.00    -0.014 A 
BRANCH  35  36
ATOM     36  C   UNL     1      -0.719   3.908  -6.577  1.00  0.00     0.031 A 
ATOM     37  C   UNL     1       0.000   5.226  -6.538  1.00  0.00     0.074 A 
ATOM     38  C   UNL     1      -0.864   3.268  -7.754  1.00  0.00     0.049 A 
ATOM     39  N   UNL     1       0.295   6.039  -7.520  1.00  0.00    -0.248 NA
ATOM     40  C   UNL     1       0.432   5.699  -5.214  1.00  0.00     0.031 C 
ATOM     41  C   UNL     1      -1.468   1.948  -7.934  1.00  0.00     0.029 A 
ATOM     42  N   UNL     1      -0.518   3.652  -9.026  1.00  0.00    -0.354 N 
ATOM     43  C   UNL     1       0.865   7.156  -6.925  1.00  0.00     0.074 A 
ATOM     44  C   UNL     1       0.904   6.905  -5.500  1.00  0.00     0.031 C 
ATOM     45  C   UNL     1      -1.433   1.622  -9.234  1.00  0.00     0.029 A 
ATOM     46  C   UNL     1      -0.903   2.752  -9.989  1.00  0.00     0.049 A 
ATOM     47  H   UNL     1      -0.041   4.489  -9.229  1.00  0.00     0.167 HD
ATOM     48  C   UNL     1       1.297   8.293  -7.521  1.00  0.00     0.037 A 
ATOM     49  C   UNL     1      -0.900   2.848 -11.331  1.00  0.00     0.037 A 
ATOM     50  C   UNL     1       1.325   8.498  -8.946  1.00  0.00     0.049 A 
ATOM     51  C   UNL     1      -0.425   4.117 -11.975  1.00  0.00     0.074 A 
ATOM     52  C   UNL     1       1.772   9.601  -9.652  1.00  0.00     0.029 A 
ATOM     53  N   UNL     1       0.908   7.564  -9.883  1.00  0.00    -0.354 N 
ATOM     54  N   UNL     1       0.022   5.210 -11.408  1.00  0.00    -0.248 NA
ATOM     55  C   UNL     1      -0.480   4.178 -13.442  1.00  0.00     0.031 C 
ATOM     56  C   UNL     1       1.599   9.346 -11.017  1.00  0.00     0.029 A 
ATOM     57  C   UNL     1       1.077   8.070 -11.162  1.00  0.00     0.049 A 
ATOM     58  H   UNL     1       0.545   6.674  -9.671  1.00  0.00     0.167 HD
ATOM     59  C   UNL     1       0.295   6.092 -12.443  1.00  0.00     0.074 A 
ATOM     60  C   UNL     1      -0.015   5.397 -13.677  1.00  0.00     0.031 C 
ATOM     61  C   UNL     1       0.754   7.365 -12.376  1.00  0.00     0.037 A 
BRANCH  48  62
ATOM     62  C   UNL     1       1.718   9.425  -6.633  1.00  0.00     0.064 A 
ATOM     63  C   UNL     1       2.929   9.415  -5.928  1.00  0.00     0.173 A 
ATOM     64  C   UNL     1       0.895  10.556  -6.509  1.00  0.00     0.173 A 
ATOM     65  F   UNL     1       3.743   8.351  -6.000  1.00  0.00    -0.203 F 
ATOM     66  C   UNL     1       3.290  10.486  -5.112  1.00  0.00     0.198 A 
ATOM     67  C   UNL     1       1.270  11.634  -5.713  1.00  0.00     0.198 A 
ATOM     68  F   UNL     1      -0.274  10.616  -7.165  1.00  0.00    -0.203 F 
ATOM     69  F   UNL     1       4.432  10.437  -4.413  1.00  0.00    -0.200 F 
ATOM     70  C   UNL     1       2.464  11.596  -5.011  1.00  0.00     0.200 A 
ATOM     71  F   UNL     1       0.474  12.709  -5.624  1.00  0.00    -0.200 F 
ATOM     72  F   UNL     1       2.815  12.626  -4.228  1.00  0.00    -0.200 F 
ENDBRANCH  48  62
BRANCH  49  73
ATOM     73  C   UNL     1      -1.441   1.724 -12.135  1.00  0.00     0.064 A 
ATOM     74  C   UNL     1      -0.594   0.889 -12.873  1.00  0.00     0.173 A 
ATOM     75  C   UNL     1      -2.812   1.423 -12.125  1.00  0.00     0.173 A 
ATOM     76  F   UNL     1       0.720   1.151 -12.930  1.00  0.00    -0.203 F 
ATOM     77  C   UNL     1      -1.096  -0.213 -13.562  1.00  0.00     0.198 A 
ATOM     78  C   UNL     1      -3.309   0.307 -12.791  1.00  0.00     0.198 A 
ATOM     79  F   UNL     1      -3.663   2.194 -11.431  1.00  0.00    -0.203 F 
ATOM     80  F   UNL     1      -0.268  -0.990 -14.274  1.00  0.00    -0.200 F 
ATOM     81  C   UNL     1      -2.451  -0.510 -13.510  1.00  0.00     0.200 A 
ATOM     82  F   UNL     1      -4.615   0.014 -12.722  1.00  0.00    -0.200 F 
ATOM     83  F   UNL     1      -2.928  -1.585 -14.151  1.00  0.00    -0.200 F 
ENDBRANCH  49  73
BRANCH  61  84
ATOM     84  C   UNL     1       0.956   8.086 -13.672  1.00  0.00     0.064 A 
ATOM     85  C   UNL     1      -0.127   8.617 -14.387  1.00  0.00     0.173 A 
ATOM     86  C   UNL     1       2.248   8.289 -14.179  1.00  0.00     0.173 A 
ATOM     87  F   UNL     1      -1.380   8.433 -13.948  1.00  0.00    -0.203 F 
ATOM     88  C   UNL     1       0.077   9.318 -15.573  1.00  0.00     0.198 A 
ATOM     89  C   UNL     1       2.449   9.007 -15.354  1.00  0.00     0.198 A 
ATOM     90  F   UNL     1       3.314   7.801 -13.527  1.00  0.00    -0.203 F 
ATOM     91  F   UNL     1      -0.973   9.792 -16.257  1.00  0.00    -0.200 F 
ATOM     92  C   UNL     1       1.364   9.517 -16.051  1.00  0.00     0.200 A 
ATOM     93  F   UNL     1       3.692   9.205 -15.813  1.00  0.00    -0.200 F 
ATOM     94  F   UNL     1       1.558  10.197 -17.190  1.00  0.00    -0.200 F 
ENDBRANCH  61  84
ENDBRANCH  35  36
ENDBRANCH  28  30
ENDBRANCH  27  28
ENDBRANCH  26  27
ENDBRANCH   1  26
TORSDOF 15
