REMARK SMILES CCC[C@@H](C[NH2+]C(C)C)C(=O)OCCOC(=O)c1ccc(-c2c3nc(c(-c4c(F)c(F)c(F)c(F)c4F)c4ccc([nH]4)c(-c4c(F)c(F)c(F)c(F)c4F)c4nc(c(-c5c(F)c(F)c(F)c(F)c5F)c5ccc2[nH]5)C=C4)C=C3)cc1
REMARK SMILES IDX 13 1 12 2 10 3 11 4 4 5 3 6 2 7 1 8 5 9 6 10 7 13 8 14 9 15
REMARK SMILES IDX 14 16 15 17 16 18 17 19 18 20 19 21 80 22 20 23 79 24 21 25
REMARK SMILES IDX 22 26 23 27 73 28 24 29 78 30 72 31 74 32 25 33 77 34 71 35
REMARK SMILES IDX 70 36 26 38 58 39 38 40 57 41 39 42 42 43 56 44 75 45 40 46
REMARK SMILES IDX 41 47 55 49 76 50 43 51 27 52 28 53 36 54 29 55 30 56 34 57
REMARK SMILES IDX 37 58 31 59 32 60 35 61 33 62 59 63 60 64 68 65 61 66 62 67
REMARK SMILES IDX 66 68 69 69 63 70 64 71 67 72 65 73 44 74 45 75 53 76 46 77
REMARK SMILES IDX 47 78 51 79 54 80 48 81 49 82 52 83 50 84
REMARK H PARENT 6 11 6 12 74 37 42 48
REMARK Flexibility Score: inf
ROOT
ATOM      1  C   UNL     1       1.337   0.547  -6.331  1.00  0.00     0.274 C 
ENDROOT
BRANCH   1   2
ATOM      2  O   UNL     1       0.903   0.788  -4.979  1.00  0.00    -0.462 OA
BRANCH   2   3
ATOM      3  C   UNL     1       0.407  -0.284  -4.309  1.00  0.00     0.314 C 
ATOM      4  O   UNL     1       0.325  -1.420  -4.766  1.00  0.00    -0.252 OA
BRANCH   3   5
ATOM      5  C   UNL     1      -0.043   0.048  -2.895  1.00  0.00     0.154 C 
BRANCH   5   6
ATOM      6  C   UNL     1       0.682   1.255  -2.269  1.00  0.00     0.021 C 
BRANCH   6   7
ATOM      7  C   UNL     1       0.428   1.454  -0.769  1.00  0.00    -0.002 C 
ATOM      8  C   UNL     1       0.933   0.308   0.097  1.00  0.00     0.004 C 
ENDBRANCH   6   7
ENDBRANCH   5   6
BRANCH   5   9
ATOM      9  C   UNL     1      -1.577   0.102  -2.842  1.00  0.00     0.276 C 
BRANCH   9  10
ATOM     10  N   UNL     1      -2.134   1.325  -3.422  1.00  0.00    -0.344 N 
ATOM     11  H   UNL     1      -1.767   1.431  -4.368  1.00  0.00     0.346 HD
ATOM     12  H   UNL     1      -1.861   2.099  -2.817  1.00  0.00     0.346 HD
BRANCH  10  13
ATOM     13  C   UNL     1      -3.600   1.316  -3.488  1.00  0.00     0.176 C 
ATOM     14  C   UNL     1      -4.246   1.460  -2.109  1.00  0.00     0.075 C 
ATOM     15  C   UNL     1      -4.028   2.476  -4.388  1.00  0.00     0.075 C 
ENDBRANCH  10  13
ENDBRANCH   9  10
ENDBRANCH   5   9
ENDBRANCH   3   5
ENDBRANCH   2   3
ENDBRANCH   1   2
BRANCH   1  16
ATOM     16  C   UNL     1       2.863   0.473  -6.424  1.00  0.00     0.275 C 
BRANCH  16  17
ATOM     17  O   UNL     1       3.381  -0.629  -5.656  1.00  0.00    -0.458 OA
BRANCH  17  18
ATOM     18  C   UNL     1       3.878  -0.295  -4.443  1.00  0.00     0.338 C 
ATOM     19  O   UNL     1       4.004   0.821  -3.970  1.00  0.00    -0.246 OA
BRANCH  18  20
ATOM     20  C   UNL     1       4.127  -1.514  -3.659  1.00  0.00     0.060 A 
ATOM     21  C   UNL     1       3.348  -1.712  -2.518  1.00  0.00     0.016 A 
ATOM     22  C   UNL     1       5.161  -2.397  -3.973  1.00  0.00     0.016 A 
ATOM     23  C   UNL     1       3.595  -2.791  -1.678  1.00  0.00     0.010 A 
ATOM     24  C   UNL     1       5.416  -3.482  -3.123  1.00  0.00     0.010 A 
ATOM     25  C   UNL     1       4.643  -3.674  -1.965  1.00  0.00    -0.014 A 
BRANCH  25  26
ATOM     26  C   UNL     1       4.947  -4.749  -0.993  1.00  0.00     0.031 A 
ATOM     27  C   UNL     1       6.072  -4.577  -0.015  1.00  0.00     0.074 A 
ATOM     28  C   UNL     1       4.161  -5.839  -0.936  1.00  0.00     0.049 A 
ATOM     29  N   UNL     1       6.468  -5.377   0.942  1.00  0.00    -0.248 NA
ATOM     30  C   UNL     1       6.854  -3.336  -0.127  1.00  0.00     0.031 C 
ATOM     31  C   UNL     1       3.018  -6.099  -1.810  1.00  0.00     0.029 A 
ATOM     32  N   UNL     1       4.197  -6.922  -0.095  1.00  0.00    -0.354 N 
ATOM     33  C   UNL     1       7.550  -4.746   1.538  1.00  0.00     0.074 A 
ATOM     34  C   UNL     1       7.760  -3.502   0.827  1.00  0.00     0.031 C 
ATOM     35  C   UNL     1       2.451  -7.263  -1.451  1.00  0.00     0.029 A 
ATOM     36  C   UNL     1       3.204  -7.838  -0.339  1.00  0.00     0.049 A 
ATOM     37  H   UNL     1       4.869  -7.031   0.616  1.00  0.00     0.167 HD
ATOM     38  C   UNL     1       8.299  -5.166   2.586  1.00  0.00     0.037 A 
ATOM     39  C   UNL     1       2.937  -9.010   0.267  1.00  0.00     0.037 A 
ATOM     40  C   UNL     1       8.082  -6.395   3.303  1.00  0.00     0.049 A 
ATOM     41  C   UNL     1       3.788  -9.456   1.423  1.00  0.00     0.074 A 
ATOM     42  C   UNL     1       8.788  -6.906   4.379  1.00  0.00     0.029 A 
ATOM     43  N   UNL     1       7.078  -7.308   3.015  1.00  0.00    -0.354 N 
ATOM     44  N   UNL     1       4.809  -8.851   1.980  1.00  0.00    -0.248 NA
ATOM     45  C   UNL     1       3.446 -10.746   2.038  1.00  0.00     0.031 C 
ATOM     46  C   UNL     1       8.229  -8.142   4.724  1.00  0.00     0.029 A 
ATOM     47  C   UNL     1       7.152  -8.383   3.886  1.00  0.00     0.049 A 
ATOM     48  H   UNL     1       6.411  -7.207   2.298  1.00  0.00     0.167 HD
ATOM     49  C   UNL     1       5.223  -9.677   3.016  1.00  0.00     0.074 A 
ATOM     50  C   UNL     1       4.329 -10.816   3.025  1.00  0.00     0.031 C 
ATOM     51  C   UNL     1       6.254  -9.509   3.880  1.00  0.00     0.037 A 
BRANCH  38  52
ATOM     52  C   UNL     1       9.444  -4.295   3.003  1.00  0.00     0.064 A 
ATOM     53  C   UNL     1       9.242  -3.103   3.712  1.00  0.00     0.173 A 
ATOM     54  C   UNL     1      10.763  -4.672   2.709  1.00  0.00     0.173 A 
ATOM     55  F   UNL     1       7.998  -2.692   4.002  1.00  0.00    -0.203 F 
ATOM     56  C   UNL     1      10.320  -2.308   4.096  1.00  0.00     0.198 A 
ATOM     57  C   UNL     1      11.839  -3.886   3.112  1.00  0.00     0.198 A 
ATOM     58  F   UNL     1      11.008  -5.805   2.033  1.00  0.00    -0.203 F 
ATOM     59  F   UNL     1      10.103  -1.153   4.740  1.00  0.00    -0.200 F 
ATOM     60  C   UNL     1      11.617  -2.703   3.800  1.00  0.00     0.200 A 
ATOM     61  F   UNL     1      13.091  -4.272   2.832  1.00  0.00    -0.200 F 
ATOM     62  F   UNL     1      12.653  -1.938   4.172  1.00  0.00    -0.200 F 
ENDBRANCH  38  52
BRANCH  39  63
ATOM     63  C   UNL     1       1.803  -9.841  -0.209  1.00  0.00     0.064 A 
ATOM     64  C   UNL     1       0.636  -9.976   0.554  1.00  0.00     0.173 A 
ATOM     65  C   UNL     1       1.866 -10.514  -1.437  1.00  0.00     0.173 A 
ATOM     66  F   UNL     1       0.542  -9.370   1.747  1.00  0.00    -0.203 F 
ATOM     67  C   UNL     1      -0.423 -10.764   0.110  1.00  0.00     0.198 A 
ATOM     68  C   UNL     1       0.797 -11.283  -1.890  1.00  0.00     0.198 A 
ATOM     69  F   UNL     1       2.964 -10.417  -2.201  1.00  0.00    -0.203 F 
ATOM     70  F   UNL     1      -1.515 -10.908   0.875  1.00  0.00    -0.200 F 
ATOM     71  C   UNL     1      -0.345 -11.412  -1.114  1.00  0.00     0.200 A 
ATOM     72  F   UNL     1       0.874 -11.901  -3.077  1.00  0.00    -0.200 F 
ATOM     73  F   UNL     1      -1.366 -12.167  -1.542  1.00  0.00    -0.200 F 
ENDBRANCH  39  63
BRANCH  51  74
ATOM     74  C   UNL     1       6.457 -10.576   4.913  1.00  0.00     0.064 A 
ATOM     75  C   UNL     1       7.001 -11.824   4.578  1.00  0.00     0.173 A 
ATOM     76  C   UNL     1       6.122 -10.340   6.255  1.00  0.00     0.173 A 
ATOM     77  F   UNL     1       7.321 -12.101   3.305  1.00  0.00    -0.203 F 
ATOM     78  C   UNL     1       7.178 -12.809   5.546  1.00  0.00     0.198 A 
ATOM     79  C   UNL     1       6.322 -11.320   7.223  1.00  0.00     0.198 A 
ATOM     80  F   UNL     1       5.603  -9.160   6.625  1.00  0.00    -0.203 F 
ATOM     81  F   UNL     1       7.657 -14.011   5.196  1.00  0.00    -0.200 F 
ATOM     82  C   UNL     1       6.843 -12.555   6.867  1.00  0.00     0.200 A 
ATOM     83  F   UNL     1       6.004 -11.071   8.502  1.00  0.00    -0.200 F 
ATOM     84  F   UNL     1       7.012 -13.505   7.797  1.00  0.00    -0.200 F 
ENDBRANCH  51  74
ENDBRANCH  25  26
ENDBRANCH  18  20
ENDBRANCH  17  18
ENDBRANCH  16  17
ENDBRANCH   1  16
TORSDOF 16
