REMARK SMILES CC[C@]1(C(=O)OCCOC(=O)c2ccc(-c3c4nc(c(-c5c(F)c(F)c(F)c(F)c5F)c5ccc([nH]5)c(-c5c(F)c(F)c(F)c(F)c5F)c5nc(c(-c6c(F)c(F)c(F)c(F)c6F)c6ccc3[nH]6)C=C5)C=C4)cc2)CCC[N@@H+]([C@@H]2CCC[C@H](S(C)(=O)=O)C2)C1
REMARK SMILES IDX 7 1 6 2 4 3 5 4 3 5 75 6 89 7 76 8 78 9 77 10 2 12 1 13
REMARK SMILES IDX 79 14 80 15 88 16 81 17 83 18 82 19 84 20 85 21 86 22 87 23
REMARK SMILES IDX 8 24 9 25 10 26 11 27 12 28 13 29 74 30 14 31 73 32 15 33
REMARK SMILES IDX 16 34 17 35 67 36 18 37 72 38 66 39 68 40 19 41 71 42 65 43
REMARK SMILES IDX 64 44 20 46 52 47 32 48 51 49 33 50 36 51 50 52 69 53 34 54
REMARK SMILES IDX 35 55 49 57 70 58 37 59 21 60 22 61 30 62 23 63 24 64 28 65
REMARK SMILES IDX 31 66 25 67 26 68 29 69 27 70 53 71 54 72 62 73 55 74 56 75
REMARK SMILES IDX 60 76 63 77 57 78 58 79 61 80 59 81 38 82 39 83 47 84 40 85
REMARK SMILES IDX 41 86 45 87 48 88 42 89 43 90 46 91 44 92
REMARK H PARENT 78 11 68 45 36 56
REMARK Flexibility Score: inf
ROOT
ATOM      1  C   UNL     1       1.591  -0.010   5.991  1.00  0.00     0.274 C 
ENDROOT
BRANCH   1   2
ATOM      2  O   UNL     1       1.206   0.611   4.748  1.00  0.00    -0.461 OA
BRANCH   2   3
ATOM      3  C   UNL     1       1.633   0.020   3.601  1.00  0.00     0.317 C 
ATOM      4  O   UNL     1       2.343  -0.980   3.575  1.00  0.00    -0.251 OA
BRANCH   3   5
ATOM      5  C   UNL     1       1.191   0.771   2.327  1.00  0.00     0.117 C 
ATOM      6  C   UNL     1       0.120   1.848   2.636  1.00  0.00     0.030 C 
ATOM      7  C   UNL     1       2.482   1.457   1.844  1.00  0.00     0.281 C 
ATOM      8  C   UNL     1      -0.023   2.892   1.536  1.00  0.00     0.063 C 
ATOM      9  N   UNL     1       2.250   2.378   0.722  1.00  0.00    -0.332 N 
ATOM     10  C   UNL     1       1.333   3.456   1.105  1.00  0.00     0.262 C 
ATOM     11  H   UNL     1       1.758   1.885  -0.024  1.00  0.00     0.348 HD
BRANCH   5  12
ATOM     12  C   UNL     1       0.646  -0.296   1.320  1.00  0.00     0.021 C 
ATOM     13  C   UNL     1       0.713  -0.034  -0.179  1.00  0.00     0.005 C 
ENDBRANCH   5  12
BRANCH   9  14
ATOM     14  C   UNL     1       3.508   2.788   0.075  1.00  0.00     0.185 C 
ATOM     15  C   UNL     1       4.431   3.654   0.948  1.00  0.00     0.065 C 
ATOM     16  C   UNL     1       3.239   3.454  -1.284  1.00  0.00     0.084 C 
ATOM     17  C   UNL     1       5.725   3.986   0.211  1.00  0.00     0.007 C 
ATOM     18  C   UNL     1       4.533   3.836  -2.015  1.00  0.00     0.114 C 
ATOM     19  C   UNL     1       5.449   4.675  -1.121  1.00  0.00     0.020 C 
BRANCH  18  20
ATOM     20  S   UNL     1       4.107   4.700  -3.543  1.00  0.00     0.150 S 
ATOM     21  C   UNL     1       5.666   5.150  -4.264  1.00  0.00     0.158 C 
ATOM     22  O   UNL     1       3.494   3.734  -4.435  1.00  0.00    -0.229 OA
ATOM     23  O   UNL     1       3.419   5.930  -3.200  1.00  0.00    -0.229 OA
ENDBRANCH  18  20
ENDBRANCH   9  14
ENDBRANCH   3   5
ENDBRANCH   2   3
ENDBRANCH   1   2
BRANCH   1  24
ATOM     24  C   UNL     1       0.389  -0.707   6.620  1.00  0.00     0.275 C 
BRANCH  24  25
ATOM     25  O   UNL     1      -0.055  -1.760   5.748  1.00  0.00    -0.458 OA
BRANCH  25  26
ATOM     26  C   UNL     1      -1.282  -1.601   5.210  1.00  0.00     0.338 C 
ATOM     27  O   UNL     1      -2.092  -0.712   5.438  1.00  0.00    -0.246 OA
BRANCH  26  28
ATOM     28  C   UNL     1      -1.538  -2.683   4.249  1.00  0.00     0.060 A 
ATOM     29  C   UNL     1      -0.669  -2.880   3.177  1.00  0.00     0.016 A 
ATOM     30  C   UNL     1      -2.708  -3.429   4.347  1.00  0.00     0.016 A 
ATOM     31  C   UNL     1      -1.014  -3.747   2.143  1.00  0.00     0.010 A 
ATOM     32  C   UNL     1      -2.995  -4.383   3.368  1.00  0.00     0.010 A 
ATOM     33  C   UNL     1      -2.169  -4.531   2.236  1.00  0.00    -0.014 A 
BRANCH  33  34
ATOM     34  C   UNL     1      -2.559  -5.489   1.165  1.00  0.00     0.031 A 
ATOM     35  C   UNL     1      -3.929  -5.391   0.552  1.00  0.00     0.074 A 
ATOM     36  C   UNL     1      -1.730  -6.476   0.772  1.00  0.00     0.049 A 
ATOM     37  N   UNL     1      -4.620  -6.297  -0.090  1.00  0.00    -0.248 NA
ATOM     38  C   UNL     1      -4.622  -4.102   0.706  1.00  0.00     0.031 C 
ATOM     39  C   UNL     1      -0.345  -6.655   1.207  1.00  0.00     0.029 A 
ATOM     40  N   UNL     1      -1.950  -7.537  -0.075  1.00  0.00    -0.354 N 
ATOM     41  C   UNL     1      -5.858  -5.719  -0.340  1.00  0.00     0.074 A 
ATOM     42  C   UNL     1      -5.815  -4.375   0.196  1.00  0.00     0.031 C 
ATOM     43  C   UNL     1       0.165  -7.747   0.619  1.00  0.00     0.029 A 
ATOM     44  C   UNL     1      -0.888  -8.406  -0.145  1.00  0.00     0.049 A 
ATOM     45  H   UNL     1      -2.785  -7.662  -0.581  1.00  0.00     0.167 HD
ATOM     46  C   UNL     1      -6.935  -6.276  -0.943  1.00  0.00     0.037 A 
ATOM     47  C   UNL     1      -0.791  -9.630  -0.699  1.00  0.00     0.037 A 
ATOM     48  C   UNL     1      -6.938  -7.589  -1.534  1.00  0.00     0.049 A 
ATOM     49  C   UNL     1      -2.000 -10.240  -1.349  1.00  0.00     0.074 A 
ATOM     50  C   UNL     1      -7.976  -8.253  -2.164  1.00  0.00     0.029 A 
ATOM     51  N   UNL     1      -5.834  -8.426  -1.590  1.00  0.00    -0.354 N 
ATOM     52  N   UNL     1      -3.205  -9.742  -1.481  1.00  0.00    -0.248 NA
ATOM     53  C   UNL     1      -1.845 -11.593  -1.899  1.00  0.00     0.031 C 
ATOM     54  C   UNL     1      -7.504  -9.501  -2.585  1.00  0.00     0.029 A 
ATOM     55  C   UNL     1      -6.163  -9.598  -2.248  1.00  0.00     0.049 A 
ATOM     56  H   UNL     1      -4.947  -8.217  -1.217  1.00  0.00     0.167 HD
ATOM     57  C   UNL     1      -3.946 -10.710  -2.143  1.00  0.00     0.074 A 
ATOM     58  C   UNL     1      -3.054 -11.823  -2.393  1.00  0.00     0.031 C 
ATOM     59  C   UNL     1      -5.251 -10.681  -2.507  1.00  0.00     0.037 A 
BRANCH  46  60
ATOM     60  C   UNL     1      -8.213  -5.491  -0.953  1.00  0.00     0.064 A 
ATOM     61  C   UNL     1      -8.402  -4.383  -1.789  1.00  0.00     0.173 A 
ATOM     62  C   UNL     1      -9.281  -5.885  -0.132  1.00  0.00     0.173 A 
ATOM     63  F   UNL     1      -7.406  -3.957  -2.580  1.00  0.00    -0.203 F 
ATOM     64  C   UNL     1      -9.607  -3.684  -1.788  1.00  0.00     0.198 A 
ATOM     65  C   UNL     1     -10.493  -5.201  -0.152  1.00  0.00     0.198 A 
ATOM     66  F   UNL     1      -9.153  -6.943   0.684  1.00  0.00    -0.203 F 
ATOM     67  F   UNL     1      -9.754  -2.603  -2.566  1.00  0.00    -0.200 F 
ATOM     68  C   UNL     1     -10.653  -4.097  -0.975  1.00  0.00     0.200 A 
ATOM     69  F   UNL     1     -11.505  -5.609   0.626  1.00  0.00    -0.200 F 
ATOM     70  F   UNL     1     -11.814  -3.428  -0.981  1.00  0.00    -0.200 F 
ENDBRANCH  46  60
BRANCH  47  71
ATOM     71  C   UNL     1       0.487 -10.381  -0.601  1.00  0.00     0.064 A 
ATOM     72  C   UNL     1       1.280 -10.600  -1.735  1.00  0.00     0.173 A 
ATOM     73  C   UNL     1       0.952 -10.875   0.627  1.00  0.00     0.173 A 
ATOM     74  F   UNL     1       0.864 -10.171  -2.935  1.00  0.00    -0.203 F 
ATOM     75  C   UNL     1       2.489 -11.287  -1.644  1.00  0.00     0.198 A 
ATOM     76  C   UNL     1       2.174 -11.535   0.722  1.00  0.00     0.198 A 
ATOM     77  F   UNL     1       0.229 -10.692   1.742  1.00  0.00    -0.203 F 
ATOM     78  F   UNL     1       3.214 -11.512  -2.748  1.00  0.00    -0.200 F 
ATOM     79  C   UNL     1       2.940 -11.745  -0.415  1.00  0.00     0.200 A 
ATOM     80  F   UNL     1       2.612 -11.963   1.914  1.00  0.00    -0.200 F 
ATOM     81  F   UNL     1       4.109 -12.393  -0.326  1.00  0.00    -0.200 F 
ENDBRANCH  47  71
BRANCH  59  82
ATOM     82  C   UNL     1      -5.778 -11.862  -3.262  1.00  0.00     0.064 A 
ATOM     83  C   UNL     1      -6.098 -13.063  -2.615  1.00  0.00     0.173 A 
ATOM     84  C   UNL     1      -6.016 -11.768  -4.641  1.00  0.00     0.173 A 
ATOM     85  F   UNL     1      -5.873 -13.203  -1.300  1.00  0.00    -0.203 F 
ATOM     86  C   UNL     1      -6.629 -14.135  -3.327  1.00  0.00     0.198 A 
ATOM     87  C   UNL     1      -6.564 -12.834  -5.345  1.00  0.00     0.198 A 
ATOM     88  F   UNL     1      -5.727 -10.636  -5.300  1.00  0.00    -0.203 F 
ATOM     89  F   UNL     1      -6.903 -15.286  -2.697  1.00  0.00    -0.200 F 
ATOM     90  C   UNL     1      -6.868 -14.018  -4.689  1.00  0.00     0.200 A 
ATOM     91  F   UNL     1      -6.802 -12.717  -6.659  1.00  0.00    -0.200 F 
ATOM     92  F   UNL     1      -7.387 -15.048  -5.370  1.00  0.00    -0.200 F 
ENDBRANCH  59  82
ENDBRANCH  33  34
ENDBRANCH  26  28
ENDBRANCH  25  26
ENDBRANCH  24  25
ENDBRANCH   1  24
TORSDOF 14
