REMARK SMILES O=C(OCCOC(=O)[C@H](CCc1ccccn1)c1ccccc1Br)c1ccc(-c2c3nc(c(-c4c(F)c(F)c(F)c(F)c4F)c4ccc([nH]4)c(-c4c(F)c(F)c(F)c(F)c4F)c4nc(c(-c5c(F)c(F)c(F)c(F)c5F)c5ccc2[nH]5)C=C4)C=C3)cc1
REMARK SMILES IDX 5 1 4 2 3 3 2 4 1 5 25 6 26 7 87 8 27 9 86 10 28 11 29 12
REMARK SMILES IDX 30 13 80 14 31 15 85 16 79 17 81 18 32 19 84 20 78 21 77 22
REMARK SMILES IDX 33 24 65 25 45 26 64 27 46 28 49 29 63 30 82 31 47 32 48 33
REMARK SMILES IDX 62 35 83 36 50 37 34 38 35 39 43 40 36 41 37 42 41 43 44 44
REMARK SMILES IDX 38 45 39 46 42 47 40 48 66 49 67 50 75 51 68 52 69 53 73 54
REMARK SMILES IDX 76 55 70 56 71 57 74 58 72 59 51 60 52 61 60 62 53 63 54 64
REMARK SMILES IDX 58 65 61 66 55 67 56 68 59 69 57 70 6 71 7 72 8 73 9 74
REMARK SMILES IDX 18 75 19 76 23 77 20 78 22 79 24 80 21 81 10 82 11 83 12 84
REMARK SMILES IDX 13 85 17 86 14 87 16 88 15 89
REMARK H PARENT 81 23 49 34
REMARK Flexibility Score: inf
ROOT
ATOM      1  C   UNL     1       4.250   2.579   4.215  1.00  0.00     0.274 C 
ENDROOT
BRANCH   1   2
ATOM      2  C   UNL     1       3.201   1.972   5.143  1.00  0.00     0.275 C 
BRANCH   2   3
ATOM      3  O   UNL     1       2.511   0.849   4.573  1.00  0.00    -0.458 OA
BRANCH   3   4
ATOM      4  C   UNL     1       1.449   0.800   3.740  1.00  0.00     0.338 C 
ATOM      5  O   UNL     1       0.998  -0.308   3.449  1.00  0.00    -0.246 OA
BRANCH   4   6
ATOM      6  C   UNL     1       0.834   1.992   3.064  1.00  0.00     0.060 A 
ATOM      7  C   UNL     1       0.873   3.324   3.485  1.00  0.00     0.016 A 
ATOM      8  C   UNL     1       0.133   1.721   1.878  1.00  0.00     0.016 A 
ATOM      9  C   UNL     1       0.287   4.349   2.723  1.00  0.00     0.010 A 
ATOM     10  C   UNL     1      -0.435   2.738   1.105  1.00  0.00     0.010 A 
ATOM     11  C   UNL     1      -0.377   4.061   1.529  1.00  0.00    -0.014 A 
BRANCH  11  12
ATOM     12  C   UNL     1      -1.208   5.100   0.879  1.00  0.00     0.031 A 
ATOM     13  C   UNL     1      -2.672   5.105   1.183  1.00  0.00     0.074 A 
ATOM     14  C   UNL     1      -0.674   6.041   0.081  1.00  0.00     0.049 A 
ATOM     15  N   UNL     1      -3.573   6.005   0.895  1.00  0.00    -0.248 NA
ATOM     16  C   UNL     1      -3.200   3.918   1.874  1.00  0.00     0.031 C 
ATOM     17  C   UNL     1       0.698   6.038  -0.397  1.00  0.00     0.029 A 
ATOM     18  N   UNL     1      -1.201   7.195  -0.443  1.00  0.00    -0.354 N 
ATOM     19  C   UNL     1      -4.772   5.483   1.354  1.00  0.00     0.074 A 
ATOM     20  C   UNL     1      -4.495   4.174   1.899  1.00  0.00     0.031 C 
ATOM     21  C   UNL     1       0.953   7.193  -1.032  1.00  0.00     0.029 A 
ATOM     22  C   UNL     1      -0.260   8.000  -1.047  1.00  0.00     0.049 A 
ATOM     23  H   UNL     1      -2.157   7.425  -0.392  1.00  0.00     0.167 HD
ATOM     24  C   UNL     1      -5.997   6.053   1.327  1.00  0.00     0.037 A 
ATOM     25  C   UNL     1      -0.375   9.254  -1.529  1.00  0.00     0.037 A 
ATOM     26  C   UNL     1      -6.254   7.346   0.758  1.00  0.00     0.049 A 
ATOM     27  C   UNL     1      -1.736   9.902  -1.482  1.00  0.00     0.074 A 
ATOM     28  C   UNL     1      -7.452   8.025   0.658  1.00  0.00     0.029 A 
ATOM     29  N   UNL     1      -5.282   8.151   0.178  1.00  0.00    -0.354 N 
ATOM     30  N   UNL     1      -2.856   9.437  -0.981  1.00  0.00    -0.248 NA
ATOM     31  C   UNL     1      -1.857  11.237  -2.082  1.00  0.00     0.031 C 
ATOM     32  C   UNL     1      -7.212   9.225  -0.022  1.00  0.00     0.029 A 
ATOM     33  C   UNL     1      -5.854   9.320  -0.291  1.00  0.00     0.049 A 
ATOM     34  H   UNL     1      -4.326   7.923   0.111  1.00  0.00     0.167 HD
ATOM     35  C   UNL     1      -3.811  10.418  -1.198  1.00  0.00     0.074 A 
ATOM     36  C   UNL     1      -3.128  11.525  -1.839  1.00  0.00     0.031 C 
ATOM     37  C   UNL     1      -5.137  10.404  -0.914  1.00  0.00     0.037 A 
BRANCH  24  38
ATOM     38  C   UNL     1      -7.125   5.240   1.885  1.00  0.00     0.064 A 
ATOM     39  C   UNL     1      -7.216   4.946   3.256  1.00  0.00     0.173 A 
ATOM     40  C   UNL     1      -8.086   4.684   1.029  1.00  0.00     0.173 A 
ATOM     41  F   UNL     1      -6.299   5.426   4.111  1.00  0.00    -0.203 F 
ATOM     42  C   UNL     1      -8.198   4.087   3.740  1.00  0.00     0.198 A 
ATOM     43  C   UNL     1      -9.088   3.853   1.523  1.00  0.00     0.198 A 
ATOM     44  F   UNL     1      -8.038   4.924  -0.289  1.00  0.00    -0.203 F 
ATOM     45  F   UNL     1      -8.213   3.754   5.038  1.00  0.00    -0.200 F 
ATOM     46  C   UNL     1      -9.135   3.544   2.874  1.00  0.00     0.200 A 
ATOM     47  F   UNL     1      -9.995   3.331   0.685  1.00  0.00    -0.200 F 
ATOM     48  F   UNL     1     -10.072   2.706   3.339  1.00  0.00    -0.200 F 
ENDBRANCH  24  38
BRANCH  25  49
ATOM     49  C   UNL     1       0.809   9.999  -2.051  1.00  0.00     0.064 A 
ATOM     50  C   UNL     1       1.256  11.172  -1.418  1.00  0.00     0.173 A 
ATOM     51  C   UNL     1       1.500   9.591  -3.201  1.00  0.00     0.173 A 
ATOM     52  F   UNL     1       0.626  11.623  -0.323  1.00  0.00    -0.203 F 
ATOM     53  C   UNL     1       2.319  11.916  -1.929  1.00  0.00     0.198 A 
ATOM     54  C   UNL     1       2.587  10.316  -3.691  1.00  0.00     0.198 A 
ATOM     55  F   UNL     1       1.123   8.480  -3.851  1.00  0.00    -0.203 F 
ATOM     56  F   UNL     1       2.681  13.062  -1.335  1.00  0.00    -0.200 F 
ATOM     57  C   UNL     1       2.988  11.485  -3.063  1.00  0.00     0.200 A 
ATOM     58  F   UNL     1       3.242   9.883  -4.777  1.00  0.00    -0.200 F 
ATOM     59  F   UNL     1       4.011  12.197  -3.554  1.00  0.00    -0.200 F 
ENDBRANCH  25  49
BRANCH  37  60
ATOM     60  C   UNL     1      -5.922  11.633  -1.266  1.00  0.00     0.064 A 
ATOM     61  C   UNL     1      -6.202  11.975  -2.596  1.00  0.00     0.173 A 
ATOM     62  C   UNL     1      -6.436  12.452  -0.250  1.00  0.00     0.173 A 
ATOM     63  F   UNL     1      -5.721  11.228  -3.602  1.00  0.00    -0.203 F 
ATOM     64  C   UNL     1      -6.944  13.112  -2.899  1.00  0.00     0.198 A 
ATOM     65  C   UNL     1      -7.207  13.569  -0.556  1.00  0.00     0.198 A 
ATOM     66  F   UNL     1      -6.202  12.161   1.038  1.00  0.00    -0.203 F 
ATOM     67  F   UNL     1      -7.155  13.451  -4.178  1.00  0.00    -0.200 F 
ATOM     68  C   UNL     1      -7.453  13.903  -1.879  1.00  0.00     0.200 A 
ATOM     69  F   UNL     1      -7.711  14.323   0.431  1.00  0.00    -0.200 F 
ATOM     70  F   UNL     1      -8.174  14.993  -2.172  1.00  0.00    -0.200 F 
ENDBRANCH  37  60
ENDBRANCH  11  12
ENDBRANCH   4   6
ENDBRANCH   3   4
ENDBRANCH   2   3
ENDBRANCH   1   2
BRANCH   1  71
ATOM     71  O   UNL     1       3.731   2.843   2.901  1.00  0.00    -0.462 OA
BRANCH  71  72
ATOM     72  C   UNL     1       4.207   2.087   1.862  1.00  0.00     0.313 C 
ATOM     73  O   UNL     1       5.026   1.185   1.985  1.00  0.00    -0.252 OA
BRANCH  72  74
ATOM     74  C   UNL     1       3.581   2.545   0.531  1.00  0.00     0.131 C 
BRANCH  74  75
ATOM     75  C   UNL     1       4.147   3.917   0.114  1.00  0.00    -0.020 A 
ATOM     76  C   UNL     1       3.668   5.033   0.846  1.00  0.00     0.006 A 
ATOM     77  C   UNL     1       5.064   4.196  -0.913  1.00  0.00     0.022 A 
ATOM     78  C   UNL     1       3.987   6.350   0.507  1.00  0.00     0.000 A 
ATOM     79  C   UNL     1       5.327   5.525  -1.295  1.00  0.00     0.016 A 
ATOM     80  Br  UNL     1       6.131   2.903  -1.810  1.00  0.00    -0.051 Br
ATOM     81  C   UNL     1       4.780   6.598  -0.599  1.00  0.00     0.001 A 
ENDBRANCH  74  75
BRANCH  74  82
ATOM     82  C   UNL     1       3.592   1.412  -0.534  1.00  0.00     0.026 C 
BRANCH  82  83
ATOM     83  C   UNL     1       2.382   0.455  -0.547  1.00  0.00     0.057 C 
BRANCH  83  84
ATOM     84  C   UNL     1       1.129   0.866  -1.300  1.00  0.00     0.040 A 
ATOM     85  C   UNL     1       1.099   1.853  -2.282  1.00  0.00     0.024 A 
ATOM     86  N   UNL     1       0.010   0.155  -0.995  1.00  0.00    -0.261 NA
ATOM     87  C   UNL     1      -0.104   2.145  -2.928  1.00  0.00     0.003 A 
ATOM     88  C   UNL     1      -1.143   0.449  -1.643  1.00  0.00     0.111 A 
ATOM     89  C   UNL     1      -1.251   1.437  -2.600  1.00  0.00     0.020 A 
ENDBRANCH  83  84
ENDBRANCH  82  83
ENDBRANCH  74  82
ENDBRANCH  72  74
ENDBRANCH  71  72
ENDBRANCH   1  71
TORSDOF 15
