REMARK SMILES CC(C)C[C@@H](CNC(=O)[C@@H]1CCOC1)C(=O)OCCOC(=O)c1ccc(-c2c3nc(c(-c4c(F)c(F)c(F)c(F)c4F)c4ccc([nH]4)c(-c4c(F)c(F)c(F)c(F)c4F)c4nc(c(-c5c(F)c(F)c(F)c(F)c5F)c5ccc2[nH]5)C=C4)C=C3)cc1
REMARK SMILES IDX 18 1 17 2 15 3 16 4 5 5 4 6 2 7 1 8 3 9 6 10 7 11 8 12 9 14
REMARK SMILES IDX 10 15 11 16 14 17 12 18 13 19 19 20 20 21 21 22 22 23 23 24
REMARK SMILES IDX 24 25 85 26 25 27 84 28 26 29 27 30 28 31 78 32 29 33 83 34
REMARK SMILES IDX 77 35 79 36 30 37 82 38 76 39 75 40 31 42 63 43 43 44 62 45
REMARK SMILES IDX 44 46 47 47 61 48 80 49 45 50 46 51 60 53 81 54 48 55 32 56
REMARK SMILES IDX 33 57 41 58 34 59 35 60 39 61 42 62 36 63 37 64 40 65 38 66
REMARK SMILES IDX 64 67 65 68 73 69 66 70 67 71 71 72 74 73 68 74 69 75 72 76
REMARK SMILES IDX 70 77 49 78 50 79 58 80 51 81 52 82 56 83 59 84 53 85 54 86
REMARK SMILES IDX 57 87 55 88
REMARK H PARENT 7 13 79 41 47 52
REMARK Flexibility Score: inf
ROOT
ATOM      1  C   UNL     1      -5.107  -0.580  -1.877  1.00  0.00     0.274 C 
ENDROOT
BRANCH   1   2
ATOM      2  O   UNL     1      -3.670  -0.699  -1.955  1.00  0.00    -0.462 OA
BRANCH   2   3
ATOM      3  C   UNL     1      -2.963   0.436  -1.729  1.00  0.00     0.310 C 
ATOM      4  O   UNL     1      -3.457   1.524  -1.452  1.00  0.00    -0.252 OA
BRANCH   3   5
ATOM      5  C   UNL     1      -1.465   0.265  -1.877  1.00  0.00     0.118 C 
BRANCH   5   6
ATOM      6  C   UNL     1      -0.940  -1.130  -1.497  1.00  0.00     0.020 C 
BRANCH   6   7
ATOM      7  C   UNL     1       0.583  -1.212  -1.234  1.00  0.00    -0.017 C 
ATOM      8  C   UNL     1       1.069  -0.227  -0.166  1.00  0.00     0.007 C 
ATOM      9  C   UNL     1       0.957  -2.634  -0.803  1.00  0.00     0.007 C 
ENDBRANCH   6   7
ENDBRANCH   5   6
BRANCH   5  10
ATOM     10  C   UNL     1      -1.006   0.799  -3.233  1.00  0.00     0.131 C 
BRANCH  10  11
ATOM     11  N   UNL     1      -1.504   0.076  -4.385  1.00  0.00    -0.355 N 
ATOM     12  C   UNL     1      -2.230   0.457  -5.465  1.00  0.00     0.225 C 
ATOM     13  H   UNL     1      -1.268  -0.879  -4.384  1.00  0.00     0.163 HD
ATOM     14  O   UNL     1      -2.386  -0.406  -6.338  1.00  0.00    -0.275 OA
BRANCH  12  15
ATOM     15  C   UNL     1      -2.927   1.802  -5.634  1.00  0.00     0.106 C 
ATOM     16  C   UNL     1      -2.204   3.090  -5.311  1.00  0.00     0.044 C 
ATOM     17  C   UNL     1      -4.225   1.867  -4.857  1.00  0.00     0.173 C 
ATOM     18  C   UNL     1      -2.989   3.702  -4.167  1.00  0.00     0.161 C 
ATOM     19  O   UNL     1      -4.301   3.148  -4.226  1.00  0.00    -0.381 OA
ENDBRANCH  12  15
ENDBRANCH  10  11
ENDBRANCH   5  10
ENDBRANCH   3   5
ENDBRANCH   2   3
ENDBRANCH   1   2
BRANCH   1  20
ATOM     20  C   UNL     1      -5.662  -0.975  -0.505  1.00  0.00     0.275 C 
BRANCH  20  21
ATOM     21  O   UNL     1      -5.285  -0.027   0.511  1.00  0.00    -0.458 OA
BRANCH  21  22
ATOM     22  C   UNL     1      -4.139  -0.332   1.160  1.00  0.00     0.338 C 
ATOM     23  O   UNL     1      -3.473  -1.347   1.042  1.00  0.00    -0.246 OA
BRANCH  22  24
ATOM     24  C   UNL     1      -3.668   0.819   1.948  1.00  0.00     0.060 A 
ATOM     25  C   UNL     1      -2.342   1.217   1.752  1.00  0.00     0.016 A 
ATOM     26  C   UNL     1      -4.452   1.424   2.932  1.00  0.00     0.016 A 
ATOM     27  C   UNL     1      -1.776   2.196   2.555  1.00  0.00     0.010 A 
ATOM     28  C   UNL     1      -3.876   2.397   3.759  1.00  0.00     0.010 A 
ATOM     29  C   UNL     1      -2.526   2.758   3.593  1.00  0.00    -0.014 A 
BRANCH  29  30
ATOM     30  C   UNL     1      -1.814   3.574   4.601  1.00  0.00     0.031 A 
ATOM     31  C   UNL     1      -1.345   2.910   5.864  1.00  0.00     0.074 A 
ATOM     32  C   UNL     1      -1.496   4.854   4.344  1.00  0.00     0.049 A 
ATOM     33  N   UNL     1      -0.671   3.410   6.868  1.00  0.00    -0.248 NA
ATOM     34  C   UNL     1      -1.674   1.482   6.013  1.00  0.00     0.031 C 
ATOM     35  C   UNL     1      -1.838   5.579   3.122  1.00  0.00     0.029 A 
ATOM     36  N   UNL     1      -0.796   5.764   5.093  1.00  0.00    -0.354 N 
ATOM     37  C   UNL     1      -0.509   2.367   7.769  1.00  0.00     0.074 A 
ATOM     38  C   UNL     1      -1.165   1.209   7.205  1.00  0.00     0.031 C 
ATOM     39  C   UNL     1      -1.340   6.824   3.201  1.00  0.00     0.029 A 
ATOM     40  C   UNL     1      -0.670   6.990   4.490  1.00  0.00     0.049 A 
ATOM     41  H   UNL     1      -0.420   5.558   5.980  1.00  0.00     0.167 HD
ATOM     42  C   UNL     1       0.134   2.376   8.961  1.00  0.00     0.037 A 
ATOM     43  C   UNL     1      -0.085   8.117   4.937  1.00  0.00     0.037 A 
ATOM     44  C   UNL     1       0.796   3.526   9.513  1.00  0.00     0.049 A 
ATOM     45  C   UNL     1       0.584   8.112   6.287  1.00  0.00     0.074 A 
ATOM     46  C   UNL     1       1.468   3.643  10.717  1.00  0.00     0.029 A 
ATOM     47  N   UNL     1       0.871   4.763   8.889  1.00  0.00    -0.354 N 
ATOM     48  N   UNL     1       0.726   7.125   7.138  1.00  0.00    -0.248 NA
ATOM     49  C   UNL     1       1.178   9.380   6.735  1.00  0.00     0.031 C 
ATOM     50  C   UNL     1       1.921   4.962  10.837  1.00  0.00     0.029 A 
ATOM     51  C   UNL     1       1.568   5.654   9.689  1.00  0.00     0.049 A 
ATOM     52  H   UNL     1       0.486   4.976   8.009  1.00  0.00     0.167 HD
ATOM     53  C   UNL     1       1.448   7.641   8.206  1.00  0.00     0.074 A 
ATOM     54  C   UNL     1       1.724   9.027   7.890  1.00  0.00     0.031 C 
ATOM     55  C   UNL     1       1.845   7.025   9.346  1.00  0.00     0.037 A 
BRANCH  42  56
ATOM     56  C   UNL     1       0.114   1.108   9.761  1.00  0.00     0.064 A 
ATOM     57  C   UNL     1       0.885  -0.006   9.400  1.00  0.00     0.173 A 
ATOM     58  C   UNL     1      -0.685   1.011  10.910  1.00  0.00     0.173 A 
ATOM     59  F   UNL     1       1.649   0.030   8.297  1.00  0.00    -0.203 F 
ATOM     60  C   UNL     1       0.840  -1.180  10.148  1.00  0.00     0.198 A 
ATOM     61  C   UNL     1      -0.709  -0.155  11.669  1.00  0.00     0.198 A 
ATOM     62  F   UNL     1      -1.442   2.049  11.296  1.00  0.00    -0.203 F 
ATOM     63  F   UNL     1       1.550  -2.248   9.760  1.00  0.00    -0.200 F 
ATOM     64  C   UNL     1       0.048  -1.252  11.284  1.00  0.00     0.200 A 
ATOM     65  F   UNL     1      -1.470  -0.220  12.770  1.00  0.00    -0.200 F 
ATOM     66  F   UNL     1       0.006  -2.381  12.004  1.00  0.00    -0.200 F 
ENDBRANCH  42  56
BRANCH  43  67
ATOM     67  C   UNL     1      -0.105   9.346   4.103  1.00  0.00     0.064 A 
ATOM     68  C   UNL     1       1.070   9.848   3.526  1.00  0.00     0.173 A 
ATOM     69  C   UNL     1      -1.296  10.052   3.879  1.00  0.00     0.173 A 
ATOM     70  F   UNL     1       2.238   9.222   3.733  1.00  0.00    -0.203 F 
ATOM     71  C   UNL     1       1.056  11.019   2.771  1.00  0.00     0.198 A 
ATOM     72  C   UNL     1      -1.313  11.208   3.103  1.00  0.00     0.198 A 
ATOM     73  F   UNL     1      -2.446   9.614   4.413  1.00  0.00    -0.203 F 
ATOM     74  F   UNL     1       2.200  11.502   2.267  1.00  0.00    -0.200 F 
ATOM     75  C   UNL     1      -0.136  11.695   2.555  1.00  0.00     0.200 A 
ATOM     76  F   UNL     1      -2.468  11.853   2.890  1.00  0.00    -0.200 F 
ATOM     77  F   UNL     1      -0.148  12.820   1.828  1.00  0.00    -0.200 F 
ENDBRANCH  43  67
BRANCH  55  78
ATOM     78  C   UNL     1       2.660   7.832  10.312  1.00  0.00     0.064 A 
ATOM     79  C   UNL     1       2.083   8.836  11.103  1.00  0.00     0.173 A 
ATOM     80  C   UNL     1       4.030   7.574  10.470  1.00  0.00     0.173 A 
ATOM     81  F   UNL     1       0.779   9.128  10.977  1.00  0.00    -0.203 F 
ATOM     82  C   UNL     1       2.854   9.571  11.998  1.00  0.00     0.198 A 
ATOM     83  C   UNL     1       4.793   8.294  11.384  1.00  0.00     0.198 A 
ATOM     84  F   UNL     1       4.627   6.619   9.741  1.00  0.00    -0.203 F 
ATOM     85  F   UNL     1       2.292  10.557  12.711  1.00  0.00    -0.200 F 
ATOM     86  C   UNL     1       4.207   9.296  12.142  1.00  0.00     0.200 A 
ATOM     87  F   UNL     1       6.097   8.020  11.530  1.00  0.00    -0.200 F 
ATOM     88  F   UNL     1       4.947  10.004  13.006  1.00  0.00    -0.200 F 
ENDBRANCH  55  78
ENDBRANCH  29  30
ENDBRANCH  22  24
ENDBRANCH  21  22
ENDBRANCH  20  21
ENDBRANCH   1  20
TORSDOF 16
