REMARK SMILES CC(C)[NH2+][C@@]1(C(=O)OCCOC(=O)c2ccc(-c3c4nc(c(-c5c(F)c(F)c(F)c(F)c5F)c5ccc([nH]5)c(-c5c(F)c(F)c(F)c(F)c5F)c5nc(c(-c6c(F)c(F)c(F)c(F)c6F)c6ccc3[nH]6)C=C5)C=C4)cc2)CCC[C@@H]1CCOC1CCOCC1
REMARK SMILES IDX 9 1 8 2 6 3 7 4 5 5 77 6 80 7 78 8 79 9 4 10 2 13 1 14 3 15
REMARK SMILES IDX 81 16 82 17 83 18 84 19 85 20 89 21 86 22 88 23 87 24 10 25
REMARK SMILES IDX 11 26 12 27 13 28 14 29 15 30 76 31 16 32 75 33 17 34 18 35
REMARK SMILES IDX 19 36 69 37 20 38 74 39 68 40 70 41 21 42 73 43 67 44 66 45
REMARK SMILES IDX 22 47 54 48 34 49 53 50 35 51 38 52 52 53 71 54 36 55 37 56
REMARK SMILES IDX 51 58 72 59 39 60 23 61 24 62 32 63 25 64 26 65 30 66 33 67
REMARK SMILES IDX 27 68 28 69 31 70 29 71 55 72 56 73 64 74 57 75 58 76 62 77
REMARK SMILES IDX 65 78 59 79 60 80 63 81 61 82 40 83 41 84 49 85 42 86 43 87
REMARK SMILES IDX 47 88 50 89 44 90 45 91 48 92 46 93
REMARK H PARENT 4 11 4 12 70 46 38 57
REMARK Flexibility Score: inf
ROOT
ATOM      1  C   UNL     1      -4.946  -0.599  -3.756  1.00  0.00     0.274 C 
ENDROOT
BRANCH   1   2
ATOM      2  O   UNL     1      -3.521  -0.842  -3.691  1.00  0.00    -0.457 OA
BRANCH   2   3
ATOM      3  C   UNL     1      -2.682   0.159  -3.280  1.00  0.00     0.368 C 
ATOM      4  O   UNL     1      -3.134   1.287  -3.108  1.00  0.00    -0.245 OA
BRANCH   3   5
ATOM      5  C   UNL     1      -0.979  -0.314  -3.378  1.00  0.00     0.197 C 
ATOM      6  C   UNL     1      -0.885   0.432  -4.943  1.00  0.00     0.081 C 
ATOM      7  C   UNL     1      -1.188  -1.941  -4.068  1.00  0.00     0.065 C 
ATOM      8  C   UNL     1      -1.612  -0.400  -5.985  1.00  0.00     0.008 C 
ATOM      9  C   UNL     1      -1.578  -1.840  -5.561  1.00  0.00     0.011 C 
BRANCH   5  10
ATOM     10  N   UNL     1       0.271   0.181  -1.879  1.00  0.00    -0.330 N 
ATOM     11  H   UNL     1       0.320   1.184  -2.058  1.00  0.00     0.347 HD
ATOM     12  H   UNL     1      -0.092  -0.613  -1.351  1.00  0.00     0.347 HD
BRANCH  10  13
ATOM     13  C   UNL     1       1.698   0.018  -1.062  1.00  0.00     0.176 C 
ATOM     14  C   UNL     1       1.452   0.388   0.415  1.00  0.00     0.075 C 
ATOM     15  C   UNL     1       2.796  -1.117  -1.011  1.00  0.00     0.075 C 
ENDBRANCH  10  13
ENDBRANCH   5  10
BRANCH   7  16
ATOM     16  C   UNL     1      -2.055  -3.055  -3.372  1.00  0.00     0.039 C 
BRANCH  16  17
ATOM     17  C   UNL     1      -2.250  -3.029  -1.857  1.00  0.00     0.161 C 
BRANCH  17  18
ATOM     18  O   UNL     1      -2.409  -1.702  -1.407  1.00  0.00    -0.378 OA
BRANCH  18  19
ATOM     19  C   UNL     1      -1.177  -1.038  -1.145  1.00  0.00     0.122 C 
ATOM     20  C   UNL     1      -1.465   0.875  -1.185  1.00  0.00     0.060 C 
ATOM     21  C   UNL     1       0.298  -1.797  -2.145  1.00  0.00     0.060 C 
ATOM     22  C   UNL     1      -0.617   1.931  -2.544  1.00  0.00     0.163 C 
ATOM     23  C   UNL     1       1.203  -0.629  -3.468  1.00  0.00     0.163 C 
ATOM     24  O   UNL     1       0.766   1.188  -3.534  1.00  0.00    -0.381 OA
ENDBRANCH  18  19
ENDBRANCH  17  18
ENDBRANCH  16  17
ENDBRANCH   7  16
ENDBRANCH   3   5
ENDBRANCH   2   3
ENDBRANCH   1   2
BRANCH   1  25
ATOM     25  C   UNL     1      -5.662  -1.407  -2.670  1.00  0.00     0.275 C 
BRANCH  25  26
ATOM     26  O   UNL     1      -5.277  -0.935  -1.365  1.00  0.00    -0.458 OA
BRANCH  26  27
ATOM     27  C   UNL     1      -5.390  -1.834  -0.352  1.00  0.00     0.338 C 
ATOM     28  O   UNL     1      -5.966  -2.918  -0.426  1.00  0.00    -0.246 OA
BRANCH  27  29
ATOM     29  C   UNL     1      -4.626  -1.406   0.858  1.00  0.00     0.060 A 
ATOM     30  C   UNL     1      -3.813  -0.285   0.824  1.00  0.00     0.016 A 
ATOM     31  C   UNL     1      -4.585  -2.195   2.007  1.00  0.00     0.016 A 
ATOM     32  C   UNL     1      -2.831  -0.075   1.803  1.00  0.00     0.010 A 
ATOM     33  C   UNL     1      -3.712  -1.875   3.072  1.00  0.00     0.010 A 
ATOM     34  C   UNL     1      -2.765  -0.837   2.974  1.00  0.00    -0.014 A 
BRANCH  34  35
ATOM     35  C   UNL     1      -1.739  -0.573   4.059  1.00  0.00     0.031 A 
ATOM     36  C   UNL     1      -1.062  -1.725   4.785  1.00  0.00     0.074 A 
ATOM     37  C   UNL     1      -1.380   0.676   4.448  1.00  0.00     0.049 A 
ATOM     38  N   UNL     1      -0.465  -1.746   5.955  1.00  0.00    -0.248 NA
ATOM     39  C   UNL     1      -1.070  -3.030   4.107  1.00  0.00     0.031 C 
ATOM     40  C   UNL     1      -1.810   1.935   3.841  1.00  0.00     0.029 A 
ATOM     41  N   UNL     1      -0.564   1.092   5.487  1.00  0.00    -0.354 N 
ATOM     42  C   UNL     1      -0.121  -3.074   6.194  1.00  0.00     0.074 A 
ATOM     43  C   UNL     1      -0.561  -3.827   5.038  1.00  0.00     0.031 C 
ATOM     44  C   UNL     1      -1.234   2.964   4.475  1.00  0.00     0.029 A 
ATOM     45  C   UNL     1      -0.524   2.460   5.640  1.00  0.00     0.049 A 
ATOM     46  H   UNL     1      -0.061   0.470   6.061  1.00  0.00     0.167 HD
ATOM     47  C   UNL     1       0.491  -3.618   7.279  1.00  0.00     0.037 A 
ATOM     48  C   UNL     1      -0.069   3.247   6.637  1.00  0.00     0.037 A 
ATOM     49  C   UNL     1       1.017  -2.864   8.393  1.00  0.00     0.049 A 
ATOM     50  C   UNL     1       0.527   2.630   7.870  1.00  0.00     0.074 A 
ATOM     51  C   UNL     1       1.672  -3.334   9.521  1.00  0.00     0.029 A 
ATOM     52  N   UNL     1       0.973  -1.484   8.513  1.00  0.00    -0.354 N 
ATOM     53  N   UNL     1       0.739   1.368   8.145  1.00  0.00    -0.248 NA
ATOM     54  C   UNL     1       0.923   3.552   8.945  1.00  0.00     0.031 C 
ATOM     55  C   UNL     1       1.971  -2.247  10.349  1.00  0.00     0.029 A 
ATOM     56  C   UNL     1       1.568  -1.091   9.705  1.00  0.00     0.049 A 
ATOM     57  H   UNL     1       0.578  -0.872   7.851  1.00  0.00     0.167 HD
ATOM     58  C   UNL     1       1.316   1.346   9.408  1.00  0.00     0.074 A 
ATOM     59  C   UNL     1       1.438   2.721   9.839  1.00  0.00     0.031 C 
ATOM     60  C   UNL     1       1.706   0.275  10.140  1.00  0.00     0.037 A 
BRANCH  47  61
ATOM     61  C   UNL     1       0.591  -5.120   7.360  1.00  0.00     0.064 A 
ATOM     62  C   UNL     1       1.440  -5.868   6.533  1.00  0.00     0.173 A 
ATOM     63  C   UNL     1      -0.136  -5.814   8.344  1.00  0.00     0.173 A 
ATOM     64  F   UNL     1       2.159  -5.261   5.577  1.00  0.00    -0.203 F 
ATOM     65  C   UNL     1       1.534  -7.253   6.665  1.00  0.00     0.198 A 
ATOM     66  C   UNL     1      -0.011  -7.193   8.498  1.00  0.00     0.198 A 
ATOM     67  F   UNL     1      -0.950  -5.150   9.179  1.00  0.00    -0.203 F 
ATOM     68  F   UNL     1       2.317  -7.952   5.831  1.00  0.00    -0.200 F 
ATOM     69  C   UNL     1       0.817  -7.913   7.652  1.00  0.00     0.200 A 
ATOM     70  F   UNL     1      -0.686  -7.822   9.470  1.00  0.00    -0.200 F 
ATOM     71  F   UNL     1       0.920  -9.242   7.785  1.00  0.00    -0.200 F 
ENDBRANCH  47  61
BRANCH  48  72
ATOM     72  C   UNL     1      -0.247   4.726   6.552  1.00  0.00     0.064 A 
ATOM     73  C   UNL     1       0.857   5.584   6.463  1.00  0.00     0.173 A 
ATOM     74  C   UNL     1      -1.524   5.310   6.570  1.00  0.00     0.173 A 
ATOM     75  F   UNL     1       2.100   5.080   6.482  1.00  0.00    -0.203 F 
ATOM     76  C   UNL     1       0.692   6.966   6.402  1.00  0.00     0.198 A 
ATOM     77  C   UNL     1      -1.690   6.689   6.465  1.00  0.00     0.198 A 
ATOM     78  F   UNL     1      -2.617   4.537   6.665  1.00  0.00    -0.203 F 
ATOM     79  F   UNL     1       1.766   7.766   6.372  1.00  0.00    -0.200 F 
ATOM     80  C   UNL     1      -0.582   7.517   6.390  1.00  0.00     0.200 A 
ATOM     81  F   UNL     1      -2.923   7.213   6.435  1.00  0.00    -0.200 F 
ATOM     82  F   UNL     1      -0.740   8.845   6.316  1.00  0.00    -0.200 F 
ENDBRANCH  48  72
BRANCH  60  83
ATOM     83  C   UNL     1       2.367   0.545  11.463  1.00  0.00     0.064 A 
ATOM     84  C   UNL     1       1.657   1.054  12.560  1.00  0.00     0.173 A 
ATOM     85  C   UNL     1       3.735   0.280  11.637  1.00  0.00     0.173 A 
ATOM     86  F   UNL     1       0.352   1.344  12.444  1.00  0.00    -0.203 F 
ATOM     87  C   UNL     1       2.297   1.320  13.769  1.00  0.00     0.198 A 
ATOM     88  C   UNL     1       4.364   0.514  12.857  1.00  0.00     0.198 A 
ATOM     89  F   UNL     1       4.463  -0.211  10.623  1.00  0.00    -0.203 F 
ATOM     90  F   UNL     1       1.610   1.865  14.783  1.00  0.00    -0.200 F 
ATOM     91  C   UNL     1       3.647   1.044  13.918  1.00  0.00     0.200 A 
ATOM     92  F   UNL     1       5.666   0.233  13.003  1.00  0.00    -0.200 F 
ATOM     93  F   UNL     1       4.261   1.299  15.082  1.00  0.00    -0.200 F 
ENDBRANCH  60  83
ENDBRANCH  34  35
ENDBRANCH  27  29
ENDBRANCH  26  27
ENDBRANCH  25  26
ENDBRANCH   1  25
TORSDOF 17
