REMARK SMILES O=C(C[C@@H]1COc2ccccc2N1Cc1ccccc1)OCCOC(=O)c1ccc(-c2c3nc(c(-c4c(F)c(F)c(F)c(F)c4F)c4ccc([nH]4)c(-c4c(F)c(F)c(F)c(F)c4F)c4nc(c(-c5c(F)c(F)c(F)c(F)c5F)c5ccc2[nH]5)C=C4)C=C3)cc1
REMARK SMILES IDX 22 1 21 2 2 3 1 4 3 5 4 6 5 7 13 8 6 9 12 10 7 11 11 12 8 13
REMARK SMILES IDX 10 14 9 15 14 16 15 17 16 18 20 19 17 20 19 21 18 22 23 23
REMARK SMILES IDX 24 24 25 25 26 26 27 27 28 28 89 29 29 30 88 31 30 32 31 33
REMARK SMILES IDX 32 34 82 35 33 36 87 37 81 38 83 39 34 40 86 41 80 42 79 43
REMARK SMILES IDX 35 45 67 46 47 47 66 48 48 49 51 50 65 51 84 52 49 53 50 54
REMARK SMILES IDX 64 56 85 57 52 58 36 59 37 60 45 61 38 62 39 63 43 64 46 65
REMARK SMILES IDX 40 66 41 67 44 68 42 69 68 70 69 71 77 72 70 73 71 74 75 75
REMARK SMILES IDX 78 76 72 77 73 78 76 79 74 80 53 81 54 82 62 83 55 84 56 85
REMARK SMILES IDX 60 86 63 87 57 88 58 89 61 90 59 91
REMARK H PARENT 83 44 51 55
REMARK Flexibility Score: inf
ROOT
ATOM      1  C   UNL     1       4.734   1.456   0.218  1.00  0.00     0.274 C 
ENDROOT
BRANCH   1   2
ATOM      2  O   UNL     1       3.457   1.258  -0.421  1.00  0.00    -0.462 OA
BRANCH   2   3
ATOM      3  C   UNL     1       2.745   0.106  -0.390  1.00  0.00     0.308 C 
ATOM      4  O   UNL     1       1.546   0.120  -0.656  1.00  0.00    -0.252 OA
BRANCH   3   5
ATOM      5  C   UNL     1       3.453  -1.163   0.017  1.00  0.00     0.151 C 
BRANCH   5   6
ATOM      6  C   UNL     1       4.066  -2.027  -1.086  1.00  0.00     0.131 C 
ATOM      7  C   UNL     1       4.359  -1.371  -2.441  1.00  0.00     0.255 C 
ATOM      8  N   UNL     1       3.229  -3.224  -1.274  1.00  0.00    -0.357 N 
ATOM      9  O   UNL     1       3.203  -1.020  -3.194  1.00  0.00    -0.489 OA
ATOM     10  C   UNL     1       2.117  -2.933  -2.087  1.00  0.00     0.080 A 
ATOM     11  C   UNL     1       2.139  -1.876  -3.024  1.00  0.00     0.142 A 
ATOM     12  C   UNL     1       0.904  -3.610  -1.916  1.00  0.00     0.030 A 
ATOM     13  C   UNL     1       1.018  -1.569  -3.801  1.00  0.00     0.048 A 
ATOM     14  C   UNL     1      -0.222  -3.301  -2.687  1.00  0.00     0.002 A 
ATOM     15  C   UNL     1      -0.161  -2.289  -3.639  1.00  0.00     0.004 A 
BRANCH   8  16
ATOM     16  C   UNL     1       3.926  -4.509  -1.427  1.00  0.00     0.152 C 
BRANCH  16  17
ATOM     17  C   UNL     1       3.208  -5.712  -0.860  1.00  0.00    -0.029 A 
ATOM     18  C   UNL     1       3.414  -6.126   0.465  1.00  0.00     0.005 A 
ATOM     19  C   UNL     1       2.358  -6.471  -1.679  1.00  0.00     0.005 A 
ATOM     20  C   UNL     1       2.809  -7.291   0.942  1.00  0.00     0.000 A 
ATOM     21  C   UNL     1       1.717  -7.606  -1.187  1.00  0.00     0.000 A 
ATOM     22  C   UNL     1       1.959  -8.026   0.117  1.00  0.00     0.000 A 
ENDBRANCH  16  17
ENDBRANCH   8  16
ENDBRANCH   5   6
ENDBRANCH   3   5
ENDBRANCH   2   3
ENDBRANCH   1   2
BRANCH   1  23
ATOM     23  C   UNL     1       4.591   1.777   1.711  1.00  0.00     0.275 C 
BRANCH  23  24
ATOM     24  O   UNL     1       4.113   0.632   2.447  1.00  0.00    -0.458 OA
BRANCH  24  25
ATOM     25  C   UNL     1       2.798   0.653   2.785  1.00  0.00     0.338 C 
ATOM     26  O   UNL     1       2.030   1.587   2.628  1.00  0.00    -0.246 OA
BRANCH  25  27
ATOM     27  C   UNL     1       2.363  -0.680   3.274  1.00  0.00     0.060 A 
ATOM     28  C   UNL     1       1.050  -1.082   2.995  1.00  0.00     0.016 A 
ATOM     29  C   UNL     1       3.200  -1.516   4.020  1.00  0.00     0.016 A 
ATOM     30  C   UNL     1       0.545  -2.270   3.532  1.00  0.00     0.010 A 
ATOM     31  C   UNL     1       2.696  -2.711   4.552  1.00  0.00     0.010 A 
ATOM     32  C   UNL     1       1.348  -3.067   4.357  1.00  0.00    -0.014 A 
BRANCH  32  33
ATOM     33  C   UNL     1       0.725  -4.143   5.175  1.00  0.00     0.031 A 
ATOM     34  C   UNL     1       0.406  -3.863   6.620  1.00  0.00     0.074 A 
ATOM     35  C   UNL     1       0.381  -5.335   4.656  1.00  0.00     0.049 A 
ATOM     36  N   UNL     1      -0.186  -4.626   7.506  1.00  0.00    -0.248 NA
ATOM     37  C   UNL     1       0.794  -2.539   7.131  1.00  0.00     0.031 C 
ATOM     38  C   UNL     1       0.552  -5.733   3.264  1.00  0.00     0.029 A 
ATOM     39  N   UNL     1      -0.188  -6.434   5.256  1.00  0.00    -0.354 N 
ATOM     40  C   UNL     1      -0.276  -3.862   8.661  1.00  0.00     0.074 A 
ATOM     41  C   UNL     1       0.392  -2.607   8.391  1.00  0.00     0.031 C 
ATOM     42  C   UNL     1       0.120  -6.999   3.123  1.00  0.00     0.029 A 
ATOM     43  C   UNL     1      -0.324  -7.509   4.416  1.00  0.00     0.049 A 
ATOM     44  H   UNL     1      -0.471  -6.447   6.199  1.00  0.00     0.167 HD
ATOM     45  C   UNL     1      -0.894  -4.157   9.829  1.00  0.00     0.037 A 
ATOM     46  C   UNL     1      -0.745  -8.766   4.655  1.00  0.00     0.037 A 
ATOM     47  C   UNL     1      -1.558  -5.400  10.119  1.00  0.00     0.049 A 
ATOM     48  C   UNL     1      -1.293  -9.127   6.008  1.00  0.00     0.074 A 
ATOM     49  C   UNL     1      -2.243  -5.766  11.265  1.00  0.00     0.029 A 
ATOM     50  N   UNL     1      -1.606  -6.487   9.261  1.00  0.00    -0.354 N 
ATOM     51  N   UNL     1      -1.432  -8.377   7.072  1.00  0.00    -0.248 NA
ATOM     52  C   UNL     1      -1.785 -10.503   6.177  1.00  0.00     0.031 C 
ATOM     53  C   UNL     1      -2.664  -7.094  11.119  1.00  0.00     0.029 A 
ATOM     54  C   UNL     1      -2.283  -7.536   9.864  1.00  0.00     0.049 A 
ATOM     55  H   UNL     1      -1.216  -6.511   8.357  1.00  0.00     0.167 HD
ATOM     56  C   UNL     1      -2.092  -9.161   8.008  1.00  0.00     0.074 A 
ATOM     57  C   UNL     1      -2.302 -10.456   7.397  1.00  0.00     0.031 C 
ATOM     58  C   UNL     1      -2.512  -8.820   9.252  1.00  0.00     0.037 A 
BRANCH  45  59
ATOM     59  C   UNL     1      -0.875  -3.096  10.888  1.00  0.00     0.064 A 
ATOM     60  C   UNL     1      -1.647  -1.930  10.768  1.00  0.00     0.173 A 
ATOM     61  C   UNL     1      -0.082  -3.247  12.034  1.00  0.00     0.173 A 
ATOM     62  F   UNL     1      -2.409  -1.733   9.681  1.00  0.00    -0.203 F 
ATOM     63  C   UNL     1      -1.599  -0.937  11.742  1.00  0.00     0.198 A 
ATOM     64  C   UNL     1      -0.058  -2.264  13.019  1.00  0.00     0.198 A 
ATOM     65  F   UNL     1       0.672  -4.344  12.195  1.00  0.00    -0.203 F 
ATOM     66  F   UNL     1      -2.302   0.193  11.581  1.00  0.00    -0.200 F 
ATOM     67  C   UNL     1      -0.808  -1.107  12.868  1.00  0.00     0.200 A 
ATOM     68  F   UNL     1       0.702  -2.431  14.111  1.00  0.00    -0.200 F 
ATOM     69  F   UNL     1      -0.760  -0.150  13.805  1.00  0.00    -0.200 F 
ENDBRANCH  45  59
BRANCH  46  70
ATOM     70  C   UNL     1      -0.675  -9.787   3.580  1.00  0.00     0.064 A 
ATOM     71  C   UNL     1      -1.831 -10.253   2.940  1.00  0.00     0.173 A 
ATOM     72  C   UNL     1       0.555 -10.342   3.199  1.00  0.00     0.173 A 
ATOM     73  F   UNL     1      -3.031  -9.773   3.295  1.00  0.00    -0.203 F 
ATOM     74  C   UNL     1      -1.760 -11.248   1.967  1.00  0.00     0.198 A 
ATOM     75  C   UNL     1       0.626 -11.325   2.215  1.00  0.00     0.198 A 
ATOM     76  F   UNL     1       1.689  -9.928   3.784  1.00  0.00    -0.203 F 
ATOM     77  F   UNL     1      -2.883 -11.707   1.398  1.00  0.00    -0.200 F 
ATOM     78  C   UNL     1      -0.532 -11.780   1.603  1.00  0.00     0.200 A 
ATOM     79  F   UNL     1       1.815 -11.828   1.858  1.00  0.00    -0.200 F 
ATOM     80  F   UNL     1      -0.465 -12.738   0.668  1.00  0.00    -0.200 F 
ENDBRANCH  46  70
BRANCH  58  81
ATOM     81  C   UNL     1      -3.320  -9.835  10.008  1.00  0.00     0.064 A 
ATOM     82  C   UNL     1      -2.749 -11.002  10.535  1.00  0.00     0.173 A 
ATOM     83  C   UNL     1      -4.694  -9.627  10.212  1.00  0.00     0.173 A 
ATOM     84  F   UNL     1      -1.444 -11.256  10.353  1.00  0.00    -0.203 F 
ATOM     85  C   UNL     1      -3.529 -11.940  11.207  1.00  0.00     0.198 A 
ATOM     86  C   UNL     1      -5.465 -10.552  10.910  1.00  0.00     0.198 A 
ATOM     87  F   UNL     1      -5.290  -8.525   9.732  1.00  0.00    -0.203 F 
ATOM     88  F   UNL     1      -2.974 -13.075  11.652  1.00  0.00    -0.200 F 
ATOM     89  C   UNL     1      -4.884 -11.712  11.398  1.00  0.00     0.200 A 
ATOM     90  F   UNL     1      -6.771 -10.325  11.102  1.00  0.00    -0.200 F 
ATOM     91  F   UNL     1      -5.633 -12.617  12.043  1.00  0.00    -0.200 F 
ENDBRANCH  58  81
ENDBRANCH  32  33
ENDBRANCH  25  27
ENDBRANCH  24  25
ENDBRANCH  23  24
ENDBRANCH   1  23
TORSDOF 14
