REMARK SMILES C[C@@H](C(=O)OCCOC(=O)c1ccc(-c2c3nc(c(-c4c(F)c(F)c(F)c(F)c4F)c4ccc([nH]4)c(-c4c(F)c(F)c(F)c(F)c4F)c4nc(c(-c5c(F)c(F)c(F)c(F)c5F)c5ccc2[nH]5)C=C4)C=C3)cc1)c1cc(C(=O)c2ccccc2)ccc1O
REMARK SMILES IDX 6 1 5 2 3 3 4 4 2 5 1 6 74 7 75 8 87 9 76 10 86 11 85 12
REMARK SMILES IDX 88 13 77 15 78 16 79 17 80 18 84 19 81 20 83 21 82 22 7 23
REMARK SMILES IDX 8 24 9 25 10 26 11 27 12 28 73 29 13 30 72 31 14 32 15 33
REMARK SMILES IDX 16 34 66 35 17 36 71 37 65 38 67 39 18 40 70 41 64 42 63 43
REMARK SMILES IDX 19 45 51 46 31 47 50 48 32 49 35 50 49 51 68 52 33 53 34 54
REMARK SMILES IDX 48 56 69 57 36 58 20 59 21 60 29 61 22 62 23 63 27 64 30 65
REMARK SMILES IDX 24 66 25 67 28 68 26 69 52 70 53 71 61 72 54 73 55 74 59 75
REMARK SMILES IDX 62 76 56 77 57 78 60 79 58 80 37 81 38 82 46 83 39 84 40 85
REMARK SMILES IDX 44 86 47 87 41 88 42 89 45 90 43 91
REMARK H PARENT 88 14 67 44 35 55
REMARK Flexibility Score: inf
ROOT
ATOM      1  C   UNL     1       2.610   3.171   2.248  1.00  0.00     0.274 C 
ENDROOT
BRANCH   1   2
ATOM      2  O   UNL     1       2.150   1.957   1.621  1.00  0.00    -0.462 OA
BRANCH   2   3
ATOM      3  C   UNL     1       1.578   1.047   2.452  1.00  0.00     0.313 C 
ATOM      4  O   UNL     1       1.474   1.192   3.666  1.00  0.00    -0.252 OA
BRANCH   3   5
ATOM      5  C   UNL     1       1.005  -0.169   1.708  1.00  0.00     0.130 C 
ATOM      6  C   UNL     1       1.209  -0.132   0.190  1.00  0.00     0.025 C 
BRANCH   5   7
ATOM      7  C   UNL     1      -0.469  -0.374   2.004  1.00  0.00     0.009 A 
ATOM      8  C   UNL     1      -1.203   0.730   2.504  1.00  0.00     0.020 A 
ATOM      9  C   UNL     1      -1.143  -1.563   1.702  1.00  0.00     0.119 A 
ATOM     10  C   UNL     1      -2.571   0.712   2.674  1.00  0.00     0.023 A 
ATOM     11  C   UNL     1      -2.504  -1.619   1.815  1.00  0.00     0.047 A 
ATOM     12  C   UNL     1      -3.187  -0.499   2.273  1.00  0.00     0.016 A 
BRANCH   9  13
ATOM     13  O   UNL     1      -0.573  -2.705   1.235  1.00  0.00    -0.508 OA
ATOM     14  H   UNL     1       0.356  -2.755   1.126  1.00  0.00     0.293 HD
ENDBRANCH   9  13
BRANCH  10  15
ATOM     15  C   UNL     1      -3.144   2.115   3.052  1.00  0.00     0.193 C 
ATOM     16  O   UNL     1      -2.488   2.970   3.635  1.00  0.00    -0.289 OA
BRANCH  15  17
ATOM     17  C   UNL     1      -4.463   2.518   2.537  1.00  0.00     0.022 A 
ATOM     18  C   UNL     1      -5.311   4.211   2.289  1.00  0.00     0.012 A 
ATOM     19  C   UNL     1      -5.410   0.988   2.143  1.00  0.00     0.012 A 
ATOM     20  C   UNL     1      -7.058   4.239   1.606  1.00  0.00     0.001 A 
ATOM     21  C   UNL     1      -7.051   1.017   1.416  1.00  0.00     0.001 A 
ATOM     22  C   UNL     1      -7.898   2.630   1.200  1.00  0.00     0.000 A 
ENDBRANCH  15  17
ENDBRANCH  10  15
ENDBRANCH   5   7
ENDBRANCH   3   5
ENDBRANCH   2   3
ENDBRANCH   1   2
BRANCH   1  23
ATOM     23  C   UNL     1       2.214   4.381   1.393  1.00  0.00     0.275 C 
BRANCH  23  24
ATOM     24  O   UNL     1       0.758   4.510   1.328  1.00  0.00    -0.458 OA
BRANCH  24  25
ATOM     25  C   UNL     1       0.182   4.428   0.093  1.00  0.00     0.338 C 
ATOM     26  O   UNL     1       0.789   4.361  -0.965  1.00  0.00    -0.246 OA
BRANCH  25  27
ATOM     27  C   UNL     1      -1.298   4.161   0.158  1.00  0.00     0.060 A 
ATOM     28  C   UNL     1      -1.690   2.825   0.075  1.00  0.00     0.016 A 
ATOM     29  C   UNL     1      -2.321   5.106   0.115  1.00  0.00     0.016 A 
ATOM     30  C   UNL     1      -3.052   2.399   0.116  1.00  0.00     0.010 A 
ATOM     31  C   UNL     1      -3.700   4.684   0.190  1.00  0.00     0.010 A 
ATOM     32  C   UNL     1      -4.106   3.306   0.343  1.00  0.00    -0.014 A 
BRANCH  32  33
ATOM     33  C   UNL     1      -5.761   2.741   0.961  1.00  0.00     0.031 A 
ATOM     34  C   UNL     1      -6.463   2.813  -0.669  1.00  0.00     0.074 A 
ATOM     35  C   UNL     1      -6.474   2.627   2.686  1.00  0.00     0.049 A 
ATOM     36  N   UNL     1      -7.740   2.860  -0.954  1.00  0.00    -0.248 NA
ATOM     37  C   UNL     1      -5.666   3.115  -1.879  1.00  0.00     0.031 C 
ATOM     38  C   UNL     1      -5.883   3.015   4.269  1.00  0.00     0.029 A 
ATOM     39  N   UNL     1      -7.746   2.239   3.328  1.00  0.00    -0.354 N 
ATOM     40  C   UNL     1      -7.934   3.299  -2.196  1.00  0.00     0.074 A 
ATOM     41  C   UNL     1      -6.613   3.462  -2.755  1.00  0.00     0.031 C 
ATOM     42  C   UNL     1      -6.802   2.848   5.217  1.00  0.00     0.029 A 
ATOM     43  C   UNL     1      -8.044   2.718   4.528  1.00  0.00     0.049 A 
ATOM     44  H   UNL     1      -8.368   1.630   2.869  1.00  0.00     0.167 HD
ATOM     45  C   UNL     1      -9.160   3.511  -2.705  1.00  0.00     0.037 A 
ATOM     46  C   UNL     1      -9.290   3.029   4.886  1.00  0.00     0.037 A 
ATOM     47  C   UNL     1     -10.418   3.466  -1.969  1.00  0.00     0.049 A 
ATOM     48  C   UNL     1     -10.466   3.118   3.939  1.00  0.00     0.074 A 
ATOM     49  C   UNL     1     -11.694   3.455  -2.496  1.00  0.00     0.029 A 
ATOM     50  N   UNL     1     -10.592   3.535  -0.579  1.00  0.00    -0.354 N 
ATOM     51  N   UNL     1     -10.544   3.362   2.649  1.00  0.00    -0.248 NA
ATOM     52  C   UNL     1     -11.762   2.924   4.580  1.00  0.00     0.031 C 
ATOM     53  C   UNL     1     -12.617   3.550  -1.447  1.00  0.00     0.029 A 
ATOM     54  C   UNL     1     -11.942   3.488  -0.233  1.00  0.00     0.049 A 
ATOM     55  H   UNL     1      -9.855   3.608   0.069  1.00  0.00     0.167 HD
ATOM     56  C   UNL     1     -11.896   3.298   2.306  1.00  0.00     0.074 A 
ATOM     57  C   UNL     1     -12.592   3.035   3.556  1.00  0.00     0.031 C 
ATOM     58  C   UNL     1     -12.533   3.367   1.099  1.00  0.00     0.037 A 
BRANCH  45  59
ATOM     59  C   UNL     1      -9.146   3.749  -4.160  1.00  0.00     0.064 A 
ATOM     60  C   UNL     1      -8.619   2.783  -5.033  1.00  0.00     0.173 A 
ATOM     61  C   UNL     1      -9.631   4.946  -4.682  1.00  0.00     0.173 A 
ATOM     62  F   UNL     1      -8.137   1.622  -4.559  1.00  0.00    -0.203 F 
ATOM     63  C   UNL     1      -8.522   3.041  -6.388  1.00  0.00     0.198 A 
ATOM     64  C   UNL     1      -9.579   5.179  -6.046  1.00  0.00     0.198 A 
ATOM     65  F   UNL     1     -10.137   5.888  -3.871  1.00  0.00    -0.203 F 
ATOM     66  F   UNL     1      -7.932   2.149  -7.194  1.00  0.00    -0.200 F 
ATOM     67  C   UNL     1      -9.009   4.236  -6.893  1.00  0.00     0.200 A 
ATOM     68  F   UNL     1     -10.064   6.324  -6.541  1.00  0.00    -0.200 F 
ATOM     69  F   UNL     1      -8.920   4.486  -8.205  1.00  0.00    -0.200 F 
ENDBRANCH  45  59
BRANCH  46  70
ATOM     70  C   UNL     1      -9.420   2.895   6.316  1.00  0.00     0.064 A 
ATOM     71  C   UNL     1      -9.794   1.633   6.794  1.00  0.00     0.173 A 
ATOM     72  C   UNL     1      -8.877   3.853   7.164  1.00  0.00     0.173 A 
ATOM     73  F   UNL     1     -10.179   0.671   5.937  1.00  0.00    -0.203 F 
ATOM     74  C   UNL     1      -9.707   1.363   8.137  1.00  0.00     0.198 A 
ATOM     75  C   UNL     1      -8.721   3.549   8.496  1.00  0.00     0.198 A 
ATOM     76  F   UNL     1      -8.338   4.973   6.655  1.00  0.00    -0.203 F 
ATOM     77  F   UNL     1     -10.119   0.178   8.600  1.00  0.00    -0.200 F 
ATOM     78  C   UNL     1      -9.168   2.323   8.985  1.00  0.00     0.200 A 
ATOM     79  F   UNL     1      -8.087   4.415   9.294  1.00  0.00    -0.200 F 
ATOM     80  F   UNL     1      -9.060   2.057  10.290  1.00  0.00    -0.200 F 
ENDBRANCH  46  70
BRANCH  58  81
ATOM     81  C   UNL     1     -14.048   3.197   1.146  1.00  0.00     0.064 A 
ATOM     82  C   UNL     1     -14.888   4.149   1.749  1.00  0.00     0.173 A 
ATOM     83  C   UNL     1     -14.666   2.081   0.551  1.00  0.00     0.173 A 
ATOM     84  F   UNL     1     -14.363   5.223   2.357  1.00  0.00    -0.203 F 
ATOM     85  C   UNL     1     -16.273   3.976   1.782  1.00  0.00     0.198 A 
ATOM     86  C   UNL     1     -16.054   1.940   0.538  1.00  0.00     0.198 A 
ATOM     87  F   UNL     1     -13.926   1.130  -0.038  1.00  0.00    -0.203 F 
ATOM     88  F   UNL     1     -17.041   4.866   2.425  1.00  0.00    -0.200 F 
ATOM     89  C   UNL     1     -16.855   2.881   1.163  1.00  0.00     0.200 A 
ATOM     90  F   UNL     1     -16.616   0.894  -0.084  1.00  0.00    -0.200 F 
ATOM     91  F   UNL     1     -18.187   2.731   1.175  1.00  0.00    -0.200 F 
ENDBRANCH  58  81
ENDBRANCH  32  33
ENDBRANCH  25  27
ENDBRANCH  24  25
ENDBRANCH  23  24
ENDBRANCH   1  23
TORSDOF 15
