REMARK SMILES CC(=O)O[C@@H]1CC[C@]23C(=O)O[C@]4(CC[C@]2(O)C1)[C@H]3CC[C@]1(C)[C@H](C(=O)OCCOC(=O)c2ccc(-c3c5nc(c(-c6c(F)c(F)c(F)c(F)c6F)c6ccc([nH]6)c(-c6c(F)c(F)c(F)c(F)c6F)c6nc(c(-c7c(F)c(F)c(F)c(F)c7F)c7ccc3[nH]7)C=C6)C=C5)cc2)CC[C@@H]14
REMARK SMILES IDX 27 1 26 2 24 3 25 4 23 5 5 6 6 7 17 8 7 9 15 10 8 11 14 12
REMARK SMILES IDX 9 13 18 14 13 15 10 16 11 17 12 18 19 19 97 20 20 21 21 22
REMARK SMILES IDX 96 23 22 24 95 25 4 26 2 27 1 28 3 29 16 30 28 32 29 33
REMARK SMILES IDX 30 34 31 35 32 36 33 37 94 38 34 39 93 40 35 41 36 42 37 43
REMARK SMILES IDX 87 44 38 45 92 46 86 47 88 48 39 49 91 50 85 51 84 52 40 54
REMARK SMILES IDX 72 55 52 56 71 57 53 58 56 59 70 60 89 61 54 62 55 63 69 65
REMARK SMILES IDX 90 66 57 67 41 68 42 69 50 70 43 71 44 72 48 73 51 74 45 75
REMARK SMILES IDX 46 76 49 77 47 78 73 79 74 80 82 81 75 82 76 83 80 84 83 85
REMARK SMILES IDX 77 86 78 87 81 88 79 89 58 90 59 91 67 92 60 93 61 94 65 95
REMARK SMILES IDX 68 96 62 97 63 98 66 99 64 100
REMARK H PARENT 16 31 88 53 56 64
REMARK Flexibility Score: inf
ROOT
ATOM      1  C   UNL     1      -4.493  -7.751   5.481  1.00  0.00     0.274 C 
ENDROOT
BRANCH   1   2
ATOM      2  O   UNL     1      -3.151  -7.591   4.982  1.00  0.00    -0.462 OA
BRANCH   2   3
ATOM      3  C   UNL     1      -2.608  -6.377   5.215  1.00  0.00     0.309 C 
ATOM      4  O   UNL     1      -3.217  -5.444   5.737  1.00  0.00    -0.252 OA
BRANCH   3   5
ATOM      5  C   UNL     1      -1.114  -6.284   4.959  1.00  0.00     0.105 C 
ATOM      6  C   UNL     1       0.445  -3.528  -2.060  1.00  0.00     0.179 C 
ATOM      7  C   UNL     1      -0.862  -3.784  -1.377  1.00  0.00     0.047 C 
ATOM      8  C   UNL     1       1.131  -4.899  -2.213  1.00  0.00     0.081 C 
ATOM      9  C   UNL     1      -0.528  -4.502  -0.098  1.00  0.00     0.026 C 
ATOM     10  C   UNL     1       1.125  -5.919  -0.993  1.00  0.00     0.085 C 
ATOM     11  C   UNL     1      -0.246  -6.236  -0.254  1.00  0.00     0.103 C 
ATOM     12  C   UNL     1       2.299  -5.514  -0.058  1.00  0.00     0.041 C 
ATOM     13  C   UNL     1      -1.213  -6.133   0.852  1.00  0.00     0.316 C 
ATOM     14  C   UNL     1       0.455  -7.315   0.999  1.00  0.00     0.054 C 
ATOM     15  C   UNL     1       2.096  -5.661   1.458  1.00  0.00     0.052 C 
ATOM     16  O   UNL     1      -2.422  -6.343   0.805  1.00  0.00    -0.251 OA
ATOM     17  O   UNL     1      -0.514  -5.623   1.913  1.00  0.00    -0.458 OA
ATOM     18  C   UNL     1       0.767  -6.249   1.985  1.00  0.00     0.120 C 
ATOM     19  C   UNL     1      -0.312  -8.473   1.729  1.00  0.00     0.009 C 
ATOM     20  C   UNL     1       0.872  -6.383   3.494  1.00  0.00     0.040 C 
ATOM     21  C   UNL     1      -1.016  -8.142   3.078  1.00  0.00     0.008 C 
ATOM     22  C   UNL     1      -0.237  -7.281   4.119  1.00  0.00    -0.013 C 
ATOM     23  C   UNL     1       0.651  -4.955   4.109  1.00  0.00     0.009 C 
ATOM     24  C   UNL     1       0.504  -8.216   5.110  1.00  0.00     0.013 C 
ATOM     25  C   UNL     1      -0.824  -4.877   4.450  1.00  0.00     0.016 C 
BRANCH   6  26
ATOM     26  O   UNL     1       1.308  -2.484  -1.494  1.00  0.00    -0.462 OA
BRANCH  26  27
ATOM     27  C   UNL     1       0.946  -1.633  -0.486  1.00  0.00     0.302 C 
ATOM     28  C   UNL     1       1.588  -0.288  -0.642  1.00  0.00     0.139 C 
ATOM     29  O   UNL     1       0.154  -1.851   0.421  1.00  0.00    -0.253 OA
ENDBRANCH  26  27
ENDBRANCH   6  26
BRANCH  10  30
ATOM     30  O   UNL     1       1.477  -7.148  -1.690  1.00  0.00    -0.389 OA
ATOM     31  H   UNL     1       1.512  -7.881  -1.056  1.00  0.00     0.211 HD
ENDBRANCH  10  30
ENDBRANCH   3   5
ENDBRANCH   2   3
ENDBRANCH   1   2
BRANCH   1  32
ATOM     32  C   UNL     1      -4.463  -8.470   6.829  1.00  0.00     0.275 C 
BRANCH  32  33
ATOM     33  O   UNL     1      -3.729  -7.709   7.815  1.00  0.00    -0.458 OA
BRANCH  33  34
ATOM     34  C   UNL     1      -2.446  -8.098   7.975  1.00  0.00     0.338 C 
ATOM     35  O   UNL     1      -1.878  -9.023   7.416  1.00  0.00    -0.246 OA
BRANCH  34  36
ATOM     36  C   UNL     1      -1.728  -7.252   8.938  1.00  0.00     0.060 A 
ATOM     37  C   UNL     1      -1.123  -6.072   8.512  1.00  0.00     0.016 A 
ATOM     38  C   UNL     1      -1.430  -7.773  10.194  1.00  0.00     0.016 A 
ATOM     39  C   UNL     1      -0.096  -5.505   9.258  1.00  0.00     0.010 A 
ATOM     40  C   UNL     1      -0.505  -7.115  11.009  1.00  0.00     0.010 A 
ATOM     41  C   UNL     1       0.213  -6.005  10.529  1.00  0.00    -0.014 A 
BRANCH  41  42
ATOM     42  C   UNL     1       1.278  -5.371  11.353  1.00  0.00     0.031 A 
ATOM     43  C   UNL     1       2.444  -6.184  11.849  1.00  0.00     0.074 A 
ATOM     44  C   UNL     1       1.186  -4.065  11.675  1.00  0.00     0.049 A 
ATOM     45  N   UNL     1       3.374  -5.862  12.714  1.00  0.00    -0.248 NA
ATOM     46  C   UNL     1       2.575  -7.548  11.313  1.00  0.00     0.031 C 
ATOM     47  C   UNL     1       0.128  -3.155  11.232  1.00  0.00     0.029 A 
ATOM     48  N   UNL     1       1.991  -3.277  12.460  1.00  0.00    -0.354 N 
ATOM     49  C   UNL     1       4.168  -6.994  12.860  1.00  0.00     0.074 A 
ATOM     50  C   UNL     1       3.600  -8.018  12.010  1.00  0.00     0.031 C 
ATOM     51  C   UNL     1       0.358  -1.933  11.731  1.00  0.00     0.029 A 
ATOM     52  C   UNL     1       1.525  -1.992  12.601  1.00  0.00     0.049 A 
ATOM     53  H   UNL     1       2.820  -3.600  12.880  1.00  0.00     0.167 HD
ATOM     54  C   UNL     1       5.270  -7.158  13.631  1.00  0.00     0.037 A 
ATOM     55  C   UNL     1       1.957  -0.984  13.381  1.00  0.00     0.037 A 
ATOM     56  C   UNL     1       5.844  -6.120  14.451  1.00  0.00     0.049 A 
ATOM     57  C   UNL     1       3.150  -1.209  14.266  1.00  0.00     0.074 A 
ATOM     58  C   UNL     1       6.973  -6.177  15.251  1.00  0.00     0.029 A 
ATOM     59  N   UNL     1       5.333  -4.836  14.576  1.00  0.00    -0.354 N 
ATOM     60  N   UNL     1       3.888  -2.284  14.406  1.00  0.00    -0.248 NA
ATOM     61  C   UNL     1       3.569  -0.080  15.106  1.00  0.00     0.031 C 
ATOM     62  C   UNL     1       7.109  -4.948  15.905  1.00  0.00     0.029 A 
ATOM     63  C   UNL     1       6.109  -4.100  15.458  1.00  0.00     0.049 A 
ATOM     64  H   UNL     1       4.536  -4.498  14.107  1.00  0.00     0.167 HD
ATOM     65  C   UNL     1       4.877  -1.951  15.320  1.00  0.00     0.074 A 
ATOM     66  C   UNL     1       4.653  -0.569  15.691  1.00  0.00     0.031 C 
ATOM     67  C   UNL     1       5.881  -2.720  15.809  1.00  0.00     0.037 A 
BRANCH  54  68
ATOM     68  C   UNL     1       5.912  -8.518  13.655  1.00  0.00     0.064 A 
ATOM     69  C   UNL     1       6.585  -9.046  12.543  1.00  0.00     0.173 A 
ATOM     70  C   UNL     1       5.883  -9.292  14.827  1.00  0.00     0.173 A 
ATOM     71  F   UNL     1       6.637  -8.355  11.394  1.00  0.00    -0.203 F 
ATOM     72  C   UNL     1       7.174 -10.308  12.591  1.00  0.00     0.198 A 
ATOM     73  C   UNL     1       6.503 -10.537  14.883  1.00  0.00     0.198 A 
ATOM     74  F   UNL     1       5.262  -8.835  15.924  1.00  0.00    -0.203 F 
ATOM     75  F   UNL     1       7.763 -10.813  11.499  1.00  0.00    -0.200 F 
ATOM     76  C   UNL     1       7.139 -11.049  13.763  1.00  0.00     0.200 A 
ATOM     77  F   UNL     1       6.483 -11.243  16.022  1.00  0.00    -0.200 F 
ATOM     78  F   UNL     1       7.713 -12.259  13.811  1.00  0.00    -0.200 F 
ENDBRANCH  54  68
BRANCH  55  79
ATOM     79  C   UNL     1       1.239   0.318  13.377  1.00  0.00     0.064 A 
ATOM     80  C   UNL     1       1.852   1.477  12.882  1.00  0.00     0.173 A 
ATOM     81  C   UNL     1      -0.070   0.433  13.870  1.00  0.00     0.173 A 
ATOM     82  F   UNL     1       3.110   1.424  12.419  1.00  0.00    -0.203 F 
ATOM     83  C   UNL     1       1.194   2.705  12.904  1.00  0.00     0.198 A 
ATOM     84  C   UNL     1      -0.740   1.654  13.857  1.00  0.00     0.198 A 
ATOM     85  F   UNL     1      -0.705  -0.646  14.351  1.00  0.00    -0.203 F 
ATOM     86  F   UNL     1       1.824   3.807  12.477  1.00  0.00    -0.200 F 
ATOM     87  C   UNL     1      -0.104   2.791  13.385  1.00  0.00     0.200 A 
ATOM     88  F   UNL     1      -2.001   1.728  14.306  1.00  0.00    -0.200 F 
ATOM     89  F   UNL     1      -0.738   3.972  13.401  1.00  0.00    -0.200 F 
ENDBRANCH  55  79
BRANCH  67  90
ATOM     90  C   UNL     1       6.851  -2.064  16.750  1.00  0.00     0.064 A 
ATOM     91  C   UNL     1       6.483  -1.675  18.047  1.00  0.00     0.173 A 
ATOM     92  C   UNL     1       8.178  -1.840  16.351  1.00  0.00     0.173 A 
ATOM     93  F   UNL     1       5.223  -1.852  18.473  1.00  0.00    -0.203 F 
ATOM     94  C   UNL     1       7.396  -1.053  18.894  1.00  0.00     0.198 A 
ATOM     95  C   UNL     1       9.098  -1.253  17.214  1.00  0.00     0.198 A 
ATOM     96  F   UNL     1       8.586  -2.199  15.124  1.00  0.00    -0.203 F 
ATOM     97  F   UNL     1       7.005  -0.632  20.105  1.00  0.00    -0.200 F 
ATOM     98  C   UNL     1       8.704  -0.849  18.480  1.00  0.00     0.200 A 
ATOM     99  F   UNL     1      10.366  -1.073  16.818  1.00  0.00    -0.200 F 
ATOM    100  F   UNL     1       9.583  -0.255  19.299  1.00  0.00    -0.200 F 
ENDBRANCH  67  90
ENDBRANCH  41  42
ENDBRANCH  34  36
ENDBRANCH  33  34
ENDBRANCH  32  33
ENDBRANCH   1  32
TORSDOF 14
