REMARK SMILES CC1CC[NH+]([C@H](c2ccc(F)cc2)c2ccc([C@@H](C)C(=O)OCCOC(=O)c3ccc(-c4c5nc(c(-c6c(F)c(F)c(F)c(F)c6F)c6ccc([nH]6)c(-c6c(F)c(F)c(F)c(F)c6F)c6nc(c(-c7c(F)c(F)c(F)c(F)c7F)c7ccc4[nH]7)C=C6)C=C5)cc3)cc2-c2ccc(C(F)(F)F)cc2)CC1
REMARK SMILES IDX 23 1 22 2 20 3 21 4 18 5 19 6 17 7 14 8 15 9 92 10 16 11
REMARK SMILES IDX 91 12 6 13 5 14 1 15 2 16 3 17 104 18 4 19 103 20 7 22 8 23
REMARK SMILES IDX 13 24 9 25 12 26 10 27 11 28 93 29 94 30 102 31 95 32 101 33
REMARK SMILES IDX 96 34 97 35 98 36 99 37 100 38 24 39 25 40 26 41 27 42 28 43
REMARK SMILES IDX 29 44 90 45 30 46 89 47 31 48 32 49 33 50 83 51 34 52 88 53
REMARK SMILES IDX 82 54 84 55 35 56 87 57 81 58 80 59 36 61 68 62 48 63 67 64
REMARK SMILES IDX 49 65 52 66 66 67 85 68 50 69 51 70 65 72 86 73 53 74 37 75
REMARK SMILES IDX 38 76 46 77 39 78 40 79 44 80 47 81 41 82 42 83 45 84 43 85
REMARK SMILES IDX 69 86 70 87 78 88 71 89 72 90 76 91 79 92 73 93 74 94 77 95
REMARK SMILES IDX 75 96 54 97 55 98 63 99 56 100 57 101 61 102 64 103 58 104
REMARK SMILES IDX 59 105 62 106 60 107
REMARK H PARENT 5 21 84 60 52 71
REMARK Flexibility Score: inf
ROOT
ATOM      1  C   UNL     1       2.630   7.330  -3.119  1.00  0.00     0.274 C 
ENDROOT
BRANCH   1   2
ATOM      2  O   UNL     1       3.069   6.055  -3.624  1.00  0.00    -0.462 OA
BRANCH   2   3
ATOM      3  C   UNL     1       4.391   5.899  -3.899  1.00  0.00     0.313 C 
ATOM      4  O   UNL     1       5.220   6.802  -3.840  1.00  0.00    -0.252 OA
BRANCH   3   5
ATOM      5  C   UNL     1       4.754   4.479  -4.340  1.00  0.00     0.126 C 
ATOM      6  C   UNL     1       4.709   4.383  -5.863  1.00  0.00     0.025 C 
BRANCH   5   7
ATOM      7  C   UNL     1       3.959   3.370  -3.666  1.00  0.00    -0.033 A 
ATOM      8  C   UNL     1       2.442   1.333  -2.331  1.00  0.00     0.022 A 
ATOM      9  C   UNL     1       1.852   2.290  -3.181  1.00  0.00     0.011 A 
ATOM     10  C   UNL     1       3.854   1.405  -2.163  1.00  0.00    -0.009 A 
ATOM     11  C   UNL     1       2.587   3.260  -3.854  1.00  0.00     0.005 A 
ATOM     12  C   UNL     1       4.579   2.429  -2.828  1.00  0.00     0.013 A 
BRANCH   8  13
ATOM     13  C   UNL     1       1.582   0.225  -1.655  1.00  0.00     0.247 C 
BRANCH  13  14
ATOM     14  N   UNL     1       0.147   0.089  -2.073  1.00  0.00    -0.325 N 
ATOM     15  C   UNL     1      -3.442   1.306  -4.306  1.00  0.00     0.008 C 
ATOM     16  C   UNL     1      -2.065   1.144  -3.673  1.00  0.00    -0.003 C 
ATOM     17  C   UNL     1      -1.414  -0.181  -4.064  1.00  0.00     0.065 C 
ATOM     18  C   UNL     1      -2.145   1.173  -2.151  1.00  0.00     0.065 C 
ATOM     19  C   UNL     1      -0.005  -0.306  -3.477  1.00  0.00     0.263 C 
ATOM     20  C   UNL     1      -0.750   1.112  -1.529  1.00  0.00     0.263 C 
ATOM     21  H   UNL     1      -0.230  -0.726  -1.590  1.00  0.00     0.348 HD
ENDBRANCH  13  14
BRANCH  13  22
ATOM     22  C   UNL     1       1.708   0.170  -0.122  1.00  0.00     0.014 A 
ATOM     23  C   UNL     1       1.631   1.327   0.676  1.00  0.00     0.013 A 
ATOM     24  C   UNL     1       1.885  -1.075   0.514  1.00  0.00     0.013 A 
ATOM     25  C   UNL     1       1.725   1.238   2.066  1.00  0.00     0.040 A 
ATOM     26  C   UNL     1       2.001  -1.158   1.903  1.00  0.00     0.040 A 
ATOM     27  C   UNL     1       1.914  -0.001   2.665  1.00  0.00     0.123 A 
ATOM     28  F   UNL     1       2.013  -0.081   3.999  1.00  0.00    -0.207 F 
ENDBRANCH  13  22
ENDBRANCH   8  13
BRANCH  10  29
ATOM     29  C   UNL     1       4.619   0.471  -1.313  1.00  0.00    -0.018 A 
ATOM     30  C   UNL     1       5.171   0.903  -0.095  1.00  0.00     0.009 A 
ATOM     31  C   UNL     1       4.813  -0.866  -1.689  1.00  0.00     0.009 A 
ATOM     32  C   UNL     1       5.855   0.015   0.741  1.00  0.00     0.014 A 
ATOM     33  C   UNL     1       5.490  -1.759  -0.851  1.00  0.00     0.014 A 
ATOM     34  C   UNL     1       6.004  -1.331   0.381  1.00  0.00     0.056 A 
BRANCH  34  35
ATOM     35  C   UNL     1       6.717  -2.290   1.304  1.00  0.00     0.416 C 
ATOM     36  F   UNL     1       8.063  -2.089   1.323  1.00  0.00    -0.166 F 
ATOM     37  F   UNL     1       6.304  -2.179   2.598  1.00  0.00    -0.166 F 
ATOM     38  F   UNL     1       6.538  -3.599   0.970  1.00  0.00    -0.166 F 
ENDBRANCH  34  35
ENDBRANCH  10  29
ENDBRANCH   5   7
ENDBRANCH   3   5
ENDBRANCH   2   3
ENDBRANCH   1   2
BRANCH   1  39
ATOM     39  C   UNL     1       2.447   7.277  -1.602  1.00  0.00     0.275 C 
BRANCH  39  40
ATOM     40  O   UNL     1       3.724   7.161  -0.951  1.00  0.00    -0.458 OA
BRANCH  40  41
ATOM     41  C   UNL     1       4.035   5.929  -0.487  1.00  0.00     0.338 C 
ATOM     42  O   UNL     1       3.337   4.933  -0.469  1.00  0.00    -0.246 OA
BRANCH  41  43
ATOM     43  C   UNL     1       5.447   5.929  -0.085  1.00  0.00     0.060 A 
ATOM     44  C   UNL     1       6.366   5.266  -0.900  1.00  0.00     0.016 A 
ATOM     45  C   UNL     1       5.852   6.525   1.108  1.00  0.00     0.016 A 
ATOM     46  C   UNL     1       7.702   5.186  -0.525  1.00  0.00     0.010 A 
ATOM     47  C   UNL     1       7.196   6.450   1.483  1.00  0.00     0.010 A 
ATOM     48  C   UNL     1       8.124   5.771   0.674  1.00  0.00    -0.014 A 
BRANCH  48  49
ATOM     49  C   UNL     1       9.532   5.621   1.105  1.00  0.00     0.031 A 
ATOM     50  C   UNL     1       9.872   4.664   2.207  1.00  0.00     0.074 A 
ATOM     51  C   UNL     1      10.498   6.332   0.498  1.00  0.00     0.049 A 
ATOM     52  N   UNL     1      11.025   4.443   2.784  1.00  0.00    -0.248 NA
ATOM     53  C   UNL     1       8.766   3.849   2.731  1.00  0.00     0.031 C 
ATOM     54  C   UNL     1      10.288   7.257  -0.614  1.00  0.00     0.029 A 
ATOM     55  N   UNL     1      11.848   6.386   0.733  1.00  0.00    -0.354 N 
ATOM     56  C   UNL     1      10.780   3.485   3.756  1.00  0.00     0.074 A 
ATOM     57  C   UNL     1       9.367   3.174   3.700  1.00  0.00     0.031 C 
ATOM     58  C   UNL     1      11.469   7.789  -0.966  1.00  0.00     0.029 A 
ATOM     59  C   UNL     1      12.508   7.275  -0.077  1.00  0.00     0.049 A 
ATOM     60  H   UNL     1      12.300   5.840   1.416  1.00  0.00     0.167 HD
ATOM     61  C   UNL     1      11.659   2.920   4.616  1.00  0.00     0.037 A 
ATOM     62  C   UNL     1      13.801   7.652  -0.083  1.00  0.00     0.037 A 
ATOM     63  C   UNL     1      13.067   3.218   4.647  1.00  0.00     0.049 A 
ATOM     64  C   UNL     1      14.751   7.045   0.910  1.00  0.00     0.074 A 
ATOM     65  C   UNL     1      14.047   2.664   5.451  1.00  0.00     0.029 A 
ATOM     66  N   UNL     1      13.694   4.155   3.838  1.00  0.00    -0.354 N 
ATOM     67  N   UNL     1      14.514   6.140   1.829  1.00  0.00    -0.248 NA
ATOM     68  C   UNL     1      16.143   7.514   0.873  1.00  0.00     0.031 C 
ATOM     69  C   UNL     1      15.259   3.301   5.163  1.00  0.00     0.029 A 
ATOM     70  C   UNL     1      15.043   4.218   4.146  1.00  0.00     0.049 A 
ATOM     71  H   UNL     1      13.245   4.696   3.148  1.00  0.00     0.167 HD
ATOM     72  C   UNL     1      15.723   5.925   2.475  1.00  0.00     0.074 A 
ATOM     73  C   UNL     1      16.697   6.785   1.834  1.00  0.00     0.031 C 
ATOM     74  C   UNL     1      15.998   5.089   3.507  1.00  0.00     0.037 A 
BRANCH  61  75
ATOM     75  C   UNL     1      11.117   1.946   5.620  1.00  0.00     0.064 A 
ATOM     76  C   UNL     1      11.046   2.299   6.976  1.00  0.00     0.173 A 
ATOM     77  C   UNL     1      10.697   0.659   5.252  1.00  0.00     0.173 A 
ATOM     78  F   UNL     1      11.437   3.518   7.378  1.00  0.00    -0.203 F 
ATOM     79  C   UNL     1      10.578   1.398   7.928  1.00  0.00     0.198 A 
ATOM     80  C   UNL     1      10.206  -0.231   6.204  1.00  0.00     0.198 A 
ATOM     81  F   UNL     1      10.731   0.280   3.966  1.00  0.00    -0.203 F 
ATOM     82  F   UNL     1      10.536   1.752   9.220  1.00  0.00    -0.200 F 
ATOM     83  C   UNL     1      10.152   0.137   7.540  1.00  0.00     0.200 A 
ATOM     84  F   UNL     1       9.772  -1.441   5.826  1.00  0.00    -0.200 F 
ATOM     85  F   UNL     1       9.684  -0.723   8.456  1.00  0.00    -0.200 F 
ENDBRANCH  61  75
BRANCH  62  86
ATOM     86  C   UNL     1      14.248   8.668  -1.067  1.00  0.00     0.064 A 
ATOM     87  C   UNL     1      13.855  10.010  -0.952  1.00  0.00     0.173 A 
ATOM     88  C   UNL     1      15.012   8.303  -2.182  1.00  0.00     0.173 A 
ATOM     89  F   UNL     1      13.122  10.407   0.099  1.00  0.00    -0.203 F 
ATOM     90  C   UNL     1      14.183  10.942  -1.933  1.00  0.00     0.198 A 
ATOM     91  C   UNL     1      15.358   9.240  -3.153  1.00  0.00     0.198 A 
ATOM     92  F   UNL     1      15.428   7.035  -2.322  1.00  0.00    -0.203 F 
ATOM     93  F   UNL     1      13.759  12.208  -1.822  1.00  0.00    -0.200 F 
ATOM     94  C   UNL     1      14.933  10.556  -3.034  1.00  0.00     0.200 A 
ATOM     95  F   UNL     1      16.097   8.869  -4.207  1.00  0.00    -0.200 F 
ATOM     96  F   UNL     1      15.243  11.450  -3.982  1.00  0.00    -0.200 F 
ENDBRANCH  62  86
BRANCH  74  97
ATOM     97  C   UNL     1      17.408   5.057   4.016  1.00  0.00     0.064 A 
ATOM     98  C   UNL     1      18.227   3.943   3.775  1.00  0.00     0.173 A 
ATOM     99  C   UNL     1      17.919   6.091   4.813  1.00  0.00     0.173 A 
ATOM    100  F   UNL     1      17.780   2.926   3.024  1.00  0.00    -0.203 F 
ATOM    101  C   UNL     1      19.501   3.859   4.329  1.00  0.00     0.198 A 
ATOM    102  C   UNL     1      19.203   6.014   5.346  1.00  0.00     0.198 A 
ATOM    103  F   UNL     1      17.178   7.182   5.060  1.00  0.00    -0.203 F 
ATOM    104  F   UNL     1      20.253   2.771   4.113  1.00  0.00    -0.200 F 
ATOM    105  C   UNL     1      19.988   4.894   5.112  1.00  0.00     0.200 A 
ATOM    106  F   UNL     1      19.681   7.024   6.086  1.00  0.00    -0.200 F 
ATOM    107  F   UNL     1      21.217   4.814   5.641  1.00  0.00    -0.200 F 
ENDBRANCH  74  97
ENDBRANCH  48  49
ENDBRANCH  41  43
ENDBRANCH  40  41
ENDBRANCH  39  40
ENDBRANCH   1  39
TORSDOF 17
