REMARK SMILES CC[C@H](Nc1cccc(C(F)(F)F)c1)C(=O)OCCOC(=O)c1ccc(-c2c3nc(c(-c4c(F)c(F)c(F)c(F)c4F)c4ccc([nH]4)c(-c4c(F)c(F)c(F)c(F)c4F)c4nc(c(-c5c(F)c(F)c(F)c(F)c5F)c5ccc2[nH]5)C=C4)C=C3)cc1
REMARK SMILES IDX 18 1 17 2 15 3 16 4 3 5 2 6 1 7 4 8 5 10 6 11 14 12 7 13
REMARK SMILES IDX 9 14 8 15 10 16 11 17 12 18 13 19 19 20 20 21 21 22 22 23
REMARK SMILES IDX 23 24 24 25 85 26 25 27 84 28 26 29 27 30 28 31 78 32 29 33
REMARK SMILES IDX 83 34 77 35 79 36 30 37 82 38 76 39 75 40 31 42 63 43 43 44
REMARK SMILES IDX 62 45 44 46 47 47 61 48 80 49 45 50 46 51 60 53 81 54 48 55
REMARK SMILES IDX 32 56 33 57 41 58 34 59 35 60 39 61 42 62 36 63 37 64 40 65
REMARK SMILES IDX 38 66 64 67 65 68 73 69 66 70 67 71 71 72 74 73 68 74 69 75
REMARK SMILES IDX 72 76 70 77 49 78 50 79 58 80 51 81 52 82 56 83 59 84 53 85
REMARK SMILES IDX 54 86 57 87 55 88
REMARK H PARENT 4 9 79 41 47 52
REMARK Flexibility Score: inf
ROOT
ATOM      1  C   UNL     1      -0.913   4.172  -3.743  1.00  0.00     0.274 C 
ENDROOT
BRANCH   1   2
ATOM      2  O   UNL     1      -0.748   2.981  -2.954  1.00  0.00    -0.461 OA
BRANCH   2   3
ATOM      3  C   UNL     1       0.309   2.176  -3.206  1.00  0.00     0.328 C 
ATOM      4  O   UNL     1       1.073   2.330  -4.156  1.00  0.00    -0.250 OA
BRANCH   3   5
ATOM      5  C   UNL     1       0.483   1.020  -2.203  1.00  0.00     0.189 C 
BRANCH   5   6
ATOM      6  C   UNL     1       0.099  -0.356  -2.750  1.00  0.00     0.033 C 
ATOM      7  C   UNL     1      -1.385  -0.651  -2.845  1.00  0.00     0.007 C 
ENDBRANCH   5   6
BRANCH   5   8
ATOM      8  N   UNL     1       0.122   1.225  -0.786  1.00  0.00    -0.372 N 
ATOM      9  H   UNL     1       0.741   0.808  -0.143  1.00  0.00     0.161 HD
BRANCH   8  10
ATOM     10  C   UNL     1      -0.931   1.899  -0.211  1.00  0.00     0.035 A 
ATOM     11  C   UNL     1      -0.722   2.540   1.019  1.00  0.00     0.026 A 
ATOM     12  C   UNL     1      -2.180   2.072  -0.807  1.00  0.00     0.038 A 
ATOM     13  C   UNL     1      -1.700   3.347   1.609  1.00  0.00     0.003 A 
ATOM     14  C   UNL     1      -3.170   2.903  -0.252  1.00  0.00     0.058 A 
ATOM     15  C   UNL     1      -2.920   3.537   0.969  1.00  0.00     0.013 A 
BRANCH  14  16
ATOM     16  C   UNL     1      -4.462   3.150  -0.985  1.00  0.00     0.416 C 
ATOM     17  F   UNL     1      -5.554   2.746  -0.281  1.00  0.00    -0.166 F 
ATOM     18  F   UNL     1      -4.659   4.472  -1.256  1.00  0.00    -0.166 F 
ATOM     19  F   UNL     1      -4.540   2.517  -2.191  1.00  0.00    -0.166 F 
ENDBRANCH  14  16
ENDBRANCH   8  10
ENDBRANCH   5   8
ENDBRANCH   3   5
ENDBRANCH   2   3
ENDBRANCH   1   2
BRANCH   1  20
ATOM     20  C   UNL     1      -0.440   5.388  -2.947  1.00  0.00     0.275 C 
BRANCH  20  21
ATOM     21  O   UNL     1       0.996   5.379  -2.863  1.00  0.00    -0.458 OA
BRANCH  21  22
ATOM     22  C   UNL     1       1.519   5.104  -1.648  1.00  0.00     0.338 C 
ATOM     23  O   UNL     1       0.943   4.949  -0.589  1.00  0.00    -0.246 OA
BRANCH  22  24
ATOM     24  C   UNL     1       2.968   4.942  -1.802  1.00  0.00     0.060 A 
ATOM     25  C   UNL     1       3.501   3.652  -1.825  1.00  0.00     0.016 A 
ATOM     26  C   UNL     1       3.796   6.063  -1.859  1.00  0.00     0.016 A 
ATOM     27  C   UNL     1       4.879   3.473  -1.906  1.00  0.00     0.010 A 
ATOM     28  C   UNL     1       5.177   5.883  -1.944  1.00  0.00     0.010 A 
ATOM     29  C   UNL     1       5.726   4.588  -1.956  1.00  0.00    -0.014 A 
BRANCH  29  30
ATOM     30  C   UNL     1       7.194   4.407  -1.968  1.00  0.00     0.031 A 
ATOM     31  C   UNL     1       7.981   4.666  -0.718  1.00  0.00     0.074 A 
ATOM     32  C   UNL     1       7.813   4.022  -3.097  1.00  0.00     0.049 A 
ATOM     33  N   UNL     1       9.278   4.678  -0.542  1.00  0.00    -0.248 NA
ATOM     34  C   UNL     1       7.204   4.952   0.497  1.00  0.00     0.031 C 
ATOM     35  C   UNL     1       7.144   3.707  -4.359  1.00  0.00     0.029 A 
ATOM     36  N   UNL     1       9.146   3.843  -3.367  1.00  0.00    -0.354 N 
ATOM     37  C   UNL     1       9.472   4.990   0.796  1.00  0.00     0.074 A 
ATOM     38  C   UNL     1       8.162   5.174   1.385  1.00  0.00     0.031 C 
ATOM     39  C   UNL     1       8.072   3.381  -5.274  1.00  0.00     0.029 A 
ATOM     40  C   UNL     1       9.398   3.507  -4.674  1.00  0.00     0.049 A 
ATOM     41  H   UNL     1       9.853   3.945  -2.690  1.00  0.00     0.167 HD
ATOM     42  C   UNL     1      10.641   5.112   1.469  1.00  0.00     0.037 A 
ATOM     43  C   UNL     1      10.569   3.352  -5.319  1.00  0.00     0.037 A 
ATOM     44  C   UNL     1      11.940   4.922   0.877  1.00  0.00     0.049 A 
ATOM     45  C   UNL     1      11.855   3.540  -4.561  1.00  0.00     0.074 A 
ATOM     46  C   UNL     1      13.185   5.018   1.473  1.00  0.00     0.029 A 
ATOM     47  N   UNL     1      12.157   4.595  -0.454  1.00  0.00    -0.354 N 
ATOM     48  N   UNL     1      12.033   3.846  -3.299  1.00  0.00    -0.248 NA
ATOM     49  C   UNL     1      13.102   3.368  -5.319  1.00  0.00     0.031 C 
ATOM     50  C   UNL     1      14.157   4.783   0.494  1.00  0.00     0.029 A 
ATOM     51  C   UNL     1      13.517   4.501  -0.702  1.00  0.00     0.049 A 
ATOM     52  H   UNL     1      11.449   4.452  -1.123  1.00  0.00     0.167 HD
ATOM     53  C   UNL     1      13.406   3.888  -3.106  1.00  0.00     0.074 A 
ATOM     54  C   UNL     1      14.017   3.561  -4.378  1.00  0.00     0.031 C 
ATOM     55  C   UNL     1      14.101   4.174  -1.977  1.00  0.00     0.037 A 
BRANCH  42  56
ATOM     56  C   UNL     1      10.566   5.496   2.916  1.00  0.00     0.064 A 
ATOM     57  C   UNL     1      10.143   4.587   3.897  1.00  0.00     0.173 A 
ATOM     58  C   UNL     1      10.941   6.783   3.328  1.00  0.00     0.173 A 
ATOM     59  F   UNL     1       9.758   3.350   3.550  1.00  0.00    -0.203 F 
ATOM     60  C   UNL     1      10.079   4.960   5.237  1.00  0.00     0.198 A 
ATOM     61  C   UNL     1      10.897   7.145   4.672  1.00  0.00     0.198 A 
ATOM     62  F   UNL     1      11.353   7.688   2.428  1.00  0.00    -0.203 F 
ATOM     63  F   UNL     1       9.633   4.090   6.153  1.00  0.00    -0.200 F 
ATOM     64  C   UNL     1      10.461   6.237   5.624  1.00  0.00     0.200 A 
ATOM     65  F   UNL     1      11.273   8.377   5.045  1.00  0.00    -0.200 F 
ATOM     66  F   UNL     1      10.400   6.594   6.914  1.00  0.00    -0.200 F 
ENDBRANCH  42  56
BRANCH  43  67
ATOM     67  C   UNL     1      10.574   3.019  -6.765  1.00  0.00     0.064 A 
ATOM     68  C   UNL     1      10.970   1.752  -7.213  1.00  0.00     0.173 A 
ATOM     69  C   UNL     1      10.173   3.958  -7.727  1.00  0.00     0.173 A 
ATOM     70  F   UNL     1      11.385   0.831  -6.332  1.00  0.00    -0.203 F 
ATOM     71  C   UNL     1      10.973   1.439  -8.571  1.00  0.00     0.198 A 
ATOM     72  C   UNL     1      10.153   3.636  -9.082  1.00  0.00     0.198 A 
ATOM     73  F   UNL     1       9.788   5.185  -7.348  1.00  0.00    -0.203 F 
ATOM     74  F   UNL     1      11.389   0.232  -8.976  1.00  0.00    -0.200 F 
ATOM     75  C   UNL     1      10.557   2.378  -9.503  1.00  0.00     0.200 A 
ATOM     76  F   UNL     1       9.742   4.543  -9.979  1.00  0.00    -0.200 F 
ATOM     77  F   UNL     1      10.553   2.073 -10.808  1.00  0.00    -0.200 F 
ENDBRANCH  43  67
BRANCH  55  78
ATOM     78  C   UNL     1      15.596   4.123  -2.065  1.00  0.00     0.064 A 
ATOM     79  C   UNL     1      16.326   5.139  -2.699  1.00  0.00     0.173 A 
ATOM     80  C   UNL     1      16.307   3.067  -1.477  1.00  0.00     0.173 A 
ATOM     81  F   UNL     1      15.688   6.161  -3.290  1.00  0.00    -0.203 F 
ATOM     82  C   UNL     1      17.716   5.088  -2.757  1.00  0.00     0.198 A 
ATOM     83  C   UNL     1      17.698   3.032  -1.517  1.00  0.00     0.198 A 
ATOM     84  F   UNL     1      15.652   2.075  -0.856  1.00  0.00    -0.203 F 
ATOM     85  F   UNL     1      18.393   6.049  -3.401  1.00  0.00    -0.200 F 
ATOM     86  C   UNL     1      18.401   4.039  -2.162  1.00  0.00     0.200 A 
ATOM     87  F   UNL     1      18.358   2.022  -0.934  1.00  0.00    -0.200 F 
ATOM     88  F   UNL     1      19.739   3.994  -2.215  1.00  0.00    -0.200 F 
ENDBRANCH  55  78
ENDBRANCH  29  30
ENDBRANCH  22  24
ENDBRANCH  21  22
ENDBRANCH  20  21
ENDBRANCH   1  20
TORSDOF 15
