REMARK SMILES C[C@@H](C(=O)OCCOC(=O)c1ccc(-c2c3nc(c(-c4c(F)c(F)c(F)c(F)c4F)c4ccc([nH]4)c(-c4c(F)c(F)c(F)c(F)c4F)c4nc(c(-c5c(F)c(F)c(F)c(F)c5F)c5ccc2[nH]5)C=C4)C=C3)cc1)c1ccc(N[C@H]2CCC[C@@H]2O)cc1F
REMARK SMILES IDX 6 1 5 2 3 3 4 4 2 5 1 6 74 7 75 8 86 9 76 10 85 11 87 12
REMARK SMILES IDX 77 13 78 14 79 16 80 17 83 18 81 19 82 20 84 21 7 23 8 24
REMARK SMILES IDX 9 25 10 26 11 27 12 28 73 29 13 30 72 31 14 32 15 33 16 34
REMARK SMILES IDX 66 35 17 36 71 37 65 38 67 39 18 40 70 41 64 42 63 43 19 45
REMARK SMILES IDX 51 46 31 47 50 48 32 49 35 50 49 51 68 52 33 53 34 54 48 56
REMARK SMILES IDX 69 57 36 58 20 59 21 60 29 61 22 62 23 63 27 64 30 65 24 66
REMARK SMILES IDX 25 67 28 68 26 69 52 70 53 71 61 72 54 73 55 74 59 75 62 76
REMARK SMILES IDX 56 77 57 78 60 79 58 80 37 81 38 82 46 83 39 84 40 85 44 86
REMARK SMILES IDX 47 87 41 88 42 89 45 90 43 91
REMARK H PARENT 78 15 84 22 67 44 35 55
REMARK Flexibility Score: inf
ROOT
ATOM      1  C   UNL     1       2.795  -1.642  -3.272  1.00  0.00     0.274 C 
ENDROOT
BRANCH   1   2
ATOM      2  O   UNL     1       2.386  -0.921  -2.090  1.00  0.00    -0.462 OA
BRANCH   2   3
ATOM      3  C   UNL     1       1.313  -0.092  -2.213  1.00  0.00     0.313 C 
ATOM      4  O   UNL     1       0.728   0.122  -3.270  1.00  0.00    -0.252 OA
BRANCH   3   5
ATOM      5  C   UNL     1       0.960   0.615  -0.898  1.00  0.00     0.129 C 
ATOM      6  C   UNL     1       1.693   0.052   0.323  1.00  0.00     0.025 C 
BRANCH   5   7
ATOM      7  C   UNL     1      -0.548   0.690  -0.702  1.00  0.00     0.002 A 
ATOM      8  C   UNL     1      -1.258   1.839  -1.071  1.00  0.00     0.010 A 
ATOM      9  C   UNL     1      -1.294  -0.385  -0.225  1.00  0.00     0.129 A 
ATOM     10  C   UNL     1      -2.663   1.880  -1.008  1.00  0.00     0.026 A 
ATOM     11  C   UNL     1      -2.689  -0.343  -0.173  1.00  0.00     0.065 A 
ATOM     12  F   UNL     1      -0.687  -1.525   0.134  1.00  0.00    -0.207 F 
ATOM     13  C   UNL     1      -3.412   0.767  -0.627  1.00  0.00     0.037 A 
BRANCH  13  14
ATOM     14  N   UNL     1      -4.784   0.676  -0.670  1.00  0.00    -0.380 N 
ATOM     15  H   UNL     1      -5.129  -0.237  -0.544  1.00  0.00     0.160 HD
BRANCH  14  16
ATOM     16  C   UNL     1      -5.824   1.685  -0.868  1.00  0.00     0.107 C 
ATOM     17  C   UNL     1      -5.845   2.719   0.264  1.00  0.00     0.027 C 
ATOM     18  C   UNL     1      -5.785   2.473  -2.191  1.00  0.00     0.136 C 
ATOM     19  C   UNL     1      -5.805   4.083  -0.417  1.00  0.00     0.005 C 
ATOM     20  C   UNL     1      -6.362   3.833  -1.807  1.00  0.00     0.034 C 
BRANCH  18  21
ATOM     21  O   UNL     1      -6.587   1.878  -3.205  1.00  0.00    -0.391 OA
ATOM     22  H   UNL     1      -7.504   1.813  -2.895  1.00  0.00     0.211 HD
ENDBRANCH  18  21
ENDBRANCH  14  16
ENDBRANCH  13  14
ENDBRANCH   5   7
ENDBRANCH   3   5
ENDBRANCH   2   3
ENDBRANCH   1   2
BRANCH   1  23
ATOM     23  C   UNL     1       2.283  -3.079  -3.214  1.00  0.00     0.275 C 
BRANCH  23  24
ATOM     24  O   UNL     1       0.850  -3.057  -3.305  1.00  0.00    -0.458 OA
BRANCH  24  25
ATOM     25  C   UNL     1       0.180  -3.872  -2.462  1.00  0.00     0.338 C 
ATOM     26  O   UNL     1       0.664  -4.699  -1.701  1.00  0.00    -0.246 OA
BRANCH  25  27
ATOM     27  C   UNL     1      -1.275  -3.640  -2.594  1.00  0.00     0.060 A 
ATOM     28  C   UNL     1      -1.780  -2.376  -2.900  1.00  0.00     0.016 A 
ATOM     29  C   UNL     1      -2.161  -4.687  -2.330  1.00  0.00     0.016 A 
ATOM     30  C   UNL     1      -3.154  -2.141  -2.849  1.00  0.00     0.010 A 
ATOM     31  C   UNL     1      -3.543  -4.465  -2.365  1.00  0.00     0.010 A 
ATOM     32  C   UNL     1      -4.061  -3.176  -2.580  1.00  0.00    -0.014 A 
BRANCH  32  33
ATOM     33  C   UNL     1      -5.527  -2.908  -2.464  1.00  0.00     0.031 A 
ATOM     34  C   UNL     1      -6.287  -3.326  -1.228  1.00  0.00     0.074 A 
ATOM     35  C   UNL     1      -6.198  -2.269  -3.444  1.00  0.00     0.049 A 
ATOM     36  N   UNL     1      -7.581  -3.385  -1.027  1.00  0.00    -0.248 NA
ATOM     37  C   UNL     1      -5.488  -3.743  -0.065  1.00  0.00     0.031 C 
ATOM     38  C   UNL     1      -5.610  -1.743  -4.674  1.00  0.00     0.029 A 
ATOM     39  N   UNL     1      -7.529  -1.940  -3.549  1.00  0.00    -0.354 N 
ATOM     40  C   UNL     1      -7.749  -3.926   0.241  1.00  0.00     0.074 A 
ATOM     41  C   UNL     1      -6.425  -4.153   0.779  1.00  0.00     0.031 C 
ATOM     42  C   UNL     1      -6.553  -1.097  -5.374  1.00  0.00     0.029 A 
ATOM     43  C   UNL     1      -7.837  -1.256  -4.699  1.00  0.00     0.049 A 
ATOM     44  H   UNL     1      -8.198  -2.172  -2.865  1.00  0.00     0.167 HD
ATOM     45  C   UNL     1      -8.902  -4.218   0.890  1.00  0.00     0.037 A 
ATOM     46  C   UNL     1      -9.020  -0.840  -5.189  1.00  0.00     0.037 A 
ATOM     47  C   UNL     1     -10.221  -3.918   0.394  1.00  0.00     0.049 A 
ATOM     48  C   UNL     1     -10.285  -1.165  -4.449  1.00  0.00     0.074 A 
ATOM     49  C   UNL     1     -11.447  -4.175   0.987  1.00  0.00     0.029 A 
ATOM     50  N   UNL     1     -10.486  -3.266  -0.800  1.00  0.00    -0.354 N 
ATOM     51  N   UNL     1     -10.440  -1.789  -3.308  1.00  0.00    -0.248 NA
ATOM     52  C   UNL     1     -11.546  -0.762  -5.089  1.00  0.00     0.031 C 
ATOM     53  C   UNL     1     -12.454  -3.697   0.142  1.00  0.00     0.029 A 
ATOM     54  C   UNL     1     -11.855  -3.111  -0.960  1.00  0.00     0.049 A 
ATOM     55  H   UNL     1      -9.804  -2.958  -1.439  1.00  0.00     0.167 HD
ATOM     56  C   UNL     1     -11.808  -1.865  -3.098  1.00  0.00     0.074 A 
ATOM     57  C   UNL     1     -12.443  -1.193  -4.213  1.00  0.00     0.031 C 
ATOM     58  C   UNL     1     -12.478  -2.455  -2.079  1.00  0.00     0.037 A 
BRANCH  45  59
ATOM     59  C   UNL     1      -8.801  -4.939   2.202  1.00  0.00     0.064 A 
ATOM     60  C   UNL     1      -8.402  -4.292   3.379  1.00  0.00     0.173 A 
ATOM     61  C   UNL     1      -9.171  -6.292   2.288  1.00  0.00     0.173 A 
ATOM     62  F   UNL     1      -8.027  -3.005   3.347  1.00  0.00    -0.203 F 
ATOM     63  C   UNL     1      -8.361  -4.976   4.592  1.00  0.00     0.198 A 
ATOM     64  C   UNL     1      -9.153  -6.965   3.506  1.00  0.00     0.198 A 
ATOM     65  F   UNL     1      -9.568  -6.955   1.191  1.00  0.00    -0.203 F 
ATOM     66  F   UNL     1      -7.946  -4.348   5.700  1.00  0.00    -0.200 F 
ATOM     67  C   UNL     1      -8.744  -6.309   4.656  1.00  0.00     0.200 A 
ATOM     68  F   UNL     1      -9.537  -8.248   3.567  1.00  0.00    -0.200 F 
ATOM     69  F   UNL     1      -8.717  -6.960   5.827  1.00  0.00    -0.200 F 
ENDBRANCH  45  59
BRANCH  46  70
ATOM     70  C   UNL     1      -9.062  -0.119  -6.487  1.00  0.00     0.064 A 
ATOM     71  C   UNL     1      -9.389   1.242  -6.545  1.00  0.00     0.173 A 
ATOM     72  C   UNL     1      -8.754  -0.770  -7.691  1.00  0.00     0.173 A 
ATOM     73  F   UNL     1      -9.721   1.902  -5.426  1.00  0.00    -0.203 F 
ATOM     74  C   UNL     1      -9.403   1.925  -7.760  1.00  0.00     0.198 A 
ATOM     75  C   UNL     1      -8.737  -0.079  -8.899  1.00  0.00     0.198 A 
ATOM     76  F   UNL     1      -8.440  -2.074  -7.689  1.00  0.00    -0.203 F 
ATOM     77  F   UNL     1      -9.747   3.220  -7.793  1.00  0.00    -0.200 F 
ATOM     78  C   UNL     1      -9.066   1.267  -8.933  1.00  0.00     0.200 A 
ATOM     79  F   UNL     1      -8.396  -0.715 -10.028  1.00  0.00    -0.200 F 
ATOM     80  F   UNL     1      -9.061   1.930 -10.098  1.00  0.00    -0.200 F 
ENDBRANCH  46  70
BRANCH  58  81
ATOM     81  C   UNL     1     -13.974  -2.399  -2.123  1.00  0.00     0.064 A 
ATOM     82  C   UNL     1     -14.707  -3.214  -2.999  1.00  0.00     0.173 A 
ATOM     83  C   UNL     1     -14.684  -1.542  -1.269  1.00  0.00     0.173 A 
ATOM     84  F   UNL     1     -14.072  -4.037  -3.846  1.00  0.00    -0.203 F 
ATOM     85  C   UNL     1     -16.098  -3.156  -3.033  1.00  0.00     0.198 A 
ATOM     86  C   UNL     1     -16.075  -1.502  -1.292  1.00  0.00     0.198 A 
ATOM     87  F   UNL     1     -14.027  -0.746  -0.412  1.00  0.00    -0.203 F 
ATOM     88  F   UNL     1     -16.777  -3.913  -3.905  1.00  0.00    -0.200 F 
ATOM     89  C   UNL     1     -16.780  -2.304  -2.177  1.00  0.00     0.200 A 
ATOM     90  F   UNL     1     -16.734  -0.684  -0.460  1.00  0.00    -0.200 F 
ATOM     91  F   UNL     1     -18.119  -2.249  -2.212  1.00  0.00    -0.200 F 
ENDBRANCH  58  81
ENDBRANCH  32  33
ENDBRANCH  25  27
ENDBRANCH  24  25
ENDBRANCH  23  24
ENDBRANCH   1  23
TORSDOF 15
