REMARK SMILES O=C(OCCOC(=O)C1CCN(C2=[NH+]C(Cl)=[NH+]C3=[NH+]C=N[C@@H]32)CC1)c1ccc(-c2c3nc(c(-c4c(F)c(F)c(F)c(F)c4F)c4ccc([nH]4)c(-c4c(F)c(F)c(F)c(F)c4F)c4nc(c(-c5c(F)c(F)c(F)c(F)c5F)c5ccc2[nH]5)C=C4)C=C3)cc1
REMARK SMILES IDX 4 1 3 2 2 3 1 4 25 5 26 6 87 7 27 8 86 9 28 10 29 11 30 12
REMARK SMILES IDX 80 13 31 14 85 15 79 16 81 17 32 18 84 19 78 20 77 21 33 23
REMARK SMILES IDX 65 24 45 25 64 26 46 27 49 28 63 29 82 30 47 31 48 32 62 34
REMARK SMILES IDX 83 35 50 36 34 37 35 38 43 39 36 40 37 41 41 42 44 43 38 44
REMARK SMILES IDX 39 45 42 46 40 47 66 48 67 49 75 50 68 51 69 52 73 53 76 54
REMARK SMILES IDX 70 55 71 56 74 57 72 58 51 59 52 60 60 61 53 62 54 63 58 64
REMARK SMILES IDX 61 65 55 66 56 67 59 68 57 69 5 70 6 71 7 72 8 73 9 74 10 75
REMARK SMILES IDX 24 76 11 77 23 78 12 79 13 80 14 81 22 82 15 83 18 85 21 86
REMARK SMILES IDX 16 87 17 88 19 89 20 90
REMARK H PARENT 81 22 49 33 14 84 17 91 19 92
REMARK Flexibility Score: inf
ROOT
ATOM      1  C   UNL     1       5.124  -0.960   0.115  1.00  0.00     0.275 C 
ENDROOT
BRANCH   1   2
ATOM      2  O   UNL     1       4.178  -1.047   1.196  1.00  0.00    -0.458 OA
BRANCH   2   3
ATOM      3  C   UNL     1       3.013  -0.397   1.067  1.00  0.00     0.338 C 
ATOM      4  O   UNL     1       2.029  -0.823   0.461  1.00  0.00    -0.246 OA
BRANCH   3   5
ATOM      5  C   UNL     1       3.006   0.871   1.822  1.00  0.00     0.060 A 
ATOM      6  C   UNL     1       4.168   1.625   2.039  1.00  0.00     0.016 A 
ATOM      7  C   UNL     1       1.767   1.379   2.211  1.00  0.00     0.016 A 
ATOM      8  C   UNL     1       4.091   2.884   2.632  1.00  0.00     0.010 A 
ATOM      9  C   UNL     1       1.687   2.662   2.734  1.00  0.00     0.010 A 
ATOM     10  C   UNL     1       2.846   3.416   2.976  1.00  0.00    -0.014 A 
BRANCH  10  11
ATOM     11  C   UNL     1       2.748   4.789   3.511  1.00  0.00     0.031 A 
ATOM     12  C   UNL     1       3.286   5.941   2.691  1.00  0.00     0.074 A 
ATOM     13  C   UNL     1       1.983   5.039   4.599  1.00  0.00     0.049 A 
ATOM     14  N   UNL     1       3.621   7.133   3.087  1.00  0.00    -0.248 NA
ATOM     15  C   UNL     1       3.445   5.777   1.237  1.00  0.00     0.031 C 
ATOM     16  C   UNL     1       1.182   4.082   5.374  1.00  0.00     0.029 A 
ATOM     17  N   UNL     1       1.635   6.241   5.148  1.00  0.00    -0.354 N 
ATOM     18  C   UNL     1       3.925   7.875   1.942  1.00  0.00     0.074 A 
ATOM     19  C   UNL     1       3.770   7.001   0.817  1.00  0.00     0.031 C 
ATOM     20  C   UNL     1       0.264   4.751   6.101  1.00  0.00     0.029 A 
ATOM     21  C   UNL     1       0.527   6.173   5.982  1.00  0.00     0.049 A 
ATOM     22  H   UNL     1       2.123   7.077   4.969  1.00  0.00     0.167 HD
ATOM     23  C   UNL     1       4.361   9.163   1.975  1.00  0.00     0.037 A 
ATOM     24  C   UNL     1      -0.151   7.204   6.533  1.00  0.00     0.037 A 
ATOM     25  C   UNL     1       5.061   9.409   3.199  1.00  0.00     0.049 A 
ATOM     26  C   UNL     1       0.750   8.373   6.565  1.00  0.00     0.074 A 
ATOM     27  C   UNL     1       6.304   9.079   3.688  1.00  0.00     0.029 A 
ATOM     28  N   UNL     1       4.307   9.837   4.253  1.00  0.00    -0.354 N 
ATOM     29  N   UNL     1       1.821   8.448   7.304  1.00  0.00    -0.248 NA
ATOM     30  C   UNL     1       0.589   9.442   5.586  1.00  0.00     0.031 C 
ATOM     31  C   UNL     1       6.156   9.028   5.103  1.00  0.00     0.029 A 
ATOM     32  C   UNL     1       4.835   9.350   5.418  1.00  0.00     0.049 A 
ATOM     33  H   UNL     1       3.507  10.408   4.186  1.00  0.00     0.167 HD
ATOM     34  C   UNL     1       2.658   9.283   6.597  1.00  0.00     0.074 A 
ATOM     35  C   UNL     1       1.782  10.030   5.707  1.00  0.00     0.031 C 
ATOM     36  C   UNL     1       4.001   9.048   6.561  1.00  0.00     0.037 A 
BRANCH  23  37
ATOM     37  C   UNL     1       3.723  10.292   1.181  1.00  0.00     0.064 A 
ATOM     38  C   UNL     1       4.023  11.630   1.534  1.00  0.00     0.173 A 
ATOM     39  C   UNL     1       2.622  10.131   0.322  1.00  0.00     0.173 A 
ATOM     40  F   UNL     1       5.095  11.920   2.288  1.00  0.00    -0.203 F 
ATOM     41  C   UNL     1       3.187  12.697   1.196  1.00  0.00     0.198 A 
ATOM     42  C   UNL     1       1.796  11.205  -0.033  1.00  0.00     0.198 A 
ATOM     43  F   UNL     1       2.286   8.929  -0.159  1.00  0.00    -0.203 F 
ATOM     44  F   UNL     1       3.452  13.925   1.664  1.00  0.00    -0.200 F 
ATOM     45  C   UNL     1       2.054  12.478   0.440  1.00  0.00     0.200 A 
ATOM     46  F   UNL     1       0.717  10.987  -0.797  1.00  0.00    -0.200 F 
ATOM     47  F   UNL     1       1.208  13.484   0.181  1.00  0.00    -0.200 F 
ENDBRANCH  23  37
BRANCH  24  48
ATOM     48  C   UNL     1      -1.554   7.289   6.984  1.00  0.00     0.064 A 
ATOM     49  C   UNL     1      -1.947   8.256   7.923  1.00  0.00     0.173 A 
ATOM     50  C   UNL     1      -2.585   6.601   6.318  1.00  0.00     0.173 A 
ATOM     51  F   UNL     1      -1.026   8.973   8.582  1.00  0.00    -0.203 F 
ATOM     52  C   UNL     1      -3.292   8.548   8.155  1.00  0.00     0.198 A 
ATOM     53  C   UNL     1      -3.930   6.887   6.558  1.00  0.00     0.198 A 
ATOM     54  F   UNL     1      -2.305   5.698   5.366  1.00  0.00    -0.203 F 
ATOM     55  F   UNL     1      -3.623   9.524   9.011  1.00  0.00    -0.200 F 
ATOM     56  C   UNL     1      -4.282   7.872   7.463  1.00  0.00     0.200 A 
ATOM     57  F   UNL     1      -4.882   6.243   5.868  1.00  0.00    -0.200 F 
ATOM     58  F   UNL     1      -5.571   8.194   7.643  1.00  0.00    -0.200 F 
ENDBRANCH  24  48
BRANCH  36  59
ATOM     59  C   UNL     1       4.604   8.214   7.657  1.00  0.00     0.064 A 
ATOM     60  C   UNL     1       4.263   6.879   7.930  1.00  0.00     0.173 A 
ATOM     61  C   UNL     1       5.663   8.764   8.394  1.00  0.00     0.173 A 
ATOM     62  F   UNL     1       3.338   6.235   7.212  1.00  0.00    -0.203 F 
ATOM     63  C   UNL     1       4.915   6.149   8.921  1.00  0.00     0.198 A 
ATOM     64  C   UNL     1       6.346   8.018   9.349  1.00  0.00     0.198 A 
ATOM     65  F   UNL     1       6.075  10.018   8.148  1.00  0.00    -0.203 F 
ATOM     66  F   UNL     1       4.551   4.883   9.171  1.00  0.00    -0.200 F 
ATOM     67  C   UNL     1       5.963   6.716   9.623  1.00  0.00     0.200 A 
ATOM     68  F   UNL     1       7.398   8.554   9.984  1.00  0.00    -0.200 F 
ATOM     69  F   UNL     1       6.624   5.998  10.542  1.00  0.00    -0.200 F 
ENDBRANCH  36  59
ENDBRANCH  10  11
ENDBRANCH   3   5
ENDBRANCH   2   3
ENDBRANCH   1   2
BRANCH   1  70
ATOM     70  C   UNL     1       4.590  -0.777  -1.309  1.00  0.00     0.274 C 
BRANCH  70  71
ATOM     71  O   UNL     1       3.853   0.455  -1.524  1.00  0.00    -0.462 OA
BRANCH  71  72
ATOM     72  C   UNL     1       2.821   0.307  -2.406  1.00  0.00     0.309 C 
ATOM     73  O   UNL     1       2.480  -0.771  -2.887  1.00  0.00    -0.252 OA
BRANCH  72  74
ATOM     74  C   UNL     1       2.100   1.586  -2.811  1.00  0.00     0.108 C 
ATOM     75  C   UNL     1       2.936   2.862  -2.951  1.00  0.00     0.070 C 
ATOM     76  C   UNL     1       0.776   1.768  -2.065  1.00  0.00     0.070 C 
ATOM     77  C   UNL     1       2.837   3.841  -1.789  1.00  0.00     0.277 C 
ATOM     78  C   UNL     1       0.874   2.709  -0.878  1.00  0.00     0.277 C 
ATOM     79  N   UNL     1       1.466   3.972  -1.297  1.00  0.00    -0.230 N 
ATOM     80  C   UNL     1       0.939   5.180  -0.836  1.00  0.00     0.383 C 
ATOM     81  N   UNL     1       0.408   5.274   0.356  1.00  0.00    -0.155 N 
ATOM     82  C   UNL     1       1.002   6.423  -1.708  1.00  0.00     0.523 C 
ATOM     83  C   UNL     1      -0.039   6.497   0.803  1.00  0.00     0.414 C 
ATOM     84  H   UNL     1       0.330   4.477   0.929  1.00  0.00     0.367 HD
ATOM     85  C   UNL     1      -0.074   7.317  -1.226  1.00  0.00     0.389 C 
ATOM     86  N   UNL     1       0.560   6.192  -3.103  1.00  0.00     0.003 NA
ATOM     87  Cl  UNL     1      -0.355   6.628   2.475  1.00  0.00     0.028 Cl
ATOM     88  N   UNL     1      -0.258   7.548   0.088  1.00  0.00    -0.155 N 
ATOM     89  N   UNL     1      -0.888   7.694  -2.143  1.00  0.00    -0.169 N 
ATOM     90  C   UNL     1      -0.469   6.981  -3.235  1.00  0.00     0.532 C 
ATOM     91  H   UNL     1      -0.527   8.419   0.460  1.00  0.00     0.367 HD
ATOM     92  H   UNL     1      -1.631   8.337  -2.078  1.00  0.00     0.365 HD
ENDBRANCH  72  74
ENDBRANCH  71  72
ENDBRANCH  70  71
ENDBRANCH   1  70
TORSDOF 11
