REMARK SMILES O=C(OCCOC(=O)[C@@H](c1cccc(O)c1)[NH+]1CC[NH+](C2CCCC2)CC1)c1ccc(-c2c3nc(c(-c4c(F)c(F)c(F)c(F)c4F)c4ccc([nH]4)c(-c4c(F)c(F)c(F)c(F)c4F)c4nc(c(-c5c(F)c(F)c(F)c(F)c5F)c5ccc2[nH]5)C=C4)C=C3)cc1
REMARK SMILES IDX 4 1 3 2 2 3 1 4 28 5 29 6 90 7 30 8 89 9 31 10 32 11 33 12
REMARK SMILES IDX 83 13 34 14 88 15 82 16 84 17 35 18 87 19 81 20 80 21 36 23
REMARK SMILES IDX 68 24 48 25 67 26 49 27 52 28 66 29 85 30 50 31 51 32 65 34
REMARK SMILES IDX 86 35 53 36 37 37 38 38 46 39 39 40 40 41 44 42 47 43 41 44
REMARK SMILES IDX 42 45 45 46 43 47 69 48 70 49 78 50 71 51 72 52 76 53 79 54
REMARK SMILES IDX 73 55 74 56 77 57 75 58 54 59 55 60 63 61 56 62 57 63 61 64
REMARK SMILES IDX 64 65 58 66 59 67 62 68 60 69 5 70 6 71 7 72 8 73 9 74 10 75
REMARK SMILES IDX 11 76 16 77 12 78 14 79 13 80 15 81 17 83 18 84 27 85 19 87
REMARK SMILES IDX 26 88 20 89 21 91 22 92 25 93 23 94 24 95
REMARK H PARENT 84 22 52 33 15 82 17 86 20 90
REMARK Flexibility Score: inf
ROOT
ATOM      1  C   UNL     1       4.145   0.725   1.740  1.00  0.00     0.275 C 
ENDROOT
BRANCH   1   2
ATOM      2  O   UNL     1       4.211   1.430   0.491  1.00  0.00    -0.458 OA
BRANCH   2   3
ATOM      3  C   UNL     1       4.704   0.994  -0.689  1.00  0.00     0.338 C 
ATOM      4  O   UNL     1       4.633   1.720  -1.679  1.00  0.00    -0.246 OA
BRANCH   3   5
ATOM      5  C   UNL     1       5.267  -0.375  -0.878  1.00  0.00     0.060 A 
ATOM      6  C   UNL     1       6.178  -1.030  -0.044  1.00  0.00     0.016 A 
ATOM      7  C   UNL     1       4.923  -1.003  -2.071  1.00  0.00     0.016 A 
ATOM      8  C   UNL     1       6.686  -2.312  -0.377  1.00  0.00     0.010 A 
ATOM      9  C   UNL     1       5.384  -2.287  -2.370  1.00  0.00     0.010 A 
ATOM     10  C   UNL     1       6.290  -2.972  -1.547  1.00  0.00    -0.014 A 
BRANCH  10  11
ATOM     11  C   UNL     1       6.848  -4.282  -2.050  1.00  0.00     0.031 A 
ATOM     12  C   UNL     1       7.295  -4.348  -3.503  1.00  0.00     0.074 A 
ATOM     13  C   UNL     1       6.870  -5.422  -1.321  1.00  0.00     0.049 A 
ATOM     14  N   UNL     1       7.429  -5.380  -4.300  1.00  0.00    -0.248 NA
ATOM     15  C   UNL     1       7.538  -3.055  -4.171  1.00  0.00     0.031 C 
ATOM     16  C   UNL     1       6.469  -5.557   0.079  1.00  0.00     0.029 A 
ATOM     17  N   UNL     1       7.212  -6.715  -1.681  1.00  0.00    -0.354 N 
ATOM     18  C   UNL     1       7.717  -4.848  -5.555  1.00  0.00     0.074 A 
ATOM     19  C   UNL     1       7.590  -3.414  -5.444  1.00  0.00     0.031 C 
ATOM     20  C   UNL     1       6.561  -6.849   0.448  1.00  0.00     0.029 A 
ATOM     21  C   UNL     1       6.964  -7.657  -0.698  1.00  0.00     0.049 A 
ATOM     22  H   UNL     1       7.596  -6.944  -2.558  1.00  0.00     0.167 HD
ATOM     23  C   UNL     1       8.156  -5.475  -6.674  1.00  0.00     0.037 A 
ATOM     24  C   UNL     1       6.990  -9.009  -0.745  1.00  0.00     0.037 A 
ATOM     25  C   UNL     1       8.475  -6.875  -6.725  1.00  0.00     0.049 A 
ATOM     26  C   UNL     1       7.413  -9.684  -2.023  1.00  0.00     0.074 A 
ATOM     27  C   UNL     1       9.198  -7.560  -7.685  1.00  0.00     0.029 A 
ATOM     28  N   UNL     1       8.122  -7.794  -5.752  1.00  0.00    -0.354 N 
ATOM     29  N   UNL     1       7.614  -9.172  -3.210  1.00  0.00    -0.248 NA
ATOM     30  C   UNL     1       7.628 -11.139  -1.949  1.00  0.00     0.031 C 
ATOM     31  C   UNL     1       9.281  -8.900  -7.295  1.00  0.00     0.029 A 
ATOM     32  C   UNL     1       8.626  -9.039  -6.085  1.00  0.00     0.049 A 
ATOM     33  H   UNL     1       7.594  -7.593  -4.946  1.00  0.00     0.167 HD
ATOM     34  C   UNL     1       8.009 -10.234  -4.011  1.00  0.00     0.074 A 
ATOM     35  C   UNL     1       7.936 -11.431  -3.202  1.00  0.00     0.031 C 
ATOM     36  C   UNL     1       8.474 -10.216  -5.281  1.00  0.00     0.037 A 
BRANCH  23  37
ATOM     37  C   UNL     1       8.471  -4.642  -7.888  1.00  0.00     0.064 A 
ATOM     38  C   UNL     1       9.516  -3.703  -7.876  1.00  0.00     0.173 A 
ATOM     39  C   UNL     1       7.788  -4.838  -9.098  1.00  0.00     0.173 A 
ATOM     40  F   UNL     1      10.216  -3.486  -6.752  1.00  0.00    -0.203 F 
ATOM     41  C   UNL     1       9.830  -2.957  -9.008  1.00  0.00     0.198 A 
ATOM     42  C   UNL     1       8.133  -4.119 -10.242  1.00  0.00     0.198 A 
ATOM     43  F   UNL     1       6.798  -5.739  -9.179  1.00  0.00    -0.203 F 
ATOM     44  F   UNL     1      10.793  -2.027  -8.947  1.00  0.00    -0.200 F 
ATOM     45  C   UNL     1       9.145  -3.172 -10.192  1.00  0.00     0.200 A 
ATOM     46  F   UNL     1       7.489  -4.345 -11.395  1.00  0.00    -0.200 F 
ATOM     47  F   UNL     1       9.463  -2.467 -11.287  1.00  0.00    -0.200 F 
ENDBRANCH  23  37
BRANCH  24  48
ATOM     48  C   UNL     1       6.525  -9.876   0.386  1.00  0.00     0.064 A 
ATOM     49  C   UNL     1       7.206  -9.971   1.603  1.00  0.00     0.173 A 
ATOM     50  C   UNL     1       5.412 -10.724   0.216  1.00  0.00     0.173 A 
ATOM     51  F   UNL     1       8.323  -9.259   1.804  1.00  0.00    -0.203 F 
ATOM     52  C   UNL     1       6.764 -10.832   2.614  1.00  0.00     0.198 A 
ATOM     53  C   UNL     1       4.955 -11.561   1.230  1.00  0.00     0.198 A 
ATOM     54  F   UNL     1       4.780 -10.778  -0.966  1.00  0.00    -0.203 F 
ATOM     55  F   UNL     1       7.451 -10.922   3.761  1.00  0.00    -0.200 F 
ATOM     56  C   UNL     1       5.630 -11.612   2.433  1.00  0.00     0.200 A 
ATOM     57  F   UNL     1       3.869 -12.321   1.029  1.00  0.00    -0.200 F 
ATOM     58  F   UNL     1       5.205 -12.429   3.406  1.00  0.00    -0.200 F 
ENDBRANCH  24  48
BRANCH  36  59
ATOM     59  C   UNL     1       9.013 -11.508  -5.804  1.00  0.00     0.064 A 
ATOM     60  C   UNL     1       8.182 -12.511  -6.314  1.00  0.00     0.173 A 
ATOM     61  C   UNL     1      10.394 -11.750  -5.744  1.00  0.00     0.173 A 
ATOM     62  F   UNL     1       6.853 -12.334  -6.353  1.00  0.00    -0.203 F 
ATOM     63  C   UNL     1       8.717 -13.727  -6.732  1.00  0.00     0.198 A 
ATOM     64  C   UNL     1      10.926 -12.957  -6.178  1.00  0.00     0.198 A 
ATOM     65  F   UNL     1      11.221 -10.820  -5.244  1.00  0.00    -0.203 F 
ATOM     66  F   UNL     1       7.905 -14.698  -7.172  1.00  0.00    -0.200 F 
ATOM     67  C   UNL     1      10.086 -13.947  -6.667  1.00  0.00     0.200 A 
ATOM     68  F   UNL     1      12.247 -13.170  -6.106  1.00  0.00    -0.200 F 
ATOM     69  F   UNL     1      10.597 -15.123  -7.056  1.00  0.00    -0.200 F 
ENDBRANCH  36  59
ENDBRANCH  10  11
ENDBRANCH   3   5
ENDBRANCH   2   3
ENDBRANCH   1   2
BRANCH   1  70
ATOM     70  C   UNL     1       2.948  -0.210   1.869  1.00  0.00     0.274 C 
BRANCH  70  71
ATOM     71  O   UNL     1       2.814  -1.101   0.752  1.00  0.00    -0.457 OA
BRANCH  71  72
ATOM     72  C   UNL     1       1.613  -1.063   0.089  1.00  0.00     0.370 C 
ATOM     73  O   UNL     1       0.761  -0.193   0.263  1.00  0.00    -0.245 OA
BRANCH  72  74
ATOM     74  C   UNL     1       1.407  -2.296  -0.864  1.00  0.00     0.326 C 
BRANCH  74  75
ATOM     75  C   UNL     1       1.780  -1.954  -2.339  1.00  0.00     0.025 A 
ATOM     76  C   UNL     1       2.347  -2.817  -3.298  1.00  0.00     0.011 A 
ATOM     77  C   UNL     1       1.401  -0.694  -2.852  1.00  0.00     0.056 A 
ATOM     78  C   UNL     1       2.545  -2.473  -4.645  1.00  0.00     0.004 A 
ATOM     79  C   UNL     1       1.630  -0.334  -4.188  1.00  0.00     0.116 A 
ATOM     80  C   UNL     1       2.192  -1.218  -5.094  1.00  0.00     0.046 A 
BRANCH  79  81
ATOM     81  O   UNL     1       1.289   0.927  -4.577  1.00  0.00    -0.508 OA
ATOM     82  H   UNL     1       1.430   1.198  -5.463  1.00  0.00     0.293 HD
ENDBRANCH  79  81
ENDBRANCH  74  75
BRANCH  74  83
ATOM     83  N   UNL     1       1.931  -3.468  -0.086  1.00  0.00    -0.310 N 
ATOM     84  C   UNL     1       0.897  -4.102   0.774  1.00  0.00     0.325 C 
ATOM     85  C   UNL     1       2.668  -4.516  -0.755  1.00  0.00     0.325 C 
ATOM     86  H   UNL     1       2.644  -2.973   0.450  1.00  0.00     0.349 HD
ATOM     87  C   UNL     1       0.070  -5.272   0.138  1.00  0.00     0.324 C 
ATOM     88  C   UNL     1       1.729  -5.392  -1.602  1.00  0.00     0.324 C 
ATOM     89  N   UNL     1       0.765  -6.149  -0.819  1.00  0.00    -0.323 N 
ATOM     90  H   UNL     1       0.056  -6.468  -1.480  1.00  0.00     0.348 HD
BRANCH  89  91
ATOM     91  C   UNL     1       1.158  -7.479  -0.356  1.00  0.00     0.184 C 
ATOM     92  C   UNL     1       1.981  -8.278  -1.391  1.00  0.00     0.065 C 
ATOM     93  C   UNL     1       2.007  -7.529   0.928  1.00  0.00     0.065 C 
ATOM     94  C   UNL     1       3.418  -8.078  -0.944  1.00  0.00     0.006 C 
ATOM     95  C   UNL     1       3.286  -8.264   0.557  1.00  0.00     0.006 C 
ENDBRANCH  89  91
ENDBRANCH  74  83
ENDBRANCH  72  74
ENDBRANCH  71  72
ENDBRANCH  70  71
ENDBRANCH   1  70
TORSDOF 15
