REMARK SMILES O=C(CCS(=O)(=O)Nc1ccc(-c2ccccc2)cc1)OCCOC(=O)c1ccc(-c2c3nc(c(-c4c(F)c(F)c(F)c(F)c4F)c4ccc([nH]4)c(-c4c(F)c(F)c(F)c(F)c4F)c4nc(c(-c5c(F)c(F)c(F)c(F)c5F)c5ccc2[nH]5)C=C4)C=C3)cc1
REMARK SMILES IDX 21 1 2 2 1 3 3 4 4 5 5 6 6 7 7 8 8 9 9 11 10 12 20 13 11 14
REMARK SMILES IDX 19 15 12 16 13 17 14 18 18 19 15 20 17 21 16 22 22 23 23 24
REMARK SMILES IDX 24 25 25 26 26 27 27 28 28 29 89 30 29 31 88 32 30 33 31 34
REMARK SMILES IDX 32 35 82 36 33 37 87 38 81 39 83 40 34 41 86 42 80 43 79 44
REMARK SMILES IDX 35 46 67 47 47 48 66 49 48 50 51 51 65 52 84 53 49 54 50 55
REMARK SMILES IDX 64 57 85 58 52 59 36 60 37 61 45 62 38 63 39 64 43 65 46 66
REMARK SMILES IDX 40 67 41 68 44 69 42 70 68 71 69 72 77 73 70 74 71 75 75 76
REMARK SMILES IDX 78 77 72 78 73 79 76 80 74 81 53 82 54 83 62 84 55 85 56 86
REMARK SMILES IDX 60 87 63 88 57 89 58 90 61 91 59 92
REMARK H PARENT 8 10 83 45 51 56
REMARK Flexibility Score: inf
ROOT
ATOM      1  O   UNL     1       3.121   0.679  -0.441  1.00  0.00    -0.462 OA
ENDROOT
BRANCH   1   2
ATOM      2  C   UNL     1       3.073   0.388   0.876  1.00  0.00     0.307 C 
ATOM      3  O   UNL     1       2.009   0.478   1.489  1.00  0.00    -0.252 OA
BRANCH   2   4
ATOM      4  C   UNL     1       4.252  -0.240   1.550  1.00  0.00     0.141 C 
BRANCH   4   5
ATOM      5  C   UNL     1       4.047  -1.738   1.755  1.00  0.00     0.171 C 
BRANCH   5   6
ATOM      6  S   UNL     1       4.766  -2.829   0.514  1.00  0.00     0.233 S 
ATOM      7  O   UNL     1       5.960  -2.168   0.020  1.00  0.00    -0.207 OA
ATOM      8  O   UNL     1       4.875  -4.135   1.127  1.00  0.00    -0.207 OA
BRANCH   6   9
ATOM      9  N   UNL     1       3.812  -2.997  -0.829  1.00  0.00    -0.284 N 
ATOM     10  H   UNL     1       4.283  -2.988  -1.693  1.00  0.00     0.180 HD
BRANCH   9  11
ATOM     11  C   UNL     1       2.401  -3.153  -0.895  1.00  0.00     0.049 A 
ATOM     12  C   UNL     1       1.796  -4.053  -1.773  1.00  0.00     0.027 A 
ATOM     13  C   UNL     1       1.602  -2.174  -0.356  1.00  0.00     0.027 A 
ATOM     14  C   UNL     1       0.411  -3.957  -2.059  1.00  0.00     0.011 A 
ATOM     15  C   UNL     1       0.264  -2.030  -0.658  1.00  0.00     0.011 A 
ATOM     16  C   UNL     1      -0.362  -2.920  -1.518  1.00  0.00    -0.018 A 
BRANCH  16  17
ATOM     17  C   UNL     1      -1.796  -2.702  -1.715  1.00  0.00    -0.018 A 
ATOM     18  C   UNL     1      -2.721  -3.515  -1.049  1.00  0.00     0.009 A 
ATOM     19  C   UNL     1      -2.253  -1.512  -2.314  1.00  0.00     0.009 A 
ATOM     20  C   UNL     1      -4.056  -3.123  -0.938  1.00  0.00     0.001 A 
ATOM     21  C   UNL     1      -3.588  -1.121  -2.202  1.00  0.00     0.001 A 
ATOM     22  C   UNL     1      -4.485  -1.922  -1.501  1.00  0.00     0.000 A 
ENDBRANCH  16  17
ENDBRANCH   9  11
ENDBRANCH   6   9
ENDBRANCH   5   6
ENDBRANCH   4   5
ENDBRANCH   2   4
ENDBRANCH   1   2
BRANCH   1  23
ATOM     23  C   UNL     1       4.334   0.987  -1.153  1.00  0.00     0.274 C 
BRANCH  23  24
ATOM     24  C   UNL     1       4.718   2.465  -1.018  1.00  0.00     0.275 C 
BRANCH  24  25
ATOM     25  O   UNL     1       4.307   2.990   0.254  1.00  0.00    -0.458 OA
BRANCH  25  26
ATOM     26  C   UNL     1       3.058   3.546   0.238  1.00  0.00     0.338 C 
ATOM     27  O   UNL     1       2.394   3.814  -0.735  1.00  0.00    -0.246 OA
BRANCH  26  28
ATOM     28  C   UNL     1       2.538   3.583   1.625  1.00  0.00     0.060 A 
ATOM     29  C   UNL     1       1.194   3.236   1.816  1.00  0.00     0.016 A 
ATOM     30  C   UNL     1       3.349   3.902   2.717  1.00  0.00     0.016 A 
ATOM     31  C   UNL     1       0.653   3.216   3.099  1.00  0.00     0.010 A 
ATOM     32  C   UNL     1       2.800   3.915   4.001  1.00  0.00     0.010 A 
ATOM     33  C   UNL     1       1.442   3.602   4.189  1.00  0.00    -0.014 A 
BRANCH  33  34
ATOM     34  C   UNL     1       0.766   3.946   5.458  1.00  0.00     0.031 A 
ATOM     35  C   UNL     1       0.254   5.352   5.599  1.00  0.00     0.074 A 
ATOM     36  C   UNL     1       0.563   3.038   6.426  1.00  0.00     0.049 A 
ATOM     37  N   UNL     1      -0.404   5.907   6.583  1.00  0.00    -0.248 NA
ATOM     38  C   UNL     1       0.514   6.255   4.463  1.00  0.00     0.031 C 
ATOM     39  C   UNL     1       0.977   1.638   6.378  1.00  0.00     0.029 A 
ATOM     40  N   UNL     1      -0.051   3.168   7.647  1.00  0.00    -0.354 N 
ATOM     41  C   UNL     1      -0.661   7.207   6.170  1.00  0.00     0.074 A 
ATOM     42  C   UNL     1      -0.050   7.379   4.872  1.00  0.00     0.031 C 
ATOM     43  C   UNL     1       0.620   1.039   7.529  1.00  0.00     0.029 A 
ATOM     44  C   UNL     1      -0.036   2.018   8.396  1.00  0.00     0.049 A 
ATOM     45  H   UNL     1      -0.464   4.006   7.956  1.00  0.00     0.167 HD
ATOM     46  C   UNL     1      -1.361   8.171   6.809  1.00  0.00     0.037 A 
ATOM     47  C   UNL     1      -0.493   1.797   9.645  1.00  0.00     0.037 A 
ATOM     48  C   UNL     1      -1.925   8.015   8.120  1.00  0.00     0.049 A 
ATOM     49  C   UNL     1      -1.185   2.920  10.380  1.00  0.00     0.074 A 
ATOM     50  C   UNL     1      -2.604   8.943   8.887  1.00  0.00     0.029 A 
ATOM     51  N   UNL     1      -1.859   6.846   8.865  1.00  0.00    -0.354 N 
ATOM     52  N   UNL     1      -1.441   4.143   9.978  1.00  0.00    -0.248 NA
ATOM     53  C   UNL     1      -1.664   2.627  11.738  1.00  0.00     0.031 C 
ATOM     54  C   UNL     1      -2.914   8.347  10.115  1.00  0.00     0.029 A 
ATOM     55  C   UNL     1      -2.474   7.032  10.090  1.00  0.00     0.049 A 
ATOM     56  H   UNL     1      -1.438   6.008   8.565  1.00  0.00     0.167 HD
ATOM     57  C   UNL     1      -2.131   4.753  11.018  1.00  0.00     0.074 A 
ATOM     58  C   UNL     1      -2.272   3.760  12.062  1.00  0.00     0.031 C 
ATOM     59  C   UNL     1      -2.605   6.021  11.108  1.00  0.00     0.037 A 
BRANCH  46  60
ATOM     60  C   UNL     1      -1.522   9.480   6.097  1.00  0.00     0.064 A 
ATOM     61  C   UNL     1      -2.363   9.604   4.980  1.00  0.00     0.173 A 
ATOM     62  C   UNL     1      -0.824  10.617   6.526  1.00  0.00     0.173 A 
ATOM     63  F   UNL     1      -3.030   8.537   4.515  1.00  0.00    -0.203 F 
ATOM     64  C   UNL     1      -2.480  10.815   4.304  1.00  0.00     0.198 A 
ATOM     65  C   UNL     1      -0.965  11.834   5.863  1.00  0.00     0.198 A 
ATOM     66  F   UNL     1      -0.001  10.548   7.582  1.00  0.00    -0.203 F 
ATOM     67  F   UNL     1      -3.249  10.899   3.209  1.00  0.00    -0.200 F 
ATOM     68  C   UNL     1      -1.786  11.930   4.750  1.00  0.00     0.200 A 
ATOM     69  F   UNL     1      -0.296  12.911   6.296  1.00  0.00    -0.200 F 
ATOM     70  F   UNL     1      -1.900  13.096   4.098  1.00  0.00    -0.200 F 
ENDBRANCH  46  60
BRANCH  47  71
ATOM     71  C   UNL     1      -0.303   0.471  10.293  1.00  0.00     0.064 A 
ATOM     72  C   UNL     1      -1.394  -0.352  10.607  1.00  0.00     0.173 A 
ATOM     73  C   UNL     1       0.975   0.022  10.658  1.00  0.00     0.173 A 
ATOM     74  F   UNL     1      -2.640   0.044  10.306  1.00  0.00    -0.203 F 
ATOM     75  C   UNL     1      -1.217  -1.557  11.287  1.00  0.00     0.198 A 
ATOM     76  C   UNL     1       1.154  -1.197  11.310  1.00  0.00     0.198 A 
ATOM     77  F   UNL     1       2.054   0.771  10.387  1.00  0.00    -0.203 F 
ATOM     78  F   UNL     1      -2.283  -2.293  11.629  1.00  0.00    -0.200 F 
ATOM     79  C   UNL     1       0.057  -1.980  11.634  1.00  0.00     0.200 A 
ATOM     80  F   UNL     1       2.388  -1.605  11.637  1.00  0.00    -0.200 F 
ATOM     81  F   UNL     1       0.226  -3.134  12.293  1.00  0.00    -0.200 F 
ENDBRANCH  47  71
BRANCH  59  82
ATOM     82  C   UNL     1      -3.346   6.391  12.360  1.00  0.00     0.064 A 
ATOM     83  C   UNL     1      -2.685   6.556  13.585  1.00  0.00     0.173 A 
ATOM     84  C   UNL     1      -4.730   6.622  12.322  1.00  0.00     0.173 A 
ATOM     85  F   UNL     1      -1.364   6.337  13.675  1.00  0.00    -0.203 F 
ATOM     86  C   UNL     1      -3.387   6.907  14.735  1.00  0.00     0.198 A 
ATOM     87  C   UNL     1      -5.423   7.004  13.466  1.00  0.00     0.198 A 
ATOM     88  F   UNL     1      -5.407   6.489  11.172  1.00  0.00    -0.203 F 
ATOM     89  F   UNL     1      -2.744   7.008  15.906  1.00  0.00    -0.200 F 
ATOM     90  C   UNL     1      -4.754   7.137  14.673  1.00  0.00     0.200 A 
ATOM     91  F   UNL     1      -6.741   7.241  13.402  1.00  0.00    -0.200 F 
ATOM     92  F   UNL     1      -5.427   7.479  15.780  1.00  0.00    -0.200 F 
ENDBRANCH  59  82
ENDBRANCH  33  34
ENDBRANCH  26  28
ENDBRANCH  25  26
ENDBRANCH  24  25
ENDBRANCH  23  24
ENDBRANCH   1  23
TORSDOF 16
