REMARK SMILES COc1cc([C@H]2c3c(-c4ccccc4)n[nH]c3C(=O)N2c2ccc(C(=O)OCCOC(=O)c3ccc(-c4c5nc(c(-c6c(F)c(F)c(F)c(F)c6F)c6ccc([nH]6)c(-c6c(F)c(F)c(F)c(F)c6F)c6nc(c(-c7c(F)c(F)c(F)c(F)c7F)c7ccc4[nH]7)C=C6)C=C5)cc3)cc2)ccc1O
REMARK SMILES IDX 28 1 27 2 25 3 26 4 24 5 21 6 22 7 97 8 23 9 96 10 20 11
REMARK SMILES IDX 6 12 7 13 8 14 17 15 18 16 15 17 16 18 19 19 5 21 3 22 4 23
REMARK SMILES IDX 100 24 99 25 98 26 2 27 1 28 101 29 9 31 10 32 14 33 11 34
REMARK SMILES IDX 13 35 12 36 29 37 30 38 31 39 32 40 33 41 34 42 95 43 35 44
REMARK SMILES IDX 94 45 36 46 37 47 38 48 88 49 39 50 93 51 87 52 89 53 40 54
REMARK SMILES IDX 92 55 86 56 85 57 41 59 73 60 53 61 72 62 54 63 57 64 71 65
REMARK SMILES IDX 90 66 55 67 56 68 70 70 91 71 58 72 42 73 43 74 51 75 44 76
REMARK SMILES IDX 45 77 49 78 52 79 46 80 47 81 50 82 48 83 74 84 75 85 83 86
REMARK SMILES IDX 76 87 77 88 81 89 84 90 78 91 79 92 82 93 80 94 59 95 60 96
REMARK SMILES IDX 68 97 61 98 62 99 66 100 69 101 63 102 64 103 67 104 65 105
REMARK H PARENT 16 20 101 30 89 58 57 69
REMARK Flexibility Score: inf
ROOT
ATOM      1  C   UNL     1       4.323  -5.679   8.264  1.00  0.00     0.275 C 
ENDROOT
BRANCH   1   2
ATOM      2  O   UNL     1       3.632  -5.796   7.008  1.00  0.00    -0.458 OA
BRANCH   2   3
ATOM      3  C   UNL     1       4.424  -5.843   5.905  1.00  0.00     0.338 C 
ATOM      4  O   UNL     1       5.634  -5.679   5.877  1.00  0.00    -0.246 OA
BRANCH   3   5
ATOM      5  C   UNL     1       3.637  -6.228   4.708  1.00  0.00     0.060 A 
ATOM      6  C   UNL     1       2.266  -6.832   2.334  1.00  0.00     0.045 A 
ATOM      7  C   UNL     1       3.603  -7.209   2.487  1.00  0.00     0.027 A 
ATOM      8  C   UNL     1       1.605  -6.210   3.403  1.00  0.00     0.027 A 
ATOM      9  C   UNL     1       4.295  -6.879   3.656  1.00  0.00     0.018 A 
ATOM     10  C   UNL     1       2.277  -5.938   4.597  1.00  0.00     0.018 A 
BRANCH   6  11
ATOM     11  N   UNL     1       1.602  -7.035   1.108  1.00  0.00    -0.295 N 
ATOM     12  C   UNL     1       0.689  -6.008   0.527  1.00  0.00     0.156 C 
ATOM     13  C   UNL     1       0.266  -6.708  -0.709  1.00  0.00     0.038 A 
ATOM     14  C   UNL     1      -0.493  -6.591  -1.885  1.00  0.00     0.099 A 
ATOM     15  C   UNL     1       0.831  -7.947  -0.763  1.00  0.00     0.129 A 
ATOM     16  C   UNL     1       1.711  -8.205   0.322  1.00  0.00     0.277 C 
ATOM     17  N   UNL     1      -0.474  -7.763  -2.562  1.00  0.00    -0.174 NA
ATOM     18  N   UNL     1       0.356  -8.569  -1.852  1.00  0.00    -0.272 N 
ATOM     19  O   UNL     1       2.357  -9.212   0.507  1.00  0.00    -0.267 OA
ATOM     20  H   UNL     1       0.582  -9.493  -2.105  1.00  0.00     0.190 HD
BRANCH  12  21
ATOM     21  C   UNL     1       1.359  -4.716   0.106  1.00  0.00    -0.016 A 
ATOM     22  C   UNL     1       1.222  -2.258  -0.022  1.00  0.00     0.160 A 
ATOM     23  C   UNL     1       0.739  -3.495   0.434  1.00  0.00     0.056 A 
ATOM     24  C   UNL     1       2.364  -2.251  -0.824  1.00  0.00     0.157 A 
ATOM     25  C   UNL     1       3.032  -3.444  -1.115  1.00  0.00     0.050 A 
ATOM     26  C   UNL     1       2.538  -4.668  -0.654  1.00  0.00     0.010 A 
BRANCH  22  27
ATOM     27  O   UNL     1       0.440  -1.214   0.382  1.00  0.00    -0.493 OA
ATOM     28  C   UNL     1       0.895   0.120   0.231  1.00  0.00     0.278 C 
ENDBRANCH  22  27
BRANCH  24  29
ATOM     29  O   UNL     1       2.883  -1.138  -1.420  1.00  0.00    -0.504 OA
ATOM     30  H   UNL     1       2.489  -0.301  -1.273  1.00  0.00     0.293 HD
ENDBRANCH  24  29
ENDBRANCH  12  21
BRANCH  14  31
ATOM     31  C   UNL     1      -1.198  -5.428  -2.400  1.00  0.00     0.002 A 
ATOM     32  C   UNL     1      -2.589  -5.436  -2.536  1.00  0.00     0.010 A 
ATOM     33  C   UNL     1      -0.481  -4.290  -2.788  1.00  0.00     0.010 A 
ATOM     34  C   UNL     1      -3.253  -4.303  -3.019  1.00  0.00     0.001 A 
ATOM     35  C   UNL     1      -1.143  -3.155  -3.257  1.00  0.00     0.001 A 
ATOM     36  C   UNL     1      -2.531  -3.161  -3.368  1.00  0.00     0.000 A 
ENDBRANCH  14  31
ENDBRANCH   6  11
ENDBRANCH   3   5
ENDBRANCH   2   3
ENDBRANCH   1   2
BRANCH   1  37
ATOM     37  C   UNL     1       4.702  -7.041   8.830  1.00  0.00     0.275 C 
BRANCH  37  38
ATOM     38  O   UNL     1       5.701  -7.679   8.039  1.00  0.00    -0.458 OA
BRANCH  38  39
ATOM     39  C   UNL     1       5.224  -8.523   7.097  1.00  0.00     0.338 C 
ATOM     40  O   UNL     1       4.085  -8.597   6.667  1.00  0.00    -0.246 OA
BRANCH  39  41
ATOM     41  C   UNL     1       6.228  -9.553   6.836  1.00  0.00     0.060 A 
ATOM     42  C   UNL     1       6.014 -10.409   5.752  1.00  0.00     0.016 A 
ATOM     43  C   UNL     1       7.145  -9.850   7.853  1.00  0.00     0.016 A 
ATOM     44  C   UNL     1       6.593 -11.660   5.786  1.00  0.00     0.010 A 
ATOM     45  C   UNL     1       7.704 -11.100   7.895  1.00  0.00     0.010 A 
ATOM     46  C   UNL     1       7.356 -12.015   6.905  1.00  0.00    -0.014 A 
BRANCH  46  47
ATOM     47  C   UNL     1       7.946 -13.335   6.966  1.00  0.00     0.031 A 
ATOM     48  C   UNL     1       9.049 -13.483   5.988  1.00  0.00     0.074 A 
ATOM     49  C   UNL     1       7.612 -14.218   7.929  1.00  0.00     0.049 A 
ATOM     50  N   UNL     1       9.102 -14.285   4.978  1.00  0.00    -0.248 NA
ATOM     51  C   UNL     1      10.132 -12.480   6.011  1.00  0.00     0.031 C 
ATOM     52  C   UNL     1       6.711 -14.019   9.068  1.00  0.00     0.029 A 
ATOM     53  N   UNL     1       8.101 -15.470   8.149  1.00  0.00    -0.354 N 
ATOM     54  C   UNL     1      10.328 -14.035   4.370  1.00  0.00     0.074 A 
ATOM     55  C   UNL     1      10.805 -12.790   4.903  1.00  0.00     0.031 C 
ATOM     56  C   UNL     1       6.898 -15.010   9.971  1.00  0.00     0.029 A 
ATOM     57  C   UNL     1       7.828 -15.977   9.420  1.00  0.00     0.049 A 
ATOM     58  H   UNL     1       8.604 -15.974   7.469  1.00  0.00     0.167 HD
ATOM     59  C   UNL     1      10.981 -15.032   3.716  1.00  0.00     0.037 A 
ATOM     60  C   UNL     1       8.410 -17.074   9.974  1.00  0.00     0.037 A 
ATOM     61  C   UNL     1      10.065 -16.085   3.352  1.00  0.00     0.049 A 
ATOM     62  C   UNL     1       8.991 -17.867   8.858  1.00  0.00     0.074 A 
ATOM     63  C   UNL     1       8.939 -16.154   2.555  1.00  0.00     0.029 A 
ATOM     64  N   UNL     1      10.022 -17.193   4.161  1.00  0.00    -0.354 N 
ATOM     65  N   UNL     1       8.268 -18.467   7.952  1.00  0.00    -0.248 NA
ATOM     66  C   UNL     1      10.360 -17.559   8.467  1.00  0.00     0.031 C 
ATOM     67  C   UNL     1       8.049 -17.029   3.246  1.00  0.00     0.029 A 
ATOM     68  C   UNL     1       8.707 -17.513   4.377  1.00  0.00     0.049 A 
ATOM     69  H   UNL     1      10.800 -17.673   4.524  1.00  0.00     0.167 HD
ATOM     70  C   UNL     1       8.925 -18.212   6.757  1.00  0.00     0.074 A 
ATOM     71  C   UNL     1      10.236 -17.694   7.143  1.00  0.00     0.031 C 
ATOM     72  C   UNL     1       8.236 -18.157   5.580  1.00  0.00     0.037 A 
BRANCH  59  73
ATOM     73  C   UNL     1      12.473 -15.256   3.817  1.00  0.00     0.064 A 
ATOM     74  C   UNL     1      13.046 -16.300   3.065  1.00  0.00     0.173 A 
ATOM     75  C   UNL     1      13.296 -14.720   4.834  1.00  0.00     0.173 A 
ATOM     76  F   UNL     1      12.355 -16.892   2.080  1.00  0.00    -0.203 F 
ATOM     77  C   UNL     1      14.300 -16.832   3.377  1.00  0.00     0.198 A 
ATOM     78  C   UNL     1      14.567 -15.219   5.107  1.00  0.00     0.198 A 
ATOM     79  F   UNL     1      12.878 -13.776   5.683  1.00  0.00    -0.203 F 
ATOM     80  F   UNL     1      14.742 -17.915   2.725  1.00  0.00    -0.200 F 
ATOM     81  C   UNL     1      15.055 -16.297   4.404  1.00  0.00     0.200 A 
ATOM     82  F   UNL     1      15.274 -14.697   6.120  1.00  0.00    -0.200 F 
ATOM     83  F   UNL     1      16.225 -16.848   4.750  1.00  0.00    -0.200 F 
ENDBRANCH  59  73
BRANCH  60  84
ATOM     84  C   UNL     1       8.826 -17.286  11.385  1.00  0.00     0.064 A 
ATOM     85  C   UNL     1       9.165 -18.566  11.861  1.00  0.00     0.173 A 
ATOM     86  C   UNL     1       9.181 -16.202  12.211  1.00  0.00     0.173 A 
ATOM     87  F   UNL     1       8.913 -19.651  11.114  1.00  0.00    -0.203 F 
ATOM     88  C   UNL     1       9.834 -18.746  13.078  1.00  0.00     0.198 A 
ATOM     89  C   UNL     1       9.846 -16.384  13.426  1.00  0.00     0.198 A 
ATOM     90  F   UNL     1       8.979 -14.939  11.811  1.00  0.00    -0.203 F 
ATOM     91  F   UNL     1      10.194 -19.977  13.470  1.00  0.00    -0.200 F 
ATOM     92  C   UNL     1      10.183 -17.654  13.854  1.00  0.00     0.200 A 
ATOM     93  F   UNL     1      10.215 -15.315  14.146  1.00  0.00    -0.200 F 
ATOM     94  F   UNL     1      10.879 -17.819  14.988  1.00  0.00    -0.200 F 
ENDBRANCH  60  84
BRANCH  72  95
ATOM     95  C   UNL     1       6.806 -18.622   5.582  1.00  0.00     0.064 A 
ATOM     96  C   UNL     1       5.770 -18.002   6.303  1.00  0.00     0.173 A 
ATOM     97  C   UNL     1       6.450 -19.648   4.699  1.00  0.00     0.173 A 
ATOM     98  F   UNL     1       6.014 -16.951   7.096  1.00  0.00    -0.203 F 
ATOM     99  C   UNL     1       4.446 -18.422   6.172  1.00  0.00     0.198 A 
ATOM    100  C   UNL     1       5.125 -20.041   4.541  1.00  0.00     0.198 A 
ATOM    101  F   UNL     1       7.391 -20.240   3.945  1.00  0.00    -0.203 F 
ATOM    102  F   UNL     1       3.475 -17.823   6.878  1.00  0.00    -0.200 F 
ATOM    103  C   UNL     1       4.125 -19.436   5.284  1.00  0.00     0.200 A 
ATOM    104  F   UNL     1       4.815 -20.987   3.644  1.00  0.00    -0.200 F 
ATOM    105  F   UNL     1       2.849 -19.814   5.125  1.00  0.00    -0.200 F 
ENDBRANCH  72  95
ENDBRANCH  46  47
ENDBRANCH  39  41
ENDBRANCH  38  39
ENDBRANCH  37  38
ENDBRANCH   1  37
TORSDOF 16
