REMARK SMILES CCN(c1ccnc(C(=O)OCCOC(=O)c2ccc(-c3c4nc(c(-c5c(F)c(F)c(F)c(F)c5F)c5ccc([nH]5)c(-c5c(F)c(F)c(F)c(F)c5F)c5nc(c(-c6c(F)c(F)c(F)c(F)c6F)c6ccc3[nH]6)C=C5)C=C4)cc2)c1)S(=O)(=O)c1ccccc1
REMARK SMILES IDX 12 1 11 2 9 3 10 4 8 5 4 6 5 7 80 8 6 9 7 10 3 11 2 12 1 13
REMARK SMILES IDX 81 14 82 15 83 16 84 17 85 18 89 19 86 20 88 21 87 22 13 23
REMARK SMILES IDX 14 24 15 25 16 26 17 27 18 28 79 29 19 30 78 31 20 32 21 33
REMARK SMILES IDX 22 34 72 35 23 36 77 37 71 38 73 39 24 40 76 41 70 42 69 43
REMARK SMILES IDX 25 45 57 46 37 47 56 48 38 49 41 50 55 51 74 52 39 53 40 54
REMARK SMILES IDX 54 56 75 57 42 58 26 59 27 60 35 61 28 62 29 63 33 64 36 65
REMARK SMILES IDX 30 66 31 67 34 68 32 69 58 70 59 71 67 72 60 73 61 74 65 75
REMARK SMILES IDX 68 76 62 77 63 78 66 79 64 80 43 81 44 82 52 83 45 84 46 85
REMARK SMILES IDX 50 86 53 87 47 88 48 89 51 90 49 91
REMARK H PARENT 73 44 41 55
REMARK Flexibility Score: inf
ROOT
ATOM      1  C   UNL     1       0.707  -5.566  -5.792  1.00  0.00     0.275 C 
ENDROOT
BRANCH   1   2
ATOM      2  O   UNL     1       0.555  -4.286  -5.152  1.00  0.00    -0.457 OA
BRANCH   2   3
ATOM      3  C   UNL     1       0.055  -3.284  -5.930  1.00  0.00     0.357 C 
ATOM      4  O   UNL     1      -0.236  -3.387  -7.106  1.00  0.00    -0.244 OA
BRANCH   3   5
ATOM      5  C   UNL     1      -0.122  -2.024  -5.129  1.00  0.00     0.150 A 
ATOM      6  C   UNL     1       0.422  -0.623  -3.284  1.00  0.00     0.056 A 
ATOM      7  C   UNL     1      -0.237   0.431  -3.906  1.00  0.00     0.047 A 
ATOM      8  C   UNL     1       0.424  -1.887  -3.868  1.00  0.00     0.063 A 
ATOM      9  C   UNL     1      -0.856   0.176  -5.115  1.00  0.00     0.114 A 
ATOM     10  N   UNL     1      -0.785  -1.011  -5.752  1.00  0.00    -0.249 NA
BRANCH   6  11
ATOM     11  N   UNL     1       1.291  -0.435  -2.146  1.00  0.00    -0.266 N 
BRANCH  11  12
ATOM     12  C   UNL     1       0.709   0.374  -1.024  1.00  0.00     0.132 C 
ATOM     13  C   UNL     1       1.090  -0.209   0.323  1.00  0.00     0.028 C 
ENDBRANCH  11  12
BRANCH  11  14
ATOM     14  S   UNL     1       2.910   0.073  -2.559  1.00  0.00     0.264 S 
ATOM     15  O   UNL     1       2.842   1.481  -2.899  1.00  0.00    -0.201 OA
ATOM     16  O   UNL     1       3.800  -0.391  -1.514  1.00  0.00    -0.201 OA
BRANCH  14  17
ATOM     17  C   UNL     1       3.340  -0.813  -4.049  1.00  0.00     0.088 A 
ATOM     18  C   UNL     1       3.598  -2.188  -4.007  1.00  0.00     0.022 A 
ATOM     19  C   UNL     1       3.395  -0.118  -5.264  1.00  0.00     0.022 A 
ATOM     20  C   UNL     1       3.837  -2.876  -5.200  1.00  0.00     0.001 A 
ATOM     21  C   UNL     1       3.656  -0.809  -6.446  1.00  0.00     0.001 A 
ATOM     22  C   UNL     1       3.860  -2.189  -6.415  1.00  0.00     0.000 A 
ENDBRANCH  14  17
ENDBRANCH  11  14
ENDBRANCH   6  11
ENDBRANCH   3   5
ENDBRANCH   2   3
ENDBRANCH   1   2
BRANCH   1  23
ATOM     23  C   UNL     1      -0.461  -6.505  -5.471  1.00  0.00     0.275 C 
BRANCH  23  24
ATOM     24  O   UNL     1      -1.696  -6.046  -6.050  1.00  0.00    -0.458 OA
BRANCH  24  25
ATOM     25  C   UNL     1      -2.431  -5.231  -5.258  1.00  0.00     0.338 C 
ATOM     26  O   UNL     1      -2.191  -4.905  -4.105  1.00  0.00    -0.246 OA
BRANCH  25  27
ATOM     27  C   UNL     1      -3.516  -4.626  -6.044  1.00  0.00     0.060 A 
ATOM     28  C   UNL     1      -3.492  -3.240  -6.208  1.00  0.00     0.016 A 
ATOM     29  C   UNL     1      -4.573  -5.378  -6.555  1.00  0.00     0.016 A 
ATOM     30  C   UNL     1      -4.511  -2.592  -6.890  1.00  0.00     0.010 A 
ATOM     31  C   UNL     1      -5.606  -4.726  -7.239  1.00  0.00     0.010 A 
ATOM     32  C   UNL     1      -5.580  -3.328  -7.405  1.00  0.00    -0.014 A 
BRANCH  32  33
ATOM     33  C   UNL     1      -6.695  -2.608  -8.060  1.00  0.00     0.031 A 
ATOM     34  C   UNL     1      -8.003  -2.458  -7.343  1.00  0.00     0.074 A 
ATOM     35  C   UNL     1      -6.510  -2.040  -9.266  1.00  0.00     0.049 A 
ATOM     36  N   UNL     1      -9.128  -1.943  -7.767  1.00  0.00    -0.248 NA
ATOM     37  C   UNL     1      -8.050  -2.953  -5.958  1.00  0.00     0.031 C 
ATOM     38  C   UNL     1      -5.257  -2.055 -10.020  1.00  0.00     0.029 A 
ATOM     39  N   UNL     1      -7.375  -1.336 -10.064  1.00  0.00    -0.354 N 
ATOM     40  C   UNL     1     -10.024  -2.080  -6.717  1.00  0.00     0.074 A 
ATOM     41  C   UNL     1      -9.316  -2.731  -5.635  1.00  0.00     0.031 C 
ATOM     42  C   UNL     1      -5.433  -1.386 -11.171  1.00  0.00     0.029 A 
ATOM     43  C   UNL     1      -6.822  -0.947 -11.258  1.00  0.00     0.049 A 
ATOM     44  H   UNL     1      -8.302  -1.129  -9.805  1.00  0.00     0.167 HD
ATOM     45  C   UNL     1     -11.322  -1.697  -6.667  1.00  0.00     0.037 A 
ATOM     46  C   UNL     1      -7.386  -0.337 -12.318  1.00  0.00     0.037 A 
ATOM     47  C   UNL     1     -12.008  -1.026  -7.740  1.00  0.00     0.049 A 
ATOM     48  C   UNL     1      -8.846   0.021 -12.261  1.00  0.00     0.074 A 
ATOM     49  C   UNL     1     -13.319  -0.588  -7.788  1.00  0.00     0.029 A 
ATOM     50  N   UNL     1     -11.430  -0.694  -8.957  1.00  0.00    -0.354 N 
ATOM     51  N   UNL     1      -9.700  -0.141 -11.279  1.00  0.00    -0.248 NA
ATOM     52  C   UNL     1      -9.425   0.633 -13.465  1.00  0.00     0.031 C 
ATOM     53  C   UNL     1     -13.547  -0.028  -9.050  1.00  0.00     0.029 A 
ATOM     54  C   UNL     1     -12.365  -0.076  -9.773  1.00  0.00     0.049 A 
ATOM     55  H   UNL     1     -10.494  -0.872  -9.206  1.00  0.00     0.167 HD
ATOM     56  C   UNL     1     -10.911   0.356 -11.739  1.00  0.00     0.074 A 
ATOM     57  C   UNL     1     -10.677   0.845 -13.082  1.00  0.00     0.031 C 
ATOM     58  C   UNL     1     -12.110   0.400 -11.108  1.00  0.00     0.037 A 
BRANCH  45  59
ATOM     59  C   UNL     1     -12.094  -2.034  -5.426  1.00  0.00     0.064 A 
ATOM     60  C   UNL     1     -11.885  -1.359  -4.215  1.00  0.00     0.173 A 
ATOM     61  C   UNL     1     -13.072  -3.039  -5.458  1.00  0.00     0.173 A 
ATOM     62  F   UNL     1     -10.949  -0.402  -4.128  1.00  0.00    -0.203 F 
ATOM     63  C   UNL     1     -12.611  -1.696  -3.074  1.00  0.00     0.198 A 
ATOM     64  C   UNL     1     -13.814  -3.355  -4.323  1.00  0.00     0.198 A 
ATOM     65  F   UNL     1     -13.312  -3.714  -6.593  1.00  0.00    -0.203 F 
ATOM     66  F   UNL     1     -12.363  -1.069  -1.915  1.00  0.00    -0.200 F 
ATOM     67  C   UNL     1     -13.578  -2.688  -3.131  1.00  0.00     0.200 A 
ATOM     68  F   UNL     1     -14.754  -4.309  -4.382  1.00  0.00    -0.200 F 
ATOM     69  F   UNL     1     -14.277  -3.009  -2.033  1.00  0.00    -0.200 F 
ENDBRANCH  45  59
BRANCH  46  70
ATOM     70  C   UNL     1      -6.574  -0.065 -13.531  1.00  0.00     0.064 A 
ATOM     71  C   UNL     1      -6.244   1.245 -13.903  1.00  0.00     0.173 A 
ATOM     72  C   UNL     1      -6.106  -1.111 -14.341  1.00  0.00     0.173 A 
ATOM     73  F   UNL     1      -6.691   2.280 -13.177  1.00  0.00    -0.203 F 
ATOM     74  C   UNL     1      -5.482   1.498 -15.042  1.00  0.00     0.198 A 
ATOM     75  C   UNL     1      -5.322  -0.859 -15.463  1.00  0.00     0.198 A 
ATOM     76  F   UNL     1      -6.401  -2.383 -14.031  1.00  0.00    -0.203 F 
ATOM     77  F   UNL     1      -5.211   2.761 -15.397  1.00  0.00    -0.200 F 
ATOM     78  C   UNL     1      -5.014   0.446 -15.816  1.00  0.00     0.200 A 
ATOM     79  F   UNL     1      -4.864  -1.879 -16.201  1.00  0.00    -0.200 F 
ATOM     80  F   UNL     1      -4.275   0.690 -16.907  1.00  0.00    -0.200 F 
ENDBRANCH  46  70
BRANCH  58  81
ATOM     81  C   UNL     1     -13.253   1.012 -11.859  1.00  0.00     0.064 A 
ATOM     82  C   UNL     1     -13.880   0.337 -12.916  1.00  0.00     0.173 A 
ATOM     83  C   UNL     1     -13.752   2.272 -11.493  1.00  0.00     0.173 A 
ATOM     84  F   UNL     1     -13.428  -0.862 -13.313  1.00  0.00    -0.203 F 
ATOM     85  C   UNL     1     -14.954   0.910 -13.593  1.00  0.00     0.198 A 
ATOM     86  C   UNL     1     -14.842   2.829 -12.154  1.00  0.00     0.198 A 
ATOM     87  F   UNL     1     -13.189   2.954 -10.485  1.00  0.00    -0.203 F 
ATOM     88  F   UNL     1     -15.512   0.265 -14.627  1.00  0.00    -0.200 F 
ATOM     89  C   UNL     1     -15.438   2.151 -13.207  1.00  0.00     0.200 A 
ATOM     90  F   UNL     1     -15.315   4.024 -11.774  1.00  0.00    -0.200 F 
ATOM     91  F   UNL     1     -16.475   2.698 -13.856  1.00  0.00    -0.200 F 
ENDBRANCH  58  81
ENDBRANCH  32  33
ENDBRANCH  25  27
ENDBRANCH  24  25
ENDBRANCH  23  24
ENDBRANCH   1  23
TORSDOF 15
