REMARK SMILES COc1ccc(F)cc1[C@@H](C(=O)OCCOC(=O)c1ccc(-c2c3nc(c(-c4c(F)c(F)c(F)c(F)c4F)c4ccc([nH]4)c(-c4c(F)c(F)c(F)c(F)c4F)c4nc(c(-c5c(F)c(F)c(F)c(F)c5F)c5ccc2[nH]5)C=C4)C=C3)cc1)[N@@H+](C)CCn1ccnc1C
REMARK SMILES IDX 14 1 13 2 11 3 12 4 10 5 9 6 3 7 4 8 5 9 8 10 6 11 7 12 2 13
REMARK SMILES IDX 1 14 82 15 83 16 84 18 85 19 86 20 87 21 90 22 88 23 89 24
REMARK SMILES IDX 91 25 15 26 16 27 17 28 18 29 19 30 20 31 81 32 21 33 80 34
REMARK SMILES IDX 22 35 23 36 24 37 74 38 25 39 79 40 73 41 75 42 26 43 78 44
REMARK SMILES IDX 72 45 71 46 27 48 59 49 39 50 58 51 40 52 43 53 57 54 76 55
REMARK SMILES IDX 41 56 42 57 56 59 77 60 44 61 28 62 29 63 37 64 30 65 31 66
REMARK SMILES IDX 35 67 38 68 32 69 33 70 36 71 34 72 60 73 61 74 69 75 62 76
REMARK SMILES IDX 63 77 67 78 70 79 64 80 65 81 68 82 66 83 45 84 46 85 54 86
REMARK SMILES IDX 47 87 48 88 52 89 55 90 49 91 50 92 53 93 51 94
REMARK H PARENT 82 17 75 47 43 58
REMARK Flexibility Score: inf
ROOT
ATOM      1  C   UNL     1      -3.805   0.903  -2.644  1.00  0.00     0.274 C 
ENDROOT
BRANCH   1   2
ATOM      2  O   UNL     1      -2.768  -0.062  -2.983  1.00  0.00    -0.457 OA
BRANCH   2   3
ATOM      3  C   UNL     1      -2.086  -0.740  -2.009  1.00  0.00     0.370 C 
ATOM      4  O   UNL     1      -2.370  -0.630  -0.822  1.00  0.00    -0.245 OA
BRANCH   3   5
ATOM      5  C   UNL     1      -0.957  -1.691  -2.601  1.00  0.00     0.330 C 
BRANCH   5   6
ATOM      6  C   UNL     1       0.526  -1.238  -2.637  1.00  0.00     0.066 A 
ATOM      7  C   UNL     1       1.209  -0.818  -1.479  1.00  0.00     0.128 A 
ATOM      8  C   UNL     1       2.560  -0.412  -1.552  1.00  0.00     0.050 A 
ATOM      9  C   UNL     1       3.258  -0.418  -2.758  1.00  0.00     0.043 A 
ATOM     10  C   UNL     1       1.306  -1.318  -3.813  1.00  0.00     0.053 A 
ATOM     11  C   UNL     1       2.621  -0.881  -3.883  1.00  0.00     0.124 A 
ATOM     12  F   UNL     1       3.270  -0.936  -5.054  1.00  0.00    -0.207 F 
BRANCH   7  13
ATOM     13  O   UNL     1       0.494  -0.856  -0.313  1.00  0.00    -0.496 OA
ATOM     14  C   UNL     1       1.168  -0.433   0.868  1.00  0.00     0.278 C 
ENDBRANCH   7  13
ENDBRANCH   5   6
BRANCH   5  15
ATOM     15  N   UNL     1      -1.400  -2.347  -3.856  1.00  0.00    -0.320 N 
ATOM     16  C   UNL     1      -2.527  -3.251  -3.620  1.00  0.00     0.333 C 
ATOM     17  H   UNL     1      -0.559  -2.879  -4.083  1.00  0.00     0.348 HD
BRANCH  15  18
ATOM     18  C   UNL     1      -1.416  -1.639  -5.152  1.00  0.00     0.285 C 
BRANCH  18  19
ATOM     19  C   UNL     1      -1.563  -0.111  -5.442  1.00  0.00     0.184 C 
BRANCH  19  20
ATOM     20  N   UNL     1      -0.564   0.948  -5.416  1.00  0.00    -0.330 N 
ATOM     21  C   UNL     1      -0.188   1.522  -6.627  1.00  0.00     0.107 A 
ATOM     22  C   UNL     1      -0.273   1.923  -4.457  1.00  0.00     0.105 A 
ATOM     23  C   UNL     1       0.197   2.806  -6.355  1.00  0.00     0.131 A 
ATOM     24  N   UNL     1       0.174   3.029  -5.022  1.00  0.00    -0.242 NA
ATOM     25  C   UNL     1      -0.388   1.895  -2.982  1.00  0.00     0.087 C 
ENDBRANCH  19  20
ENDBRANCH  18  19
ENDBRANCH  15  18
ENDBRANCH   5  15
ENDBRANCH   3   5
ENDBRANCH   2   3
ENDBRANCH   1   2
BRANCH   1  26
ATOM     26  C   UNL     1      -4.273   1.667  -3.916  1.00  0.00     0.275 C 
BRANCH  26  27
ATOM     27  O   UNL     1      -4.880   0.711  -4.816  1.00  0.00    -0.458 OA
BRANCH  27  28
ATOM     28  C   UNL     1      -4.693   0.857  -6.157  1.00  0.00     0.338 C 
ATOM     29  O   UNL     1      -4.363   1.868  -6.742  1.00  0.00    -0.246 OA
BRANCH  28  30
ATOM     30  C   UNL     1      -4.756  -0.499  -6.792  1.00  0.00     0.060 A 
ATOM     31  C   UNL     1      -4.777  -1.636  -5.982  1.00  0.00     0.016 A 
ATOM     32  C   UNL     1      -4.640  -0.665  -8.178  1.00  0.00     0.016 A 
ATOM     33  C   UNL     1      -4.645  -2.908  -6.532  1.00  0.00     0.010 A 
ATOM     34  C   UNL     1      -4.624  -1.958  -8.738  1.00  0.00     0.010 A 
ATOM     35  C   UNL     1      -4.654  -3.097  -7.917  1.00  0.00    -0.014 A 
BRANCH  35  36
ATOM     36  C   UNL     1      -4.845  -4.468  -8.474  1.00  0.00     0.031 A 
ATOM     37  C   UNL     1      -3.910  -5.044  -9.497  1.00  0.00     0.074 A 
ATOM     38  C   UNL     1      -5.911  -5.195  -8.075  1.00  0.00     0.049 A 
ATOM     39  N   UNL     1      -4.118  -6.023 -10.342  1.00  0.00    -0.248 NA
ATOM     40  C   UNL     1      -2.566  -4.456  -9.578  1.00  0.00     0.031 C 
ATOM     41  C   UNL     1      -6.852  -4.817  -7.015  1.00  0.00     0.029 A 
ATOM     42  N   UNL     1      -6.400  -6.400  -8.523  1.00  0.00    -0.354 N 
ATOM     43  C   UNL     1      -2.958  -6.128 -11.099  1.00  0.00     0.074 A 
ATOM     44  C   UNL     1      -2.032  -5.139 -10.586  1.00  0.00     0.031 C 
ATOM     45  C   UNL     1      -7.781  -5.769  -6.880  1.00  0.00     0.029 A 
ATOM     46  C   UNL     1      -7.599  -6.742  -7.944  1.00  0.00     0.049 A 
ATOM     47  H   UNL     1      -5.939  -6.959  -9.190  1.00  0.00     0.167 HD
ATOM     48  C   UNL     1      -2.717  -6.962 -12.139  1.00  0.00     0.037 A 
ATOM     49  C   UNL     1      -8.522  -7.659  -8.286  1.00  0.00     0.037 A 
ATOM     50  C   UNL     1      -3.645  -7.965 -12.601  1.00  0.00     0.049 A 
ATOM     51  C   UNL     1      -8.290  -8.499  -9.501  1.00  0.00     0.074 A 
ATOM     52  C   UNL     1      -3.516  -8.841 -13.666  1.00  0.00     0.029 A 
ATOM     53  N   UNL     1      -4.870  -8.238 -12.009  1.00  0.00    -0.354 N 
ATOM     54  N   UNL     1      -7.261  -8.499 -10.310  1.00  0.00    -0.248 NA
ATOM     55  C   UNL     1      -9.356  -9.437  -9.873  1.00  0.00     0.031 C 
ATOM     56  C   UNL     1      -4.675  -9.619 -13.739  1.00  0.00     0.029 A 
ATOM     57  C   UNL     1      -5.509  -9.260 -12.692  1.00  0.00     0.049 A 
ATOM     58  H   UNL     1      -5.233  -7.773 -11.221  1.00  0.00     0.167 HD
ATOM     59  C   UNL     1      -7.546  -9.441 -11.284  1.00  0.00     0.074 A 
ATOM     60  C   UNL     1      -8.845  -9.998 -10.962  1.00  0.00     0.031 C 
ATOM     61  C   UNL     1      -6.796  -9.808 -12.349  1.00  0.00     0.037 A 
BRANCH  48  62
ATOM     62  C   UNL     1      -1.432  -6.805 -12.900  1.00  0.00     0.064 A 
ATOM     63  C   UNL     1      -1.450  -6.267 -14.198  1.00  0.00     0.173 A 
ATOM     64  C   UNL     1      -0.208  -7.269 -12.403  1.00  0.00     0.173 A 
ATOM     65  F   UNL     1      -2.599  -5.819 -14.727  1.00  0.00    -0.203 F 
ATOM     66  C   UNL     1      -0.295  -6.216 -14.974  1.00  0.00     0.198 A 
ATOM     67  C   UNL     1       0.952  -7.196 -13.174  1.00  0.00     0.198 A 
ATOM     68  F   UNL     1      -0.134  -7.785 -11.167  1.00  0.00    -0.203 F 
ATOM     69  F   UNL     1      -0.348  -5.732 -16.223  1.00  0.00    -0.200 F 
ATOM     70  C   UNL     1       0.905  -6.679 -14.461  1.00  0.00     0.200 A 
ATOM     71  F   UNL     1       2.117  -7.629 -12.672  1.00  0.00    -0.200 F 
ATOM     72  F   UNL     1       2.018  -6.629 -15.207  1.00  0.00    -0.200 F 
ENDBRANCH  48  62
BRANCH  49  73
ATOM     73  C   UNL     1      -9.786  -7.728  -7.509  1.00  0.00     0.064 A 
ATOM     74  C   UNL     1     -10.720  -6.679  -7.549  1.00  0.00     0.173 A 
ATOM     75  C   UNL     1     -10.033  -8.790  -6.631  1.00  0.00     0.173 A 
ATOM     76  F   UNL     1     -10.520  -5.633  -8.366  1.00  0.00    -0.203 F 
ATOM     77  C   UNL     1     -11.825  -6.666  -6.704  1.00  0.00     0.198 A 
ATOM     78  C   UNL     1     -11.157  -8.791  -5.808  1.00  0.00     0.198 A 
ATOM     79  F   UNL     1      -9.178  -9.821  -6.572  1.00  0.00    -0.203 F 
ATOM     80  F   UNL     1     -12.661  -5.619  -6.712  1.00  0.00    -0.200 F 
ATOM     81  C   UNL     1     -12.043  -7.723  -5.833  1.00  0.00     0.200 A 
ATOM     82  F   UNL     1     -11.375  -9.820  -4.979  1.00  0.00    -0.200 F 
ATOM     83  F   UNL     1     -13.102  -7.707  -5.012  1.00  0.00    -0.200 F 
ENDBRANCH  49  73
BRANCH  61  84
ATOM     84  C   UNL     1      -7.335 -10.894 -13.225  1.00  0.00     0.064 A 
ATOM     85  C   UNL     1      -6.804 -12.189 -13.146  1.00  0.00     0.173 A 
ATOM     86  C   UNL     1      -8.315 -10.634 -14.190  1.00  0.00     0.173 A 
ATOM     87  F   UNL     1      -5.862 -12.479 -12.236  1.00  0.00    -0.203 F 
ATOM     88  C   UNL     1      -7.224 -13.185 -14.021  1.00  0.00     0.198 A 
ATOM     89  C   UNL     1      -8.747 -11.638 -15.052  1.00  0.00     0.198 A 
ATOM     90  F   UNL     1      -8.862  -9.412 -14.286  1.00  0.00    -0.203 F 
ATOM     91  F   UNL     1      -6.685 -14.409 -13.949  1.00  0.00    -0.200 F 
ATOM     92  C   UNL     1      -8.194 -12.908 -14.973  1.00  0.00     0.200 A 
ATOM     93  F   UNL     1      -9.698 -11.376 -15.959  1.00  0.00    -0.200 F 
ATOM     94  F   UNL     1      -8.599 -13.869 -15.816  1.00  0.00    -0.200 F 
ENDBRANCH  61  84
ENDBRANCH  35  36
ENDBRANCH  28  30
ENDBRANCH  27  28
ENDBRANCH  26  27
ENDBRANCH   1  26
TORSDOF 17
