REMARK SMILES CC(C)CCCNC(=O)N1CC[C@H](C(=O)OCCOC(=O)c2ccc(-c3c4nc(c(-c5c(F)c(F)c(F)c(F)c5F)c5ccc([nH]5)c(-c5c(F)c(F)c(F)c(F)c5F)c5nc(c(-c6c(F)c(F)c(F)c(F)c6F)c6ccc3[nH]6)C=C5)C=C4)cc2)[C@H]1C
REMARK SMILES IDX 16 1 14 2 15 3 13 4 10 5 11 6 85 7 12 8 86 9 8 10 7 11 9 13
REMARK SMILES IDX 6 14 5 15 4 16 2 17 1 18 3 19 17 20 18 21 19 22 20 23 21 24
REMARK SMILES IDX 22 25 23 26 84 27 24 28 83 29 25 30 26 31 27 32 77 33 28 34
REMARK SMILES IDX 82 35 76 36 78 37 29 38 81 39 75 40 74 41 30 43 62 44 42 45
REMARK SMILES IDX 61 46 43 47 46 48 60 49 79 50 44 51 45 52 59 54 80 55 47 56
REMARK SMILES IDX 31 57 32 58 40 59 33 60 34 61 38 62 41 63 35 64 36 65 39 66
REMARK SMILES IDX 37 67 63 68 64 69 72 70 65 71 66 72 70 73 73 74 67 75 68 76
REMARK SMILES IDX 71 77 69 78 48 79 49 80 57 81 50 82 51 83 55 84 58 85 52 86
REMARK SMILES IDX 53 87 56 88 54 89
REMARK H PARENT 7 12 78 42 46 53
REMARK Flexibility Score: inf
ROOT
ATOM      1  O   UNL     1      -1.957   8.328   3.096  1.00  0.00    -0.462 OA
ENDROOT
BRANCH   1   2
ATOM      2  C   UNL     1      -1.333   7.148   2.848  1.00  0.00     0.311 C 
ATOM      3  O   UNL     1      -0.138   7.028   2.600  1.00  0.00    -0.252 OA
BRANCH   2   4
ATOM      4  C   UNL     1      -2.210   5.977   3.200  1.00  0.00     0.123 C 
ATOM      5  N   UNL     1      -2.831   4.722   1.304  1.00  0.00    -0.321 N 
ATOM      6  C   UNL     1      -3.945   5.610   1.604  1.00  0.00     0.122 C 
ATOM      7  C   UNL     1      -1.818   4.748   2.380  1.00  0.00     0.098 C 
ATOM      8  C   UNL     1      -3.718   6.088   3.020  1.00  0.00     0.039 C 
ATOM      9  C   UNL     1      -1.798   3.539   3.334  1.00  0.00     0.032 C 
BRANCH   5  10
ATOM     10  C   UNL     1      -2.571   4.487  -0.027  1.00  0.00     0.317 C 
ATOM     11  N   UNL     1      -1.684   3.523  -0.365  1.00  0.00    -0.338 N 
ATOM     12  H   UNL     1      -1.224   3.627  -1.229  1.00  0.00     0.165 HD
ATOM     13  O   UNL     1      -3.116   5.113  -0.936  1.00  0.00    -0.249 OA
BRANCH  11  14
ATOM     14  C   UNL     1      -1.344   2.362   0.411  1.00  0.00     0.117 C 
BRANCH  14  15
ATOM     15  C   UNL     1      -1.663   1.044  -0.273  1.00  0.00     0.022 C 
BRANCH  15  16
ATOM     16  C   UNL     1      -0.839   0.737  -1.514  1.00  0.00     0.005 C 
BRANCH  16  17
ATOM     17  C   UNL     1       0.687   0.818  -1.335  1.00  0.00    -0.017 C 
ATOM     18  C   UNL     1       1.198  -0.062  -0.192  1.00  0.00     0.007 C 
ATOM     19  C   UNL     1       1.360   0.422  -2.649  1.00  0.00     0.007 C 
ENDBRANCH  16  17
ENDBRANCH  15  16
ENDBRANCH  14  15
ENDBRANCH  11  14
ENDBRANCH   5  10
ENDBRANCH   2   4
ENDBRANCH   1   2
BRANCH   1  20
ATOM     20  C   UNL     1      -1.060   9.411   3.367  1.00  0.00     0.274 C 
BRANCH  20  21
ATOM     21  C   UNL     1      -0.887   9.615   4.880  1.00  0.00     0.275 C 
BRANCH  21  22
ATOM     22  O   UNL     1      -0.748   8.388   5.632  1.00  0.00    -0.458 OA
BRANCH  22  23
ATOM     23  C   UNL     1      -1.907   7.877   6.123  1.00  0.00     0.338 C 
ATOM     24  O   UNL     1      -3.032   8.317   5.931  1.00  0.00    -0.246 OA
BRANCH  23  25
ATOM     25  C   UNL     1      -1.674   6.599   6.842  1.00  0.00     0.060 A 
ATOM     26  C   UNL     1      -2.636   5.586   6.707  1.00  0.00     0.016 A 
ATOM     27  C   UNL     1      -0.552   6.381   7.645  1.00  0.00     0.016 A 
ATOM     28  C   UNL     1      -2.456   4.346   7.319  1.00  0.00     0.010 A 
ATOM     29  C   UNL     1      -0.394   5.151   8.300  1.00  0.00     0.010 A 
ATOM     30  C   UNL     1      -1.342   4.126   8.136  1.00  0.00    -0.014 A 
BRANCH  30  31
ATOM     31  C   UNL     1      -1.256   2.863   8.909  1.00  0.00     0.031 A 
ATOM     32  C   UNL     1      -1.843   2.817  10.289  1.00  0.00     0.074 A 
ATOM     33  C   UNL     1      -0.724   1.755   8.362  1.00  0.00     0.049 A 
ATOM     34  N   UNL     1      -1.900   1.823  11.138  1.00  0.00    -0.248 NA
ATOM     35  C   UNL     1      -2.462   4.061  10.773  1.00  0.00     0.031 C 
ATOM     36  C   UNL     1      -0.183   1.659   7.008  1.00  0.00     0.029 A 
ATOM     37  N   UNL     1      -0.555   0.494   8.881  1.00  0.00    -0.354 N 
ATOM     38  C   UNL     1      -2.565   2.318  12.252  1.00  0.00     0.074 A 
ATOM     39  C   UNL     1      -2.870   3.707  11.982  1.00  0.00     0.031 C 
ATOM     40  C   UNL     1       0.264   0.408   6.804  1.00  0.00     0.029 A 
ATOM     41  C   UNL     1       0.073  -0.376   8.024  1.00  0.00     0.049 A 
ATOM     42  H   UNL     1      -0.857   0.238   9.783  1.00  0.00     0.167 HD
ATOM     43  C   UNL     1      -2.895   1.669  13.394  1.00  0.00     0.037 A 
ATOM     44  C   UNL     1       0.467  -1.651   8.214  1.00  0.00     0.037 A 
ATOM     45  C   UNL     1      -2.566   0.294  13.667  1.00  0.00     0.049 A 
ATOM     46  C   UNL     1       0.183  -2.318   9.539  1.00  0.00     0.074 A 
ATOM     47  C   UNL     1      -2.842  -0.451  14.799  1.00  0.00     0.029 A 
ATOM     48  N   UNL     1      -1.871  -0.538  12.800  1.00  0.00    -0.354 N 
ATOM     49  N   UNL     1      -0.460  -1.850  10.582  1.00  0.00    -0.248 NA
ATOM     50  C   UNL     1       0.679  -3.691   9.712  1.00  0.00     0.031 C 
ATOM     51  C   UNL     1      -2.259  -1.713  14.644  1.00  0.00     0.029 A 
ATOM     52  C   UNL     1      -1.680  -1.779  13.387  1.00  0.00     0.049 A 
ATOM     53  H   UNL     1      -1.560  -0.284  11.902  1.00  0.00     0.167 HD
ATOM     54  C   UNL     1      -0.471  -2.877  11.519  1.00  0.00     0.074 A 
ATOM     55  C   UNL     1       0.214  -3.999  10.914  1.00  0.00     0.031 C 
ATOM     56  C   UNL     1      -1.001  -2.889  12.768  1.00  0.00     0.037 A 
BRANCH  43  57
ATOM     57  C   UNL     1      -3.607   2.458  14.454  1.00  0.00     0.064 A 
ATOM     58  C   UNL     1      -4.936   2.880  14.297  1.00  0.00     0.173 A 
ATOM     59  C   UNL     1      -2.955   2.784  15.653  1.00  0.00     0.173 A 
ATOM     60  F   UNL     1      -5.601   2.609  13.163  1.00  0.00    -0.203 F 
ATOM     61  C   UNL     1      -5.574   3.623  15.287  1.00  0.00     0.198 A 
ATOM     62  C   UNL     1      -3.606   3.500  16.654  1.00  0.00     0.198 A 
ATOM     63  F   UNL     1      -1.684   2.404  15.857  1.00  0.00    -0.203 F 
ATOM     64  F   UNL     1      -6.826   4.062  15.091  1.00  0.00    -0.200 F 
ATOM     65  C   UNL     1      -4.911   3.927  16.466  1.00  0.00     0.200 A 
ATOM     66  F   UNL     1      -2.967   3.782  17.798  1.00  0.00    -0.200 F 
ATOM     67  F   UNL     1      -5.528   4.640  17.419  1.00  0.00    -0.200 F 
ENDBRANCH  43  57
BRANCH  44  68
ATOM     68  C   UNL     1       1.199  -2.381   7.142  1.00  0.00     0.064 A 
ATOM     69  C   UNL     1       0.646  -3.510   6.519  1.00  0.00     0.173 A 
ATOM     70  C   UNL     1       2.486  -1.987   6.745  1.00  0.00     0.173 A 
ATOM     71  F   UNL     1      -0.569  -3.946   6.881  1.00  0.00    -0.203 F 
ATOM     72  C   UNL     1       1.361  -4.228   5.561  1.00  0.00     0.198 A 
ATOM     73  C   UNL     1       3.186  -2.686   5.763  1.00  0.00     0.198 A 
ATOM     74  F   UNL     1       3.067  -0.919   7.312  1.00  0.00    -0.203 F 
ATOM     75  F   UNL     1       0.831  -5.335   5.024  1.00  0.00    -0.200 F 
ATOM     76  C   UNL     1       2.627  -3.812   5.179  1.00  0.00     0.200 A 
ATOM     77  F   UNL     1       4.404  -2.272   5.390  1.00  0.00    -0.200 F 
ATOM     78  F   UNL     1       3.313  -4.502   4.258  1.00  0.00    -0.200 F 
ENDBRANCH  44  68
BRANCH  56  79
ATOM     79  C   UNL     1      -0.896  -4.168  13.553  1.00  0.00     0.064 A 
ATOM     80  C   UNL     1       0.329  -4.630  14.056  1.00  0.00     0.173 A 
ATOM     81  C   UNL     1      -2.048  -4.917  13.844  1.00  0.00     0.173 A 
ATOM     82  F   UNL     1       1.462  -3.960  13.796  1.00  0.00    -0.203 F 
ATOM     83  C   UNL     1       0.401  -5.808  14.796  1.00  0.00     0.198 A 
ATOM     84  C   UNL     1      -1.977  -6.074  14.615  1.00  0.00     0.198 A 
ATOM     85  F   UNL     1      -3.247  -4.516  13.395  1.00  0.00    -0.203 F 
ATOM     86  F   UNL     1       1.590  -6.257  15.222  1.00  0.00    -0.200 F 
ATOM     87  C   UNL     1      -0.752  -6.523  15.083  1.00  0.00     0.200 A 
ATOM     88  F   UNL     1      -3.095  -6.753  14.905  1.00  0.00    -0.200 F 
ATOM     89  F   UNL     1      -0.681  -7.650  15.805  1.00  0.00    -0.200 F 
ENDBRANCH  56  79
ENDBRANCH  30  31
ENDBRANCH  23  25
ENDBRANCH  22  23
ENDBRANCH  21  22
ENDBRANCH  20  21
ENDBRANCH   1  20
TORSDOF 16
