REMARK SMILES C/C=C/C=C/C=C/C(=O)O[C@H]1C=C(C=O)[C@@](O)(C(=O)OCCOC(=O)c2ccc(-c3c4nc(c(-c5c(F)c(F)c(F)c(F)c5F)c5ccc([nH]5)c(-c5c(F)c(F)c(F)c(F)c5F)c5nc(c(-c6c(F)c(F)c(F)c(F)c6F)c6ccc3[nH]6)C=C5)C=C4)cc2)[C@]2(C)CCCC(C)(C)[C@@H]12
REMARK SMILES IDX 20 1 18 2 19 3 16 4 11 5 12 6 97 7 13 8 89 9 94 10 91 11
REMARK SMILES IDX 90 12 93 13 95 14 96 15 92 16 10 17 8 18 9 19 7 20 6 21 5 22
REMARK SMILES IDX 4 23 3 24 1 25 2 26 14 27 15 28 17 29 21 31 22 32 23 33
REMARK SMILES IDX 24 34 25 35 26 36 27 37 88 38 28 39 87 40 29 41 30 42 31 43
REMARK SMILES IDX 81 44 32 45 86 46 80 47 82 48 33 49 85 50 79 51 78 52 34 54
REMARK SMILES IDX 66 55 46 56 65 57 47 58 50 59 64 60 83 61 48 62 49 63 63 65
REMARK SMILES IDX 84 66 51 67 35 68 36 69 44 70 37 71 38 72 42 73 45 74 39 75
REMARK SMILES IDX 40 76 43 77 41 78 67 79 68 80 76 81 69 82 70 83 74 84 77 85
REMARK SMILES IDX 71 86 72 87 75 88 73 89 52 90 53 91 61 92 54 93 55 94 59 95
REMARK SMILES IDX 62 96 56 97 57 98 60 99 58 100
REMARK H PARENT 17 30 82 53 50 64
REMARK Flexibility Score: inf
ROOT
ATOM      1  O   UNL     1      -3.679  -8.053   7.868  1.00  0.00    -0.460 OA
ENDROOT
BRANCH   1   2
ATOM      2  C   UNL     1      -3.489  -7.221   6.821  1.00  0.00     0.343 C 
ATOM      3  O   UNL     1      -3.366  -7.619   5.657  1.00  0.00    -0.248 OA
BRANCH   2   4
ATOM      4  C   UNL     1      -3.306  -5.701   7.130  1.00  0.00     0.196 C 
ATOM      5  C   UNL     1      -2.850  -2.831   7.349  1.00  0.00     0.204 C 
ATOM      6  C   UNL     1      -2.505  -3.799   8.473  1.00  0.00     0.028 C 
ATOM      7  C   UNL     1      -3.938  -3.365   6.327  1.00  0.00     0.050 C 
ATOM      8  C   UNL     1      -2.735  -5.131   8.396  1.00  0.00     0.035 C 
ATOM      9  C   UNL     1      -4.545  -4.769   6.764  1.00  0.00     0.019 C 
ATOM     10  C   UNL     1      -4.948  -2.352   5.667  1.00  0.00    -0.028 C 
ATOM     11  C   UNL     1      -5.380  -5.334   5.600  1.00  0.00     0.011 C 
ATOM     12  C   UNL     1      -5.499  -4.674   7.997  1.00  0.00     0.016 C 
ATOM     13  C   UNL     1      -5.751  -3.088   4.568  1.00  0.00     0.007 C 
ATOM     14  C   UNL     1      -5.931  -1.702   6.662  1.00  0.00     0.011 C 
ATOM     15  C   UNL     1      -4.186  -1.242   4.908  1.00  0.00     0.011 C 
ATOM     16  C   UNL     1      -6.416  -4.350   5.068  1.00  0.00     0.001 C 
BRANCH   5  17
ATOM     17  O   UNL     1      -3.256  -1.590   7.949  1.00  0.00    -0.455 OA
BRANCH  17  18
ATOM     18  C   UNL     1      -2.311  -0.645   8.203  1.00  0.00     0.331 C 
ATOM     19  O   UNL     1      -2.079  -0.210   9.320  1.00  0.00    -0.247 OA
BRANCH  18  20
ATOM     20  C   UNL     1      -1.906   0.096   6.992  1.00  0.00     0.093 C 
ATOM     21  C   UNL     1      -0.989  -0.360   6.129  1.00  0.00     0.007 C 
BRANCH  21  22
ATOM     22  C   UNL     1      -0.755   0.267   4.846  1.00  0.00     0.000 C 
ATOM     23  C   UNL     1      -0.141  -0.375   3.839  1.00  0.00    -0.000 C 
BRANCH  23  24
ATOM     24  C   UNL     1       0.025   0.198   2.523  1.00  0.00    -0.005 C 
ATOM     25  C   UNL     1       0.754   0.088   0.131  1.00  0.00     0.035 C 
ATOM     26  C   UNL     1       0.571  -0.479   1.502  1.00  0.00    -0.030 C 
ENDBRANCH  23  24
ENDBRANCH  21  22
ENDBRANCH  18  20
ENDBRANCH  17  18
ENDBRANCH   5  17
BRANCH   8  27
ATOM     27  C   UNL     1      -2.667  -5.903   9.655  1.00  0.00     0.259 C 
ATOM     28  O   UNL     1      -2.895  -5.401  10.750  1.00  0.00    -0.298 OA
ENDBRANCH   8  27
BRANCH   4  29
ATOM     29  O   UNL     1      -2.228  -5.448   6.145  1.00  0.00    -0.373 OA
ATOM     30  H   UNL     1      -1.966  -4.515   6.186  1.00  0.00     0.212 HD
ENDBRANCH   4  29
ENDBRANCH   2   4
ENDBRANCH   1   2
BRANCH   1  31
ATOM     31  C   UNL     1      -3.425  -9.446   7.551  1.00  0.00     0.274 C 
BRANCH  31  32
ATOM     32  C   UNL     1      -4.684 -10.231   7.177  1.00  0.00     0.275 C 
BRANCH  32  33
ATOM     33  O   UNL     1      -5.344  -9.667   6.025  1.00  0.00    -0.458 OA
BRANCH  33  34
ATOM     34  C   UNL     1      -6.683  -9.487   6.148  1.00  0.00     0.338 C 
ATOM     35  O   UNL     1      -7.354  -9.763   7.128  1.00  0.00    -0.246 OA
BRANCH  34  36
ATOM     36  C   UNL     1      -7.277  -8.810   4.962  1.00  0.00     0.060 A 
ATOM     37  C   UNL     1      -6.516  -8.044   4.091  1.00  0.00     0.016 A 
ATOM     38  C   UNL     1      -8.670  -8.776   4.834  1.00  0.00     0.016 A 
ATOM     39  C   UNL     1      -7.150  -7.081   3.288  1.00  0.00     0.010 A 
ATOM     40  C   UNL     1      -9.292  -7.878   3.948  1.00  0.00     0.010 A 
ATOM     41  C   UNL     1      -8.550  -6.907   3.258  1.00  0.00    -0.014 A 
BRANCH  41  42
ATOM     42  C   UNL     1      -9.228  -5.660   2.697  1.00  0.00     0.031 A 
ATOM     43  C   UNL     1     -10.396  -5.005   3.443  1.00  0.00     0.074 A 
ATOM     44  C   UNL     1      -8.794  -4.980   1.611  1.00  0.00     0.049 A 
ATOM     45  N   UNL     1     -11.303  -4.159   3.002  1.00  0.00    -0.248 NA
ATOM     46  C   UNL     1     -10.572  -5.351   4.862  1.00  0.00     0.031 C 
ATOM     47  C   UNL     1      -7.632  -5.309   0.792  1.00  0.00     0.029 A 
ATOM     48  N   UNL     1      -9.274  -3.820   1.029  1.00  0.00    -0.354 N 
ATOM     49  C   UNL     1     -12.220  -3.991   4.039  1.00  0.00     0.074 A 
ATOM     50  C   UNL     1     -11.739  -4.789   5.146  1.00  0.00     0.031 C 
ATOM     51  C   UNL     1      -7.416  -4.326  -0.093  1.00  0.00     0.029 A 
ATOM     52  C   UNL     1      -8.527  -3.382  -0.039  1.00  0.00     0.049 A 
ATOM     53  H   UNL     1     -10.078  -3.352   1.349  1.00  0.00     0.167 HD
ATOM     54  C   UNL     1     -13.358  -3.251   4.070  1.00  0.00     0.037 A 
ATOM     55  C   UNL     1      -8.727  -2.393  -0.936  1.00  0.00     0.037 A 
ATOM     56  C   UNL     1     -13.764  -2.311   3.054  1.00  0.00     0.049 A 
ATOM     57  C   UNL     1      -9.998  -1.591  -0.913  1.00  0.00     0.074 A 
ATOM     58  C   UNL     1     -14.904  -1.521   3.008  1.00  0.00     0.029 A 
ATOM     59  N   UNL     1     -13.014  -1.980   1.939  1.00  0.00    -0.354 N 
ATOM     60  N   UNL     1     -10.979  -1.617  -0.049  1.00  0.00    -0.248 NA
ATOM     61  C   UNL     1     -10.210  -0.660  -2.034  1.00  0.00     0.031 C 
ATOM     62  C   UNL     1     -14.851  -0.727   1.856  1.00  0.00     0.029 A 
ATOM     63  C   UNL     1     -13.660  -0.996   1.205  1.00  0.00     0.049 A 
ATOM     64  H   UNL     1     -12.148  -2.385   1.701  1.00  0.00     0.167 HD
ATOM     65  C   UNL     1     -11.923  -0.712  -0.520  1.00  0.00     0.074 A 
ATOM     66  C   UNL     1     -11.386  -0.131  -1.730  1.00  0.00     0.031 C 
ATOM     67  C   UNL     1     -13.135  -0.407   0.003  1.00  0.00     0.037 A 
BRANCH  54  68
ATOM     68  C   UNL     1     -14.303  -3.449   5.225  1.00  0.00     0.064 A 
ATOM     69  C   UNL     1     -14.056  -2.940   6.506  1.00  0.00     0.173 A 
ATOM     70  C   UNL     1     -15.530  -4.101   5.006  1.00  0.00     0.173 A 
ATOM     71  F   UNL     1     -12.900  -2.314   6.772  1.00  0.00    -0.203 F 
ATOM     72  C   UNL     1     -14.991  -3.093   7.530  1.00  0.00     0.198 A 
ATOM     73  C   UNL     1     -16.474  -4.224   6.021  1.00  0.00     0.198 A 
ATOM     74  F   UNL     1     -15.827  -4.592   3.793  1.00  0.00    -0.203 F 
ATOM     75  F   UNL     1     -14.718  -2.631   8.758  1.00  0.00    -0.200 F 
ATOM     76  C   UNL     1     -16.201  -3.726   7.285  1.00  0.00     0.200 A 
ATOM     77  F   UNL     1     -17.651  -4.816   5.773  1.00  0.00    -0.200 F 
ATOM     78  F   UNL     1     -17.104  -3.856   8.267  1.00  0.00    -0.200 F 
ENDBRANCH  54  68
BRANCH  55  79
ATOM     79  C   UNL     1      -7.727  -2.165  -2.015  1.00  0.00     0.064 A 
ATOM     80  C   UNL     1      -6.976  -0.983  -2.066  1.00  0.00     0.173 A 
ATOM     81  C   UNL     1      -7.507  -3.121  -3.018  1.00  0.00     0.173 A 
ATOM     82  F   UNL     1      -7.183  -0.018  -1.157  1.00  0.00    -0.203 F 
ATOM     83  C   UNL     1      -6.034  -0.773  -3.071  1.00  0.00     0.198 A 
ATOM     84  C   UNL     1      -6.539  -2.928  -3.998  1.00  0.00     0.198 A 
ATOM     85  F   UNL     1      -8.214  -4.261  -3.026  1.00  0.00    -0.203 F 
ATOM     86  F   UNL     1      -5.354   0.381  -3.120  1.00  0.00    -0.200 F 
ATOM     87  C   UNL     1      -5.806  -1.752  -4.027  1.00  0.00     0.200 A 
ATOM     88  F   UNL     1      -6.311  -3.885  -4.908  1.00  0.00    -0.200 F 
ATOM     89  F   UNL     1      -4.884  -1.560  -4.980  1.00  0.00    -0.200 F 
ENDBRANCH  55  79
BRANCH  67  90
ATOM     90  C   UNL     1     -13.952   0.629  -0.711  1.00  0.00     0.064 A 
ATOM     91  C   UNL     1     -14.589   0.350  -1.930  1.00  0.00     0.173 A 
ATOM     92  C   UNL     1     -14.096   1.917  -0.175  1.00  0.00     0.173 A 
ATOM     93  F   UNL     1     -14.467  -0.861  -2.493  1.00  0.00    -0.203 F 
ATOM     94  C   UNL     1     -15.313   1.333  -2.601  1.00  0.00     0.198 A 
ATOM     95  C   UNL     1     -14.840   2.891  -0.837  1.00  0.00     0.198 A 
ATOM     96  F   UNL     1     -13.510   2.234   0.989  1.00  0.00    -0.203 F 
ATOM     97  F   UNL     1     -15.868   1.060  -3.790  1.00  0.00    -0.200 F 
ATOM     98  C   UNL     1     -15.440   2.601  -2.053  1.00  0.00     0.200 A 
ATOM     99  F   UNL     1     -14.966   4.114  -0.304  1.00  0.00    -0.200 F 
ATOM    100  F   UNL     1     -16.129   3.549  -2.705  1.00  0.00    -0.200 F 
ENDBRANCH  67  90
ENDBRANCH  41  42
ENDBRANCH  34  36
ENDBRANCH  33  34
ENDBRANCH  32  33
ENDBRANCH  31  32
ENDBRANCH   1  31
TORSDOF 18
