REMARK SMILES C[C@H](C(=O)OCCOC(=O)c1ccc(-c2c3nc(c(-c4c(F)c(F)c(F)c(F)c4F)c4ccc([nH]4)c(-c4c(F)c(F)c(F)c(F)c4F)c4nc(c(-c5c(F)c(F)c(F)c(F)c5F)c5ccc2[nH]5)C=C4)C=C3)cc1)[C@H](C)[N@H+]1CC[C@H]([NH+]2CCCCC2)C1
REMARK SMILES IDX 6 1 5 2 3 3 4 4 2 5 1 6 74 7 75 8 76 9 77 10 86 11 78 13
REMARK SMILES IDX 79 14 80 15 81 16 85 17 82 19 84 20 83 21 7 22 8 23 9 24
REMARK SMILES IDX 10 25 11 26 12 27 73 28 13 29 72 30 14 31 15 32 16 33 66 34
REMARK SMILES IDX 17 35 71 36 65 37 67 38 18 39 70 40 64 41 63 42 19 44 51 45
REMARK SMILES IDX 31 46 50 47 32 48 35 49 49 50 68 51 33 52 34 53 48 55 69 56
REMARK SMILES IDX 36 57 20 58 21 59 29 60 22 61 23 62 27 63 30 64 24 65 25 66
REMARK SMILES IDX 28 67 26 68 52 69 53 70 61 71 54 72 55 73 59 74 62 75 56 76
REMARK SMILES IDX 57 77 60 78 58 79 37 80 38 81 46 82 39 83 40 84 44 85 47 86
REMARK SMILES IDX 41 87 42 88 45 89 43 90
REMARK H PARENT 76 12 80 18 67 43 35 54
REMARK Flexibility Score: inf
ROOT
ATOM      1  C   UNL     1      -1.803  -3.128  -3.693  1.00  0.00     0.274 C 
ENDROOT
BRANCH   1   2
ATOM      2  O   UNL     1      -2.462  -2.095  -2.904  1.00  0.00    -0.462 OA
BRANCH   2   3
ATOM      3  C   UNL     1      -1.795  -1.766  -1.777  1.00  0.00     0.314 C 
ATOM      4  O   UNL     1      -0.628  -2.052  -1.636  1.00  0.00    -0.252 OA
BRANCH   3   5
ATOM      5  C   UNL     1      -2.541  -1.043  -0.681  1.00  0.00     0.154 C 
ATOM      6  C   UNL     1      -4.050  -1.205  -0.734  1.00  0.00     0.026 C 
BRANCH   5   7
ATOM      7  C   UNL     1      -1.949  -1.421   0.752  1.00  0.00     0.195 C 
ATOM      8  C   UNL     1      -0.946  -0.287   1.107  1.00  0.00     0.076 C 
BRANCH   7   9
ATOM      9  N   UNL     1      -1.297  -2.738   0.910  1.00  0.00    -0.327 N 
ATOM     10  C   UNL     1      -0.798  -3.119   2.229  1.00  0.00     0.269 C 
ATOM     11  C   UNL     1      -1.964  -3.954   0.424  1.00  0.00     0.328 C 
ATOM     12  H   UNL     1      -0.543  -2.471   0.276  1.00  0.00     0.348 HD
ATOM     13  C   UNL     1      -0.104  -4.442   1.911  1.00  0.00     0.132 C 
ATOM     14  C   UNL     1      -1.003  -5.112   0.853  1.00  0.00     0.245 C 
BRANCH  14  15
ATOM     15  N   UNL     1      -0.309  -5.867  -0.233  1.00  0.00    -0.328 N 
ATOM     16  C   UNL     1       0.518  -5.005  -1.092  1.00  0.00     0.262 C 
ATOM     17  C   UNL     1       0.481  -6.995   0.287  1.00  0.00     0.262 C 
ATOM     18  H   UNL     1      -1.053  -6.249  -0.816  1.00  0.00     0.348 HD
ATOM     19  C   UNL     1       1.250  -5.745  -2.215  1.00  0.00     0.062 C 
ATOM     20  C   UNL     1       1.164  -7.793  -0.832  1.00  0.00     0.062 C 
ATOM     21  C   UNL     1       2.067  -6.900  -1.671  1.00  0.00     0.012 C 
ENDBRANCH  14  15
ENDBRANCH   7   9
ENDBRANCH   5   7
ENDBRANCH   3   5
ENDBRANCH   2   3
ENDBRANCH   1   2
BRANCH   1  22
ATOM     22  C   UNL     1      -0.449  -2.787  -4.385  1.00  0.00     0.275 C 
BRANCH  22  23
ATOM     23  O   UNL     1       0.730  -2.929  -3.539  1.00  0.00    -0.458 OA
BRANCH  23  24
ATOM     24  C   UNL     1       1.408  -1.793  -3.212  1.00  0.00     0.338 C 
ATOM     25  O   UNL     1       1.223  -0.681  -3.684  1.00  0.00    -0.246 OA
BRANCH  24  26
ATOM     26  C   UNL     1       2.367  -2.016  -2.087  1.00  0.00     0.060 A 
ATOM     27  C   UNL     1       1.987  -1.656  -0.790  1.00  0.00     0.016 A 
ATOM     28  C   UNL     1       3.688  -2.401  -2.298  1.00  0.00     0.016 A 
ATOM     29  C   UNL     1       2.871  -1.654   0.281  1.00  0.00     0.010 A 
ATOM     30  C   UNL     1       4.597  -2.404  -1.216  1.00  0.00     0.010 A 
ATOM     31  C   UNL     1       4.202  -1.999   0.079  1.00  0.00    -0.014 A 
BRANCH  31  32
ATOM     32  C   UNL     1       5.171  -1.716   1.177  1.00  0.00     0.031 A 
ATOM     33  C   UNL     1       6.162  -0.597   0.995  1.00  0.00     0.074 A 
ATOM     34  C   UNL     1       5.088  -2.326   2.377  1.00  0.00     0.049 A 
ATOM     35  N   UNL     1       7.164  -0.233   1.755  1.00  0.00    -0.248 NA
ATOM     36  C   UNL     1       5.992   0.232  -0.209  1.00  0.00     0.031 C 
ATOM     37  C   UNL     1       4.083  -3.320   2.755  1.00  0.00     0.029 A 
ATOM     38  N   UNL     1       5.852  -2.181   3.513  1.00  0.00    -0.354 N 
ATOM     39  C   UNL     1       7.772   0.828   1.095  1.00  0.00     0.074 A 
ATOM     40  C   UNL     1       7.034   1.045  -0.129  1.00  0.00     0.031 C 
ATOM     41  C   UNL     1       4.285  -3.685   4.033  1.00  0.00     0.029 A 
ATOM     42  C   UNL     1       5.479  -3.014   4.541  1.00  0.00     0.049 A 
ATOM     43  H   UNL     1       6.596  -1.540   3.582  1.00  0.00     0.167 HD
ATOM     44  C   UNL     1       8.850   1.555   1.476  1.00  0.00     0.037 A 
ATOM     45  C   UNL     1       6.061  -3.247   5.735  1.00  0.00     0.037 A 
ATOM     46  C   UNL     1       9.555   1.366   2.716  1.00  0.00     0.049 A 
ATOM     47  C   UNL     1       7.324  -2.503   6.093  1.00  0.00     0.074 A 
ATOM     48  C   UNL     1      10.675   2.029   3.183  1.00  0.00     0.029 A 
ATOM     49  N   UNL     1       9.196   0.449   3.695  1.00  0.00    -0.354 N 
ATOM     50  N   UNL     1       7.950  -1.562   5.427  1.00  0.00    -0.248 NA
ATOM     51  C   UNL     1       7.972  -2.865   7.362  1.00  0.00     0.031 C 
ATOM     52  C   UNL     1      11.029   1.475   4.417  1.00  0.00     0.029 A 
ATOM     53  C   UNL     1      10.089   0.514   4.753  1.00  0.00     0.049 A 
ATOM     54  H   UNL     1       8.422  -0.157   3.645  1.00  0.00     0.167 HD
ATOM     55  C   UNL     1       9.045  -1.204   6.204  1.00  0.00     0.074 A 
ATOM     56  C   UNL     1       8.988  -2.014   7.402  1.00  0.00     0.031 C 
ATOM     57  C   UNL     1      10.012  -0.289   5.947  1.00  0.00     0.037 A 
BRANCH  44  58
ATOM     58  C   UNL     1       9.370   2.577   0.506  1.00  0.00     0.064 A 
ATOM     59  C   UNL     1       8.674   3.759   0.214  1.00  0.00     0.173 A 
ATOM     60  C   UNL     1      10.597   2.364  -0.141  1.00  0.00     0.173 A 
ATOM     61  F   UNL     1       7.488   4.005   0.792  1.00  0.00    -0.203 F 
ATOM     62  C   UNL     1       9.168   4.670  -0.717  1.00  0.00     0.198 A 
ATOM     63  C   UNL     1      11.106   3.293  -1.044  1.00  0.00     0.198 A 
ATOM     64  F   UNL     1      11.308   1.253   0.104  1.00  0.00    -0.203 F 
ATOM     65  F   UNL     1       8.456   5.762  -1.027  1.00  0.00    -0.200 F 
ATOM     66  C   UNL     1      10.386   4.440  -1.340  1.00  0.00     0.200 A 
ATOM     67  F   UNL     1      12.290   3.075  -1.632  1.00  0.00    -0.200 F 
ATOM     68  F   UNL     1      10.861   5.319  -2.233  1.00  0.00    -0.200 F 
ENDBRANCH  44  58
BRANCH  45  69
ATOM     69  C   UNL     1       5.506  -4.279   6.657  1.00  0.00     0.064 A 
ATOM     70  C   UNL     1       5.020  -3.940   7.929  1.00  0.00     0.173 A 
ATOM     71  C   UNL     1       5.493  -5.637   6.302  1.00  0.00     0.173 A 
ATOM     72  F   UNL     1       5.040  -2.663   8.335  1.00  0.00    -0.203 F 
ATOM     73  C   UNL     1       4.564  -4.919   8.812  1.00  0.00     0.198 A 
ATOM     74  C   UNL     1       5.002  -6.610   7.170  1.00  0.00     0.198 A 
ATOM     75  F   UNL     1       5.957  -6.024   5.104  1.00  0.00    -0.203 F 
ATOM     76  F   UNL     1       4.162  -4.573  10.043  1.00  0.00    -0.200 F 
ATOM     77  C   UNL     1       4.548  -6.252   8.429  1.00  0.00     0.200 A 
ATOM     78  F   UNL     1       4.976  -7.894   6.789  1.00  0.00    -0.200 F 
ATOM     79  F   UNL     1       4.107  -7.191   9.277  1.00  0.00    -0.200 F 
ENDBRANCH  45  69
BRANCH  57  80
ATOM     80  C   UNL     1      11.063  -0.074   7.000  1.00  0.00     0.064 A 
ATOM     81  C   UNL     1      12.044  -1.038   7.276  1.00  0.00     0.173 A 
ATOM     82  C   UNL     1      11.116   1.136   7.709  1.00  0.00     0.173 A 
ATOM     83  F   UNL     1      12.031  -2.217   6.636  1.00  0.00    -0.203 F 
ATOM     84  C   UNL     1      13.022  -0.808   8.241  1.00  0.00     0.198 A 
ATOM     85  C   UNL     1      12.116   1.376   8.648  1.00  0.00     0.198 A 
ATOM     86  F   UNL     1      10.207   2.096   7.479  1.00  0.00    -0.203 F 
ATOM     87  F   UNL     1      13.918  -1.764   8.524  1.00  0.00    -0.200 F 
ATOM     88  C   UNL     1      13.062   0.401   8.919  1.00  0.00     0.200 A 
ATOM     89  F   UNL     1      12.163   2.552   9.288  1.00  0.00    -0.200 F 
ATOM     90  F   UNL     1      14.011   0.624   9.839  1.00  0.00    -0.200 F 
ENDBRANCH  57  80
ENDBRANCH  31  32
ENDBRANCH  24  26
ENDBRANCH  23  24
ENDBRANCH  22  23
ENDBRANCH   1  22
TORSDOF 14
