REMARK SMILES C[C@H](NC(=O)c1c(C(=O)OCCOC(=O)c2ccc(-c3c4nc(c(-c5c(F)c(F)c(F)c(F)c5F)c5ccc([nH]5)c(-c5c(F)c(F)c(F)c(F)c5F)c5nc(c(-c6c(F)c(F)c(F)c(F)c6F)c6ccc3[nH]6)C=C5)C=C4)cc2)cnn1C)[C@]12C[C@H]3C[C@H](C[C@H](C3)C1)C2
REMARK SMILES IDX 11 1 10 2 8 3 9 4 7 5 6 6 81 7 79 8 80 9 82 10 4 11 3 12
REMARK SMILES IDX 5 14 2 15 1 16 83 17 84 18 91 19 92 20 85 21 89 22 87 23
REMARK SMILES IDX 86 24 90 25 88 26 12 27 13 28 14 29 15 30 16 31 17 32 78 33
REMARK SMILES IDX 18 34 77 35 19 36 20 37 21 38 71 39 22 40 76 41 70 42 72 43
REMARK SMILES IDX 23 44 75 45 69 46 68 47 24 49 56 50 36 51 55 52 37 53 40 54
REMARK SMILES IDX 54 55 73 56 38 57 39 58 53 60 74 61 41 62 25 63 26 64 34 65
REMARK SMILES IDX 27 66 28 67 32 68 35 69 29 70 30 71 33 72 31 73 57 74 58 75
REMARK SMILES IDX 66 76 59 77 60 78 64 79 67 80 61 81 62 82 65 83 63 84 42 85
REMARK SMILES IDX 43 86 51 87 44 88 45 89 49 90 52 91 46 92 47 93 50 94 48 95
REMARK H PARENT 3 13 72 48 40 59
REMARK Flexibility Score: inf
ROOT
ATOM      1  C   UNL     1      -0.512   2.548  -4.008  1.00  0.00     0.275 C 
ENDROOT
BRANCH   1   2
ATOM      2  O   UNL     1       0.006   2.494  -2.662  1.00  0.00    -0.458 OA
BRANCH   2   3
ATOM      3  C   UNL     1       0.790   3.545  -2.295  1.00  0.00     0.342 C 
ATOM      4  O   UNL     1       1.016   4.515  -3.017  1.00  0.00    -0.246 OA
BRANCH   3   5
ATOM      5  C   UNL     1       1.298   3.493  -0.935  1.00  0.00     0.111 A 
ATOM      6  C   UNL     1       1.633   2.393  -0.146  1.00  0.00     0.140 A 
ATOM      7  N   UNL     1       2.359   2.939   0.889  1.00  0.00    -0.262 N 
ATOM      8  C   UNL     1       1.658   4.611  -0.147  1.00  0.00     0.151 A 
ATOM      9  N   UNL     1       2.205   4.269   1.014  1.00  0.00    -0.180 NA
ATOM     10  C   UNL     1       3.412   2.335   1.673  1.00  0.00     0.174 C 
BRANCH   6  11
ATOM     11  C   UNL     1       1.585   1.010  -0.511  1.00  0.00     0.270 C 
ATOM     12  N   UNL     1       1.042   0.059   0.303  1.00  0.00    -0.348 N 
ATOM     13  H   UNL     1       1.225  -0.846  -0.041  1.00  0.00     0.164 HD
ATOM     14  O   UNL     1       2.056   0.614  -1.578  1.00  0.00    -0.267 OA
BRANCH  12  15
ATOM     15  C   UNL     1       0.260  -0.001   1.548  1.00  0.00     0.085 C 
ATOM     16  C   UNL     1       0.831   0.790   2.721  1.00  0.00     0.031 C 
BRANCH  15  17
ATOM     17  C   UNL     1      -1.296   0.117   1.396  1.00  0.00    -0.009 C 
ATOM     18  C   UNL     1      -1.945  -0.717   2.550  1.00  0.00     0.012 C 
ATOM     19  C   UNL     1      -1.811  -0.473   0.053  1.00  0.00     0.012 C 
ATOM     20  C   UNL     1      -1.825   1.573   1.498  1.00  0.00     0.012 C 
ATOM     21  C   UNL     1      -3.474  -0.683   2.488  1.00  0.00    -0.010 C 
ATOM     22  C   UNL     1      -3.352  -0.451  -0.009  1.00  0.00    -0.010 C 
ATOM     23  C   UNL     1      -3.366   1.604   1.443  1.00  0.00    -0.010 C 
ATOM     24  C   UNL     1      -3.938   0.776   2.607  1.00  0.00     0.007 C 
ATOM     25  C   UNL     1      -3.929  -1.277   1.149  1.00  0.00     0.007 C 
ATOM     26  C   UNL     1      -3.850   0.995   0.119  1.00  0.00     0.007 C 
ENDBRANCH  15  17
ENDBRANCH  12  15
ENDBRANCH   6  11
ENDBRANCH   3   5
ENDBRANCH   2   3
ENDBRANCH   1   2
BRANCH   1  27
ATOM     27  C   UNL     1      -1.964   3.036  -4.054  1.00  0.00     0.275 C 
BRANCH  27  28
ATOM     28  O   UNL     1      -2.079   4.419  -3.661  1.00  0.00    -0.458 OA
BRANCH  28  29
ATOM     29  C   UNL     1      -2.423   4.609  -2.368  1.00  0.00     0.338 C 
ATOM     30  O   UNL     1      -2.655   3.757  -1.530  1.00  0.00    -0.246 OA
BRANCH  29  31
ATOM     31  C   UNL     1      -2.341   6.029  -2.006  1.00  0.00     0.060 A 
ATOM     32  C   UNL     1      -1.157   6.452  -1.415  1.00  0.00     0.016 A 
ATOM     33  C   UNL     1      -3.448   6.870  -2.031  1.00  0.00     0.016 A 
ATOM     34  C   UNL     1      -1.077   7.678  -0.775  1.00  0.00     0.010 A 
ATOM     35  C   UNL     1      -3.344   8.148  -1.461  1.00  0.00     0.010 A 
ATOM     36  C   UNL     1      -2.166   8.554  -0.802  1.00  0.00    -0.014 A 
BRANCH  36  37
ATOM     37  C   UNL     1      -2.064   9.864  -0.103  1.00  0.00     0.031 A 
ATOM     38  C   UNL     1      -3.006  10.194   1.022  1.00  0.00     0.074 A 
ATOM     39  C   UNL     1      -1.098  10.740  -0.447  1.00  0.00     0.049 A 
ATOM     40  N   UNL     1      -3.187  11.332   1.646  1.00  0.00    -0.248 NA
ATOM     41  C   UNL     1      -3.868   9.104   1.506  1.00  0.00     0.031 C 
ATOM     42  C   UNL     1      -0.077  10.517  -1.473  1.00  0.00     0.029 A 
ATOM     43  N   UNL     1      -0.813  11.996   0.031  1.00  0.00    -0.354 N 
ATOM     44  C   UNL     1      -4.202  11.104   2.567  1.00  0.00     0.074 A 
ATOM     45  C   UNL     1      -4.616   9.726   2.406  1.00  0.00     0.031 C 
ATOM     46  C   UNL     1       0.729  11.586  -1.536  1.00  0.00     0.029 A 
ATOM     47  C   UNL     1       0.228  12.608  -0.626  1.00  0.00     0.049 A 
ATOM     48  H   UNL     1      -1.307  12.417   0.771  1.00  0.00     0.167 HD
ATOM     49  C   UNL     1      -4.732  11.966   3.467  1.00  0.00     0.037 A 
ATOM     50  C   UNL     1       0.692  13.870  -0.550  1.00  0.00     0.037 A 
ATOM     51  C   UNL     1      -4.290  13.327   3.641  1.00  0.00     0.049 A 
ATOM     52  C   UNL     1       0.032  14.829   0.403  1.00  0.00     0.074 A 
ATOM     53  C   UNL     1      -4.771  14.286   4.514  1.00  0.00     0.029 A 
ATOM     54  N   UNL     1      -3.252  13.917   2.933  1.00  0.00    -0.354 N 
ATOM     55  N   UNL     1      -0.960  14.621   1.234  1.00  0.00    -0.248 NA
ATOM     56  C   UNL     1       0.549  16.204   0.420  1.00  0.00     0.031 C 
ATOM     57  C   UNL     1      -4.057  15.470   4.303  1.00  0.00     0.029 A 
ATOM     58  C   UNL     1      -3.089  15.231   3.341  1.00  0.00     0.049 A 
ATOM     59  H   UNL     1      -2.712  13.468   2.243  1.00  0.00     0.167 HD
ATOM     60  C   UNL     1      -1.166  15.825   1.892  1.00  0.00     0.074 A 
ATOM     61  C   UNL     1      -0.182  16.754   1.379  1.00  0.00     0.031 C 
ATOM     62  C   UNL     1      -2.091  16.137   2.832  1.00  0.00     0.037 A 
BRANCH  49  63
ATOM     63  C   UNL     1      -5.866  11.479   4.323  1.00  0.00     0.064 A 
ATOM     64  C   UNL     1      -5.672  10.543   5.349  1.00  0.00     0.173 A 
ATOM     65  C   UNL     1      -7.158  12.002   4.151  1.00  0.00     0.173 A 
ATOM     66  F   UNL     1      -4.460  10.002   5.549  1.00  0.00    -0.203 F 
ATOM     67  C   UNL     1      -6.731  10.133   6.157  1.00  0.00     0.198 A 
ATOM     68  C   UNL     1      -8.207  11.614   4.981  1.00  0.00     0.198 A 
ATOM     69  F   UNL     1      -7.400  12.905   3.189  1.00  0.00    -0.203 F 
ATOM     70  F   UNL     1      -6.529   9.207   7.104  1.00  0.00    -0.200 F 
ATOM     71  C   UNL     1      -7.994  10.676   5.979  1.00  0.00     0.200 A 
ATOM     72  F   UNL     1      -9.424  12.153   4.817  1.00  0.00    -0.200 F 
ATOM     73  F   UNL     1      -9.008  10.293   6.767  1.00  0.00    -0.200 F 
ENDBRANCH  49  63
BRANCH  50  74
ATOM     74  C   UNL     1       1.793  14.319  -1.445  1.00  0.00     0.064 A 
ATOM     75  C   UNL     1       3.030  14.729  -0.929  1.00  0.00     0.173 A 
ATOM     76  C   UNL     1       1.616  14.384  -2.836  1.00  0.00     0.173 A 
ATOM     77  F   UNL     1       3.243  14.710   0.395  1.00  0.00    -0.203 F 
ATOM     78  C   UNL     1       4.034  15.216  -1.765  1.00  0.00     0.198 A 
ATOM     79  C   UNL     1       2.635  14.832  -3.675  1.00  0.00     0.198 A 
ATOM     80  F   UNL     1       0.453  14.006  -3.386  1.00  0.00    -0.203 F 
ATOM     81  F   UNL     1       5.181  15.666  -1.238  1.00  0.00    -0.200 F 
ATOM     82  C   UNL     1       3.838  15.261  -3.137  1.00  0.00     0.200 A 
ATOM     83  F   UNL     1       2.445  14.857  -5.001  1.00  0.00    -0.200 F 
ATOM     84  F   UNL     1       4.802  15.732  -3.939  1.00  0.00    -0.200 F 
ENDBRANCH  50  74
BRANCH  62  85
ATOM     85  C   UNL     1      -2.046  17.524   3.405  1.00  0.00     0.064 A 
ATOM     86  C   UNL     1      -2.414  18.649   2.652  1.00  0.00     0.173 A 
ATOM     87  C   UNL     1      -1.654  17.725   4.738  1.00  0.00     0.173 A 
ATOM     88  F   UNL     1      -2.780  18.512   1.369  1.00  0.00    -0.203 F 
ATOM     89  C   UNL     1      -2.361  19.926   3.203  1.00  0.00     0.198 A 
ATOM     90  C   UNL     1      -1.637  18.999   5.296  1.00  0.00     0.198 A 
ATOM     91  F   UNL     1      -1.299  16.682   5.503  1.00  0.00    -0.203 F 
ATOM     92  F   UNL     1      -2.661  20.992   2.448  1.00  0.00    -0.200 F 
ATOM     93  C   UNL     1      -1.980  20.100   4.526  1.00  0.00     0.200 A 
ATOM     94  F   UNL     1      -1.285  19.163   6.578  1.00  0.00    -0.200 F 
ATOM     95  F   UNL     1      -1.937  21.330   5.056  1.00  0.00    -0.200 F 
ENDBRANCH  62  85
ENDBRANCH  36  37
ENDBRANCH  29  31
ENDBRANCH  28  29
ENDBRANCH  27  28
ENDBRANCH   1  27
TORSDOF 14
