REMARK SMILES Nc1cc(C(=O)OCCOC(=O)c2ccc(-c3c4nc(c(-c5c(F)c(F)c(F)c(F)c5F)c5ccc([nH]5)c(-c5c(F)c(F)c(F)c(F)c5F)c5nc(c(-c6c(F)c(F)c(F)c(F)c6F)c6ccc3[nH]6)C=C5)C=C4)cc2)nc2ccccc12
REMARK SMILES IDX 9 1 8 2 7 3 5 4 6 5 4 6 2 7 3 8 82 9 77 10 81 11 76 12 78 13
REMARK SMILES IDX 80 14 79 15 1 16 10 19 11 20 12 21 13 22 14 23 75 24 15 25
REMARK SMILES IDX 74 26 16 27 17 28 18 29 68 30 19 31 73 32 67 33 69 34 20 35
REMARK SMILES IDX 72 36 66 37 65 38 21 40 53 41 33 42 52 43 34 44 37 45 51 46
REMARK SMILES IDX 70 47 35 48 36 49 50 51 71 52 38 53 22 54 23 55 31 56 24 57
REMARK SMILES IDX 25 58 29 59 32 60 26 61 27 62 30 63 28 64 54 65 55 66 63 67
REMARK SMILES IDX 56 68 57 69 61 70 64 71 58 72 59 73 62 74 60 75 39 76 40 77
REMARK SMILES IDX 48 78 41 79 42 80 46 81 49 82 43 83 44 84 47 85 45 86
REMARK H PARENT 1 17 1 18 69 39 37 50
REMARK Flexibility Score: inf
ROOT
ATOM      1  C   UNL     1       1.187   0.399  -6.907  1.00  0.00     0.275 C 
ENDROOT
BRANCH   1   2
ATOM      2  C   UNL     1       2.221   1.074  -5.996  1.00  0.00     0.275 C 
BRANCH   2   3
ATOM      3  O   UNL     1       1.842   1.004  -4.606  1.00  0.00    -0.457 OA
BRANCH   3   4
ATOM      4  C   UNL     1       1.250   2.119  -4.097  1.00  0.00     0.357 C 
ATOM      5  O   UNL     1       1.093   3.173  -4.695  1.00  0.00    -0.244 OA
BRANCH   4   6
ATOM      6  C   UNL     1       0.695   1.847  -2.733  1.00  0.00     0.151 A 
ATOM      7  C   UNL     1       0.655   0.723  -0.627  1.00  0.00     0.043 A 
ATOM      8  C   UNL     1       1.286   0.963  -1.852  1.00  0.00     0.062 A 
ATOM      9  C   UNL     1      -0.559   1.399  -0.319  1.00  0.00     0.023 A 
ATOM     10  C   UNL     1      -1.075   2.271  -1.296  1.00  0.00     0.073 A 
ATOM     11  C   UNL     1      -1.292   1.247   0.885  1.00  0.00     0.012 A 
ATOM     12  N   UNL     1      -0.444   2.522  -2.445  1.00  0.00    -0.241 NA
ATOM     13  C   UNL     1      -2.300   2.892  -1.087  1.00  0.00     0.029 A 
ATOM     14  C   UNL     1      -2.517   1.889   1.080  1.00  0.00     0.001 A 
ATOM     15  C   UNL     1      -3.033   2.700   0.082  1.00  0.00     0.002 A 
BRANCH   7  16
ATOM     16  N   UNL     1       1.292  -0.113   0.291  1.00  0.00    -0.398 N 
ATOM     17  H   UNL     1       2.131  -0.565   0.046  1.00  0.00     0.156 HD
ATOM     18  H   UNL     1       0.902  -0.249   1.185  1.00  0.00     0.156 HD
ENDBRANCH   7  16
ENDBRANCH   4   6
ENDBRANCH   3   4
ENDBRANCH   2   3
ENDBRANCH   1   2
BRANCH   1  19
ATOM     19  O   UNL     1      -0.017   1.179  -7.030  1.00  0.00    -0.458 OA
BRANCH  19  20
ATOM     20  C   UNL     1      -1.000   0.865  -6.153  1.00  0.00     0.338 C 
ATOM     21  O   UNL     1      -0.985  -0.017  -5.312  1.00  0.00    -0.246 OA
BRANCH  20  22
ATOM     22  C   UNL     1      -2.082   1.859  -6.263  1.00  0.00     0.060 A 
ATOM     23  C   UNL     1      -2.881   1.974  -7.398  1.00  0.00     0.016 A 
ATOM     24  C   UNL     1      -2.326   2.665  -5.155  1.00  0.00     0.016 A 
ATOM     25  C   UNL     1      -3.909   2.927  -7.414  1.00  0.00     0.010 A 
ATOM     26  C   UNL     1      -3.363   3.588  -5.154  1.00  0.00     0.010 A 
ATOM     27  C   UNL     1      -4.156   3.742  -6.291  1.00  0.00    -0.014 A 
BRANCH  27  28
ATOM     28  C   UNL     1      -5.255   4.738  -6.274  1.00  0.00     0.031 A 
ATOM     29  C   UNL     1      -4.958   6.210  -6.183  1.00  0.00     0.074 A 
ATOM     30  C   UNL     1      -6.529   4.304  -6.277  1.00  0.00     0.049 A 
ATOM     31  N   UNL     1      -5.792   7.221  -6.193  1.00  0.00    -0.248 NA
ATOM     32  C   UNL     1      -3.547   6.602  -6.037  1.00  0.00     0.031 C 
ATOM     33  C   UNL     1      -6.936   2.898  -6.266  1.00  0.00     0.029 A 
ATOM     34  N   UNL     1      -7.714   4.995  -6.292  1.00  0.00    -0.354 N 
ATOM     35  C   UNL     1      -5.008   8.361  -6.067  1.00  0.00     0.074 A 
ATOM     36  C   UNL     1      -3.640   7.918  -5.909  1.00  0.00     0.031 C 
ATOM     37  C   UNL     1      -8.274   2.829  -6.329  1.00  0.00     0.029 A 
ATOM     38  C   UNL     1      -8.820   4.183  -6.354  1.00  0.00     0.049 A 
ATOM     39  H   UNL     1      -7.766   5.977  -6.261  1.00  0.00     0.167 HD
ATOM     40  C   UNL     1      -5.393   9.659  -6.117  1.00  0.00     0.037 A 
ATOM     41  C   UNL     1     -10.127   4.497  -6.437  1.00  0.00     0.037 A 
ATOM     42  C   UNL     1      -6.756  10.089  -6.284  1.00  0.00     0.049 A 
ATOM     43  C   UNL     1     -10.529   5.946  -6.491  1.00  0.00     0.074 A 
ATOM     44  C   UNL     1      -7.245  11.378  -6.408  1.00  0.00     0.029 A 
ATOM     45  N   UNL     1      -7.851   9.239  -6.345  1.00  0.00    -0.354 N 
ATOM     46  N   UNL     1      -9.771   7.015  -6.474  1.00  0.00    -0.248 NA
ATOM     47  C   UNL     1     -11.967   6.231  -6.583  1.00  0.00     0.031 C 
ATOM     48  C   UNL     1      -8.638  11.310  -6.493  1.00  0.00     0.029 A 
ATOM     49  C   UNL     1      -9.016   9.977  -6.479  1.00  0.00     0.049 A 
ATOM     50  H   UNL     1      -7.807   8.256  -6.298  1.00  0.00     0.167 HD
ATOM     51  C   UNL     1     -10.634   8.097  -6.574  1.00  0.00     0.074 A 
ATOM     52  C   UNL     1     -11.973   7.555  -6.673  1.00  0.00     0.031 C 
ATOM     53  C   UNL     1     -10.342   9.421  -6.578  1.00  0.00     0.037 A 
BRANCH  40  54
ATOM     54  C   UNL     1      -4.326  10.714  -6.027  1.00  0.00     0.064 A 
ATOM     55  C   UNL     1      -3.407  10.911  -7.069  1.00  0.00     0.173 A 
ATOM     56  C   UNL     1      -4.271  11.591  -4.933  1.00  0.00     0.173 A 
ATOM     57  F   UNL     1      -3.414  10.100  -8.138  1.00  0.00    -0.203 F 
ATOM     58  C   UNL     1      -2.463  11.933  -7.012  1.00  0.00     0.198 A 
ATOM     59  C   UNL     1      -3.346  12.631  -4.893  1.00  0.00     0.198 A 
ATOM     60  F   UNL     1      -5.133  11.456  -3.913  1.00  0.00    -0.203 F 
ATOM     61  F   UNL     1      -1.577  12.081  -8.006  1.00  0.00    -0.200 F 
ATOM     62  C   UNL     1      -2.441  12.799  -5.929  1.00  0.00     0.200 A 
ATOM     63  F   UNL     1      -3.338  13.480  -3.856  1.00  0.00    -0.200 F 
ATOM     64  F   UNL     1      -1.547  13.797  -5.887  1.00  0.00    -0.200 F 
ENDBRANCH  40  54
BRANCH  41  65
ATOM     65  C   UNL     1     -11.135   3.412  -6.543  1.00  0.00     0.064 A 
ATOM     66  C   UNL     1     -11.826   3.191  -7.743  1.00  0.00     0.173 A 
ATOM     67  C   UNL     1     -11.402   2.549  -5.470  1.00  0.00     0.173 A 
ATOM     68  F   UNL     1     -11.618   4.000  -8.793  1.00  0.00    -0.203 F 
ATOM     69  C   UNL     1     -12.751   2.156  -7.863  1.00  0.00     0.198 A 
ATOM     70  C   UNL     1     -12.305   1.496  -5.599  1.00  0.00     0.198 A 
ATOM     71  F   UNL     1     -10.762   2.713  -4.302  1.00  0.00    -0.203 F 
ATOM     72  F   UNL     1     -13.420   1.988  -9.011  1.00  0.00    -0.200 F 
ATOM     73  C   UNL     1     -12.982   1.304  -6.794  1.00  0.00     0.200 A 
ATOM     74  F   UNL     1     -12.513   0.664  -4.570  1.00  0.00    -0.200 F 
ATOM     75  F   UNL     1     -13.860   0.298  -6.915  1.00  0.00    -0.200 F 
ENDBRANCH  41  65
BRANCH  53  76
ATOM     76  C   UNL     1     -11.486  10.385  -6.705  1.00  0.00     0.064 A 
ATOM     77  C   UNL     1     -12.383  10.598  -5.648  1.00  0.00     0.173 A 
ATOM     78  C   UNL     1     -11.639  11.160  -7.864  1.00  0.00     0.173 A 
ATOM     79  F   UNL     1     -12.286   9.873  -4.523  1.00  0.00    -0.203 F 
ATOM     80  C   UNL     1     -13.401  11.541  -5.753  1.00  0.00     0.198 A 
ATOM     81  C   UNL     1     -12.639  12.125  -7.954  1.00  0.00     0.198 A 
ATOM     82  F   UNL     1     -10.802  11.002  -8.900  1.00  0.00    -0.203 F 
ATOM     83  F   UNL     1     -14.269  11.703  -4.745  1.00  0.00    -0.200 F 
ATOM     84  C   UNL     1     -13.521  12.312  -6.901  1.00  0.00     0.200 A 
ATOM     85  F   UNL     1     -12.741  12.881  -9.055  1.00  0.00    -0.200 F 
ATOM     86  F   UNL     1     -14.489  13.233  -6.992  1.00  0.00    -0.200 F 
ENDBRANCH  53  76
ENDBRANCH  27  28
ENDBRANCH  20  22
ENDBRANCH  19  20
ENDBRANCH   1  19
TORSDOF 12
