REMARK SMILES CC(C)[C@@H](CCNC(=O)N1C[C@@H](C)[C@H](C)C1)CCC(=O)OCCOC(=O)c1ccc(-c2c3nc(c(-c4c(F)c(F)c(F)c(F)c4F)c4ccc([nH]4)c(-c4c(F)c(F)c(F)c(F)c4F)c4nc(c(-c5c(F)c(F)c(F)c(F)c5F)c5ccc2[nH]5)C=C4)C=C3)cc1
REMARK SMILES IDX 21 1 19 2 20 3 18 4 17 5 4 6 2 7 1 8 3 9 5 10 6 11 7 12 8 13
REMARK SMILES IDX 9 15 10 16 11 17 16 18 12 19 14 20 13 21 15 22 22 23 23 24
REMARK SMILES IDX 24 25 25 26 26 27 27 28 28 29 89 30 29 31 88 32 30 33 31 34
REMARK SMILES IDX 32 35 82 36 33 37 87 38 81 39 83 40 34 41 86 42 80 43 79 44
REMARK SMILES IDX 35 46 67 47 47 48 66 49 48 50 51 51 65 52 84 53 49 54 50 55
REMARK SMILES IDX 64 57 85 58 52 59 36 60 37 61 45 62 38 63 39 64 43 65 46 66
REMARK SMILES IDX 40 67 41 68 44 69 42 70 68 71 69 72 77 73 70 74 71 75 75 76
REMARK SMILES IDX 78 77 72 78 73 79 76 80 74 81 53 82 54 83 62 84 55 85 56 86
REMARK SMILES IDX 60 87 63 88 57 89 58 90 61 91 59 92
REMARK H PARENT 7 14 83 45 51 56
REMARK Flexibility Score: inf
ROOT
ATOM      1  O   UNL     1      -1.449   2.583   2.166  1.00  0.00    -0.462 OA
ENDROOT
BRANCH   1   2
ATOM      2  C   UNL     1      -0.961   2.444   3.418  1.00  0.00     0.305 C 
ATOM      3  O   UNL     1      -0.896   3.348   4.245  1.00  0.00    -0.252 OA
BRANCH   2   4
ATOM      4  C   UNL     1      -0.442   1.056   3.726  1.00  0.00     0.123 C 
BRANCH   4   5
ATOM      5  C   UNL     1      -0.864  -0.132   2.857  1.00  0.00     0.015 C 
BRANCH   5   6
ATOM      6  C   UNL     1      -0.499  -0.179   1.351  1.00  0.00    -0.006 C 
BRANCH   6   7
ATOM      7  C   UNL     1       1.024  -0.273   1.008  1.00  0.00    -0.014 C 
ATOM      8  C   UNL     1       1.251  -0.269  -0.513  1.00  0.00     0.007 C 
ATOM      9  C   UNL     1       1.875   0.857   1.596  1.00  0.00     0.007 C 
ENDBRANCH   6   7
BRANCH   6  10
ATOM     10  C   UNL     1      -1.345  -1.299   0.657  1.00  0.00     0.025 C 
BRANCH  10  11
ATOM     11  C   UNL     1      -0.962  -2.762   0.937  1.00  0.00     0.118 C 
BRANCH  11  12
ATOM     12  N   UNL     1      -1.600  -3.285   2.131  1.00  0.00    -0.338 N 
ATOM     13  C   UNL     1      -2.645  -4.131   2.276  1.00  0.00     0.317 C 
ATOM     14  H   UNL     1      -1.207  -2.970   2.977  1.00  0.00     0.165 HD
ATOM     15  O   UNL     1      -3.323  -4.007   3.297  1.00  0.00    -0.249 OA
ATOM     16  N   UNL     1      -2.901  -5.083   1.336  1.00  0.00    -0.324 N 
ATOM     17  C   UNL     1      -4.127  -5.854   1.384  1.00  0.00     0.125 C 
ATOM     18  C   UNL     1      -1.941  -5.725   0.451  1.00  0.00     0.125 C 
ATOM     19  C   UNL     1      -3.668  -7.292   1.180  1.00  0.00     0.010 C 
ATOM     20  C   UNL     1      -2.457  -7.159   0.237  1.00  0.00     0.010 C 
ATOM     21  C   UNL     1      -4.768  -8.175   0.606  1.00  0.00     0.010 C 
ATOM     22  C   UNL     1      -1.389  -8.209   0.525  1.00  0.00     0.010 C 
ENDBRANCH  11  12
ENDBRANCH  10  11
ENDBRANCH   6  10
ENDBRANCH   5   6
ENDBRANCH   4   5
ENDBRANCH   2   4
ENDBRANCH   1   2
BRANCH   1  23
ATOM     23  C   UNL     1      -1.911   3.894   1.786  1.00  0.00     0.274 C 
BRANCH  23  24
ATOM     24  C   UNL     1      -3.438   3.950   1.718  1.00  0.00     0.275 C 
BRANCH  24  25
ATOM     25  O   UNL     1      -4.023   3.756   3.018  1.00  0.00    -0.458 OA
BRANCH  25  26
ATOM     26  C   UNL     1      -4.376   2.482   3.297  1.00  0.00     0.338 C 
ATOM     27  O   UNL     1      -4.317   1.513   2.554  1.00  0.00    -0.246 OA
BRANCH  26  28
ATOM     28  C   UNL     1      -4.711   2.370   4.721  1.00  0.00     0.060 A 
ATOM     29  C   UNL     1      -3.816   1.682   5.541  1.00  0.00     0.016 A 
ATOM     30  C   UNL     1      -5.918   2.848   5.231  1.00  0.00     0.016 A 
ATOM     31  C   UNL     1      -4.119   1.458   6.878  1.00  0.00     0.010 A 
ATOM     32  C   UNL     1      -6.222   2.627   6.580  1.00  0.00     0.010 A 
ATOM     33  C   UNL     1      -5.329   1.920   7.407  1.00  0.00    -0.014 A 
BRANCH  33  34
ATOM     34  C   UNL     1      -5.677   1.595   8.811  1.00  0.00     0.031 A 
ATOM     35  C   UNL     1      -6.753   0.588   9.097  1.00  0.00     0.074 A 
ATOM     36  C   UNL     1      -5.000   2.166   9.824  1.00  0.00     0.049 A 
ATOM     37  N   UNL     1      -7.285   0.245  10.242  1.00  0.00    -0.248 NA
ATOM     38  C   UNL     1      -7.308  -0.126   7.936  1.00  0.00     0.031 C 
ATOM     39  C   UNL     1      -3.895   3.112   9.671  1.00  0.00     0.029 A 
ATOM     40  N   UNL     1      -5.138   2.028  11.182  1.00  0.00    -0.354 N 
ATOM     41  C   UNL     1      -8.265  -0.690   9.937  1.00  0.00     0.074 A 
ATOM     42  C   UNL     1      -8.254  -0.865   8.501  1.00  0.00     0.031 C 
ATOM     43  C   UNL     1      -3.448   3.463  10.887  1.00  0.00     0.029 A 
ATOM     44  C   UNL     1      -4.270   2.810  11.903  1.00  0.00     0.049 A 
ATOM     45  H   UNL     1      -5.796   1.426  11.599  1.00  0.00     0.167 HD
ATOM     46  C   UNL     1      -9.100  -1.339  10.784  1.00  0.00     0.037 A 
ATOM     47  C   UNL     1      -4.171   3.002  13.232  1.00  0.00     0.037 A 
ATOM     48  C   UNL     1      -9.073  -1.196  12.216  1.00  0.00     0.049 A 
ATOM     49  C   UNL     1      -5.118   2.278  14.149  1.00  0.00     0.074 A 
ATOM     50  C   UNL     1      -9.872  -1.815  13.162  1.00  0.00     0.029 A 
ATOM     51  N   UNL     1      -8.188  -0.384  12.910  1.00  0.00    -0.354 N 
ATOM     52  N   UNL     1      -6.073   1.432  13.851  1.00  0.00    -0.248 NA
ATOM     53  C   UNL     1      -4.980   2.545  15.588  1.00  0.00     0.031 C 
ATOM     54  C   UNL     1      -9.488  -1.356  14.427  1.00  0.00     0.029 A 
ATOM     55  C   UNL     1      -8.426  -0.479  14.271  1.00  0.00     0.049 A 
ATOM     56  H   UNL     1      -7.492   0.177  12.496  1.00  0.00     0.167 HD
ATOM     57  C   UNL     1      -6.643   1.058  15.059  1.00  0.00     0.074 A 
ATOM     58  C   UNL     1      -5.913   1.753  16.099  1.00  0.00     0.031 C 
ATOM     59  C   UNL     1      -7.684   0.220  15.288  1.00  0.00     0.037 A 
BRANCH  46  60
ATOM     60  C   UNL     1     -10.140  -2.233  10.180  1.00  0.00     0.064 A 
ATOM     61  C   UNL     1      -9.821  -3.487   9.643  1.00  0.00     0.173 A 
ATOM     62  C   UNL     1     -11.486  -1.835  10.169  1.00  0.00     0.173 A 
ATOM     63  F   UNL     1      -8.547  -3.906   9.618  1.00  0.00    -0.203 F 
ATOM     64  C   UNL     1     -10.809  -4.305   9.099  1.00  0.00     0.198 A 
ATOM     65  C   UNL     1     -12.475  -2.664   9.646  1.00  0.00     0.198 A 
ATOM     66  F   UNL     1     -11.844  -0.645  10.674  1.00  0.00    -0.203 F 
ATOM     67  F   UNL     1     -10.478  -5.485   8.557  1.00  0.00    -0.200 F 
ATOM     68  C   UNL     1     -12.135  -3.896   9.107  1.00  0.00     0.200 A 
ATOM     69  F   UNL     1     -13.756  -2.272   9.664  1.00  0.00    -0.200 F 
ATOM     70  F   UNL     1     -13.085  -4.686   8.589  1.00  0.00    -0.200 F 
ENDBRANCH  46  60
BRANCH  47  71
ATOM     71  C   UNL     1      -3.158   3.946  13.768  1.00  0.00     0.064 A 
ATOM     72  C   UNL     1      -2.054   3.486  14.498  1.00  0.00     0.173 A 
ATOM     73  C   UNL     1      -3.273   5.329  13.559  1.00  0.00     0.173 A 
ATOM     74  F   UNL     1      -1.915   2.176  14.747  1.00  0.00    -0.203 F 
ATOM     75  C   UNL     1      -1.108   4.375  15.007  1.00  0.00     0.198 A 
ATOM     76  C   UNL     1      -2.313   6.213  14.045  1.00  0.00     0.198 A 
ATOM     77  F   UNL     1      -4.314   5.819  12.870  1.00  0.00    -0.203 F 
ATOM     78  F   UNL     1      -0.083   3.913  15.736  1.00  0.00    -0.200 F 
ATOM     79  C   UNL     1      -1.235   5.736  14.774  1.00  0.00     0.200 A 
ATOM     80  F   UNL     1      -2.434   7.526  13.808  1.00  0.00    -0.200 F 
ATOM     81  F   UNL     1      -0.322   6.589  15.258  1.00  0.00    -0.200 F 
ENDBRANCH  47  71
BRANCH  59  82
ATOM     82  C   UNL     1      -8.076  -0.004  16.717  1.00  0.00     0.064 A 
ATOM     83  C   UNL     1      -8.771   0.972  17.445  1.00  0.00     0.173 A 
ATOM     84  C   UNL     1      -7.779  -1.218  17.354  1.00  0.00     0.173 A 
ATOM     85  F   UNL     1      -9.062   2.154  16.883  1.00  0.00    -0.203 F 
ATOM     86  C   UNL     1      -9.137   0.748  18.770  1.00  0.00     0.198 A 
ATOM     87  C   UNL     1      -8.167  -1.447  18.670  1.00  0.00     0.198 A 
ATOM     88  F   UNL     1      -7.120  -2.183  16.696  1.00  0.00    -0.203 F 
ATOM     89  F   UNL     1      -9.764   1.709  19.462  1.00  0.00    -0.200 F 
ATOM     90  C   UNL     1      -8.839  -0.463  19.379  1.00  0.00     0.200 A 
ATOM     91  F   UNL     1      -7.886  -2.619  19.256  1.00  0.00    -0.200 F 
ATOM     92  F   UNL     1      -9.194  -0.677  20.654  1.00  0.00    -0.200 F 
ENDBRANCH  59  82
ENDBRANCH  33  34
ENDBRANCH  26  28
ENDBRANCH  25  26
ENDBRANCH  24  25
ENDBRANCH  23  24
ENDBRANCH   1  23
TORSDOF 17
