REMARK SMILES COCC[C@]1(C(=O)OCCOC(=O)c2ccc(-c3c4nc(c(-c5c(F)c(F)c(F)c(F)c5F)c5ccc([nH]5)c(-c5c(F)c(F)c(F)c(F)c5F)c5nc(c(-c6c(F)c(F)c(F)c(F)c6F)c6ccc3[nH]6)C=C5)C=C4)cc2)CCCN(C(=O)Cc2c(C)nc(C)[nH]c2=O)C1
REMARK SMILES IDX 9 1 8 2 6 3 7 4 5 5 77 6 93 7 78 8 80 9 79 10 4 11 3 12 2 13
REMARK SMILES IDX 1 14 81 15 82 16 83 17 84 18 85 19 91 20 86 21 87 22 90 23
REMARK SMILES IDX 92 24 88 25 89 27 10 28 11 29 12 30 13 31 14 32 15 33 76 34
REMARK SMILES IDX 16 35 75 36 17 37 18 38 19 39 69 40 20 41 74 42 68 43 70 44
REMARK SMILES IDX 21 45 73 46 67 47 66 48 22 50 54 51 34 52 53 53 35 54 38 55
REMARK SMILES IDX 52 56 71 57 36 58 37 59 51 61 72 62 39 63 23 64 24 65 32 66
REMARK SMILES IDX 25 67 26 68 30 69 33 70 27 71 28 72 31 73 29 74 55 75 56 76
REMARK SMILES IDX 64 77 57 78 58 79 62 80 65 81 59 82 60 83 63 84 61 85 40 86
REMARK SMILES IDX 41 87 49 88 42 89 43 90 47 91 50 92 44 93 45 94 48 95 46 96
REMARK H PARENT 90 26 70 49 38 60
REMARK Flexibility Score: inf
ROOT
ATOM      1  C   UNL     1      -0.889  -2.800  -2.683  1.00  0.00     0.274 C 
ENDROOT
BRANCH   1   2
ATOM      2  O   UNL     1       0.163  -2.911  -1.699  1.00  0.00    -0.462 OA
BRANCH   2   3
ATOM      3  C   UNL     1       0.267  -1.886  -0.805  1.00  0.00     0.314 C 
ATOM      4  O   UNL     1      -0.447  -0.897  -0.868  1.00  0.00    -0.252 OA
BRANCH   3   5
ATOM      5  C   UNL     1       1.415  -2.087   0.210  1.00  0.00     0.088 C 
ATOM      6  C   UNL     1       1.873  -3.586   0.213  1.00  0.00     0.022 C 
ATOM      7  C   UNL     1       2.596  -1.227  -0.268  1.00  0.00     0.138 C 
ATOM      8  C   UNL     1       3.193  -3.827   0.957  1.00  0.00     0.023 C 
ATOM      9  N   UNL     1       3.784  -1.475   0.559  1.00  0.00    -0.341 N 
ATOM     10  C   UNL     1       4.267  -2.848   0.489  1.00  0.00     0.119 C 
BRANCH   5  11
ATOM     11  C   UNL     1       0.995  -1.724   1.673  1.00  0.00     0.049 C 
BRANCH  11  12
ATOM     12  C   UNL     1       0.805  -0.260   2.097  1.00  0.00     0.161 C 
BRANCH  12  13
ATOM     13  O   UNL     1      -0.266   0.400   1.443  1.00  0.00    -0.385 OA
ATOM     14  C   UNL     1       0.163   1.538   0.697  1.00  0.00     0.194 C 
ENDBRANCH  12  13
ENDBRANCH  11  12
ENDBRANCH   5  11
BRANCH   9  15
ATOM     15  C   UNL     1       4.315  -0.434   1.310  1.00  0.00     0.227 C 
ATOM     16  O   UNL     1       3.905   0.723   1.161  1.00  0.00    -0.275 OA
BRANCH  15  17
ATOM     17  C   UNL     1       5.489  -0.672   2.265  1.00  0.00     0.143 C 
BRANCH  17  18
ATOM     18  C   UNL     1       5.293  -1.681   3.364  1.00  0.00     0.048 A 
ATOM     19  C   UNL     1       6.013  -2.805   3.572  1.00  0.00     0.049 A 
ATOM     20  C   UNL     1       4.253  -1.368   4.380  1.00  0.00     0.254 A 
ATOM     21  C   UNL     1       7.164  -3.253   2.702  1.00  0.00     0.067 C 
ATOM     22  N   UNL     1       5.777  -3.692   4.597  1.00  0.00    -0.240 NA
ATOM     23  N   UNL     1       4.127  -2.260   5.403  1.00  0.00    -0.311 N 
ATOM     24  O   UNL     1       3.544  -0.370   4.313  1.00  0.00    -0.269 OA
ATOM     25  C   UNL     1       4.874  -3.393   5.469  1.00  0.00     0.105 A 
ATOM     26  H   UNL     1       3.475  -2.077   6.118  1.00  0.00     0.171 HD
ATOM     27  C   UNL     1       4.572  -4.333   6.599  1.00  0.00     0.087 C 
ENDBRANCH  17  18
ENDBRANCH  15  17
ENDBRANCH   9  15
ENDBRANCH   3   5
ENDBRANCH   2   3
ENDBRANCH   1   2
BRANCH   1  28
ATOM     28  C   UNL     1      -2.071  -3.684  -2.297  1.00  0.00     0.275 C 
BRANCH  28  29
ATOM     29  O   UNL     1      -2.631  -3.234  -1.049  1.00  0.00    -0.458 OA
BRANCH  29  30
ATOM     30  C   UNL     1      -2.652  -4.149  -0.054  1.00  0.00     0.338 C 
ATOM     31  O   UNL     1      -2.308  -5.317  -0.113  1.00  0.00    -0.246 OA
BRANCH  30  32
ATOM     32  C   UNL     1      -3.123  -3.537   1.202  1.00  0.00     0.060 A 
ATOM     33  C   UNL     1      -2.470  -2.422   1.710  1.00  0.00     0.016 A 
ATOM     34  C   UNL     1      -4.081  -4.188   1.977  1.00  0.00     0.016 A 
ATOM     35  C   UNL     1      -2.637  -2.066   3.049  1.00  0.00     0.010 A 
ATOM     36  C   UNL     1      -4.359  -3.727   3.271  1.00  0.00     0.010 A 
ATOM     37  C   UNL     1      -3.595  -2.699   3.854  1.00  0.00    -0.014 A 
BRANCH  37  38
ATOM     38  C   UNL     1      -3.768  -2.326   5.295  1.00  0.00     0.031 A 
ATOM     39  C   UNL     1      -3.750  -3.389   6.371  1.00  0.00     0.074 A 
ATOM     40  C   UNL     1      -3.929  -1.038   5.668  1.00  0.00     0.049 A 
ATOM     41  N   UNL     1      -4.102  -3.307   7.632  1.00  0.00    -0.248 NA
ATOM     42  C   UNL     1      -3.288  -4.729   5.973  1.00  0.00     0.031 C 
ATOM     43  C   UNL     1      -3.913   0.118   4.772  1.00  0.00     0.029 A 
ATOM     44  N   UNL     1      -4.128  -0.482   6.912  1.00  0.00    -0.354 N 
ATOM     45  C   UNL     1      -3.987  -4.593   8.149  1.00  0.00     0.074 A 
ATOM     46  C   UNL     1      -3.520  -5.437   7.070  1.00  0.00     0.031 C 
ATOM     47  C   UNL     1      -4.032   1.241   5.493  1.00  0.00     0.029 A 
ATOM     48  C   UNL     1      -4.252   0.886   6.889  1.00  0.00     0.049 A 
ATOM     49  H   UNL     1      -4.176  -1.014   7.739  1.00  0.00     0.167 HD
ATOM     50  C   UNL     1      -4.251  -5.030   9.405  1.00  0.00     0.037 A 
ATOM     51  C   UNL     1      -4.563   1.763   7.863  1.00  0.00     0.037 A 
ATOM     52  C   UNL     1      -4.633  -4.178  10.503  1.00  0.00     0.049 A 
ATOM     53  C   UNL     1      -4.867   1.255   9.242  1.00  0.00     0.074 A 
ATOM     54  C   UNL     1      -4.896  -4.526  11.817  1.00  0.00     0.029 A 
ATOM     55  N   UNL     1      -4.781  -2.801  10.420  1.00  0.00    -0.354 N 
ATOM     56  N   UNL     1      -4.837   0.027   9.698  1.00  0.00    -0.248 NA
ATOM     57  C   UNL     1      -5.278   2.255  10.237  1.00  0.00     0.031 C 
ATOM     58  C   UNL     1      -5.236  -3.366  12.521  1.00  0.00     0.029 A 
ATOM     59  C   UNL     1      -5.141  -2.288  11.657  1.00  0.00     0.049 A 
ATOM     60  H   UNL     1      -4.650  -2.267   9.603  1.00  0.00     0.167 HD
ATOM     61  C   UNL     1      -5.214   0.107  11.031  1.00  0.00     0.074 A 
ATOM     62  C   UNL     1      -5.445   1.507  11.319  1.00  0.00     0.031 C 
ATOM     63  C   UNL     1      -5.364  -0.893  11.933  1.00  0.00     0.037 A 
BRANCH  50  64
ATOM     64  C   UNL     1      -4.179  -6.509   9.661  1.00  0.00     0.064 A 
ATOM     65  C   UNL     1      -2.961  -7.200   9.728  1.00  0.00     0.173 A 
ATOM     66  C   UNL     1      -5.358  -7.239   9.889  1.00  0.00     0.173 A 
ATOM     67  F   UNL     1      -1.806  -6.554   9.508  1.00  0.00    -0.203 F 
ATOM     68  C   UNL     1      -2.927  -8.569   9.986  1.00  0.00     0.198 A 
ATOM     69  C   UNL     1      -5.319  -8.601  10.175  1.00  0.00     0.198 A 
ATOM     70  F   UNL     1      -6.551  -6.625   9.847  1.00  0.00    -0.203 F 
ATOM     71  F   UNL     1      -1.754  -9.217  10.001  1.00  0.00    -0.200 F 
ATOM     72  C   UNL     1      -4.104  -9.266  10.216  1.00  0.00     0.200 A 
ATOM     73  F   UNL     1      -6.457  -9.268  10.412  1.00  0.00    -0.200 F 
ATOM     74  F   UNL     1      -4.067 -10.581  10.472  1.00  0.00    -0.200 F 
ENDBRANCH  50  64
BRANCH  51  75
ATOM     75  C   UNL     1      -4.652   3.214   7.550  1.00  0.00     0.064 A 
ATOM     76  C   UNL     1      -3.728   4.124   8.079  1.00  0.00     0.173 A 
ATOM     77  C   UNL     1      -5.660   3.720   6.713  1.00  0.00     0.173 A 
ATOM     78  F   UNL     1      -2.767   3.694   8.912  1.00  0.00    -0.203 F 
ATOM     79  C   UNL     1      -3.810   5.484   7.789  1.00  0.00     0.198 A 
ATOM     80  C   UNL     1      -5.721   5.074   6.397  1.00  0.00     0.198 A 
ATOM     81  F   UNL     1      -6.575   2.892   6.188  1.00  0.00    -0.203 F 
ATOM     82  F   UNL     1      -2.941   6.339   8.345  1.00  0.00    -0.200 F 
ATOM     83  C   UNL     1      -4.800   5.957   6.940  1.00  0.00     0.200 A 
ATOM     84  F   UNL     1      -6.672   5.523   5.567  1.00  0.00    -0.200 F 
ATOM     85  F   UNL     1      -4.874   7.263   6.654  1.00  0.00    -0.200 F 
ENDBRANCH  51  75
BRANCH  63  86
ATOM     86  C   UNL     1      -5.763  -0.501  13.324  1.00  0.00     0.064 A 
ATOM     87  C   UNL     1      -7.064  -0.071  13.622  1.00  0.00     0.173 A 
ATOM     88  C   UNL     1      -4.834  -0.565  14.374  1.00  0.00     0.173 A 
ATOM     89  F   UNL     1      -7.983   0.024  12.649  1.00  0.00    -0.203 F 
ATOM     90  C   UNL     1      -7.414   0.307  14.915  1.00  0.00     0.198 A 
ATOM     91  C   UNL     1      -5.195  -0.211  15.671  1.00  0.00     0.198 A 
ATOM     92  F   UNL     1      -3.578  -0.974  14.141  1.00  0.00    -0.203 F 
ATOM     93  F   UNL     1      -8.648   0.764  15.168  1.00  0.00    -0.200 F 
ATOM     94  C   UNL     1      -6.481   0.233  15.939  1.00  0.00     0.200 A 
ATOM     95  F   UNL     1      -4.295  -0.293  16.661  1.00  0.00    -0.200 F 
ATOM     96  F   UNL     1      -6.818   0.599  17.183  1.00  0.00    -0.200 F 
ENDBRANCH  63  86
ENDBRANCH  37  38
ENDBRANCH  30  32
ENDBRANCH  29  30
ENDBRANCH  28  29
ENDBRANCH   1  28
TORSDOF 17
