REMARK SMILES C[C@H](C(=O)OCCOC(=O)c1ccc(-c2c3nc(c(-c4c(F)c(F)c(F)c(F)c4F)c4ccc([nH]4)c(-c4c(F)c(F)c(F)c(F)c4F)c4nc(c(-c5c(F)c(F)c(F)c(F)c5F)c5ccc2[nH]5)C=C4)C=C3)cc1)N1C(=O)C[C@@H](N2C(=O)/C(=C/c3ccccc3)SC2=S)C1=O
REMARK SMILES IDX 6 1 5 2 3 3 4 4 2 5 1 6 74 7 75 8 93 9 76 10 77 11 78 12
REMARK SMILES IDX 94 13 79 14 80 15 91 16 81 17 82 18 90 19 92 20 83 21 84 22
REMARK SMILES IDX 85 23 89 24 86 25 88 26 87 27 7 28 8 29 9 30 10 31 11 32
REMARK SMILES IDX 12 33 73 34 13 35 72 36 14 37 15 38 16 39 66 40 17 41 71 42
REMARK SMILES IDX 65 43 67 44 18 45 70 46 64 47 63 48 19 50 51 51 31 52 50 53
REMARK SMILES IDX 32 54 35 55 49 56 68 57 33 58 34 59 48 61 69 62 36 63 20 64
REMARK SMILES IDX 21 65 29 66 22 67 23 68 27 69 30 70 24 71 25 72 28 73 26 74
REMARK SMILES IDX 52 75 53 76 61 77 54 78 55 79 59 80 62 81 56 82 57 83 60 84
REMARK SMILES IDX 58 85 37 86 38 87 46 88 39 89 40 90 44 91 47 92 41 93 42 94
REMARK SMILES IDX 45 95 43 96
REMARK H PARENT 67 49 35 60
REMARK Flexibility Score: inf
ROOT
ATOM      1  C   UNL     1       0.937   1.959   0.681  1.00  0.00     0.274 C 
ENDROOT
BRANCH   1   2
ATOM      2  O   UNL     1       0.240   0.697   0.694  1.00  0.00    -0.461 OA
BRANCH   2   3
ATOM      3  C   UNL     1       0.529  -0.139  -0.342  1.00  0.00     0.329 C 
ATOM      4  O   UNL     1       1.415   0.051  -1.170  1.00  0.00    -0.250 OA
BRANCH   3   5
ATOM      5  C   UNL     1      -0.273  -1.445  -0.291  1.00  0.00     0.200 C 
ATOM      6  C   UNL     1       0.227  -2.263   0.909  1.00  0.00     0.044 C 
BRANCH   5   7
ATOM      7  N   UNL     1      -1.729  -1.313  -0.253  1.00  0.00    -0.267 N 
ATOM      8  C   UNL     1      -2.419  -0.194  -0.630  1.00  0.00     0.232 C 
ATOM      9  C   UNL     1      -2.523  -2.430  -0.338  1.00  0.00     0.253 C 
ATOM     10  O   UNL     1      -1.966   0.899  -0.936  1.00  0.00    -0.274 OA
ATOM     11  C   UNL     1      -3.889  -0.488  -0.600  1.00  0.00     0.136 C 
ATOM     12  C   UNL     1      -3.948  -2.003  -0.600  1.00  0.00     0.191 C 
ATOM     13  O   UNL     1      -2.153  -3.596  -0.360  1.00  0.00    -0.272 OA
BRANCH  12  14
ATOM     14  N   UNL     1      -4.385  -2.628  -1.860  1.00  0.00    -0.280 N 
ATOM     15  C   UNL     1      -3.756  -2.284  -3.045  1.00  0.00     0.266 C 
ATOM     16  C   UNL     1      -5.335  -3.625  -1.949  1.00  0.00     0.149 C 
ATOM     17  O   UNL     1      -2.818  -1.506  -3.151  1.00  0.00    -0.268 OA
ATOM     18  C   UNL     1      -4.370  -2.990  -4.191  1.00  0.00     0.081 C 
ATOM     19  S   UNL     1      -5.562  -4.087  -3.632  1.00  0.00    -0.054 SA
ATOM     20  S   UNL     1      -6.225  -4.316  -0.720  1.00  0.00    -0.052 S 
ATOM     21  C   UNL     1      -4.006  -2.716  -5.451  1.00  0.00     0.029 C 
BRANCH  21  22
ATOM     22  C   UNL     1      -4.643  -3.253  -6.655  1.00  0.00    -0.024 A 
ATOM     23  C   UNL     1      -3.911  -4.034  -7.554  1.00  0.00     0.008 A 
ATOM     24  C   UNL     1      -5.978  -2.941  -6.942  1.00  0.00     0.008 A 
ATOM     25  C   UNL     1      -4.518  -4.518  -8.715  1.00  0.00     0.001 A 
ATOM     26  C   UNL     1      -6.583  -3.427  -8.101  1.00  0.00     0.001 A 
ATOM     27  C   UNL     1      -5.853  -4.217  -8.986  1.00  0.00     0.000 A 
ENDBRANCH  21  22
ENDBRANCH  12  14
ENDBRANCH   5   7
ENDBRANCH   3   5
ENDBRANCH   2   3
ENDBRANCH   1   2
BRANCH   1  28
ATOM     28  C   UNL     1       2.058   1.971   1.716  1.00  0.00     0.275 C 
BRANCH  28  29
ATOM     29  O   UNL     1       3.009   0.932   1.420  1.00  0.00    -0.458 OA
BRANCH  29  30
ATOM     30  C   UNL     1       3.077  -0.069   2.326  1.00  0.00     0.338 C 
ATOM     31  O   UNL     1       2.484  -0.152   3.388  1.00  0.00    -0.246 OA
BRANCH  30  32
ATOM     32  C   UNL     1       3.961  -1.142   1.839  1.00  0.00     0.060 A 
ATOM     33  C   UNL     1       3.711  -1.741   0.607  1.00  0.00     0.016 A 
ATOM     34  C   UNL     1       4.920  -1.681   2.694  1.00  0.00     0.016 A 
ATOM     35  C   UNL     1       4.304  -2.959   0.292  1.00  0.00     0.010 A 
ATOM     36  C   UNL     1       5.619  -2.829   2.310  1.00  0.00     0.010 A 
ATOM     37  C   UNL     1       5.287  -3.510   1.125  1.00  0.00    -0.014 A 
BRANCH  37  38
ATOM     38  C   UNL     1       5.953  -4.795   0.773  1.00  0.00     0.031 A 
ATOM     39  C   UNL     1       5.954  -5.943   1.749  1.00  0.00     0.074 A 
ATOM     40  C   UNL     1       6.567  -4.938  -0.419  1.00  0.00     0.049 A 
ATOM     41  N   UNL     1       6.675  -7.036   1.743  1.00  0.00    -0.248 NA
ATOM     42  C   UNL     1       5.036  -5.839   2.894  1.00  0.00     0.031 C 
ATOM     43  C   UNL     1       6.600  -3.935  -1.485  1.00  0.00     0.029 A 
ATOM     44  N   UNL     1       7.285  -5.988  -0.936  1.00  0.00    -0.354 N 
ATOM     45  C   UNL     1       6.353  -7.710   2.915  1.00  0.00     0.074 A 
ATOM     46  C   UNL     1       5.363  -6.910   3.604  1.00  0.00     0.031 C 
ATOM     47  C   UNL     1       7.261  -4.430  -2.539  1.00  0.00     0.029 A 
ATOM     48  C   UNL     1       7.797  -5.738  -2.186  1.00  0.00     0.049 A 
ATOM     49  H   UNL     1       7.421  -6.838  -0.457  1.00  0.00     0.167 HD
ATOM     50  C   UNL     1       6.849  -8.885   3.373  1.00  0.00     0.037 A 
ATOM     51  C   UNL     1       8.652  -6.448  -2.944  1.00  0.00     0.037 A 
ATOM     52  C   UNL     1       7.781  -9.708   2.645  1.00  0.00     0.049 A 
ATOM     53  C   UNL     1       9.207  -7.734  -2.405  1.00  0.00     0.074 A 
ATOM     54  C   UNL     1       8.325 -10.928   3.008  1.00  0.00     0.029 A 
ATOM     55  N   UNL     1       8.292  -9.401   1.392  1.00  0.00    -0.354 N 
ATOM     56  N   UNL     1       8.958  -8.327  -1.264  1.00  0.00    -0.248 NA
ATOM     57  C   UNL     1      10.185  -8.434  -3.247  1.00  0.00     0.031 C 
ATOM     58  C   UNL     1       9.191 -11.343   1.990  1.00  0.00     0.029 A 
ATOM     59  C   UNL     1       9.154 -10.402   0.974  1.00  0.00     0.049 A 
ATOM     60  H   UNL     1       8.074  -8.591   0.876  1.00  0.00     0.167 HD
ATOM     61  C   UNL     1       9.737  -9.474  -1.253  1.00  0.00     0.074 A 
ATOM     62  C   UNL     1      10.454  -9.504  -2.512  1.00  0.00     0.031 C 
ATOM     63  C   UNL     1       9.855 -10.414  -0.284  1.00  0.00     0.037 A 
BRANCH  50  64
ATOM     64  C   UNL     1       6.431  -9.338   4.743  1.00  0.00     0.064 A 
ATOM     65  C   UNL     1       5.148  -9.835   5.007  1.00  0.00     0.173 A 
ATOM     66  C   UNL     1       7.356  -9.315   5.800  1.00  0.00     0.173 A 
ATOM     67  F   UNL     1       4.223  -9.867   4.036  1.00  0.00    -0.203 F 
ATOM     68  C   UNL     1       4.798 -10.272   6.284  1.00  0.00     0.198 A 
ATOM     69  C   UNL     1       7.011  -9.778   7.068  1.00  0.00     0.198 A 
ATOM     70  F   UNL     1       8.600  -8.855   5.601  1.00  0.00    -0.203 F 
ATOM     71  F   UNL     1       3.552 -10.706   6.524  1.00  0.00    -0.200 F 
ATOM     72  C   UNL     1       5.731 -10.250   7.310  1.00  0.00     0.200 A 
ATOM     73  F   UNL     1       7.919  -9.768   8.054  1.00  0.00    -0.200 F 
ATOM     74  F   UNL     1       5.394 -10.680   8.534  1.00  0.00    -0.200 F 
ENDBRANCH  50  64
BRANCH  51  75
ATOM     75  C   UNL     1       9.070  -5.925  -4.270  1.00  0.00     0.064 A 
ATOM     76  C   UNL     1       8.663  -6.555  -5.453  1.00  0.00     0.173 A 
ATOM     77  C   UNL     1       9.862  -4.771  -4.383  1.00  0.00     0.173 A 
ATOM     78  F   UNL     1       7.927  -7.675  -5.395  1.00  0.00    -0.203 F 
ATOM     79  C   UNL     1       9.035  -6.054  -6.699  1.00  0.00     0.198 A 
ATOM     80  C   UNL     1      10.206  -4.254  -5.629  1.00  0.00     0.198 A 
ATOM     81  F   UNL     1      10.278  -4.131  -3.281  1.00  0.00    -0.203 F 
ATOM     82  F   UNL     1       8.662  -6.696  -7.814  1.00  0.00    -0.200 F 
ATOM     83  C   UNL     1       9.797  -4.899  -6.786  1.00  0.00     0.200 A 
ATOM     84  F   UNL     1      10.928  -3.127  -5.708  1.00  0.00    -0.200 F 
ATOM     85  F   UNL     1      10.141  -4.409  -7.985  1.00  0.00    -0.200 F 
ENDBRANCH  51  75
BRANCH  63  86
ATOM     86  C   UNL     1      10.768 -11.567  -0.567  1.00  0.00     0.064 A 
ATOM     87  C   UNL     1      12.163 -11.422  -0.538  1.00  0.00     0.173 A 
ATOM     88  C   UNL     1      10.242 -12.836  -0.852  1.00  0.00     0.173 A 
ATOM     89  F   UNL     1      12.712 -10.224  -0.289  1.00  0.00    -0.203 F 
ATOM     90  C   UNL     1      12.998 -12.503  -0.807  1.00  0.00     0.198 A 
ATOM     91  C   UNL     1      11.080 -13.919  -1.096  1.00  0.00     0.198 A 
ATOM     92  F   UNL     1       8.914 -13.024  -0.889  1.00  0.00    -0.203 F 
ATOM     93  F   UNL     1      14.327 -12.333  -0.821  1.00  0.00    -0.200 F 
ATOM     94  C   UNL     1      12.457 -13.750  -1.081  1.00  0.00     0.200 A 
ATOM     95  F   UNL     1      10.556 -15.126  -1.352  1.00  0.00    -0.200 F 
ATOM     96  F   UNL     1      13.262 -14.789  -1.339  1.00  0.00    -0.200 F 
ENDBRANCH  63  86
ENDBRANCH  37  38
ENDBRANCH  30  32
ENDBRANCH  29  30
ENDBRANCH  28  29
ENDBRANCH   1  28
TORSDOF 14
