REMARK SMILES C[C@H](C(=O)OCCOC(=O)c1ccc(-c2c3nc(c(-c4c(F)c(F)c(F)c(F)c4F)c4ccc([nH]4)c(-c4c(F)c(F)c(F)c(F)c4F)c4nc(c(-c5c(F)c(F)c(F)c(F)c5F)c5ccc2[nH]5)C=C4)C=C3)cc1)[C@H](C)[NH+]1CC[NH+](CCO)CC1
REMARK SMILES IDX 5 1 3 2 4 3 2 4 1 5 74 6 75 7 76 8 77 9 84 10 78 12 83 13
REMARK SMILES IDX 79 14 80 16 81 17 82 18 6 20 7 21 8 22 9 23 10 24 11 25
REMARK SMILES IDX 12 26 73 27 13 28 72 29 14 30 15 31 16 32 66 33 17 34 71 35
REMARK SMILES IDX 65 36 67 37 18 38 70 39 64 40 63 41 19 43 51 44 31 45 50 46
REMARK SMILES IDX 32 47 35 48 49 49 68 50 33 51 34 52 48 54 69 55 36 56 20 57
REMARK SMILES IDX 21 58 29 59 22 60 23 61 27 62 30 63 24 64 25 65 28 66 26 67
REMARK SMILES IDX 52 68 53 69 61 70 54 71 55 72 59 73 62 74 56 75 57 76 60 77
REMARK SMILES IDX 58 78 37 79 38 80 46 81 39 82 40 83 44 84 47 85 41 86 42 87
REMARK SMILES IDX 45 88 43 89
REMARK H PARENT 76 11 79 15 82 19 67 42 35 53
REMARK Flexibility Score: inf
ROOT
ATOM      1  O   UNL     1      -0.513  -3.086  -1.380  1.00  0.00    -0.462 OA
ENDROOT
BRANCH   1   2
ATOM      2  C   UNL     1       0.037  -1.898  -1.052  1.00  0.00     0.314 C 
ATOM      3  O   UNL     1       1.140  -1.520  -1.433  1.00  0.00    -0.252 OA
BRANCH   2   4
ATOM      4  C   UNL     1      -0.856  -1.039  -0.161  1.00  0.00     0.154 C 
ATOM      5  C   UNL     1      -2.320  -0.907  -0.585  1.00  0.00     0.026 C 
BRANCH   4   6
ATOM      6  C   UNL     1      -0.620  -1.271   1.362  1.00  0.00     0.195 C 
ATOM      7  C   UNL     1       0.870  -0.991   1.670  1.00  0.00     0.076 C 
BRANCH   6   8
ATOM      8  N   UNL     1      -1.176  -2.411   2.115  1.00  0.00    -0.323 N 
ATOM      9  C   UNL     1      -2.488  -2.960   1.771  1.00  0.00     0.324 C 
ATOM     10  C   UNL     1      -0.304  -3.491   2.573  1.00  0.00     0.324 C 
ATOM     11  H   UNL     1      -1.317  -1.786   2.909  1.00  0.00     0.348 HD
ATOM     12  C   UNL     1      -2.468  -4.153   0.784  1.00  0.00     0.324 C 
ATOM     13  C   UNL     1      -0.184  -4.662   1.583  1.00  0.00     0.324 C 
ATOM     14  N   UNL     1      -1.437  -5.170   1.009  1.00  0.00    -0.324 N 
ATOM     15  H   UNL     1      -1.165  -5.430   0.061  1.00  0.00     0.348 HD
BRANCH  14  16
ATOM     16  C   UNL     1      -1.909  -6.449   1.543  1.00  0.00     0.291 C 
BRANCH  16  17
ATOM     17  C   UNL     1      -2.631  -6.437   2.899  1.00  0.00     0.217 C 
BRANCH  17  18
ATOM     18  O   UNL     1      -4.043  -6.321   2.752  1.00  0.00    -0.391 OA
ATOM     19  H   UNL     1      -4.254  -5.486   2.307  1.00  0.00     0.210 HD
ENDBRANCH  17  18
ENDBRANCH  16  17
ENDBRANCH  14  16
ENDBRANCH   6   8
ENDBRANCH   4   6
ENDBRANCH   2   4
ENDBRANCH   1   2
BRANCH   1  20
ATOM     20  C   UNL     1       0.279  -4.013  -2.157  1.00  0.00     0.274 C 
BRANCH  20  21
ATOM     21  C   UNL     1      -0.590  -4.630  -3.251  1.00  0.00     0.275 C 
BRANCH  21  22
ATOM     22  O   UNL     1      -0.892  -3.607  -4.216  1.00  0.00    -0.458 OA
BRANCH  22  23
ATOM     23  C   UNL     1      -2.108  -3.035  -4.081  1.00  0.00     0.338 C 
ATOM     24  O   UNL     1      -3.050  -3.399  -3.403  1.00  0.00    -0.246 OA
BRANCH  23  25
ATOM     25  C   UNL     1      -2.054  -1.726  -4.739  1.00  0.00     0.060 A 
ATOM     26  C   UNL     1      -1.588  -0.656  -3.980  1.00  0.00     0.016 A 
ATOM     27  C   UNL     1      -2.533  -1.527  -6.028  1.00  0.00     0.016 A 
ATOM     28  C   UNL     1      -1.684   0.640  -4.456  1.00  0.00     0.010 A 
ATOM     29  C   UNL     1      -2.543  -0.229  -6.547  1.00  0.00     0.010 A 
ATOM     30  C   UNL     1      -2.143   0.865  -5.755  1.00  0.00    -0.014 A 
BRANCH  30  31
ATOM     31  C   UNL     1      -2.232   2.253  -6.262  1.00  0.00     0.031 A 
ATOM     32  C   UNL     1      -3.573   2.829  -6.605  1.00  0.00     0.074 A 
ATOM     33  C   UNL     1      -1.117   2.999  -6.375  1.00  0.00     0.049 A 
ATOM     34  N   UNL     1      -3.862   3.932  -7.244  1.00  0.00    -0.248 NA
ATOM     35  C   UNL     1      -4.749   2.054  -6.176  1.00  0.00     0.031 C 
ATOM     36  C   UNL     1       0.229   2.575  -5.983  1.00  0.00     0.029 A 
ATOM     37  N   UNL     1      -0.938   4.273  -6.849  1.00  0.00    -0.354 N 
ATOM     38  C   UNL     1      -5.246   3.958  -7.342  1.00  0.00     0.074 A 
ATOM     39  C   UNL     1      -5.742   2.764  -6.690  1.00  0.00     0.031 C 
ATOM     40  C   UNL     1       1.091   3.575  -6.216  1.00  0.00     0.029 A 
ATOM     41  C   UNL     1       0.376   4.671  -6.857  1.00  0.00     0.049 A 
ATOM     42  H   UNL     1      -1.678   4.846  -7.154  1.00  0.00     0.167 HD
ATOM     43  C   UNL     1      -6.023   4.894  -7.935  1.00  0.00     0.037 A 
ATOM     44  C   UNL     1       0.947   5.773  -7.378  1.00  0.00     0.037 A 
ATOM     45  C   UNL     1      -5.507   6.090  -8.548  1.00  0.00     0.049 A 
ATOM     46  C   UNL     1       0.070   6.771  -8.079  1.00  0.00     0.074 A 
ATOM     47  C   UNL     1      -6.194   7.095  -9.203  1.00  0.00     0.029 A 
ATOM     48  N   UNL     1      -4.164   6.445  -8.564  1.00  0.00    -0.354 N 
ATOM     49  N   UNL     1      -1.230   6.752  -8.249  1.00  0.00    -0.248 NA
ATOM     50  C   UNL     1       0.739   7.932  -8.680  1.00  0.00     0.031 C 
ATOM     51  C   UNL     1      -5.263   8.044  -9.643  1.00  0.00     0.029 A 
ATOM     52  C   UNL     1      -4.001   7.651  -9.225  1.00  0.00     0.049 A 
ATOM     53  H   UNL     1      -3.436   5.917  -8.164  1.00  0.00     0.167 HD
ATOM     54  C   UNL     1      -1.538   7.897  -8.967  1.00  0.00     0.074 A 
ATOM     55  C   UNL     1      -0.289   8.601  -9.182  1.00  0.00     0.031 C 
ATOM     56  C   UNL     1      -2.743   8.326  -9.417  1.00  0.00     0.037 A 
BRANCH  43  57
ATOM     57  C   UNL     1      -7.498   4.631  -7.995  1.00  0.00     0.064 A 
ATOM     58  C   UNL     1      -8.318   4.723  -6.861  1.00  0.00     0.173 A 
ATOM     59  C   UNL     1      -8.102   4.283  -9.213  1.00  0.00     0.173 A 
ATOM     60  F   UNL     1      -7.787   5.032  -5.668  1.00  0.00    -0.203 F 
ATOM     61  C   UNL     1      -9.682   4.453  -6.939  1.00  0.00     0.198 A 
ATOM     62  C   UNL     1      -9.470   4.039  -9.294  1.00  0.00     0.198 A 
ATOM     63  F   UNL     1      -7.363   4.179 -10.328  1.00  0.00    -0.203 F 
ATOM     64  F   UNL     1     -10.438   4.500  -5.833  1.00  0.00    -0.200 F 
ATOM     65  C   UNL     1     -10.258   4.116  -8.156  1.00  0.00     0.200 A 
ATOM     66  F   UNL     1     -10.025   3.720 -10.471  1.00  0.00    -0.200 F 
ATOM     67  F   UNL     1     -11.571   3.856  -8.229  1.00  0.00    -0.200 F 
ENDBRANCH  43  57
BRANCH  44  68
ATOM     68  C   UNL     1       2.421   5.949  -7.305  1.00  0.00     0.064 A 
ATOM     69  C   UNL     1       2.991   6.957  -6.517  1.00  0.00     0.173 A 
ATOM     70  C   UNL     1       3.291   5.102  -8.009  1.00  0.00     0.173 A 
ATOM     71  F   UNL     1       2.202   7.808  -5.844  1.00  0.00    -0.203 F 
ATOM     72  C   UNL     1       4.374   7.116  -6.441  1.00  0.00     0.198 A 
ATOM     73  C   UNL     1       4.673   5.241  -7.908  1.00  0.00     0.198 A 
ATOM     74  F   UNL     1       2.797   4.121  -8.778  1.00  0.00    -0.203 F 
ATOM     75  F   UNL     1       4.893   8.111  -5.710  1.00  0.00    -0.200 F 
ATOM     76  C   UNL     1       5.213   6.252  -7.129  1.00  0.00     0.200 A 
ATOM     77  F   UNL     1       5.479   4.395  -8.563  1.00  0.00    -0.200 F 
ATOM     78  F   UNL     1       6.543   6.399  -7.047  1.00  0.00    -0.200 F 
ENDBRANCH  44  68
BRANCH  56  79
ATOM     79  C   UNL     1      -2.762   9.627 -10.159  1.00  0.00     0.064 A 
ATOM     80  C   UNL     1      -2.292   9.725 -11.476  1.00  0.00     0.173 A 
ATOM     81  C   UNL     1      -3.286  10.779  -9.555  1.00  0.00     0.173 A 
ATOM     82  F   UNL     1      -1.766   8.653 -12.087  1.00  0.00    -0.203 F 
ATOM     83  C   UNL     1      -2.328  10.939 -12.156  1.00  0.00     0.198 A 
ATOM     84  C   UNL     1      -3.343  11.984 -10.246  1.00  0.00     0.198 A 
ATOM     85  F   UNL     1      -3.750  10.731  -8.297  1.00  0.00    -0.203 F 
ATOM     86  F   UNL     1      -1.835  11.023 -13.399  1.00  0.00    -0.200 F 
ATOM     87  C   UNL     1      -2.858  12.065 -11.544  1.00  0.00     0.200 A 
ATOM     88  F   UNL     1      -3.864  13.069  -9.657  1.00  0.00    -0.200 F 
ATOM     89  F   UNL     1      -2.895  13.232 -12.202  1.00  0.00    -0.200 F 
ENDBRANCH  56  79
ENDBRANCH  30  31
ENDBRANCH  23  25
ENDBRANCH  22  23
ENDBRANCH  21  22
ENDBRANCH  20  21
ENDBRANCH   1  20
TORSDOF 16
