REMARK SMILES COCc1cccc(C[NH2+][C@H](C)[C@H](C)C(=O)OCCOC(=O)c2ccc(-c3c4nc(c(-c5c(F)c(F)c(F)c(F)c5F)c5ccc([nH]5)c(-c5c(F)c(F)c(F)c(F)c5F)c5nc(c(-c6c(F)c(F)c(F)c(F)c6F)c6ccc3[nH]6)C=C5)C=C4)cc2)c1
REMARK SMILES IDX 15 1 16 2 13 3 14 4 11 5 12 6 10 7 9 10 8 11 4 12 5 13 86 14
REMARK SMILES IDX 6 15 7 16 3 17 2 18 1 19 17 20 18 21 19 22 20 23 21 24 22 25
REMARK SMILES IDX 23 26 24 27 85 28 25 29 84 30 26 31 27 32 28 33 78 34 29 35
REMARK SMILES IDX 83 36 77 37 79 38 30 39 82 40 76 41 75 42 31 44 63 45 43 46
REMARK SMILES IDX 62 47 44 48 47 49 61 50 80 51 45 52 46 53 60 55 81 56 48 57
REMARK SMILES IDX 32 58 33 59 41 60 34 61 35 62 39 63 42 64 36 65 37 66 40 67
REMARK SMILES IDX 38 68 64 69 65 70 73 71 66 72 67 73 71 74 74 75 68 76 69 77
REMARK SMILES IDX 72 78 70 79 49 80 50 81 58 82 51 83 52 84 56 85 59 86 53 87
REMARK SMILES IDX 54 88 57 89 55 90
REMARK H PARENT 10 8 10 9 79 43 47 54
REMARK Flexibility Score: inf
ROOT
ATOM      1  C   UNL     1      -0.381 -11.214   0.353  1.00  0.00     0.314 C 
ATOM      2  O   UNL     1      -1.185 -11.920   0.953  1.00  0.00    -0.252 OA
ENDROOT
BRANCH   1   3
ATOM      3  C   UNL     1      -0.680  -9.767  -0.013  1.00  0.00     0.154 C 
ATOM      4  C   UNL     1       0.573  -8.901  -0.174  1.00  0.00     0.026 C 
BRANCH   3   5
ATOM      5  C   UNL     1      -1.655  -9.567  -1.209  1.00  0.00     0.193 C 
ATOM      6  C   UNL     1      -2.208 -10.872  -1.791  1.00  0.00     0.076 C 
BRANCH   5   7
ATOM      7  N   UNL     1      -2.752  -8.696  -0.749  1.00  0.00    -0.340 N 
ATOM      8  H   UNL     1      -3.359  -9.250  -0.145  1.00  0.00     0.346 HD
ATOM      9  H   UNL     1      -2.304  -7.910  -0.278  1.00  0.00     0.346 HD
BRANCH   7  10
ATOM     10  C   UNL     1      -3.579  -8.109  -1.799  1.00  0.00     0.297 C 
BRANCH  10  11
ATOM     11  C   UNL     1      -4.817  -7.497  -1.179  1.00  0.00     0.006 A 
ATOM     12  C   UNL     1      -6.144  -5.552  -0.524  1.00  0.00    -0.022 A 
ATOM     13  C   UNL     1      -7.088  -6.411   0.057  1.00  0.00     0.006 A 
ATOM     14  C   UNL     1      -5.000  -6.107  -1.125  1.00  0.00     0.015 A 
ATOM     15  C   UNL     1      -6.919  -7.793   0.003  1.00  0.00     0.001 A 
ATOM     16  C   UNL     1      -5.792  -8.332  -0.612  1.00  0.00     0.009 A 
BRANCH  12  17
ATOM     17  C   UNL     1      -6.298  -4.049  -0.450  1.00  0.00     0.195 C 
BRANCH  17  18
ATOM     18  O   UNL     1      -7.654  -3.619  -0.304  1.00  0.00    -0.380 OA
ATOM     19  C   UNL     1      -8.376  -3.641  -1.529  1.00  0.00     0.195 C 
ENDBRANCH  17  18
ENDBRANCH  12  17
ENDBRANCH  10  11
ENDBRANCH   7  10
ENDBRANCH   5   7
ENDBRANCH   3   5
ENDBRANCH   1   3
BRANCH   1  20
ATOM     20  O   UNL     1       0.853 -11.624  -0.040  1.00  0.00    -0.462 OA
BRANCH  20  21
ATOM     21  C   UNL     1       1.211 -12.970   0.334  1.00  0.00     0.274 C 
BRANCH  21  22
ATOM     22  C   UNL     1       2.020 -13.016   1.635  1.00  0.00     0.275 C 
BRANCH  22  23
ATOM     23  O   UNL     1       1.242 -12.609   2.778  1.00  0.00    -0.458 OA
BRANCH  23  24
ATOM     24  C   UNL     1       1.395 -11.315   3.142  1.00  0.00     0.338 C 
ATOM     25  O   UNL     1       2.133 -10.488   2.637  1.00  0.00    -0.246 OA
BRANCH  24  26
ATOM     26  C   UNL     1       0.433 -10.964   4.200  1.00  0.00     0.060 A 
ATOM     27  C   UNL     1      -0.515  -9.980   3.912  1.00  0.00     0.016 A 
ATOM     28  C   UNL     1       0.527 -11.499   5.486  1.00  0.00     0.016 A 
ATOM     29  C   UNL     1      -1.375  -9.519   4.903  1.00  0.00     0.010 A 
ATOM     30  C   UNL     1      -0.334 -11.030   6.488  1.00  0.00     0.010 A 
ATOM     31  C   UNL     1      -1.278 -10.027   6.205  1.00  0.00    -0.014 A 
BRANCH  31  32
ATOM     32  C   UNL     1      -2.128  -9.443   7.270  1.00  0.00     0.031 A 
ATOM     33  C   UNL     1      -1.538  -8.471   8.250  1.00  0.00     0.074 A 
ATOM     34  C   UNL     1      -3.438  -9.743   7.322  1.00  0.00     0.049 A 
ATOM     35  N   UNL     1      -2.102  -7.873   9.268  1.00  0.00    -0.248 NA
ATOM     36  C   UNL     1      -0.121  -8.125   8.057  1.00  0.00     0.031 C 
ATOM     37  C   UNL     1      -4.136 -10.634   6.397  1.00  0.00     0.029 A 
ATOM     38  N   UNL     1      -4.417  -9.322   8.188  1.00  0.00    -0.354 N 
ATOM     39  C   UNL     1      -1.109  -7.096   9.848  1.00  0.00     0.074 A 
ATOM     40  C   UNL     1       0.098  -7.307   9.077  1.00  0.00     0.031 C 
ATOM     41  C   UNL     1      -5.432 -10.693   6.742  1.00  0.00     0.029 A 
ATOM     42  C   UNL     1      -5.647  -9.872   7.931  1.00  0.00     0.049 A 
ATOM     43  H   UNL     1      -4.251  -8.687   8.922  1.00  0.00     0.167 HD
ATOM     44  C   UNL     1      -1.199  -6.278  10.925  1.00  0.00     0.037 A 
ATOM     45  C   UNL     1      -6.812  -9.743   8.594  1.00  0.00     0.037 A 
ATOM     46  C   UNL     1      -2.405  -6.054  11.679  1.00  0.00     0.049 A 
ATOM     47  C   UNL     1      -6.877  -8.855   9.807  1.00  0.00     0.074 A 
ATOM     48  C   UNL     1      -2.598  -5.235  12.778  1.00  0.00     0.029 A 
ATOM     49  N   UNL     1      -3.627  -6.652  11.408  1.00  0.00    -0.354 N 
ATOM     50  N   UNL     1      -5.931  -8.132  10.354  1.00  0.00    -0.248 NA
ATOM     51  C   UNL     1      -8.172  -8.769  10.495  1.00  0.00     0.031 C 
ATOM     52  C   UNL     1      -3.929  -5.365  13.194  1.00  0.00     0.029 A 
ATOM     53  C   UNL     1      -4.574  -6.234  12.330  1.00  0.00     0.049 A 
ATOM     54  H   UNL     1      -3.797  -7.281  10.669  1.00  0.00     0.167 HD
ATOM     55  C   UNL     1      -6.516  -7.496  11.440  1.00  0.00     0.074 A 
ATOM     56  C   UNL     1      -7.906  -7.903  11.463  1.00  0.00     0.031 C 
ATOM     57  C   UNL     1      -5.952  -6.654  12.341  1.00  0.00     0.037 A 
BRANCH  44  58
ATOM     58  C   UNL     1       0.055  -5.589  11.373  1.00  0.00     0.064 A 
ATOM     59  C   UNL     1       0.597  -4.508  10.663  1.00  0.00     0.173 A 
ATOM     60  C   UNL     1       0.707  -6.001  12.544  1.00  0.00     0.173 A 
ATOM     61  F   UNL     1       0.018  -4.086   9.528  1.00  0.00    -0.203 F 
ATOM     62  C   UNL     1       1.760  -3.878  11.098  1.00  0.00     0.198 A 
ATOM     63  C   UNL     1       1.857  -5.354  12.989  1.00  0.00     0.198 A 
ATOM     64  F   UNL     1       0.227  -7.028  13.261  1.00  0.00    -0.203 F 
ATOM     65  F   UNL     1       2.285  -2.873  10.383  1.00  0.00    -0.200 F 
ATOM     66  C   UNL     1       2.386  -4.298  12.263  1.00  0.00     0.200 A 
ATOM     67  F   UNL     1       2.455  -5.756  14.119  1.00  0.00    -0.200 F 
ATOM     68  F   UNL     1       3.504  -3.689  12.682  1.00  0.00    -0.200 F 
ENDBRANCH  44  58
BRANCH  45  69
ATOM     69  C   UNL     1      -8.009 -10.489   8.130  1.00  0.00     0.064 A 
ATOM     70  C   UNL     1      -9.096  -9.824   7.547  1.00  0.00     0.173 A 
ATOM     71  C   UNL     1      -8.087 -11.883   8.261  1.00  0.00     0.173 A 
ATOM     72  F   UNL     1      -9.078  -8.489   7.428  1.00  0.00    -0.203 F 
ATOM     73  C   UNL     1     -10.222 -10.526   7.121  1.00  0.00     0.198 A 
ATOM     74  C   UNL     1      -9.202 -12.586   7.812  1.00  0.00     0.198 A 
ATOM     75  F   UNL     1      -7.075 -12.563   8.818  1.00  0.00    -0.203 F 
ATOM     76  F   UNL     1     -11.265  -9.864   6.603  1.00  0.00    -0.200 F 
ATOM     77  C   UNL     1     -10.271 -11.906   7.247  1.00  0.00     0.200 A 
ATOM     78  F   UNL     1      -9.242 -13.920   7.928  1.00  0.00    -0.200 F 
ATOM     79  F   UNL     1     -11.352 -12.581   6.833  1.00  0.00    -0.200 F 
ENDBRANCH  45  69
BRANCH  57  80
ATOM     80  C   UNL     1      -6.844  -6.110  13.416  1.00  0.00     0.064 A 
ATOM     81  C   UNL     1      -7.274  -6.910  14.485  1.00  0.00     0.173 A 
ATOM     82  C   UNL     1      -7.257  -4.770  13.388  1.00  0.00     0.173 A 
ATOM     83  F   UNL     1      -6.918  -8.202  14.546  1.00  0.00    -0.203 F 
ATOM     84  C   UNL     1      -8.106  -6.394  15.475  1.00  0.00     0.198 A 
ATOM     85  C   UNL     1      -8.070  -4.251  14.393  1.00  0.00     0.198 A 
ATOM     86  F   UNL     1      -6.869  -3.963  12.390  1.00  0.00    -0.203 F 
ATOM     87  F   UNL     1      -8.541  -7.188  16.462  1.00  0.00    -0.200 F 
ATOM     88  C   UNL     1      -8.499  -5.065  15.430  1.00  0.00     0.200 A 
ATOM     89  F   UNL     1      -8.442  -2.964  14.354  1.00  0.00    -0.200 F 
ATOM     90  F   UNL     1      -9.301  -4.570  16.384  1.00  0.00    -0.200 F 
ENDBRANCH  57  80
ENDBRANCH  31  32
ENDBRANCH  24  26
ENDBRANCH  23  24
ENDBRANCH  22  23
ENDBRANCH  21  22
ENDBRANCH  20  21
ENDBRANCH   1  20
TORSDOF 17
