REMARK SMILES Cc1ccc(C(=O)OCCOC(=O)c2ccc(-c3c4nc(c(-c5c(F)c(F)c(F)c(F)c5F)c5ccc([nH]5)c(-c5c(F)c(F)c(F)c(F)c5F)c5nc(c(-c6c(F)c(F)c(F)c(F)c6F)c6ccc3[nH]6)C=C5)C=C4)cc2)cc1NC(=O)C(=O)NC[C@@H](c1ccccc1)[NH+]1CC[NH+](C)CC1
REMARK SMILES IDX 8 1 6 2 7 3 5 4 1 5 2 6 3 7 78 8 4 9 77 10 79 11 80 12 81 14
REMARK SMILES IDX 82 15 83 16 84 17 85 19 86 20 93 21 94 22 99 23 95 25 98 26
REMARK SMILES IDX 96 27 97 28 87 30 88 31 92 32 89 33 91 34 90 35 9 36 10 37
REMARK SMILES IDX 11 38 12 39 13 40 14 41 15 42 76 43 16 44 75 45 17 46 18 47
REMARK SMILES IDX 19 48 69 49 20 50 74 51 68 52 70 53 21 54 73 55 67 56 66 57
REMARK SMILES IDX 22 59 54 60 34 61 53 62 35 63 38 64 52 65 71 66 36 67 37 68
REMARK SMILES IDX 51 70 72 71 39 72 23 73 24 74 32 75 25 76 26 77 30 78 33 79
REMARK SMILES IDX 27 80 28 81 31 82 29 83 55 84 56 85 64 86 57 87 58 88 62 89
REMARK SMILES IDX 65 90 59 91 60 92 63 93 61 94 40 95 41 96 49 97 42 98 43 99
REMARK SMILES IDX 47 100 50 101 44 102 45 103 48 104 46 105
REMARK H PARENT 79 13 84 18 93 24 96 29 70 58 38 69
REMARK Flexibility Score: inf
ROOT
ATOM      1  O   UNL     1       1.160   8.498  -6.759  1.00  0.00    -0.458 OA
ENDROOT
BRANCH   1   2
ATOM      2  C   UNL     1       1.288   9.279  -5.652  1.00  0.00     0.338 C 
ATOM      3  O   UNL     1       1.630   8.844  -4.554  1.00  0.00    -0.246 OA
BRANCH   2   4
ATOM      4  C   UNL     1       0.909  10.712  -5.797  1.00  0.00     0.062 A 
ATOM      5  C   UNL     1      -1.149  14.489  -5.460  1.00  0.00     0.046 C 
ATOM      6  C   UNL     1      -0.427  13.175  -5.550  1.00  0.00    -0.027 A 
ATOM      7  C   UNL     1       0.050  12.721  -6.803  1.00  0.00     0.006 A 
ATOM      8  C   UNL     1      -0.177  12.372  -4.437  1.00  0.00     0.045 A 
ATOM      9  C   UNL     1       0.626  11.441  -6.943  1.00  0.00     0.016 A 
ATOM     10  C   UNL     1       0.715  11.327  -4.568  1.00  0.00     0.042 A 
BRANCH   8  11
ATOM     11  N   UNL     1      -0.852  12.490  -3.204  1.00  0.00    -0.318 N 
ATOM     12  C   UNL     1      -1.111  11.438  -2.312  1.00  0.00     0.313 C 
ATOM     13  H   UNL     1      -1.168  13.386  -2.948  1.00  0.00     0.170 HD
ATOM     14  O   UNL     1      -1.509  11.654  -1.173  1.00  0.00    -0.263 OA
BRANCH  12  15
ATOM     15  C   UNL     1      -0.983   9.961  -2.841  1.00  0.00     0.309 C 
ATOM     16  O   UNL     1      -1.348   9.650  -3.971  1.00  0.00    -0.264 OA
ATOM     17  N   UNL     1      -0.411   9.009  -2.032  1.00  0.00    -0.341 N 
ATOM     18  H   UNL     1       0.419   8.577  -2.336  1.00  0.00     0.164 HD
BRANCH  17  19
ATOM     19  C   UNL     1      -0.971   8.605  -0.747  1.00  0.00     0.186 C 
BRANCH  19  20
ATOM     20  C   UNL     1      -1.628   7.168  -0.795  1.00  0.00     0.235 C 
BRANCH  20  21
ATOM     21  N   UNL     1      -3.051   7.000  -1.173  1.00  0.00    -0.318 N 
ATOM     22  C   UNL     1      -3.472   7.566  -2.461  1.00  0.00     0.325 C 
ATOM     23  C   UNL     1      -4.070   7.291  -0.158  1.00  0.00     0.325 C 
ATOM     24  H   UNL     1      -3.021   5.985  -1.276  1.00  0.00     0.349 HD
ATOM     25  C   UNL     1      -4.027   9.012  -2.421  1.00  0.00     0.324 C 
ATOM     26  C   UNL     1      -4.455   8.775  -0.030  1.00  0.00     0.324 C 
ATOM     27  N   UNL     1      -4.908   9.371  -1.298  1.00  0.00    -0.328 N 
ATOM     28  C   UNL     1      -4.959  10.834  -1.163  1.00  0.00     0.333 C 
ATOM     29  H   UNL     1      -5.837   9.003  -1.500  1.00  0.00     0.348 HD
ENDBRANCH  20  21
BRANCH  20  30
ATOM     30  C   UNL     1      -1.280   6.308   0.432  1.00  0.00     0.011 A 
ATOM     31  C   UNL     1      -1.276   4.905   0.304  1.00  0.00     0.010 A 
ATOM     32  C   UNL     1      -0.982   6.857   1.690  1.00  0.00     0.010 A 
ATOM     33  C   UNL     1      -0.944   4.084   1.383  1.00  0.00     0.001 A 
ATOM     34  C   UNL     1      -0.633   6.035   2.764  1.00  0.00     0.001 A 
ATOM     35  C   UNL     1      -0.609   4.651   2.610  1.00  0.00     0.000 A 
ENDBRANCH  20  30
ENDBRANCH  19  20
ENDBRANCH  17  19
ENDBRANCH  12  15
ENDBRANCH   8  11
ENDBRANCH   2   4
ENDBRANCH   1   2
BRANCH   1  36
ATOM     36  C   UNL     1       1.500   7.131  -6.461  1.00  0.00     0.275 C 
BRANCH  36  37
ATOM     37  C   UNL     1       2.095   6.324  -7.622  1.00  0.00     0.275 C 
BRANCH  37  38
ATOM     38  O   UNL     1       2.868   6.961  -8.673  1.00  0.00    -0.458 OA
BRANCH  38  39
ATOM     39  C   UNL     1       3.279   8.246  -8.695  1.00  0.00     0.338 C 
ATOM     40  O   UNL     1       3.165   8.964  -9.682  1.00  0.00    -0.246 OA
BRANCH  39  41
ATOM     41  C   UNL     1       3.934   8.739  -7.475  1.00  0.00     0.060 A 
ATOM     42  C   UNL     1       3.862  10.114  -7.180  1.00  0.00     0.016 A 
ATOM     43  C   UNL     1       4.481   7.827  -6.575  1.00  0.00     0.016 A 
ATOM     44  C   UNL     1       4.289  10.580  -5.947  1.00  0.00     0.010 A 
ATOM     45  C   UNL     1       4.763   8.254  -5.306  1.00  0.00     0.010 A 
ATOM     46  C   UNL     1       4.738   9.633  -5.031  1.00  0.00    -0.014 A 
BRANCH  46  47
ATOM     47  C   UNL     1       5.626   9.979  -3.941  1.00  0.00     0.031 A 
ATOM     48  C   UNL     1       5.100  10.250  -2.599  1.00  0.00     0.074 A 
ATOM     49  C   UNL     1       6.897   9.737  -4.338  1.00  0.00     0.049 A 
ATOM     50  N   UNL     1       5.705  10.947  -1.704  1.00  0.00    -0.248 NA
ATOM     51  C   UNL     1       3.775   9.814  -2.156  1.00  0.00     0.031 C 
ATOM     52  C   UNL     1       8.124   9.472  -3.620  1.00  0.00     0.029 A 
ATOM     53  N   UNL     1       7.309   9.750  -5.691  1.00  0.00    -0.354 N 
ATOM     54  C   UNL     1       5.087  10.649  -0.501  1.00  0.00     0.074 A 
ATOM     55  C   UNL     1       3.784  10.158  -0.862  1.00  0.00     0.031 C 
ATOM     56  C   UNL     1       9.161   9.686  -4.460  1.00  0.00     0.029 A 
ATOM     57  C   UNL     1       8.616  10.227  -5.704  1.00  0.00     0.049 A 
ATOM     58  H   UNL     1       6.776   9.475  -6.471  1.00  0.00     0.167 HD
ATOM     59  C   UNL     1       5.864  10.558   0.621  1.00  0.00     0.037 A 
ATOM     60  C   UNL     1       8.801  11.493  -6.184  1.00  0.00     0.037 A 
ATOM     61  C   UNL     1       7.255  10.820   0.248  1.00  0.00     0.049 A 
ATOM     62  C   UNL     1       9.201  12.395  -5.045  1.00  0.00     0.074 A 
ATOM     63  C   UNL     1       8.285   9.948  -0.065  1.00  0.00     0.029 A 
ATOM     64  N   UNL     1       7.614  12.061  -0.268  1.00  0.00    -0.354 N 
ATOM     65  N   UNL     1       8.722  12.306  -3.832  1.00  0.00    -0.248 NA
ATOM     66  C   UNL     1      10.273  13.371  -5.175  1.00  0.00     0.031 C 
ATOM     67  C   UNL     1       9.239  10.661  -0.833  1.00  0.00     0.029 A 
ATOM     68  C   UNL     1       8.774  11.953  -1.013  1.00  0.00     0.049 A 
ATOM     69  H   UNL     1       7.113  12.896  -0.124  1.00  0.00     0.167 HD
ATOM     70  C   UNL     1       9.477  13.098  -3.008  1.00  0.00     0.074 A 
ATOM     71  C   UNL     1      10.406  13.773  -3.901  1.00  0.00     0.031 C 
ATOM     72  C   UNL     1       9.359  13.117  -1.648  1.00  0.00     0.037 A 
BRANCH  59  73
ATOM     73  C   UNL     1       5.488   9.858   1.918  1.00  0.00     0.064 A 
ATOM     74  C   UNL     1       6.499   9.339   2.765  1.00  0.00     0.173 A 
ATOM     75  C   UNL     1       4.177   9.642   2.383  1.00  0.00     0.173 A 
ATOM     76  F   UNL     1       7.798   9.552   2.522  1.00  0.00    -0.203 F 
ATOM     77  C   UNL     1       6.222   8.585   3.909  1.00  0.00     0.198 A 
ATOM     78  C   UNL     1       3.898   8.868   3.521  1.00  0.00     0.198 A 
ATOM     79  F   UNL     1       3.122  10.212   1.790  1.00  0.00    -0.203 F 
ATOM     80  F   UNL     1       7.232   8.106   4.648  1.00  0.00    -0.200 F 
ATOM     81  C   UNL     1       4.920   8.330   4.276  1.00  0.00     0.200 A 
ATOM     82  F   UNL     1       2.624   8.655   3.885  1.00  0.00    -0.200 F 
ATOM     83  F   UNL     1       4.653   7.598   5.366  1.00  0.00    -0.200 F 
ENDBRANCH  59  73
BRANCH  60  84
ATOM     84  C   UNL     1       7.883  11.865  -7.318  1.00  0.00     0.064 A 
ATOM     85  C   UNL     1       7.818  11.010  -8.446  1.00  0.00     0.173 A 
ATOM     86  C   UNL     1       6.893  12.851  -7.226  1.00  0.00     0.173 A 
ATOM     87  F   UNL     1       8.735  10.042  -8.606  1.00  0.00    -0.203 F 
ATOM     88  C   UNL     1       6.770  11.071  -9.366  1.00  0.00     0.198 A 
ATOM     89  C   UNL     1       5.852  12.924  -8.165  1.00  0.00     0.198 A 
ATOM     90  F   UNL     1       6.872  13.702  -6.192  1.00  0.00    -0.203 F 
ATOM     91  F   UNL     1       6.691  10.164 -10.351  1.00  0.00    -0.200 F 
ATOM     92  C   UNL     1       5.779  12.023  -9.219  1.00  0.00     0.200 A 
ATOM     93  F   UNL     1       4.864  13.817  -8.001  1.00  0.00    -0.200 F 
ATOM     94  F   UNL     1       4.727  12.040 -10.050  1.00  0.00    -0.200 F 
ENDBRANCH  60  84
BRANCH  72  95
ATOM     95  C   UNL     1       9.907  14.199  -0.759  1.00  0.00     0.064 A 
ATOM     96  C   UNL     1      10.084  15.521  -1.192  1.00  0.00     0.173 A 
ATOM     97  C   UNL     1      10.097  13.970   0.625  1.00  0.00     0.173 A 
ATOM     98  F   UNL     1       9.801  15.890  -2.448  1.00  0.00    -0.203 F 
ATOM     99  C   UNL     1      10.502  16.525  -0.322  1.00  0.00     0.198 A 
ATOM    100  C   UNL     1      10.435  14.993   1.504  1.00  0.00     0.198 A 
ATOM    101  F   UNL     1       9.924  12.760   1.176  1.00  0.00    -0.203 F 
ATOM    102  F   UNL     1      10.718  17.759  -0.796  1.00  0.00    -0.200 F 
ATOM    103  C   UNL     1      10.662  16.265   1.026  1.00  0.00     0.200 A 
ATOM    104  F   UNL     1      10.515  14.739   2.818  1.00  0.00    -0.200 F 
ATOM    105  F   UNL     1      11.012  17.247   1.867  1.00  0.00    -0.200 F 
ENDBRANCH  72  95
ENDBRANCH  46  47
ENDBRANCH  39  41
ENDBRANCH  38  39
ENDBRANCH  37  38
ENDBRANCH  36  37
ENDBRANCH   1  36
TORSDOF 17
