REMARK SMILES C[NH+]1CCC([NH+]2CCC(Oc3ccc4ccccc4c3)(C(=O)OCCOC(=O)c3ccc(-c4c5nc(c(-c6c(F)c(F)c(F)c(F)c6F)c6ccc([nH]6)c(-c6c(F)c(F)c(F)c(F)c6F)c6nc(c(-c7c(F)c(F)c(F)c(F)c7F)c7ccc4[nH]7)C=C6)C=C5)cc3)CC2)CC1
REMARK SMILES IDX 24 1 23 2 21 3 22 4 9 5 6 6 7 7 93 8 8 10 92 11 5 12 1 13
REMARK SMILES IDX 2 14 3 15 95 16 4 18 94 19 10 20 11 21 12 22 20 23 13 24
REMARK SMILES IDX 19 25 14 26 18 27 15 28 17 29 16 30 25 31 26 32 27 33 28 34
REMARK SMILES IDX 29 35 30 36 91 37 31 38 90 39 32 40 33 41 34 42 84 43 35 44
REMARK SMILES IDX 89 45 83 46 85 47 36 48 88 49 82 50 81 51 37 53 69 54 49 55
REMARK SMILES IDX 68 56 50 57 53 58 67 59 86 60 51 61 52 62 66 64 87 65 54 66
REMARK SMILES IDX 38 67 39 68 47 69 40 70 41 71 45 72 48 73 42 74 43 75 46 76
REMARK SMILES IDX 44 77 70 78 71 79 79 80 72 81 73 82 77 83 80 84 74 85 75 86
REMARK SMILES IDX 78 87 76 88 55 89 56 90 64 91 57 92 58 93 62 94 65 95 59 96
REMARK SMILES IDX 60 97 63 98 61 99
REMARK H PARENT 6 9 2 17 85 52 53 63
REMARK Flexibility Score: inf
ROOT
ATOM      1  C   UNL     1       4.790  -3.534   3.960  1.00  0.00     0.274 C 
ENDROOT
BRANCH   1   2
ATOM      2  O   UNL     1       4.774  -2.179   3.459  1.00  0.00    -0.459 OA
BRANCH   2   3
ATOM      3  C   UNL     1       5.489  -1.944   2.321  1.00  0.00     0.351 C 
ATOM      4  O   UNL     1       6.051  -2.825   1.674  1.00  0.00    -0.247 OA
BRANCH   3   5
ATOM      5  C   UNL     1       5.601  -0.444   1.979  1.00  0.00     0.216 C 
ATOM      6  N   UNL     1       3.113   0.474   0.682  1.00  0.00    -0.332 N 
ATOM      7  C   UNL     1       3.151   0.233   2.132  1.00  0.00     0.267 C 
ATOM      8  C   UNL     1       4.030  -0.434  -0.017  1.00  0.00     0.267 C 
ATOM      9  H   UNL     1       3.429   1.434   0.546  1.00  0.00     0.348 HD
ATOM     10  C   UNL     1       4.562   0.436   2.686  1.00  0.00     0.122 C 
ATOM     11  C   UNL     1       5.476  -0.267   0.452  1.00  0.00     0.122 C 
BRANCH   6  12
ATOM     12  C   UNL     1       1.745   0.427   0.095  1.00  0.00     0.195 C 
ATOM     13  C   UNL     1      -2.554   0.415  -0.271  1.00  0.00     0.332 C 
ATOM     14  N   UNL     1      -1.183   0.414   0.234  1.00  0.00    -0.337 N 
ATOM     15  C   UNL     1      -0.468   1.632  -0.168  1.00  0.00     0.268 C 
ATOM     16  C   UNL     1      -0.467  -0.785  -0.209  1.00  0.00     0.268 C 
ATOM     17  H   UNL     1      -1.223   0.401   1.253  1.00  0.00     0.347 HD
ATOM     18  C   UNL     1       0.928   1.678   0.462  1.00  0.00     0.126 C 
ATOM     19  C   UNL     1       0.930  -0.840   0.407  1.00  0.00     0.126 C 
ENDBRANCH   6  12
BRANCH   5  20
ATOM     20  O   UNL     1       6.921  -0.212   2.549  1.00  0.00    -0.475 OA
BRANCH  20  21
ATOM     21  C   UNL     1       7.704   0.720   1.942  1.00  0.00     0.121 A 
ATOM     22  C   UNL     1       7.574   2.063   2.269  1.00  0.00     0.047 A 
ATOM     23  C   UNL     1       8.718   0.293   1.084  1.00  0.00     0.055 A 
ATOM     24  C   UNL     1       8.420   3.002   1.682  1.00  0.00     0.012 A 
ATOM     25  C   UNL     1       9.586   1.226   0.494  1.00  0.00    -0.015 A 
ATOM     26  C   UNL     1       9.428   2.600   0.792  1.00  0.00    -0.018 A 
ATOM     27  C   UNL     1      10.614   0.831  -0.378  1.00  0.00     0.009 A 
ATOM     28  C   UNL     1      10.290   3.538   0.205  1.00  0.00     0.009 A 
ATOM     29  C   UNL     1      11.468   1.776  -0.950  1.00  0.00     0.001 A 
ATOM     30  C   UNL     1      11.305   3.128  -0.660  1.00  0.00     0.001 A 
ENDBRANCH  20  21
ENDBRANCH   5  20
ENDBRANCH   3   5
ENDBRANCH   2   3
ENDBRANCH   1   2
BRANCH   1  31
ATOM     31  C   UNL     1       3.535  -4.290   3.533  1.00  0.00     0.275 C 
BRANCH  31  32
ATOM     32  O   UNL     1       3.539  -4.431   2.104  1.00  0.00    -0.458 OA
BRANCH  32  33
ATOM     33  C   UNL     1       2.333  -4.400   1.499  1.00  0.00     0.338 C 
ATOM     34  O   UNL     1       1.241  -4.370   2.054  1.00  0.00    -0.246 OA
BRANCH  33  35
ATOM     35  C   UNL     1       2.495  -4.338   0.025  1.00  0.00     0.060 A 
ATOM     36  C   UNL     1       3.689  -3.906  -0.560  1.00  0.00     0.016 A 
ATOM     37  C   UNL     1       1.389  -4.595  -0.791  1.00  0.00     0.016 A 
ATOM     38  C   UNL     1       3.746  -3.629  -1.925  1.00  0.00     0.010 A 
ATOM     39  C   UNL     1       1.480  -4.415  -2.175  1.00  0.00     0.010 A 
ATOM     40  C   UNL     1       2.653  -3.907  -2.758  1.00  0.00    -0.014 A 
BRANCH  40  41
ATOM     41  C   UNL     1       2.735  -3.698  -4.230  1.00  0.00     0.031 A 
ATOM     42  C   UNL     1       1.745  -2.814  -4.938  1.00  0.00     0.074 A 
ATOM     43  C   UNL     1       3.684  -4.329  -4.948  1.00  0.00     0.049 A 
ATOM     44  N   UNL     1       1.480  -2.722  -6.217  1.00  0.00    -0.248 NA
ATOM     45  C   UNL     1       0.936  -1.922  -4.093  1.00  0.00     0.031 C 
ATOM     46  C   UNL     1       4.741  -5.179  -4.398  1.00  0.00     0.029 A 
ATOM     47  N   UNL     1       3.906  -4.361  -6.303  1.00  0.00    -0.354 N 
ATOM     48  C   UNL     1       0.433  -1.816  -6.325  1.00  0.00     0.074 A 
ATOM     49  C   UNL     1       0.120  -1.370  -4.983  1.00  0.00     0.031 C 
ATOM     50  C   UNL     1       5.514  -5.624  -5.398  1.00  0.00     0.029 A 
ATOM     51  C   UNL     1       4.949  -5.178  -6.665  1.00  0.00     0.049 A 
ATOM     52  H   UNL     1       3.371  -3.848  -6.951  1.00  0.00     0.167 HD
ATOM     53  C   UNL     1      -0.210  -1.405  -7.445  1.00  0.00     0.037 A 
ATOM     54  C   UNL     1       5.370  -5.582  -7.877  1.00  0.00     0.037 A 
ATOM     55  C   UNL     1       0.149  -1.802  -8.783  1.00  0.00     0.049 A 
ATOM     56  C   UNL     1       4.629  -5.135  -9.101  1.00  0.00     0.074 A 
ATOM     57  C   UNL     1      -0.429  -1.422  -9.982  1.00  0.00     0.029 A 
ATOM     58  N   UNL     1       1.197  -2.654  -9.098  1.00  0.00    -0.354 N 
ATOM     59  N   UNL     1       3.581  -4.354  -9.190  1.00  0.00    -0.248 NA
ATOM     60  C   UNL     1       5.111  -5.649 -10.390  1.00  0.00     0.031 C 
ATOM     61  C   UNL     1       0.253  -2.064 -11.022  1.00  0.00     0.029 A 
ATOM     62  C   UNL     1       1.277  -2.817 -10.472  1.00  0.00     0.049 A 
ATOM     63  H   UNL     1       1.796  -3.080  -8.443  1.00  0.00     0.167 HD
ATOM     64  C   UNL     1       3.272  -4.287 -10.540  1.00  0.00     0.074 A 
ATOM     65  C   UNL     1       4.259  -5.087 -11.236  1.00  0.00     0.031 C 
ATOM     66  C   UNL     1       2.256  -3.629 -11.146  1.00  0.00     0.037 A 
BRANCH  53  67
ATOM     67  C   UNL     1      -1.396  -0.500  -7.284  1.00  0.00     0.064 A 
ATOM     68  C   UNL     1      -1.255   0.863  -6.991  1.00  0.00     0.173 A 
ATOM     69  C   UNL     1      -2.691  -0.996  -7.502  1.00  0.00     0.173 A 
ATOM     70  F   UNL     1      -0.040   1.381  -6.761  1.00  0.00    -0.203 F 
ATOM     71  C   UNL     1      -2.369   1.696  -6.914  1.00  0.00     0.198 A 
ATOM     72  C   UNL     1      -3.800  -0.157  -7.445  1.00  0.00     0.198 A 
ATOM     73  F   UNL     1      -2.879  -2.293  -7.789  1.00  0.00    -0.203 F 
ATOM     74  F   UNL     1      -2.215   2.992  -6.609  1.00  0.00    -0.200 F 
ATOM     75  C   UNL     1      -3.639   1.188  -7.150  1.00  0.00     0.200 A 
ATOM     76  F   UNL     1      -5.024  -0.648  -7.682  1.00  0.00    -0.200 F 
ATOM     77  F   UNL     1      -4.707   1.995  -7.089  1.00  0.00    -0.200 F 
ENDBRANCH  53  67
BRANCH  54  78
ATOM     78  C   UNL     1       6.522  -6.513  -7.970  1.00  0.00     0.064 A 
ATOM     79  C   UNL     1       7.766  -6.071  -8.435  1.00  0.00     0.173 A 
ATOM     80  C   UNL     1       6.414  -7.845  -7.544  1.00  0.00     0.173 A 
ATOM     81  F   UNL     1       7.908  -4.812  -8.875  1.00  0.00    -0.203 F 
ATOM     82  C   UNL     1       8.865  -6.927  -8.464  1.00  0.00     0.198 A 
ATOM     83  C   UNL     1       7.519  -8.691  -7.548  1.00  0.00     0.198 A 
ATOM     84  F   UNL     1       5.242  -8.312  -7.089  1.00  0.00    -0.203 F 
ATOM     85  F   UNL     1      10.041  -6.488  -8.931  1.00  0.00    -0.200 F 
ATOM     86  C   UNL     1       8.743  -8.232  -8.009  1.00  0.00     0.200 A 
ATOM     87  F   UNL     1       7.401  -9.946  -7.091  1.00  0.00    -0.200 F 
ATOM     88  F   UNL     1       9.806  -9.048  -8.015  1.00  0.00    -0.200 F 
ENDBRANCH  54  78
BRANCH  66  89
ATOM     89  C   UNL     1       2.169  -3.745 -12.636  1.00  0.00     0.064 A 
ATOM     90  C   UNL     1       1.672  -4.905 -13.247  1.00  0.00     0.173 A 
ATOM     91  C   UNL     1       2.573  -2.685 -13.459  1.00  0.00     0.173 A 
ATOM     92  F   UNL     1       1.291  -5.952 -12.498  1.00  0.00    -0.203 F 
ATOM     93  C   UNL     1       1.602  -5.007 -14.633  1.00  0.00     0.198 A 
ATOM     94  C   UNL     1       2.484  -2.783 -14.845  1.00  0.00     0.198 A 
ATOM     95  F   UNL     1       3.054  -1.555 -12.919  1.00  0.00    -0.203 F 
ATOM     96  F   UNL     1       1.162  -6.140 -15.199  1.00  0.00    -0.200 F 
ATOM     97  C   UNL     1       2.005  -3.946 -15.430  1.00  0.00     0.200 A 
ATOM     98  F   UNL     1       2.869  -1.755 -15.614  1.00  0.00    -0.200 F 
ATOM     99  F   UNL     1       1.940  -4.047 -16.765  1.00  0.00    -0.200 F 
ENDBRANCH  66  89
ENDBRANCH  40  41
ENDBRANCH  33  35
ENDBRANCH  32  33
ENDBRANCH  31  32
ENDBRANCH   1  31
TORSDOF 14
