REMARK SMILES Cc1cccc(Nc2nc(C)c(CCO)c(OCC(=O)OCCOC(=O)c3ccc(-c4c5nc(c(-c6c(F)c(F)c(F)c(F)c6F)c6ccc([nH]6)c(-c6c(F)c(F)c(F)c(F)c6F)c6nc(c(-c7c(F)c(F)c(F)c(F)c7F)c7ccc4[nH]7)C=C6)C=C5)cc3)n2)c1
REMARK SMILES IDX 21 1 19 2 20 3 18 4 17 5 16 6 8 7 9 8 90 9 10 10 11 11 12 12
REMARK SMILES IDX 7 13 6 15 1 16 2 17 3 18 91 19 4 20 5 21 13 22 14 23 15 24
REMARK SMILES IDX 22 26 23 27 24 28 25 29 26 30 27 31 28 32 89 33 29 34 88 35
REMARK SMILES IDX 30 36 31 37 32 38 82 39 33 40 87 41 81 42 83 43 34 44 86 45
REMARK SMILES IDX 80 46 79 47 35 49 67 50 47 51 66 52 48 53 51 54 65 55 84 56
REMARK SMILES IDX 49 57 50 58 64 60 85 61 52 62 36 63 37 64 45 65 38 66 39 67
REMARK SMILES IDX 43 68 46 69 40 70 41 71 44 72 42 73 68 74 69 75 77 76 70 77
REMARK SMILES IDX 71 78 75 79 78 80 72 81 73 82 76 83 74 84 53 85 54 86 62 87
REMARK SMILES IDX 55 88 56 89 60 90 63 91 57 92 58 93 61 94 59 95
REMARK H PARENT 7 14 15 25 83 48 51 59
REMARK Flexibility Score: inf
ROOT
ATOM      1  O   UNL     1      -5.783   3.835   2.487  1.00  0.00    -0.460 OA
ENDROOT
BRANCH   1   2
ATOM      2  C   UNL     1      -5.967   2.816   3.372  1.00  0.00     0.344 C 
ATOM      3  O   UNL     1      -6.324   2.975   4.536  1.00  0.00    -0.248 OA
BRANCH   2   4
ATOM      4  C   UNL     1      -5.693   1.438   2.766  1.00  0.00     0.353 C 
BRANCH   4   5
ATOM      5  O   UNL     1      -6.041   1.227   1.396  1.00  0.00    -0.465 OA
BRANCH   5   6
ATOM      6  C   UNL     1      -5.127   1.741   0.498  1.00  0.00     0.222 A 
ATOM      7  C   UNL     1      -3.066   2.606   0.118  1.00  0.00     0.230 A 
ATOM      8  N   UNL     1      -3.461   3.178  -1.018  1.00  0.00    -0.218 NA
ATOM      9  N   UNL     1      -3.905   2.018   0.968  1.00  0.00    -0.177 NA
ATOM     10  C   UNL     1      -4.686   2.844  -1.477  1.00  0.00     0.050 A 
ATOM     11  C   UNL     1      -5.063   3.486  -2.780  1.00  0.00     0.067 C 
ATOM     12  C   UNL     1      -5.506   1.937  -0.817  1.00  0.00     0.038 A 
BRANCH   7  13
ATOM     13  N   UNL     1      -1.690   2.456   0.281  1.00  0.00    -0.324 N 
ATOM     14  H   UNL     1      -1.157   3.267   0.446  1.00  0.00     0.170 HD
BRANCH  13  15
ATOM     15  C   UNL     1      -1.006   1.218   0.227  1.00  0.00     0.041 A 
ATOM     16  C   UNL     1       2.613   0.021   0.015  1.00  0.00     0.044 C 
ATOM     17  C   UNL     1       1.116   0.016   0.084  1.00  0.00    -0.049 A 
ATOM     18  C   UNL     1       0.426  -1.200   0.033  1.00  0.00     0.003 A 
ATOM     19  C   UNL     1       0.395   1.215   0.198  1.00  0.00     0.029 A 
ATOM     20  C   UNL     1      -0.962  -1.218   0.103  1.00  0.00     0.002 A 
ATOM     21  C   UNL     1      -1.668  -0.019   0.211  1.00  0.00     0.026 A 
ENDBRANCH  13  15
ENDBRANCH   7  13
BRANCH  12  22
ATOM     22  C   UNL     1      -6.701   1.328  -1.501  1.00  0.00     0.071 C 
BRANCH  22  23
ATOM     23  C   UNL     1      -7.093  -0.145  -1.266  1.00  0.00     0.161 C 
BRANCH  23  24
ATOM     24  O   UNL     1      -6.445  -0.815  -0.202  1.00  0.00    -0.396 OA
ATOM     25  H   UNL     1      -5.495  -0.873  -0.387  1.00  0.00     0.210 HD
ENDBRANCH  23  24
ENDBRANCH  22  23
ENDBRANCH  12  22
ENDBRANCH   5   6
ENDBRANCH   4   5
ENDBRANCH   2   4
ENDBRANCH   1   2
BRANCH   1  26
ATOM     26  C   UNL     1      -6.127   5.125   2.994  1.00  0.00     0.274 C 
BRANCH  26  27
ATOM     27  C   UNL     1      -6.170   6.181   1.881  1.00  0.00     0.275 C 
BRANCH  27  28
ATOM     28  O   UNL     1      -6.610   5.821   0.535  1.00  0.00    -0.458 OA
BRANCH  28  29
ATOM     29  C   UNL     1      -7.507   4.913   0.111  1.00  0.00     0.338 C 
ATOM     30  O   UNL     1      -7.607   4.568  -1.069  1.00  0.00    -0.246 OA
BRANCH  29  31
ATOM     31  C   UNL     1      -8.417   4.340   1.090  1.00  0.00     0.060 A 
ATOM     32  C   UNL     1      -8.619   2.949   1.136  1.00  0.00     0.016 A 
ATOM     33  C   UNL     1      -9.047   5.195   1.978  1.00  0.00     0.016 A 
ATOM     34  C   UNL     1      -9.414   2.376   2.103  1.00  0.00     0.010 A 
ATOM     35  C   UNL     1      -9.739   4.632   3.013  1.00  0.00     0.010 A 
ATOM     36  C   UNL     1      -9.972   3.240   3.021  1.00  0.00    -0.014 A 
BRANCH  36  37
ATOM     37  C   UNL     1     -11.061   2.851   3.879  1.00  0.00     0.031 A 
ATOM     38  C   UNL     1     -10.814   2.243   5.184  1.00  0.00     0.074 A 
ATOM     39  C   UNL     1     -12.198   3.439   3.457  1.00  0.00     0.049 A 
ATOM     40  N   UNL     1     -11.744   1.803   5.952  1.00  0.00    -0.248 NA
ATOM     41  C   UNL     1      -9.479   2.030   5.732  1.00  0.00     0.031 C 
ATOM     42  C   UNL     1     -13.338   3.919   4.206  1.00  0.00     0.029 A 
ATOM     43  N   UNL     1     -12.511   3.740   2.118  1.00  0.00    -0.354 N 
ATOM     44  C   UNL     1     -11.188   1.660   7.206  1.00  0.00     0.074 A 
ATOM     45  C   UNL     1      -9.765   1.636   6.979  1.00  0.00     0.031 C 
ATOM     46  C   UNL     1     -14.331   4.195   3.338  1.00  0.00     0.029 A 
ATOM     47  C   UNL     1     -13.906   3.708   2.030  1.00  0.00     0.049 A 
ATOM     48  H   UNL     1     -11.877   3.935   1.391  1.00  0.00     0.167 HD
ATOM     49  C   UNL     1     -12.013   1.813   8.285  1.00  0.00     0.037 A 
ATOM     50  C   UNL     1     -14.472   2.655   1.366  1.00  0.00     0.037 A 
ATOM     51  C   UNL     1     -13.390   2.017   7.818  1.00  0.00     0.049 A 
ATOM     52  C   UNL     1     -15.245   1.786   2.326  1.00  0.00     0.074 A 
ATOM     53  C   UNL     1     -14.144   3.167   7.642  1.00  0.00     0.029 A 
ATOM     54  N   UNL     1     -14.020   1.019   7.078  1.00  0.00    -0.354 N 
ATOM     55  N   UNL     1     -14.898   1.566   3.567  1.00  0.00    -0.248 NA
ATOM     56  C   UNL     1     -16.536   1.212   1.980  1.00  0.00     0.031 C 
ATOM     57  C   UNL     1     -15.202   2.865   6.745  1.00  0.00     0.029 A 
ATOM     58  C   UNL     1     -15.090   1.536   6.371  1.00  0.00     0.049 A 
ATOM     59  H   UNL     1     -13.741   0.074   7.060  1.00  0.00     0.167 HD
ATOM     60  C   UNL     1     -15.930   0.931   4.209  1.00  0.00     0.074 A 
ATOM     61  C   UNL     1     -16.918   0.710   3.166  1.00  0.00     0.031 C 
ATOM     62  C   UNL     1     -15.934   0.678   5.553  1.00  0.00     0.037 A 
BRANCH  49  63
ATOM     63  C   UNL     1     -11.562   2.132   9.701  1.00  0.00     0.064 A 
ATOM     64  C   UNL     1     -12.432   2.804  10.593  1.00  0.00     0.173 A 
ATOM     65  C   UNL     1     -10.292   1.850  10.238  1.00  0.00     0.173 A 
ATOM     66  F   UNL     1     -13.706   3.064  10.271  1.00  0.00    -0.203 F 
ATOM     67  C   UNL     1     -12.035   3.238  11.862  1.00  0.00     0.198 A 
ATOM     68  C   UNL     1      -9.882   2.311  11.498  1.00  0.00     0.198 A 
ATOM     69  F   UNL     1      -9.416   1.072   9.596  1.00  0.00    -0.203 F 
ATOM     70  F   UNL     1     -12.909   3.884  12.647  1.00  0.00    -0.200 F 
ATOM     71  C   UNL     1     -10.751   3.013  12.306  1.00  0.00     0.200 A 
ATOM     72  F   UNL     1      -8.636   2.059  11.925  1.00  0.00    -0.200 F 
ATOM     73  F   UNL     1     -10.364   3.443  13.514  1.00  0.00    -0.200 F 
ENDBRANCH  49  63
BRANCH  50  74
ATOM     74  C   UNL     1     -13.625   2.176   0.223  1.00  0.00     0.064 A 
ATOM     75  C   UNL     1     -13.370   3.081  -0.832  1.00  0.00     0.173 A 
ATOM     76  C   UNL     1     -12.760   1.078   0.340  1.00  0.00     0.173 A 
ATOM     77  F   UNL     1     -14.159   4.156  -0.993  1.00  0.00    -0.203 F 
ATOM     78  C   UNL     1     -12.239   2.965  -1.642  1.00  0.00     0.198 A 
ATOM     79  C   UNL     1     -11.631   0.962  -0.481  1.00  0.00     0.198 A 
ATOM     80  F   UNL     1     -12.936   0.174   1.313  1.00  0.00    -0.203 F 
ATOM     81  F   UNL     1     -11.969   3.910  -2.554  1.00  0.00    -0.200 F 
ATOM     82  C   UNL     1     -11.354   1.920  -1.446  1.00  0.00     0.200 A 
ATOM     83  F   UNL     1     -10.758  -0.037  -0.282  1.00  0.00    -0.200 F 
ATOM     84  F   UNL     1     -10.218   1.853  -2.156  1.00  0.00    -0.200 F 
ENDBRANCH  50  74
BRANCH  62  85
ATOM     85  C   UNL     1     -16.829  -0.316   6.259  1.00  0.00     0.064 A 
ATOM     86  C   UNL     1     -17.472  -1.383   5.613  1.00  0.00     0.173 A 
ATOM     87  C   UNL     1     -16.928  -0.322   7.675  1.00  0.00     0.173 A 
ATOM     88  F   UNL     1     -17.344  -1.589   4.296  1.00  0.00    -0.203 F 
ATOM     89  C   UNL     1     -18.223  -2.328   6.313  1.00  0.00     0.198 A 
ATOM     90  C   UNL     1     -17.609  -1.314   8.375  1.00  0.00     0.198 A 
ATOM     91  F   UNL     1     -16.337   0.611   8.436  1.00  0.00    -0.203 F 
ATOM     92  F   UNL     1     -18.867  -3.289   5.636  1.00  0.00    -0.200 F 
ATOM     93  C   UNL     1     -18.278  -2.305   7.692  1.00  0.00     0.200 A 
ATOM     94  F   UNL     1     -17.588  -1.314   9.715  1.00  0.00    -0.200 F 
ATOM     95  F   UNL     1     -18.951  -3.249   8.361  1.00  0.00    -0.200 F 
ENDBRANCH  62  85
ENDBRANCH  36  37
ENDBRANCH  29  31
ENDBRANCH  28  29
ENDBRANCH  27  28
ENDBRANCH  26  27
ENDBRANCH   1  26
TORSDOF 18
