REMARK SMILES O=C(OCCOC(=O)c1ccn(-c2cc(-c3ccncc3)nc(-c3ccccc3F)n2)n1)c1ccc(-c2c3nc(c(-c4c(F)c(F)c(F)c(F)c4F)c4ccc([nH]4)c(-c4c(F)c(F)c(F)c(F)c4F)c4nc(c(-c5c(F)c(F)c(F)c(F)c5F)c5ccc2[nH]5)C=C4)C=C3)cc1
REMARK SMILES IDX 4 1 3 2 2 3 1 4 33 5 34 6 95 7 35 8 94 9 36 10 37 11 38 12
REMARK SMILES IDX 88 13 39 14 93 15 87 16 89 17 40 18 92 19 86 20 85 21 41 23
REMARK SMILES IDX 73 24 53 25 72 26 54 27 57 28 71 29 90 30 55 31 56 32 70 34
REMARK SMILES IDX 91 35 58 36 42 37 43 38 51 39 44 40 45 41 49 42 52 43 46 44
REMARK SMILES IDX 47 45 50 46 48 47 74 48 75 49 83 50 76 51 77 52 81 53 84 54
REMARK SMILES IDX 78 55 79 56 82 57 80 58 59 59 60 60 68 61 61 62 62 63 66 64
REMARK SMILES IDX 69 65 63 66 64 67 67 68 65 69 5 70 6 71 7 72 8 73 9 74 10 75
REMARK SMILES IDX 32 76 11 77 12 78 13 79 14 80 31 81 15 82 23 83 22 84 16 85
REMARK SMILES IDX 17 86 21 87 18 88 20 89 19 90 24 91 25 92 29 93 26 94 28 95
REMARK SMILES IDX 30 96 27 97
REMARK H PARENT 89 22 57 33
REMARK Flexibility Score: inf
ROOT
ATOM      1  C   UNL     1       4.569  -1.250  -0.103  1.00  0.00     0.275 C 
ENDROOT
BRANCH   1   2
ATOM      2  O   UNL     1       3.344  -1.549   0.599  1.00  0.00    -0.458 OA
BRANCH   2   3
ATOM      3  C   UNL     1       2.313  -0.675   0.578  1.00  0.00     0.338 C 
ATOM      4  O   UNL     1       1.330  -0.810  -0.137  1.00  0.00    -0.246 OA
BRANCH   3   5
ATOM      5  C   UNL     1       2.351   0.294   1.700  1.00  0.00     0.060 A 
ATOM      6  C   UNL     1       3.543   0.777   2.252  1.00  0.00     0.016 A 
ATOM      7  C   UNL     1       1.123   0.733   2.207  1.00  0.00     0.016 A 
ATOM      8  C   UNL     1       3.514   1.618   3.354  1.00  0.00     0.010 A 
ATOM      9  C   UNL     1       1.090   1.594   3.294  1.00  0.00     0.010 A 
ATOM     10  C   UNL     1       2.285   2.010   3.887  1.00  0.00    -0.014 A 
BRANCH  10  11
ATOM     11  C   UNL     1       2.278   2.981   4.983  1.00  0.00     0.031 A 
ATOM     12  C   UNL     1       2.878   4.322   4.663  1.00  0.00     0.074 A 
ATOM     13  C   UNL     1       1.627   2.701   6.136  1.00  0.00     0.049 A 
ATOM     14  N   UNL     1       3.500   5.133   5.455  1.00  0.00    -0.248 NA
ATOM     15  C   UNL     1       2.809   4.834   3.279  1.00  0.00     0.031 C 
ATOM     16  C   UNL     1       0.830   1.500   6.427  1.00  0.00     0.029 A 
ATOM     17  N   UNL     1       1.427   3.467   7.250  1.00  0.00    -0.354 N 
ATOM     18  C   UNL     1       3.808   6.281   4.715  1.00  0.00     0.074 A 
ATOM     19  C   UNL     1       3.345   6.052   3.379  1.00  0.00     0.031 C 
ATOM     20  C   UNL     1       0.046   1.728   7.502  1.00  0.00     0.029 A 
ATOM     21  C   UNL     1       0.382   3.024   8.059  1.00  0.00     0.049 A 
ATOM     22  H   UNL     1       1.972   4.259   7.461  1.00  0.00     0.167 HD
ATOM     23  C   UNL     1       4.361   7.373   5.313  1.00  0.00     0.037 A 
ATOM     24  C   UNL     1      -0.202   3.690   9.087  1.00  0.00     0.037 A 
ATOM     25  C   UNL     1       5.094   6.947   6.474  1.00  0.00     0.049 A 
ATOM     26  C   UNL     1       0.759   4.717   9.544  1.00  0.00     0.074 A 
ATOM     27  C   UNL     1       6.295   6.308   6.681  1.00  0.00     0.029 A 
ATOM     28  N   UNL     1       4.359   6.831   7.623  1.00  0.00    -0.354 N 
ATOM     29  N   UNL     1       1.903   4.446  10.108  1.00  0.00    -0.248 NA
ATOM     30  C   UNL     1       0.601   6.088   9.080  1.00  0.00     0.031 C 
ATOM     31  C   UNL     1       6.134   5.575   7.892  1.00  0.00     0.029 A 
ATOM     32  C   UNL     1       4.869   5.843   8.416  1.00  0.00     0.049 A 
ATOM     33  H   UNL     1       3.574   7.382   7.846  1.00  0.00     0.167 HD
ATOM     34  C   UNL     1       2.746   5.441   9.653  1.00  0.00     0.074 A 
ATOM     35  C   UNL     1       1.864   6.506   9.193  1.00  0.00     0.031 C 
ATOM     36  C   UNL     1       4.058   5.167   9.405  1.00  0.00     0.037 A 
BRANCH  23  37
ATOM     37  C   UNL     1       3.780   8.778   5.216  1.00  0.00     0.064 A 
ATOM     38  C   UNL     1       2.642   9.121   4.468  1.00  0.00     0.173 A 
ATOM     39  C   UNL     1       4.163   9.729   6.193  1.00  0.00     0.173 A 
ATOM     40  F   UNL     1       2.242   8.390   3.425  1.00  0.00    -0.203 F 
ATOM     41  C   UNL     1       1.833  10.211   4.807  1.00  0.00     0.198 A 
ATOM     42  C   UNL     1       3.354  10.815   6.533  1.00  0.00     0.198 A 
ATOM     43  F   UNL     1       5.287   9.567   6.907  1.00  0.00    -0.203 F 
ATOM     44  F   UNL     1       0.689  10.417   4.138  1.00  0.00    -0.200 F 
ATOM     45  C   UNL     1       2.164  11.030   5.868  1.00  0.00     0.200 A 
ATOM     46  F   UNL     1       3.695  11.602   7.563  1.00  0.00    -0.200 F 
ATOM     47  F   UNL     1       1.335  12.007   6.257  1.00  0.00    -0.200 F 
ENDBRANCH  23  37
BRANCH  24  48
ATOM     48  C   UNL     1      -1.615   3.680   9.546  1.00  0.00     0.064 A 
ATOM     49  C   UNL     1      -2.674   3.357   8.677  1.00  0.00     0.173 A 
ATOM     50  C   UNL     1      -1.978   4.279  10.767  1.00  0.00     0.173 A 
ATOM     51  F   UNL     1      -2.442   2.822   7.470  1.00  0.00    -0.203 F 
ATOM     52  C   UNL     1      -4.002   3.661   8.984  1.00  0.00     0.198 A 
ATOM     53  C   UNL     1      -3.308   4.592  11.070  1.00  0.00     0.198 A 
ATOM     54  F   UNL     1      -1.036   4.638  11.652  1.00  0.00    -0.203 F 
ATOM     55  F   UNL     1      -4.967   3.394   8.092  1.00  0.00    -0.200 F 
ATOM     56  C   UNL     1      -4.317   4.298  10.170  1.00  0.00     0.200 A 
ATOM     57  F   UNL     1      -3.603   5.234  12.209  1.00  0.00    -0.200 F 
ATOM     58  F   UNL     1      -5.582   4.659  10.425  1.00  0.00    -0.200 F 
ENDBRANCH  24  48
BRANCH  36  59
ATOM     59  C   UNL     1       4.660   3.979  10.093  1.00  0.00     0.064 A 
ATOM     60  C   UNL     1       5.759   4.214  10.932  1.00  0.00     0.173 A 
ATOM     61  C   UNL     1       4.271   2.645   9.893  1.00  0.00     0.173 A 
ATOM     62  F   UNL     1       6.205   5.466  11.122  1.00  0.00    -0.203 F 
ATOM     63  C   UNL     1       6.440   3.168  11.542  1.00  0.00     0.198 A 
ATOM     64  C   UNL     1       4.927   1.601  10.542  1.00  0.00     0.198 A 
ATOM     65  F   UNL     1       3.293   2.326   9.036  1.00  0.00    -0.203 F 
ATOM     66  F   UNL     1       7.524   3.425  12.286  1.00  0.00    -0.200 F 
ATOM     67  C   UNL     1       6.016   1.863  11.358  1.00  0.00     0.200 A 
ATOM     68  F   UNL     1       4.527   0.335  10.354  1.00  0.00    -0.200 F 
ATOM     69  F   UNL     1       6.673   0.855  11.949  1.00  0.00    -0.200 F 
ENDBRANCH  36  59
ENDBRANCH  10  11
ENDBRANCH   3   5
ENDBRANCH   2   3
ENDBRANCH   1   2
BRANCH   1  70
ATOM     70  C   UNL     1       4.457  -0.397  -1.365  1.00  0.00     0.275 C 
BRANCH  70  71
ATOM     71  O   UNL     1       3.960   0.915  -1.044  1.00  0.00    -0.457 OA
BRANCH  71  72
ATOM     72  C   UNL     1       2.881   1.329  -1.770  1.00  0.00     0.358 C 
ATOM     73  O   UNL     1       2.382   0.695  -2.705  1.00  0.00    -0.244 OA
BRANCH  72  74
ATOM     74  C   UNL     1       2.451   2.685  -1.433  1.00  0.00     0.170 A 
ATOM     75  C   UNL     1       2.804   3.829  -2.184  1.00  0.00     0.058 A 
ATOM     76  N   UNL     1       1.628   3.006  -0.406  1.00  0.00    -0.159 NA
ATOM     77  C   UNL     1       2.002   4.826  -1.702  1.00  0.00     0.118 A 
ATOM     78  N   UNL     1       1.236   4.280  -0.694  1.00  0.00    -0.222 N 
BRANCH  78  79
ATOM     79  C   UNL     1       0.171   4.967  -0.035  1.00  0.00     0.158 A 
ATOM     80  C   UNL     1      -0.143   4.694   1.282  1.00  0.00     0.078 A 
ATOM     81  N   UNL     1      -0.441   5.941  -0.742  1.00  0.00    -0.209 NA
ATOM     82  C   UNL     1      -1.024   5.578   1.885  1.00  0.00     0.077 A 
ATOM     83  C   UNL     1      -1.397   6.632  -0.109  1.00  0.00     0.165 A 
ATOM     84  N   UNL     1      -1.696   6.513   1.189  1.00  0.00    -0.228 NA
BRANCH  82  85
ATOM     85  C   UNL     1      -1.149   5.731   3.340  1.00  0.00     0.003 A 
ATOM     86  C   UNL     1      -0.131   6.376   4.048  1.00  0.00     0.030 A 
ATOM     87  C   UNL     1      -2.300   5.394   4.049  1.00  0.00     0.030 A 
ATOM     88  C   UNL     1      -0.265   6.606   5.406  1.00  0.00     0.111 A 
ATOM     89  C   UNL     1      -2.356   5.681   5.409  1.00  0.00     0.111 A 
ATOM     90  N   UNL     1      -1.359   6.266   6.112  1.00  0.00    -0.265 NA
ENDBRANCH  82  85
BRANCH  83  91
ATOM     91  C   UNL     1      -2.284   7.434  -0.930  1.00  0.00     0.055 A 
ATOM     92  C   UNL     1      -3.180   6.807  -1.815  1.00  0.00     0.015 A 
ATOM     93  C   UNL     1      -2.293   8.826  -0.853  1.00  0.00     0.134 A 
ATOM     94  C   UNL     1      -4.066   7.558  -2.587  1.00  0.00     0.001 A 
ATOM     95  C   UNL     1      -3.170   9.584  -1.627  1.00  0.00     0.040 A 
ATOM     96  F   UNL     1      -1.440   9.467  -0.040  1.00  0.00    -0.206 F 
ATOM     97  C   UNL     1      -4.061   8.948  -2.492  1.00  0.00     0.003 A 
ENDBRANCH  83  91
ENDBRANCH  78  79
ENDBRANCH  72  74
ENDBRANCH  71  72
ENDBRANCH  70  71
ENDBRANCH   1  70
TORSDOF 14
