REMARK SMILES CCCc1n[nH]c(C(=O)NC2(CC(=O)OCCOC(=O)c3ccc(-c4c5nc(c(-c6c(F)c(F)c(F)c(F)c6F)c6ccc([nH]6)c(-c6c(F)c(F)c(F)c(F)c6F)c6nc(c(-c7c(F)c(F)c(F)c(F)c7F)c7ccc4[nH]7)C=C6)C=C5)cc3)CCC2)n1
REMARK SMILES IDX 15 1 13 2 14 3 12 4 11 5 84 6 86 7 85 8 10 9 8 10 9 11 7 13
REMARK SMILES IDX 4 14 5 15 87 16 6 17 3 19 2 20 1 21 16 22 17 23 18 24 19 25
REMARK SMILES IDX 20 26 21 27 22 28 83 29 23 30 82 31 24 32 25 33 26 34 76 35
REMARK SMILES IDX 27 36 81 37 75 38 77 39 28 40 80 41 74 42 73 43 29 45 61 46
REMARK SMILES IDX 41 47 60 48 42 49 45 50 59 51 78 52 43 53 44 54 58 56 79 57
REMARK SMILES IDX 46 58 30 59 31 60 39 61 32 62 33 63 37 64 40 65 34 66 35 67
REMARK SMILES IDX 38 68 36 69 62 70 63 71 71 72 64 73 65 74 69 75 72 76 66 77
REMARK SMILES IDX 67 78 70 79 68 80 47 81 48 82 56 83 49 84 50 85 54 86 57 87
REMARK SMILES IDX 51 88 52 89 55 90 53 91
REMARK H PARENT 10 12 6 18 77 44 45 55
REMARK Flexibility Score: inf
ROOT
ATOM      1  O   UNL     1      -3.782  -4.568   3.638  1.00  0.00    -0.462 OA
ENDROOT
BRANCH   1   2
ATOM      2  C   UNL     1      -2.828  -3.981   2.868  1.00  0.00     0.308 C 
ATOM      3  O   UNL     1      -2.942  -2.886   2.330  1.00  0.00    -0.252 OA
BRANCH   2   4
ATOM      4  C   UNL     1      -1.649  -4.885   2.652  1.00  0.00     0.151 C 
BRANCH   4   5
ATOM      5  C   UNL     1      -0.815  -5.288   3.870  1.00  0.00     0.051 C 
ATOM      6  C   UNL     1       0.405  -6.224   3.568  1.00  0.00     0.029 C 
ATOM      7  C   UNL     1      -1.404  -6.506   4.665  1.00  0.00     0.029 C 
ATOM      8  C   UNL     1      -0.508  -7.433   3.825  1.00  0.00     0.005 C 
BRANCH   5   9
ATOM      9  N   UNL     1      -0.477  -4.176   4.797  1.00  0.00    -0.343 N 
ATOM     10  C   UNL     1       0.586  -3.292   4.784  1.00  0.00     0.289 C 
ATOM     11  O   UNL     1       0.871  -2.714   5.836  1.00  0.00    -0.266 OA
ATOM     12  H   UNL     1      -1.113  -4.048   5.538  1.00  0.00     0.164 HD
BRANCH  10  13
ATOM     13  C   UNL     1       1.276  -2.983   3.554  1.00  0.00     0.214 A 
ATOM     14  C   UNL     1       1.802  -2.623   1.537  1.00  0.00     0.151 A 
ATOM     15  N   UNL     1       2.629  -1.810   2.204  1.00  0.00    -0.158 NA
ATOM     16  N   UNL     1       0.980  -3.377   2.333  1.00  0.00    -0.207 NA
ATOM     17  N   UNL     1       2.286  -2.066   3.478  1.00  0.00    -0.255 N 
ATOM     18  H   UNL     1       2.710  -1.644   4.260  1.00  0.00     0.192 HD
BRANCH  14  19
ATOM     19  C   UNL     1       1.748  -2.695   0.054  1.00  0.00     0.079 C 
BRANCH  19  20
ATOM     20  C   UNL     1       0.681  -1.788  -0.566  1.00  0.00     0.005 C 
ATOM     21  C   UNL     1       1.007  -0.304  -0.452  1.00  0.00     0.004 C 
ENDBRANCH  19  20
ENDBRANCH  14  19
ENDBRANCH  10  13
ENDBRANCH   5   9
ENDBRANCH   4   5
ENDBRANCH   2   4
ENDBRANCH   1   2
BRANCH   1  22
ATOM     22  C   UNL     1      -5.053  -3.891   3.693  1.00  0.00     0.274 C 
BRANCH  22  23
ATOM     23  C   UNL     1      -5.253  -3.148   5.014  1.00  0.00     0.275 C 
BRANCH  23  24
ATOM     24  O   UNL     1      -4.454  -1.953   5.070  1.00  0.00    -0.458 OA
BRANCH  24  25
ATOM     25  C   UNL     1      -3.270  -2.083   5.707  1.00  0.00     0.338 C 
ATOM     26  O   UNL     1      -2.821  -3.076   6.256  1.00  0.00    -0.246 OA
BRANCH  25  27
ATOM     27  C   UNL     1      -2.492  -0.847   5.548  1.00  0.00     0.060 A 
ATOM     28  C   UNL     1      -1.510  -0.834   4.562  1.00  0.00     0.016 A 
ATOM     29  C   UNL     1      -2.610   0.216   6.444  1.00  0.00     0.016 A 
ATOM     30  C   UNL     1      -0.569   0.187   4.533  1.00  0.00     0.010 A 
ATOM     31  C   UNL     1      -1.700   1.282   6.368  1.00  0.00     0.010 A 
ATOM     32  C   UNL     1      -0.644   1.254   5.439  1.00  0.00    -0.014 A 
BRANCH  32  33
ATOM     33  C   UNL     1       0.424   2.291   5.427  1.00  0.00     0.031 A 
ATOM     34  C   UNL     1       1.342   2.459   6.609  1.00  0.00     0.074 A 
ATOM     35  C   UNL     1       0.645   3.019   4.315  1.00  0.00     0.049 A 
ATOM     36  N   UNL     1       2.281   3.352   6.808  1.00  0.00    -0.248 NA
ATOM     37  C   UNL     1       1.194   1.494   7.709  1.00  0.00     0.031 C 
ATOM     38  C   UNL     1      -0.106   2.899   3.065  1.00  0.00     0.029 A 
ATOM     39  N   UNL     1       1.591   3.976   4.042  1.00  0.00    -0.354 N 
ATOM     40  C   UNL     1       2.805   3.082   8.065  1.00  0.00     0.074 A 
ATOM     41  C   UNL     1       2.083   1.941   8.586  1.00  0.00     0.031 C 
ATOM     42  C   UNL     1       0.449   3.696   2.141  1.00  0.00     0.029 A 
ATOM     43  C   UNL     1       1.538   4.449   2.755  1.00  0.00     0.049 A 
ATOM     44  H   UNL     1       2.246   4.291   4.707  1.00  0.00     0.167 HD
ATOM     45  C   UNL     1       3.798   3.726   8.724  1.00  0.00     0.037 A 
ATOM     46  C   UNL     1       2.263   5.403   2.142  1.00  0.00     0.037 A 
ATOM     47  C   UNL     1       4.551   4.834   8.196  1.00  0.00     0.049 A 
ATOM     48  C   UNL     1       3.305   6.153   2.921  1.00  0.00     0.074 A 
ATOM     49  C   UNL     1       5.557   5.566   8.805  1.00  0.00     0.029 A 
ATOM     50  N   UNL     1       4.393   5.357   6.922  1.00  0.00    -0.354 N 
ATOM     51  N   UNL     1       3.723   5.957   4.146  1.00  0.00    -0.248 NA
ATOM     52  C   UNL     1       3.951   7.285   2.239  1.00  0.00     0.031 C 
ATOM     53  C   UNL     1       5.990   6.549   7.907  1.00  0.00     0.029 A 
ATOM     54  C   UNL     1       5.273   6.411   6.731  1.00  0.00     0.049 A 
ATOM     55  H   UNL     1       3.750   5.029   6.253  1.00  0.00     0.167 HD
ATOM     56  C   UNL     1       4.672   6.939   4.386  1.00  0.00     0.074 A 
ATOM     57  C   UNL     1       4.792   7.715   3.169  1.00  0.00     0.031 C 
ATOM     58  C   UNL     1       5.373   7.182   5.520  1.00  0.00     0.037 A 
BRANCH  45  59
ATOM     59  C   UNL     1       4.107   3.270  10.117  1.00  0.00     0.064 A 
ATOM     60  C   UNL     1       4.859   2.114  10.366  1.00  0.00     0.173 A 
ATOM     61  C   UNL     1       3.671   4.024  11.218  1.00  0.00     0.173 A 
ATOM     62  F   UNL     1       5.285   1.354   9.345  1.00  0.00    -0.203 F 
ATOM     63  C   UNL     1       5.150   1.719  11.669  1.00  0.00     0.198 A 
ATOM     64  C   UNL     1       3.980   3.636  12.518  1.00  0.00     0.198 A 
ATOM     65  F   UNL     1       2.953   5.141  11.029  1.00  0.00    -0.203 F 
ATOM     66  F   UNL     1       5.844   0.593  11.887  1.00  0.00    -0.200 F 
ATOM     67  C   UNL     1       4.715   2.482  12.743  1.00  0.00     0.200 A 
ATOM     68  F   UNL     1       3.565   4.378  13.554  1.00  0.00    -0.200 F 
ATOM     69  F   UNL     1       4.999   2.102  13.996  1.00  0.00    -0.200 F 
ENDBRANCH  45  59
BRANCH  46  70
ATOM     70  C   UNL     1       1.996   5.733   0.720  1.00  0.00     0.064 A 
ATOM     71  C   UNL     1       2.927   5.418  -0.278  1.00  0.00     0.173 A 
ATOM     72  C   UNL     1       0.805   6.362   0.330  1.00  0.00     0.173 A 
ATOM     73  F   UNL     1       4.094   4.844   0.052  1.00  0.00    -0.203 F 
ATOM     74  C   UNL     1       2.676   5.720  -1.614  1.00  0.00     0.198 A 
ATOM     75  C   UNL     1       0.544   6.641  -1.009  1.00  0.00     0.198 A 
ATOM     76  F   UNL     1      -0.113   6.692   1.251  1.00  0.00    -0.203 F 
ATOM     77  F   UNL     1       3.596   5.439  -2.547  1.00  0.00    -0.200 F 
ATOM     78  C   UNL     1       1.482   6.324  -1.979  1.00  0.00     0.200 A 
ATOM     79  F   UNL     1      -0.615   7.216  -1.357  1.00  0.00    -0.200 F 
ATOM     80  F   UNL     1       1.238   6.607  -3.266  1.00  0.00    -0.200 F 
ENDBRANCH  46  70
BRANCH  58  81
ATOM     81  C   UNL     1       6.324   8.339   5.497  1.00  0.00     0.064 A 
ATOM     82  C   UNL     1       5.861   9.659   5.591  1.00  0.00     0.173 A 
ATOM     83  C   UNL     1       7.707   8.128   5.407  1.00  0.00     0.173 A 
ATOM     84  F   UNL     1       4.545   9.909   5.661  1.00  0.00    -0.203 F 
ATOM     85  C   UNL     1       6.751  10.730   5.579  1.00  0.00     0.198 A 
ATOM     86  C   UNL     1       8.595   9.200   5.414  1.00  0.00     0.198 A 
ATOM     87  F   UNL     1       8.197   6.882   5.317  1.00  0.00    -0.203 F 
ATOM     88  F   UNL     1       6.286  11.986   5.634  1.00  0.00    -0.200 F 
ATOM     89  C   UNL     1       8.116  10.500   5.495  1.00  0.00     0.200 A 
ATOM     90  F   UNL     1       9.914   8.977   5.338  1.00  0.00    -0.200 F 
ATOM     91  F   UNL     1       8.971  11.532   5.484  1.00  0.00    -0.200 F 
ENDBRANCH  58  81
ENDBRANCH  32  33
ENDBRANCH  25  27
ENDBRANCH  24  25
ENDBRANCH  23  24
ENDBRANCH  22  23
ENDBRANCH   1  22
TORSDOF 16
