REMARK SMILES O=C(OCCOC(=O)[C@@H]1CC=CC[C@@H]1C(=O)N1CCN(C(=O)c2sc3cc([N+](=O)[O-])ccc3c2Cl)CC1)c1ccc(-c2c3nc(c(-c4c(F)c(F)c(F)c(F)c4F)c4ccc([nH]4)c(-c4c(F)c(F)c(F)c(F)c4F)c4nc(c(-c5c(F)c(F)c(F)c(F)c5F)c5ccc2[nH]5)C=C4)C=C3)cc1
REMARK SMILES IDX 5 1 4 2 3 3 2 4 1 5 38 6 39 7 100 8 40 9 99 10 41 11 42 12
REMARK SMILES IDX 43 13 93 14 44 15 98 16 92 17 94 18 45 19 97 20 91 21 90 22
REMARK SMILES IDX 46 24 78 25 58 26 77 27 59 28 62 29 76 30 95 31 60 32 61 33
REMARK SMILES IDX 75 35 96 36 63 37 47 38 48 39 56 40 49 41 50 42 54 43 57 44
REMARK SMILES IDX 51 45 52 46 55 47 53 48 79 49 80 50 88 51 81 52 82 53 86 54
REMARK SMILES IDX 89 55 83 56 84 57 87 58 85 59 64 60 65 61 73 62 66 63 67 64
REMARK SMILES IDX 71 65 74 66 68 67 69 68 72 69 70 70 6 71 7 72 8 73 9 74
REMARK SMILES IDX 10 75 14 76 11 77 13 78 12 79 15 80 16 81 17 82 18 83 37 84
REMARK SMILES IDX 19 85 36 86 20 87 21 88 22 89 23 90 24 91 34 92 25 93 33 94
REMARK SMILES IDX 35 95 26 96 32 97 27 98 31 99 28 100 29 101 30 102
REMARK H PARENT 94 23 62 34
REMARK Flexibility Score: inf
ROOT
ATOM      1  C   UNL     1       0.187   2.696  -0.727  1.00  0.00     0.274 C 
ENDROOT
BRANCH   1   2
ATOM      2  C   UNL     1      -0.566   1.412  -0.368  1.00  0.00     0.275 C 
BRANCH   2   3
ATOM      3  O   UNL     1       0.234   0.537   0.472  1.00  0.00    -0.458 OA
BRANCH   3   4
ATOM      4  C   UNL     1       0.284  -0.812   0.284  1.00  0.00     0.338 C 
ATOM      5  O   UNL     1       0.409  -1.623   1.188  1.00  0.00    -0.246 OA
BRANCH   4   6
ATOM      6  C   UNL     1       0.248  -1.231  -1.123  1.00  0.00     0.060 A 
ATOM      7  C   UNL     1       1.306  -0.880  -1.947  1.00  0.00     0.016 A 
ATOM      8  C   UNL     1      -0.881  -1.847  -1.658  1.00  0.00     0.016 A 
ATOM      9  C   UNL     1       1.096  -0.885  -3.318  1.00  0.00     0.010 A 
ATOM     10  C   UNL     1      -1.060  -1.838  -3.046  1.00  0.00     0.010 A 
ATOM     11  C   UNL     1      -0.184  -1.097  -3.861  1.00  0.00    -0.014 A 
BRANCH  11  12
ATOM     12  C   UNL     1      -0.422  -0.594  -5.465  1.00  0.00     0.031 A 
ATOM     13  C   UNL     1       0.648  -1.968  -5.910  1.00  0.00     0.074 A 
ATOM     14  C   UNL     1      -1.305   0.673  -6.421  1.00  0.00     0.049 A 
ATOM     15  N   UNL     1       1.810  -1.927  -6.499  1.00  0.00    -0.248 NA
ATOM     16  C   UNL     1       0.249  -3.380  -5.643  1.00  0.00     0.031 C 
ATOM     17  C   UNL     1      -2.457   1.835  -6.264  1.00  0.00     0.029 A 
ATOM     18  N   UNL     1      -1.356   1.016  -7.919  1.00  0.00    -0.354 N 
ATOM     19  C   UNL     1       2.046  -3.166  -7.037  1.00  0.00     0.074 A 
ATOM     20  C   UNL     1       1.192  -4.071  -6.303  1.00  0.00     0.031 C 
ATOM     21  C   UNL     1      -3.218   1.982  -7.382  1.00  0.00     0.029 A 
ATOM     22  C   UNL     1      -2.600   1.299  -8.467  1.00  0.00     0.049 A 
ATOM     23  H   UNL     1      -0.539   1.034  -8.468  1.00  0.00     0.167 HD
ATOM     24  C   UNL     1       2.695  -3.350  -8.221  1.00  0.00     0.037 A 
ATOM     25  C   UNL     1      -3.015   0.885  -9.694  1.00  0.00     0.037 A 
ATOM     26  C   UNL     1       3.044  -2.182  -9.002  1.00  0.00     0.049 A 
ATOM     27  C   UNL     1      -1.855   0.411 -10.520  1.00  0.00     0.074 A 
ATOM     28  C   UNL     1       4.199  -1.553  -9.414  1.00  0.00     0.029 A 
ATOM     29  N   UNL     1       2.006  -1.508  -9.607  1.00  0.00    -0.354 N 
ATOM     30  N   UNL     1      -0.834   1.145 -10.861  1.00  0.00    -0.248 NA
ATOM     31  C   UNL     1      -1.725  -1.008 -10.872  1.00  0.00     0.031 C 
ATOM     32  C   UNL     1       3.822  -0.445 -10.234  1.00  0.00     0.029 A 
ATOM     33  C   UNL     1       2.439  -0.413 -10.331  1.00  0.00     0.049 A 
ATOM     34  H   UNL     1       1.061  -1.776  -9.533  1.00  0.00     0.167 HD
ATOM     35  C   UNL     1       0.189   0.242 -11.076  1.00  0.00     0.074 A 
ATOM     36  C   UNL     1      -0.436  -1.056 -11.218  1.00  0.00     0.031 C 
ATOM     37  C   UNL     1       1.484   0.563 -10.819  1.00  0.00     0.037 A 
BRANCH  24  38
ATOM     38  C   UNL     1       2.751  -4.663  -8.911  1.00  0.00     0.064 A 
ATOM     39  C   UNL     1       3.980  -5.207  -9.303  1.00  0.00     0.173 A 
ATOM     40  C   UNL     1       1.584  -5.281  -9.378  1.00  0.00     0.173 A 
ATOM     41  F   UNL     1       5.128  -4.627  -8.922  1.00  0.00    -0.203 F 
ATOM     42  C   UNL     1       4.037  -6.332 -10.122  1.00  0.00     0.198 A 
ATOM     43  C   UNL     1       1.644  -6.417 -10.178  1.00  0.00     0.198 A 
ATOM     44  F   UNL     1       0.383  -4.750  -9.102  1.00  0.00    -0.203 F 
ATOM     45  F   UNL     1       5.224  -6.814 -10.512  1.00  0.00    -0.200 F 
ATOM     46  C   UNL     1       2.870  -6.939 -10.556  1.00  0.00     0.200 A 
ATOM     47  F   UNL     1       0.511  -6.986 -10.610  1.00  0.00    -0.200 F 
ATOM     48  F   UNL     1       2.925  -8.013 -11.354  1.00  0.00    -0.200 F 
ENDBRANCH  24  38
BRANCH  25  49
ATOM     49  C   UNL     1      -4.394   0.632 -10.174  1.00  0.00     0.064 A 
ATOM     50  C   UNL     1      -4.705   0.659 -11.541  1.00  0.00     0.173 A 
ATOM     51  C   UNL     1      -5.375   0.100  -9.328  1.00  0.00     0.173 A 
ATOM     52  F   UNL     1      -3.797   1.086 -12.430  1.00  0.00    -0.203 F 
ATOM     53  C   UNL     1      -5.927   0.183 -12.025  1.00  0.00     0.198 A 
ATOM     54  C   UNL     1      -6.605  -0.353  -9.801  1.00  0.00     0.198 A 
ATOM     55  F   UNL     1      -5.115  -0.077  -8.032  1.00  0.00    -0.203 F 
ATOM     56  F   UNL     1      -6.162   0.170 -13.343  1.00  0.00    -0.200 F 
ATOM     57  C   UNL     1      -6.878  -0.320 -11.153  1.00  0.00     0.200 A 
ATOM     58  F   UNL     1      -7.501  -0.865  -8.945  1.00  0.00    -0.200 F 
ATOM     59  F   UNL     1      -8.037  -0.804 -11.619  1.00  0.00    -0.200 F 
ENDBRANCH  25  49
BRANCH  37  60
ATOM     60  C   UNL     1       1.821   2.022 -10.919  1.00  0.00     0.064 A 
ATOM     61  C   UNL     1       1.300   3.011 -10.064  1.00  0.00     0.173 A 
ATOM     62  C   UNL     1       2.622   2.458 -11.984  1.00  0.00     0.173 A 
ATOM     63  F   UNL     1       0.483   2.693  -9.052  1.00  0.00    -0.203 F 
ATOM     64  C   UNL     1       1.563   4.364 -10.268  1.00  0.00     0.198 A 
ATOM     65  C   UNL     1       2.888   3.812 -12.183  1.00  0.00     0.198 A 
ATOM     66  F   UNL     1       3.127   1.570 -12.855  1.00  0.00    -0.203 F 
ATOM     67  F   UNL     1       1.015   5.283  -9.459  1.00  0.00    -0.200 F 
ATOM     68  C   UNL     1       2.356   4.764 -11.328  1.00  0.00     0.200 A 
ATOM     69  F   UNL     1       3.643   4.198 -13.221  1.00  0.00    -0.200 F 
ATOM     70  F   UNL     1       2.590   6.067 -11.539  1.00  0.00    -0.200 F 
ENDBRANCH  37  60
ENDBRANCH  11  12
ENDBRANCH   4   6
ENDBRANCH   3   4
ENDBRANCH   2   3
ENDBRANCH   1   2
BRANCH   1  71
ATOM     71  O   UNL     1       1.254   2.438  -1.666  1.00  0.00    -0.462 OA
BRANCH  71  72
ATOM     72  C   UNL     1       1.353   3.273  -2.749  1.00  0.00     0.310 C 
ATOM     73  O   UNL     1       0.493   4.069  -3.092  1.00  0.00    -0.252 OA
BRANCH  72  74
ATOM     74  C   UNL     1       2.680   3.069  -3.443  1.00  0.00     0.115 C 
ATOM     75  C   UNL     1       3.316   4.386  -3.878  1.00  0.00     0.043 C 
ATOM     76  C   UNL     1       2.664   2.020  -4.553  1.00  0.00     0.097 C 
ATOM     77  C   UNL     1       4.659   4.144  -4.505  1.00  0.00    -0.030 C 
ATOM     78  C   UNL     1       4.094   1.775  -5.097  1.00  0.00     0.041 C 
ATOM     79  C   UNL     1       5.012   2.964  -5.033  1.00  0.00    -0.030 C 
BRANCH  76  80
ATOM     80  C   UNL     1       1.698   2.160  -5.741  1.00  0.00     0.227 C 
ATOM     81  O   UNL     1       1.962   2.860  -6.715  1.00  0.00    -0.275 OA
ATOM     82  N   UNL     1       0.642   1.242  -5.762  1.00  0.00    -0.339 N 
ATOM     83  C   UNL     1       0.539   0.096  -7.260  1.00  0.00     0.141 C 
ATOM     84  C   UNL     1      -0.694   1.340  -4.457  1.00  0.00     0.141 C 
ATOM     85  C   UNL     1      -1.055  -1.178  -7.392  1.00  0.00     0.141 C 
ATOM     86  C   UNL     1      -2.284   0.137  -4.580  1.00  0.00     0.141 C 
ATOM     87  N   UNL     1      -2.405  -1.071  -6.028  1.00  0.00    -0.334 N 
ATOM     88  C   UNL     1      -3.590  -1.777  -6.278  1.00  0.00     0.265 C 
ATOM     89  O   UNL     1      -3.634  -2.519  -7.263  1.00  0.00    -0.268 OA
BRANCH  88  90
ATOM     90  C   UNL     1      -4.708  -1.686  -5.332  1.00  0.00     0.112 A 
ATOM     91  S   UNL     1      -5.210  -3.167  -4.606  1.00  0.00    -0.128 S 
ATOM     92  C   UNL     1      -5.576  -0.669  -4.965  1.00  0.00     0.072 A 
ATOM     93  C   UNL     1      -6.585  -2.463  -3.848  1.00  0.00     0.043 A 
ATOM     94  C   UNL     1      -6.632  -1.090  -4.074  1.00  0.00     0.012 A 
ATOM     95  Cl  UNL     1      -5.613   0.965  -5.494  1.00  0.00    -0.082 Cl
ATOM     96  C   UNL     1      -7.583  -3.120  -3.095  1.00  0.00     0.105 A 
ATOM     97  C   UNL     1      -7.692  -0.347  -3.480  1.00  0.00     0.018 A 
ATOM     98  C   UNL     1      -8.634  -2.356  -2.560  1.00  0.00     0.270 A 
ATOM     99  C   UNL     1      -8.684  -0.977  -2.730  1.00  0.00     0.086 A 
BRANCH  98 100
ATOM    100  N   UNL     1      -9.714  -3.021  -1.819  1.00  0.00     0.062 N 
ATOM    101  O   UNL     1      -9.753  -4.258  -1.851  1.00  0.00    -0.258 OA
ATOM    102  O   UNL     1     -10.522  -2.305  -1.212  1.00  0.00    -0.258 OA
ENDBRANCH  98 100
ENDBRANCH  88  90
ENDBRANCH  76  80
ENDBRANCH  72  74
ENDBRANCH  71  72
ENDBRANCH   1  71
TORSDOF 14
