REMARK SMILES COc1cccc(-c2c(C(=O)OCCOC(=O)c3ccc(-c4c5nc(c(-c6c(F)c(F)c(F)c(F)c6F)c6ccc([nH]6)c(-c6c(F)c(F)c(F)c(F)c6F)c6nc(c(-c7c(F)c(F)c(F)c(F)c7F)c7ccc4[nH]7)C=C6)C=C5)cc3)nnn2Cc2ccc(OC(F)(F)F)cc2)c1
REMARK SMILES IDX 13 1 12 2 10 3 11 4 9 5 8 6 83 7 81 8 82 9 7 10 3 11 4 12
REMARK SMILES IDX 96 13 5 14 6 15 2 16 1 17 84 18 85 19 86 20 95 21 87 22
REMARK SMILES IDX 94 23 88 24 89 25 90 26 91 27 92 28 93 29 14 30 15 31 16 32
REMARK SMILES IDX 17 33 18 34 19 35 80 36 20 37 79 38 21 39 22 40 23 41 73 42
REMARK SMILES IDX 24 43 78 44 72 45 74 46 25 47 77 48 71 49 70 50 26 52 58 53
REMARK SMILES IDX 38 54 57 55 39 56 42 57 56 58 75 59 40 60 41 61 55 63 76 64
REMARK SMILES IDX 43 65 27 66 28 67 36 68 29 69 30 70 34 71 37 72 31 73 32 74
REMARK SMILES IDX 35 75 33 76 59 77 60 78 68 79 61 80 62 81 66 82 69 83 63 84
REMARK SMILES IDX 64 85 67 86 65 87 44 88 45 89 53 90 46 91 47 92 51 93 54 94
REMARK SMILES IDX 48 95 49 96 52 97 50 98
REMARK H PARENT 74 51 42 62
REMARK Flexibility Score: inf
ROOT
ATOM      1  C   UNL     1       1.966   0.555  -7.223  1.00  0.00     0.275 C 
ENDROOT
BRANCH   1   2
ATOM      2  O   UNL     1       2.495  -0.316  -6.212  1.00  0.00    -0.457 OA
BRANCH   2   3
ATOM      3  C   UNL     1       3.718  -0.864  -6.482  1.00  0.00     0.361 C 
ATOM      4  O   UNL     1       4.268  -0.784  -7.578  1.00  0.00    -0.244 OA
BRANCH   3   5
ATOM      5  C   UNL     1       4.336  -1.502  -5.329  1.00  0.00     0.198 A 
ATOM      6  C   UNL     1       3.777  -1.964  -4.137  1.00  0.00     0.104 A 
ATOM      7  N   UNL     1       4.866  -2.518  -3.492  1.00  0.00    -0.239 N 
ATOM      8  N   UNL     1       5.699  -1.687  -5.294  1.00  0.00    -0.122 NA
ATOM      9  N   UNL     1       6.015  -2.234  -4.137  1.00  0.00    -0.066 NA
BRANCH   6  10
ATOM     10  C   UNL     1       2.401  -1.999  -3.643  1.00  0.00     0.006 A 
ATOM     11  C   UNL     1       0.770  -1.587  -1.885  1.00  0.00     0.119 A 
ATOM     12  C   UNL     1      -0.215  -2.192  -2.666  1.00  0.00     0.046 A 
ATOM     13  C   UNL     1       2.073  -1.478  -2.379  1.00  0.00     0.056 A 
ATOM     14  C   UNL     1       0.087  -2.665  -3.941  1.00  0.00     0.005 A 
ATOM     15  C   UNL     1       1.392  -2.577  -4.424  1.00  0.00     0.011 A 
BRANCH  11  16
ATOM     16  O   UNL     1       0.366  -1.212  -0.633  1.00  0.00    -0.497 OA
ATOM     17  C   UNL     1       1.000  -0.056  -0.097  1.00  0.00     0.278 C 
ENDBRANCH  11  16
ENDBRANCH   6  10
BRANCH   7  18
ATOM     18  C   UNL     1       4.924  -3.323  -2.280  1.00  0.00     0.182 C 
BRANCH  18  19
ATOM     19  C   UNL     1       5.378  -4.742  -2.550  1.00  0.00    -0.026 A 
ATOM     20  C   UNL     1       4.494  -5.819  -2.423  1.00  0.00     0.009 A 
ATOM     21  C   UNL     1       6.703  -5.009  -2.930  1.00  0.00     0.009 A 
ATOM     22  C   UNL     1       4.929  -7.124  -2.678  1.00  0.00     0.047 A 
ATOM     23  C   UNL     1       7.131  -6.311  -3.202  1.00  0.00     0.047 A 
ATOM     24  C   UNL     1       6.245  -7.379  -3.078  1.00  0.00     0.129 A 
BRANCH  24  25
ATOM     25  O   UNL     1       6.529  -8.695  -3.306  1.00  0.00    -0.406 OA
BRANCH  25  26
ATOM     26  C   UNL     1       7.805  -9.008  -3.839  1.00  0.00     0.573 C 
ATOM     27  F   UNL     1       8.004  -8.396  -5.026  1.00  0.00    -0.132 F 
ATOM     28  F   UNL     1       8.791  -8.665  -2.982  1.00  0.00    -0.132 F 
ATOM     29  F   UNL     1       7.874 -10.343  -4.040  1.00  0.00    -0.132 F 
ENDBRANCH  25  26
ENDBRANCH  24  25
ENDBRANCH  18  19
ENDBRANCH   7  18
ENDBRANCH   3   5
ENDBRANCH   2   3
ENDBRANCH   1   2
BRANCH   1  30
ATOM     30  C   UNL     1       2.412   1.991  -6.992  1.00  0.00     0.275 C 
BRANCH  30  31
ATOM     31  O   UNL     1       3.793   2.186  -7.303  1.00  0.00    -0.458 OA
BRANCH  31  32
ATOM     32  C   UNL     1       4.627   2.139  -6.238  1.00  0.00     0.338 C 
ATOM     33  O   UNL     1       4.423   1.587  -5.170  1.00  0.00    -0.246 OA
BRANCH  32  34
ATOM     34  C   UNL     1       5.726   3.090  -6.447  1.00  0.00     0.060 A 
ATOM     35  C   UNL     1       6.777   3.085  -5.527  1.00  0.00     0.016 A 
ATOM     36  C   UNL     1       5.581   4.124  -7.386  1.00  0.00     0.016 A 
ATOM     37  C   UNL     1       7.621   4.178  -5.474  1.00  0.00     0.010 A 
ATOM     38  C   UNL     1       6.414   5.220  -7.323  1.00  0.00     0.010 A 
ATOM     39  C   UNL     1       7.396   5.260  -6.335  1.00  0.00    -0.014 A 
BRANCH  39  40
ATOM     40  C   UNL     1       8.325   6.375  -6.288  1.00  0.00     0.031 A 
ATOM     41  C   UNL     1       9.680   6.041  -6.793  1.00  0.00     0.074 A 
ATOM     42  C   UNL     1       7.957   7.631  -5.970  1.00  0.00     0.049 A 
ATOM     43  N   UNL     1      10.807   6.156  -6.172  1.00  0.00    -0.248 NA
ATOM     44  C   UNL     1       9.784   5.400  -8.116  1.00  0.00     0.031 C 
ATOM     45  C   UNL     1       6.606   8.148  -5.750  1.00  0.00     0.029 A 
ATOM     46  N   UNL     1       8.728   8.751  -5.897  1.00  0.00    -0.354 N 
ATOM     47  C   UNL     1      11.782   5.761  -7.081  1.00  0.00     0.074 A 
ATOM     48  C   UNL     1      11.095   5.175  -8.201  1.00  0.00     0.031 C 
ATOM     49  C   UNL     1       6.636   9.499  -5.809  1.00  0.00     0.029 A 
ATOM     50  C   UNL     1       8.013   9.939  -5.968  1.00  0.00     0.049 A 
ATOM     51  H   UNL     1       9.707   8.721  -5.803  1.00  0.00     0.167 HD
ATOM     52  C   UNL     1      13.070   6.174  -6.948  1.00  0.00     0.037 A 
ATOM     53  C   UNL     1       8.521  11.169  -6.239  1.00  0.00     0.037 A 
ATOM     54  C   UNL     1      13.369   6.543  -5.588  1.00  0.00     0.049 A 
ATOM     55  C   UNL     1       9.986  11.114  -5.977  1.00  0.00     0.074 A 
ATOM     56  C   UNL     1      13.248   5.892  -4.372  1.00  0.00     0.029 A 
ATOM     57  N   UNL     1      13.509   7.872  -5.272  1.00  0.00    -0.354 N 
ATOM     58  N   UNL     1      10.513  11.006  -4.788  1.00  0.00    -0.248 NA
ATOM     59  C   UNL     1      10.851  10.723  -7.082  1.00  0.00     0.031 C 
ATOM     60  C   UNL     1      12.783   6.890  -3.467  1.00  0.00     0.029 A 
ATOM     61  C   UNL     1      12.725   8.094  -4.169  1.00  0.00     0.049 A 
ATOM     62  H   UNL     1      14.063   8.535  -5.745  1.00  0.00     0.167 HD
ATOM     63  C   UNL     1      11.575  10.132  -4.958  1.00  0.00     0.074 A 
ATOM     64  C   UNL     1      11.788  10.058  -6.401  1.00  0.00     0.031 C 
ATOM     65  C   UNL     1      11.998   9.318  -3.946  1.00  0.00     0.037 A 
BRANCH  52  66
ATOM     66  C   UNL     1      13.914   6.600  -8.121  1.00  0.00     0.064 A 
ATOM     67  C   UNL     1      15.277   6.886  -7.920  1.00  0.00     0.173 A 
ATOM     68  C   UNL     1      13.374   7.035  -9.354  1.00  0.00     0.173 A 
ATOM     69  F   UNL     1      15.883   6.548  -6.772  1.00  0.00    -0.203 F 
ATOM     70  C   UNL     1      16.020   7.620  -8.849  1.00  0.00     0.198 A 
ATOM     71  C   UNL     1      14.133   7.715 -10.302  1.00  0.00     0.198 A 
ATOM     72  F   UNL     1      12.072   6.929  -9.641  1.00  0.00    -0.203 F 
ATOM     73  F   UNL     1      17.274   7.986  -8.555  1.00  0.00    -0.200 F 
ATOM     74  C   UNL     1      15.446   8.037 -10.037  1.00  0.00     0.200 A 
ATOM     75  F   UNL     1      13.550   8.131 -11.435  1.00  0.00    -0.200 F 
ATOM     76  F   UNL     1      16.136   8.795 -10.898  1.00  0.00    -0.200 F 
ENDBRANCH  52  66
BRANCH  53  77
ATOM     77  C   UNL     1       7.897  12.281  -7.005  1.00  0.00     0.064 A 
ATOM     78  C   UNL     1       8.497  13.554  -7.046  1.00  0.00     0.173 A 
ATOM     79  C   UNL     1       6.856  12.063  -7.929  1.00  0.00     0.173 A 
ATOM     80  F   UNL     1       9.526  13.843  -6.235  1.00  0.00    -0.203 F 
ATOM     81  C   UNL     1       8.102  14.528  -7.970  1.00  0.00     0.198 A 
ATOM     82  C   UNL     1       6.452  13.041  -8.840  1.00  0.00     0.198 A 
ATOM     83  F   UNL     1       6.264  10.866  -8.040  1.00  0.00    -0.203 F 
ATOM     84  F   UNL     1       8.748  15.701  -8.023  1.00  0.00    -0.200 F 
ATOM     85  C   UNL     1       7.085  14.267  -8.873  1.00  0.00     0.200 A 
ATOM     86  F   UNL     1       5.487  12.761  -9.728  1.00  0.00    -0.200 F 
ATOM     87  F   UNL     1       6.746  15.175  -9.798  1.00  0.00    -0.200 F 
ENDBRANCH  53  77
BRANCH  65  88
ATOM     88  C   UNL     1      11.474   9.555  -2.559  1.00  0.00     0.064 A 
ATOM     89  C   UNL     1      10.112   9.521  -2.210  1.00  0.00     0.173 A 
ATOM     90  C   UNL     1      12.402   9.661  -1.513  1.00  0.00     0.173 A 
ATOM     91  F   UNL     1       9.164   9.312  -3.132  1.00  0.00    -0.203 F 
ATOM     92  C   UNL     1       9.704   9.638  -0.882  1.00  0.00     0.198 A 
ATOM     93  C   UNL     1      11.993   9.734  -0.185  1.00  0.00     0.198 A 
ATOM     94  F   UNL     1      13.719   9.643  -1.777  1.00  0.00    -0.203 F 
ATOM     95  F   UNL     1       8.398   9.618  -0.577  1.00  0.00    -0.200 F 
ATOM     96  C   UNL     1      10.645   9.735   0.130  1.00  0.00     0.200 A 
ATOM     97  F   UNL     1      12.909   9.775   0.793  1.00  0.00    -0.200 F 
ATOM     98  F   UNL     1      10.253   9.800   1.410  1.00  0.00    -0.200 F 
ENDBRANCH  65  88
ENDBRANCH  39  40
ENDBRANCH  32  34
ENDBRANCH  31  32
ENDBRANCH  30  31
ENDBRANCH   1  30
TORSDOF 17
