REMARK SMILES N#CCCn1cc(C(=O)OCCOC(=O)c2ccc(-c3c4nc(c(-c5c(F)c(F)c(F)c(F)c5F)c5ccc([nH]5)c(-c5c(F)c(F)c(F)c(F)c5F)c5nc(c(-c6c(F)c(F)c(F)c(F)c6F)c6ccc3[nH]6)C=C5)C=C4)cc2)c(-c2cccc([N+](=O)[O-])c2)n1
REMARK SMILES IDX 11 1 10 2 8 3 9 4 7 5 5 6 6 7 89 8 79 9 4 10 3 11 2 12 1 13
REMARK SMILES IDX 80 14 81 15 88 16 82 17 84 18 83 19 85 20 86 21 87 22 12 23
REMARK SMILES IDX 13 24 14 25 15 26 16 27 17 28 78 29 18 30 77 31 19 32 20 33
REMARK SMILES IDX 21 34 71 35 22 36 76 37 70 38 72 39 23 40 75 41 69 42 68 43
REMARK SMILES IDX 24 45 56 46 36 47 55 48 37 49 40 50 54 51 73 52 38 53 39 54
REMARK SMILES IDX 53 56 74 57 41 58 25 59 26 60 34 61 27 62 28 63 32 64 35 65
REMARK SMILES IDX 29 66 30 67 33 68 31 69 57 70 58 71 66 72 59 73 60 74 64 75
REMARK SMILES IDX 67 76 61 77 62 78 65 79 63 80 42 81 43 82 51 83 44 84 45 85
REMARK SMILES IDX 49 86 52 87 46 88 47 89 50 90 48 91
REMARK H PARENT 72 44 40 55
REMARK Flexibility Score: inf
ROOT
ATOM      1  C   UNL     1       3.813  -6.143   2.814  1.00  0.00     0.275 C 
ENDROOT
BRANCH   1   2
ATOM      2  O   UNL     1       3.802  -4.722   2.593  1.00  0.00    -0.458 OA
BRANCH   2   3
ATOM      3  C   UNL     1       3.108  -3.947   3.483  1.00  0.00     0.342 C 
ATOM      4  O   UNL     1       2.430  -4.393   4.407  1.00  0.00    -0.246 OA
BRANCH   3   5
ATOM      5  C   UNL     1       3.288  -2.530   3.230  1.00  0.00     0.106 A 
ATOM      6  N   UNL     1       3.864  -0.638   2.282  1.00  0.00    -0.270 N 
ATOM      7  C   UNL     1       4.009  -1.985   2.185  1.00  0.00     0.125 A 
ATOM      8  N   UNL     1       3.195  -0.247   3.376  1.00  0.00    -0.172 NA
ATOM      9  C   UNL     1       2.838  -1.397   3.973  1.00  0.00     0.107 A 
BRANCH   6  10
ATOM     10  C   UNL     1       4.285   0.339   1.297  1.00  0.00     0.159 C 
BRANCH  10  11
ATOM     11  C   UNL     1       3.751   0.021  -0.093  1.00  0.00     0.144 C 
BRANCH  11  12
ATOM     12  C   UNL     1       2.231   0.021  -0.093  1.00  0.00     0.064 C 
ATOM     13  N   UNL     1       0.970   0.021  -0.093  1.00  0.00    -0.198 NA
ENDBRANCH  11  12
ENDBRANCH  10  11
ENDBRANCH   6  10
BRANCH   9  14
ATOM     14  C   UNL     1       2.149  -1.379   5.255  1.00  0.00     0.010 A 
ATOM     15  C   UNL     1       2.909  -1.384   6.434  1.00  0.00     0.011 A 
ATOM     16  C   UNL     1       0.754  -1.374   5.328  1.00  0.00     0.096 A 
ATOM     17  C   UNL     1       2.293  -1.471   7.683  1.00  0.00     0.008 A 
ATOM     18  C   UNL     1       0.141  -1.435   6.588  1.00  0.00     0.270 A 
ATOM     19  C   UNL     1       0.903  -1.512   7.764  1.00  0.00     0.085 A 
BRANCH  18  20
ATOM     20  N   UNL     1      -1.321  -1.408   6.687  1.00  0.00     0.062 N 
ATOM     21  O   UNL     1      -1.830  -1.745   7.767  1.00  0.00    -0.258 OA
ATOM     22  O   UNL     1      -1.962  -1.038   5.693  1.00  0.00    -0.258 OA
ENDBRANCH  18  20
ENDBRANCH   9  14
ENDBRANCH   3   5
ENDBRANCH   2   3
ENDBRANCH   1   2
BRANCH   1  23
ATOM     23  C   UNL     1       5.001  -6.591   3.660  1.00  0.00     0.275 C 
BRANCH  23  24
ATOM     24  O   UNL     1       4.867  -6.158   5.011  1.00  0.00    -0.458 OA
BRANCH  24  25
ATOM     25  C   UNL     1       5.382  -4.933   5.252  1.00  0.00     0.338 C 
ATOM     26  O   UNL     1       5.837  -4.151   4.434  1.00  0.00    -0.246 OA
BRANCH  25  27
ATOM     27  C   UNL     1       5.444  -4.693   6.693  1.00  0.00     0.060 A 
ATOM     28  C   UNL     1       5.876  -3.423   7.090  1.00  0.00     0.016 A 
ATOM     29  C   UNL     1       5.306  -5.750   7.603  1.00  0.00     0.016 A 
ATOM     30  C   UNL     1       6.318  -3.245   8.377  1.00  0.00     0.010 A 
ATOM     31  C   UNL     1       5.766  -5.579   8.887  1.00  0.00     0.010 A 
ATOM     32  C   UNL     1       6.332  -4.351   9.228  1.00  0.00    -0.014 A 
BRANCH  32  33
ATOM     33  C   UNL     1       6.947  -4.180  10.526  1.00  0.00     0.031 A 
ATOM     34  C   UNL     1       6.099  -3.400  11.461  1.00  0.00     0.074 A 
ATOM     35  C   UNL     1       8.137  -4.764  10.773  1.00  0.00     0.049 A 
ATOM     36  N   UNL     1       6.386  -2.289  12.055  1.00  0.00    -0.248 NA
ATOM     37  C   UNL     1       4.690  -3.809  11.618  1.00  0.00     0.031 C 
ATOM     38  C   UNL     1       8.859  -5.708   9.909  1.00  0.00     0.029 A 
ATOM     39  N   UNL     1       8.907  -4.732  11.896  1.00  0.00    -0.354 N 
ATOM     40  C   UNL     1       5.271  -1.981  12.834  1.00  0.00     0.074 A 
ATOM     41  C   UNL     1       4.207  -2.833  12.384  1.00  0.00     0.031 C 
ATOM     42  C   UNL     1       9.815  -6.338  10.627  1.00  0.00     0.029 A 
ATOM     43  C   UNL     1       9.859  -5.751  11.950  1.00  0.00     0.049 A 
ATOM     44  H   UNL     1       8.803  -4.054  12.602  1.00  0.00     0.167 HD
ATOM     45  C   UNL     1       5.422  -1.277  13.988  1.00  0.00     0.037 A 
ATOM     46  C   UNL     1      10.536  -6.136  13.061  1.00  0.00     0.037 A 
ATOM     47  C   UNL     1       6.637  -0.502  13.944  1.00  0.00     0.049 A 
ATOM     48  C   UNL     1      10.448  -5.015  14.030  1.00  0.00     0.074 A 
ATOM     49  C   UNL     1       7.103   0.563  13.203  1.00  0.00     0.029 A 
ATOM     50  N   UNL     1       7.735  -1.073  14.533  1.00  0.00    -0.354 N 
ATOM     51  N   UNL     1      11.001  -3.849  13.836  1.00  0.00    -0.248 NA
ATOM     52  C   UNL     1       9.351  -5.036  14.983  1.00  0.00     0.031 C 
ATOM     53  C   UNL     1       8.507   0.340  13.065  1.00  0.00     0.029 A 
ATOM     54  C   UNL     1       8.844  -0.810  13.781  1.00  0.00     0.049 A 
ATOM     55  H   UNL     1       7.725  -1.594  15.368  1.00  0.00     0.167 HD
ATOM     56  C   UNL     1      10.064  -2.933  14.296  1.00  0.00     0.074 A 
ATOM     57  C   UNL     1       9.115  -3.725  15.076  1.00  0.00     0.031 C 
ATOM     58  C   UNL     1       9.998  -1.680  13.755  1.00  0.00     0.037 A 
BRANCH  45  59
ATOM     59  C   UNL     1       4.795  -1.706  15.306  1.00  0.00     0.064 A 
ATOM     60  C   UNL     1       5.098  -0.958  16.464  1.00  0.00     0.173 A 
ATOM     61  C   UNL     1       4.218  -2.974  15.547  1.00  0.00     0.173 A 
ATOM     62  F   UNL     1       5.644   0.263  16.365  1.00  0.00    -0.203 F 
ATOM     63  C   UNL     1       4.957  -1.490  17.749  1.00  0.00     0.198 A 
ATOM     64  C   UNL     1       4.039  -3.484  16.832  1.00  0.00     0.198 A 
ATOM     65  F   UNL     1       3.895  -3.824  14.568  1.00  0.00    -0.203 F 
ATOM     66  F   UNL     1       5.398  -0.797  18.807  1.00  0.00    -0.200 F 
ATOM     67  C   UNL     1       4.444  -2.760  17.931  1.00  0.00     0.200 A 
ATOM     68  F   UNL     1       3.551  -4.724  16.985  1.00  0.00    -0.200 F 
ATOM     69  F   UNL     1       4.380  -3.303  19.153  1.00  0.00    -0.200 F 
ENDBRANCH  45  59
BRANCH  46  70
ATOM     70  C   UNL     1      10.847  -7.529  13.470  1.00  0.00     0.064 A 
ATOM     71  C   UNL     1      11.826  -7.810  14.436  1.00  0.00     0.173 A 
ATOM     72  C   UNL     1      10.002  -8.598  13.109  1.00  0.00     0.173 A 
ATOM     73  F   UNL     1      12.629  -6.833  14.883  1.00  0.00    -0.203 F 
ATOM     74  C   UNL     1      11.953  -9.085  15.003  1.00  0.00     0.198 A 
ATOM     75  C   UNL     1      10.132  -9.869  13.671  1.00  0.00     0.198 A 
ATOM     76  F   UNL     1       8.971  -8.407  12.274  1.00  0.00    -0.203 F 
ATOM     77  F   UNL     1      12.868  -9.305  15.958  1.00  0.00    -0.200 F 
ATOM     78  C   UNL     1      11.103 -10.111  14.623  1.00  0.00     0.200 A 
ATOM     79  F   UNL     1       9.273 -10.839  13.325  1.00  0.00    -0.200 F 
ATOM     80  F   UNL     1      11.191 -11.317  15.201  1.00  0.00    -0.200 F 
ENDBRANCH  46  70
BRANCH  58  81
ATOM     81  C   UNL     1      11.154  -1.231  12.906  1.00  0.00     0.064 A 
ATOM     82  C   UNL     1      11.487  -1.788  11.659  1.00  0.00     0.173 A 
ATOM     83  C   UNL     1      11.860  -0.093  13.315  1.00  0.00     0.173 A 
ATOM     84  F   UNL     1      10.796  -2.822  11.160  1.00  0.00    -0.203 F 
ATOM     85  C   UNL     1      12.507  -1.245  10.877  1.00  0.00     0.198 A 
ATOM     86  C   UNL     1      12.851   0.469  12.518  1.00  0.00     0.198 A 
ATOM     87  F   UNL     1      11.546   0.509  14.473  1.00  0.00    -0.203 F 
ATOM     88  F   UNL     1      12.814  -1.795   9.693  1.00  0.00    -0.200 F 
ATOM     89  C   UNL     1      13.181  -0.112  11.304  1.00  0.00     0.200 A 
ATOM     90  F   UNL     1      13.463   1.594  12.912  1.00  0.00    -0.200 F 
ATOM     91  F   UNL     1      14.130   0.439  10.534  1.00  0.00    -0.200 F 
ENDBRANCH  58  81
ENDBRANCH  32  33
ENDBRANCH  25  27
ENDBRANCH  24  25
ENDBRANCH  23  24
ENDBRANCH   1  23
TORSDOF 16
