REMARK SMILES C[NH+]1CCN(C(=O)c2ccc3c(c2)N(CC(=O)OCCOC(=O)c2ccc(-c4c5nc(c(-c6c(F)c(F)c(F)c(F)c6F)c6ccc([nH]6)c(-c6c(F)c(F)c(F)c(F)c6F)c6nc(c(-c7c(F)c(F)c(F)c(F)c7F)c7ccc4[nH]7)C=C6)C=C5)cc2)C(=O)CO3)CC1
REMARK SMILES IDX 19 1 18 2 16 3 17 4 15 5 14 6 8 7 9 8 13 9 10 10 12 11 11 12
REMARK SMILES IDX 90 13 87 14 89 15 88 16 6 17 1 18 2 19 3 20 92 21 4 23 91 24
REMARK SMILES IDX 5 25 7 26 20 27 21 28 22 29 23 30 24 31 25 32 86 33 26 34
REMARK SMILES IDX 85 35 27 36 28 37 29 38 79 39 30 40 84 41 78 42 80 43 31 44
REMARK SMILES IDX 83 45 77 46 76 47 32 49 64 50 44 51 63 52 45 53 48 54 62 55
REMARK SMILES IDX 81 56 46 57 47 58 61 60 82 61 49 62 33 63 34 64 42 65 35 66
REMARK SMILES IDX 36 67 40 68 43 69 37 70 38 71 41 72 39 73 65 74 66 75 74 76
REMARK SMILES IDX 67 77 68 78 72 79 75 80 69 81 70 82 73 83 71 84 50 85 51 86
REMARK SMILES IDX 59 87 52 88 53 89 57 90 60 91 54 92 55 93 58 94 56 95
REMARK H PARENT 2 22 80 48 48 59
REMARK Flexibility Score: inf
ROOT
ATOM      1  C   UNL     1      -0.042  -5.787   1.460  1.00  0.00     0.274 C 
ENDROOT
BRANCH   1   2
ATOM      2  O   UNL     1      -1.352  -5.339   1.866  1.00  0.00    -0.461 OA
BRANCH   2   3
ATOM      3  C   UNL     1      -1.483  -5.093   3.199  1.00  0.00     0.326 C 
ATOM      4  O   UNL     1      -0.574  -5.232   4.015  1.00  0.00    -0.250 OA
BRANCH   3   5
ATOM      5  C   UNL     1      -2.812  -4.453   3.594  1.00  0.00     0.248 C 
BRANCH   5   6
ATOM      6  N   UNL     1      -3.932  -4.551   2.673  1.00  0.00    -0.295 N 
ATOM      7  C   UNL     1      -3.886  -1.434   0.552  1.00  0.00     0.042 A 
ATOM      8  C   UNL     1      -4.882  -1.735  -0.376  1.00  0.00     0.018 A 
ATOM      9  C   UNL     1      -3.610  -2.314   1.614  1.00  0.00     0.044 A 
ATOM     10  C   UNL     1      -5.579  -2.934  -0.259  1.00  0.00     0.049 A 
ATOM     11  C   UNL     1      -4.263  -3.552   1.708  1.00  0.00     0.087 A 
ATOM     12  C   UNL     1      -5.274  -3.830   0.770  1.00  0.00     0.143 A 
ATOM     13  O   UNL     1      -5.999  -4.994   0.756  1.00  0.00    -0.482 OA
ATOM     14  C   UNL     1      -4.691  -5.713   2.755  1.00  0.00     0.265 C 
ATOM     15  C   UNL     1      -6.011  -5.649   2.009  1.00  0.00     0.330 C 
ATOM     16  O   UNL     1      -4.388  -6.673   3.463  1.00  0.00    -0.270 OA
BRANCH   7  17
ATOM     17  C   UNL     1      -3.200  -0.122   0.463  1.00  0.00     0.254 C 
ATOM     18  C   UNL     1       1.736   0.594  -1.606  1.00  0.00     0.332 C 
ATOM     19  N   UNL     1       0.285   0.592  -1.835  1.00  0.00    -0.334 N 
ATOM     20  C   UNL     1      -0.361   1.611  -0.981  1.00  0.00     0.283 C 
ATOM     21  C   UNL     1      -0.254  -0.767  -1.607  1.00  0.00     0.283 C 
ATOM     22  H   UNL     1       0.082   0.840  -2.804  1.00  0.00     0.347 HD
ATOM     23  C   UNL     1      -1.894   1.498  -0.877  1.00  0.00     0.181 C 
ATOM     24  C   UNL     1      -1.796  -0.860  -1.528  1.00  0.00     0.181 C 
ATOM     25  N   UNL     1      -2.342   0.133  -0.601  1.00  0.00    -0.327 N 
ATOM     26  O   UNL     1      -3.477   0.707   1.327  1.00  0.00    -0.269 OA
ENDBRANCH   7  17
ENDBRANCH   5   6
ENDBRANCH   3   5
ENDBRANCH   2   3
ENDBRANCH   1   2
BRANCH   1  27
ATOM     27  C   UNL     1       0.914  -4.638   1.106  1.00  0.00     0.275 C 
BRANCH  27  28
ATOM     28  O   UNL     1       0.905  -3.576   2.081  1.00  0.00    -0.458 OA
BRANCH  28  29
ATOM     29  C   UNL     1      -0.018  -2.633   1.800  1.00  0.00     0.338 C 
ATOM     30  O   UNL     1      -0.774  -2.639   0.841  1.00  0.00    -0.246 OA
BRANCH  29  31
ATOM     31  C   UNL     1      -0.068  -1.533   2.775  1.00  0.00     0.060 A 
ATOM     32  C   UNL     1      -0.412  -1.733   4.110  1.00  0.00     0.016 A 
ATOM     33  C   UNL     1      -0.000  -0.240   2.259  1.00  0.00     0.016 A 
ATOM     34  C   UNL     1      -0.752  -0.630   4.903  1.00  0.00     0.010 A 
ATOM     35  C   UNL     1      -0.286   0.862   3.056  1.00  0.00     0.010 A 
ATOM     36  C   UNL     1      -0.677   0.677   4.384  1.00  0.00    -0.014 A 
BRANCH  36  37
ATOM     37  C   UNL     1      -0.790   1.869   5.258  1.00  0.00     0.031 A 
ATOM     38  C   UNL     1      -1.883   2.887   5.104  1.00  0.00     0.074 A 
ATOM     39  C   UNL     1       0.238   2.101   6.095  1.00  0.00     0.049 A 
ATOM     40  N   UNL     1      -2.032   4.035   5.720  1.00  0.00    -0.248 NA
ATOM     41  C   UNL     1      -2.927   2.602   4.113  1.00  0.00     0.031 C 
ATOM     42  C   UNL     1       1.412   1.236   6.237  1.00  0.00     0.029 A 
ATOM     43  N   UNL     1       0.483   3.141   6.950  1.00  0.00    -0.354 N 
ATOM     44  C   UNL     1      -3.166   4.621   5.170  1.00  0.00     0.074 A 
ATOM     45  C   UNL     1      -3.661   3.708   4.162  1.00  0.00     0.031 C 
ATOM     46  C   UNL     1       2.249   1.775   7.131  1.00  0.00     0.029 A 
ATOM     47  C   UNL     1       1.683   3.033   7.604  1.00  0.00     0.049 A 
ATOM     48  H   UNL     1      -0.141   3.891   7.083  1.00  0.00     0.167 HD
ATOM     49  C   UNL     1      -3.734   5.811   5.486  1.00  0.00     0.037 A 
ATOM     50  C   UNL     1       2.273   3.856   8.486  1.00  0.00     0.037 A 
ATOM     51  C   UNL     1      -3.249   6.695   6.519  1.00  0.00     0.049 A 
ATOM     52  C   UNL     1       1.568   5.108   8.898  1.00  0.00     0.074 A 
ATOM     53  C   UNL     1      -3.815   7.867   6.992  1.00  0.00     0.029 A 
ATOM     54  N   UNL     1      -2.077   6.503   7.235  1.00  0.00    -0.354 N 
ATOM     55  N   UNL     1       0.448   5.607   8.439  1.00  0.00    -0.248 NA
ATOM     56  C   UNL     1       2.198   5.900   9.960  1.00  0.00     0.031 C 
ATOM     57  C   UNL     1      -2.972   8.399   7.975  1.00  0.00     0.029 A 
ATOM     58  C   UNL     1      -1.897   7.540   8.138  1.00  0.00     0.049 A 
ATOM     59  H   UNL     1      -1.462   5.743   7.119  1.00  0.00     0.167 HD
ATOM     60  C   UNL     1       0.229   6.768   9.160  1.00  0.00     0.074 A 
ATOM     61  C   UNL     1       1.327   6.890  10.100  1.00  0.00     0.031 C 
ATOM     62  C   UNL     1      -0.791   7.653   9.053  1.00  0.00     0.037 A 
BRANCH  49  63
ATOM     63  C   UNL     1      -4.954   6.242   4.723  1.00  0.00     0.064 A 
ATOM     64  C   UNL     1      -6.207   5.656   4.951  1.00  0.00     0.173 A 
ATOM     65  C   UNL     1      -4.888   7.322   3.828  1.00  0.00     0.173 A 
ATOM     66  F   UNL     1      -6.326   4.625   5.800  1.00  0.00    -0.203 F 
ATOM     67  C   UNL     1      -7.348   6.128   4.303  1.00  0.00     0.198 A 
ATOM     68  C   UNL     1      -6.034   7.804   3.199  1.00  0.00     0.198 A 
ATOM     69  F   UNL     1      -3.717   7.929   3.585  1.00  0.00    -0.203 F 
ATOM     70  F   UNL     1      -8.534   5.543   4.526  1.00  0.00    -0.200 F 
ATOM     71  C   UNL     1      -7.262   7.206   3.435  1.00  0.00     0.200 A 
ATOM     72  F   UNL     1      -5.952   8.858   2.374  1.00  0.00    -0.200 F 
ATOM     73  F   UNL     1      -8.364   7.672   2.831  1.00  0.00    -0.200 F 
ENDBRANCH  49  63
BRANCH  50  74
ATOM     74  C   UNL     1       3.572   3.453   9.068  1.00  0.00     0.064 A 
ATOM     75  C   UNL     1       3.625   2.873  10.341  1.00  0.00     0.173 A 
ATOM     76  C   UNL     1       4.757   3.528   8.324  1.00  0.00     0.173 A 
ATOM     77  F   UNL     1       2.511   2.785  11.083  1.00  0.00    -0.203 F 
ATOM     78  C   UNL     1       4.821   2.377  10.851  1.00  0.00     0.198 A 
ATOM     79  C   UNL     1       5.949   3.015   8.828  1.00  0.00     0.198 A 
ATOM     80  F   UNL     1       4.744   4.053   7.090  1.00  0.00    -0.203 F 
ATOM     81  F   UNL     1       4.848   1.827  12.072  1.00  0.00    -0.200 F 
ATOM     82  C   UNL     1       5.979   2.439  10.090  1.00  0.00     0.200 A 
ATOM     83  F   UNL     1       7.062   3.055   8.083  1.00  0.00    -0.200 F 
ATOM     84  F   UNL     1       7.125   1.936  10.570  1.00  0.00    -0.200 F 
ENDBRANCH  50  74
BRANCH  62  85
ATOM     85  C   UNL     1      -0.759   8.825   9.982  1.00  0.00     0.064 A 
ATOM     86  C   UNL     1       0.106   9.905   9.759  1.00  0.00     0.173 A 
ATOM     87  C   UNL     1      -1.596   8.865  11.106  1.00  0.00     0.173 A 
ATOM     88  F   UNL     1       0.938   9.898   8.706  1.00  0.00    -0.203 F 
ATOM     89  C   UNL     1       0.150  10.977  10.646  1.00  0.00     0.198 A 
ATOM     90  C   UNL     1      -1.562   9.947  11.980  1.00  0.00     0.198 A 
ATOM     91  F   UNL     1      -2.438   7.852  11.359  1.00  0.00    -0.203 F 
ATOM     92  F   UNL     1       1.015  11.979  10.440  1.00  0.00    -0.200 F 
ATOM     93  C   UNL     1      -0.685  10.998  11.754  1.00  0.00     0.200 A 
ATOM     94  F   UNL     1      -2.369   9.967  13.050  1.00  0.00    -0.200 F 
ATOM     95  F   UNL     1      -0.635  12.026  12.611  1.00  0.00    -0.200 F 
ENDBRANCH  62  85
ENDBRANCH  36  37
ENDBRANCH  29  31
ENDBRANCH  28  29
ENDBRANCH  27  28
ENDBRANCH   1  27
TORSDOF 13
