REMARK SMILES O=C(OCCOC(=O)[C@@H](Cc1ccc(F)cc1F)c1ccccc1Cl)c1ccc(-c2c3nc(c(-c4c(F)c(F)c(F)c(F)c4F)c4ccc([nH]4)c(-c4c(F)c(F)c(F)c(F)c4F)c4nc(c(-c5c(F)c(F)c(F)c(F)c5F)c5ccc2[nH]5)C=C4)C=C3)cc1
REMARK SMILES IDX 4 1 3 2 2 3 1 4 26 5 27 6 88 7 28 8 87 9 29 10 30 11 31 12
REMARK SMILES IDX 81 13 32 14 86 15 80 16 82 17 33 18 85 19 79 20 78 21 34 23
REMARK SMILES IDX 66 24 46 25 65 26 47 27 50 28 64 29 83 30 48 31 49 32 63 34
REMARK SMILES IDX 84 35 51 36 35 37 36 38 44 39 37 40 38 41 42 42 45 43 39 44
REMARK SMILES IDX 40 45 43 46 41 47 67 48 68 49 76 50 69 51 70 52 74 53 77 54
REMARK SMILES IDX 71 55 72 56 75 57 73 58 52 59 53 60 61 61 54 62 55 63 59 64
REMARK SMILES IDX 62 65 56 66 57 67 60 68 58 69 5 70 6 71 7 72 8 73 9 74 10 75
REMARK SMILES IDX 11 76 12 77 17 78 13 79 16 80 18 81 14 82 15 83 19 84 20 85
REMARK SMILES IDX 24 86 21 87 23 88 25 89 22 90
REMARK H PARENT 82 22 50 33
REMARK Flexibility Score: inf
ROOT
ATOM      1  C   UNL     1       3.861   0.178  -1.162  1.00  0.00     0.275 C 
ENDROOT
BRANCH   1   2
ATOM      2  O   UNL     1       2.497  -0.273  -0.928  1.00  0.00    -0.458 OA
BRANCH   2   3
ATOM      3  C   UNL     1       1.980  -1.338  -0.258  1.00  0.00     0.338 C 
ATOM      4  O   UNL     1       0.845  -1.730  -0.519  1.00  0.00    -0.246 OA
BRANCH   3   5
ATOM      5  C   UNL     1       2.641  -1.937   0.941  1.00  0.00     0.060 A 
ATOM      6  C   UNL     1       3.931  -2.445   0.945  1.00  0.00     0.016 A 
ATOM      7  C   UNL     1       1.902  -2.040   2.140  1.00  0.00     0.016 A 
ATOM      8  C   UNL     1       4.520  -2.841   2.169  1.00  0.00     0.010 A 
ATOM      9  C   UNL     1       2.504  -2.422   3.371  1.00  0.00     0.010 A 
ATOM     10  C   UNL     1       3.866  -2.731   3.432  1.00  0.00    -0.014 A 
BRANCH  10  11
ATOM     11  C   UNL     1       4.670  -2.925   4.732  1.00  0.00     0.031 A 
ATOM     12  C   UNL     1       5.463  -4.181   4.872  1.00  0.00     0.074 A 
ATOM     13  C   UNL     1       4.952  -1.982   5.677  1.00  0.00     0.049 A 
ATOM     14  N   UNL     1       6.488  -4.420   5.648  1.00  0.00    -0.248 NA
ATOM     15  C   UNL     1       5.096  -5.277   3.971  1.00  0.00     0.031 C 
ATOM     16  C   UNL     1       4.406  -0.650   5.698  1.00  0.00     0.029 A 
ATOM     17  N   UNL     1       5.843  -1.936   6.748  1.00  0.00    -0.354 N 
ATOM     18  C   UNL     1       6.940  -5.666   5.277  1.00  0.00     0.074 A 
ATOM     19  C   UNL     1       6.086  -6.125   4.197  1.00  0.00     0.031 C 
ATOM     20  C   UNL     1       5.061   0.137   6.561  1.00  0.00     0.029 A 
ATOM     21  C   UNL     1       5.971  -0.683   7.338  1.00  0.00     0.049 A 
ATOM     22  H   UNL     1       6.341  -2.725   7.061  1.00  0.00     0.167 HD
ATOM     23  C   UNL     1       7.948  -6.391   5.807  1.00  0.00     0.037 A 
ATOM     24  C   UNL     1       6.678  -0.206   8.392  1.00  0.00     0.037 A 
ATOM     25  C   UNL     1       8.690  -6.069   6.994  1.00  0.00     0.049 A 
ATOM     26  C   UNL     1       7.583  -1.137   9.143  1.00  0.00     0.074 A 
ATOM     27  C   UNL     1       9.590  -6.875   7.669  1.00  0.00     0.029 A 
ATOM     28  N   UNL     1       8.583  -4.896   7.723  1.00  0.00    -0.354 N 
ATOM     29  N   UNL     1       7.974  -2.334   8.792  1.00  0.00    -0.248 NA
ATOM     30  C   UNL     1       8.129  -0.681  10.433  1.00  0.00     0.031 C 
ATOM     31  C   UNL     1       9.950  -6.235   8.857  1.00  0.00     0.029 A 
ATOM     32  C   UNL     1       9.347  -4.990   8.880  1.00  0.00     0.049 A 
ATOM     33  H   UNL     1       8.046  -4.113   7.461  1.00  0.00     0.167 HD
ATOM     34  C   UNL     1       8.818  -2.768   9.801  1.00  0.00     0.074 A 
ATOM     35  C   UNL     1       8.905  -1.703  10.775  1.00  0.00     0.031 C 
ATOM     36  C   UNL     1       9.452  -3.960   9.884  1.00  0.00     0.037 A 
BRANCH  23  37
ATOM     37  C   UNL     1       8.167  -7.715   5.160  1.00  0.00     0.064 A 
ATOM     38  C   UNL     1       7.629  -8.866   5.750  1.00  0.00     0.173 A 
ATOM     39  C   UNL     1       8.809  -7.827   3.920  1.00  0.00     0.173 A 
ATOM     40  F   UNL     1       6.976  -8.783   6.919  1.00  0.00    -0.203 F 
ATOM     41  C   UNL     1       7.726 -10.095   5.116  1.00  0.00     0.198 A 
ATOM     42  C   UNL     1       8.883  -9.057   3.278  1.00  0.00     0.198 A 
ATOM     43  F   UNL     1       9.283  -6.735   3.301  1.00  0.00    -0.203 F 
ATOM     44  F   UNL     1       7.192 -11.182   5.688  1.00  0.00    -0.200 F 
ATOM     45  C   UNL     1       8.344 -10.188   3.877  1.00  0.00     0.200 A 
ATOM     46  F   UNL     1       9.434  -9.142   2.059  1.00  0.00    -0.200 F 
ATOM     47  F   UNL     1       8.395 -11.369   3.245  1.00  0.00    -0.200 F 
ENDBRANCH  23  37
BRANCH  24  48
ATOM     48  C   UNL     1       6.520   1.211   8.868  1.00  0.00     0.064 A 
ATOM     49  C   UNL     1       5.284   1.690   9.336  1.00  0.00     0.173 A 
ATOM     50  C   UNL     1       7.606   2.102   8.921  1.00  0.00     0.173 A 
ATOM     51  F   UNL     1       4.212   0.885   9.348  1.00  0.00    -0.203 F 
ATOM     52  C   UNL     1       5.130   3.001   9.790  1.00  0.00     0.198 A 
ATOM     53  C   UNL     1       7.458   3.404   9.411  1.00  0.00     0.198 A 
ATOM     54  F   UNL     1       8.826   1.695   8.543  1.00  0.00    -0.203 F 
ATOM     55  F   UNL     1       3.925   3.431  10.190  1.00  0.00    -0.200 F 
ATOM     56  C   UNL     1       6.218   3.856   9.834  1.00  0.00     0.200 A 
ATOM     57  F   UNL     1       8.523   4.214   9.493  1.00  0.00    -0.200 F 
ATOM     58  F   UNL     1       6.074   5.106  10.294  1.00  0.00    -0.200 F 
ENDBRANCH  24  48
BRANCH  36  59
ATOM     59  C   UNL     1      10.318  -4.226  11.080  1.00  0.00     0.064 A 
ATOM     60  C   UNL     1      11.705  -4.379  10.929  1.00  0.00     0.173 A 
ATOM     61  C   UNL     1       9.770  -4.442  12.352  1.00  0.00     0.173 A 
ATOM     62  F   UNL     1      12.281  -4.181   9.733  1.00  0.00    -0.203 F 
ATOM     63  C   UNL     1      12.504  -4.776  11.998  1.00  0.00     0.198 A 
ATOM     64  C   UNL     1      10.577  -4.810  13.427  1.00  0.00     0.198 A 
ATOM     65  F   UNL     1       8.452  -4.291  12.556  1.00  0.00    -0.203 F 
ATOM     66  F   UNL     1      13.818  -4.968  11.814  1.00  0.00    -0.200 F 
ATOM     67  C   UNL     1      11.939  -4.993  13.245  1.00  0.00     0.200 A 
ATOM     68  F   UNL     1      10.033  -4.997  14.638  1.00  0.00    -0.200 F 
ATOM     69  F   UNL     1      12.708  -5.382  14.271  1.00  0.00    -0.200 F 
ENDBRANCH  36  59
ENDBRANCH  10  11
ENDBRANCH   3   5
ENDBRANCH   2   3
ENDBRANCH   1   2
BRANCH   1  70
ATOM     70  C   UNL     1       4.027   1.695  -0.925  1.00  0.00     0.274 C 
BRANCH  70  71
ATOM     71  O   UNL     1       4.063   1.990   0.474  1.00  0.00    -0.462 OA
BRANCH  71  72
ATOM     72  C   UNL     1       2.871   2.099   1.117  1.00  0.00     0.313 C 
ATOM     73  O   UNL     1       1.804   2.387   0.577  1.00  0.00    -0.252 OA
BRANCH  72  74
ATOM     74  C   UNL     1       2.996   1.590   2.536  1.00  0.00     0.135 C 
BRANCH  74  75
ATOM     75  C   UNL     1       4.194   0.592   2.613  1.00  0.00     0.058 C 
BRANCH  75  76
ATOM     76  C   UNL     1       5.667   0.830   2.854  1.00  0.00    -0.011 A 
ATOM     77  C   UNL     1       6.500  -0.305   2.981  1.00  0.00     0.010 A 
ATOM     78  C   UNL     1       6.306   2.057   2.844  1.00  0.00     0.129 A 
ATOM     79  C   UNL     1       7.886  -0.241   3.039  1.00  0.00     0.040 A 
ATOM     80  C   UNL     1       7.699   2.149   2.911  1.00  0.00     0.078 A 
ATOM     81  F   UNL     1       5.599   3.183   2.736  1.00  0.00    -0.207 F 
ATOM     82  C   UNL     1       8.477   1.000   2.988  1.00  0.00     0.126 A 
ATOM     83  F   UNL     1       9.812   1.088   3.004  1.00  0.00    -0.207 F 
ENDBRANCH  75  76
ENDBRANCH  74  75
BRANCH  74  84
ATOM     84  C   UNL     1       2.764   2.495   3.737  1.00  0.00    -0.015 A 
ATOM     85  C   UNL     1       2.389   1.880   4.955  1.00  0.00     0.006 A 
ATOM     86  C   UNL     1       2.926   3.882   3.772  1.00  0.00     0.045 A 
ATOM     87  C   UNL     1       2.443   2.547   6.181  1.00  0.00     0.000 A 
ATOM     88  C   UNL     1       2.934   4.567   4.999  1.00  0.00     0.021 A 
ATOM     89  Cl  UNL     1       3.072   4.855   2.357  1.00  0.00    -0.084 Cl
ATOM     90  C   UNL     1       2.761   3.893   6.206  1.00  0.00     0.002 A 
ENDBRANCH  74  84
ENDBRANCH  72  74
ENDBRANCH  71  72
ENDBRANCH  70  71
ENDBRANCH   1  70
TORSDOF 14
