REMARK SMILES O=C(OCCOC(=O)[C@H]1CCCCN1C(=O)CSCc1ccccc1)c1ccc(-c2c3nc(c(-c4c(F)c(F)c(F)c(F)c4F)c4ccc([nH]4)c(-c4c(F)c(F)c(F)c(F)c4F)c4nc(c(-c5c(F)c(F)c(F)c(F)c5F)c5ccc2[nH]5)C=C4)C=C3)cc1
REMARK SMILES IDX 6 1 5 2 4 3 3 4 2 5 1 6 26 7 27 8 88 9 28 10 87 11 29 12
REMARK SMILES IDX 30 13 31 14 81 15 32 16 86 17 80 18 82 19 33 20 85 21 79 22
REMARK SMILES IDX 78 23 34 25 66 26 46 27 65 28 47 29 50 30 64 31 83 32 48 33
REMARK SMILES IDX 49 34 63 36 84 37 51 38 35 39 36 40 44 41 37 42 38 43 42 44
REMARK SMILES IDX 45 45 39 46 40 47 43 48 41 49 67 50 68 51 76 52 69 53 70 54
REMARK SMILES IDX 74 55 77 56 71 57 72 58 75 59 73 60 52 61 53 62 61 63 54 64
REMARK SMILES IDX 55 65 59 66 62 67 56 68 57 69 60 70 58 71 7 72 8 73 9 74
REMARK SMILES IDX 10 75 14 76 11 77 13 78 12 79 15 80 16 81 17 82 18 83 19 84
REMARK SMILES IDX 20 85 21 86 25 87 22 88 24 89 23 90
REMARK H PARENT 82 24 50 35
REMARK Flexibility Score: inf
ROOT
ATOM      1  O   UNL     1      -0.139   0.339   3.539  1.00  0.00    -0.461 OA
ENDROOT
BRANCH   1   2
ATOM      2  C   UNL     1      -1.553   0.538   3.458  1.00  0.00     0.274 C 
BRANCH   2   3
ATOM      3  C   UNL     1      -1.914   1.433   2.275  1.00  0.00     0.275 C 
BRANCH   3   4
ATOM      4  O   UNL     1      -1.177   1.132   1.073  1.00  0.00    -0.458 OA
BRANCH   4   5
ATOM      5  C   UNL     1       0.015   1.578   0.611  1.00  0.00     0.338 C 
ATOM      6  O   UNL     1       0.336   1.281  -0.540  1.00  0.00    -0.246 OA
BRANCH   5   7
ATOM      7  C   UNL     1       1.034   2.321   1.427  1.00  0.00     0.060 A 
ATOM      8  C   UNL     1       0.773   3.136   2.529  1.00  0.00     0.016 A 
ATOM      9  C   UNL     1       2.381   2.192   1.020  1.00  0.00     0.016 A 
ATOM     10  C   UNL     1       1.816   3.753   3.236  1.00  0.00     0.010 A 
ATOM     11  C   UNL     1       3.429   2.815   1.716  1.00  0.00     0.010 A 
ATOM     12  C   UNL     1       3.150   3.599   2.838  1.00  0.00    -0.014 A 
BRANCH  12  13
ATOM     13  C   UNL     1       4.194   4.391   3.536  1.00  0.00     0.031 A 
ATOM     14  C   UNL     1       4.482   5.764   3.030  1.00  0.00     0.074 A 
ATOM     15  C   UNL     1       4.793   3.942   4.655  1.00  0.00     0.049 A 
ATOM     16  N   UNL     1       5.216   6.699   3.568  1.00  0.00    -0.248 NA
ATOM     17  C   UNL     1       3.850   6.137   1.756  1.00  0.00     0.031 C 
ATOM     18  C   UNL     1       4.596   2.617   5.204  1.00  0.00     0.029 A 
ATOM     19  N   UNL     1       5.663   4.523   5.542  1.00  0.00    -0.354 N 
ATOM     20  C   UNL     1       5.105   7.785   2.718  1.00  0.00     0.074 A 
ATOM     21  C   UNL     1       4.277   7.380   1.603  1.00  0.00     0.031 C 
ATOM     22  C   UNL     1       5.285   2.469   6.342  1.00  0.00     0.029 A 
ATOM     23  C   UNL     1       6.006   3.704   6.598  1.00  0.00     0.049 A 
ATOM     24  H   UNL     1       6.011   5.438   5.435  1.00  0.00     0.167 HD
ATOM     25  C   UNL     1       5.641   9.016   2.872  1.00  0.00     0.037 A 
ATOM     26  C   UNL     1       6.814   3.924   7.652  1.00  0.00     0.037 A 
ATOM     27  C   UNL     1       6.527   9.369   3.948  1.00  0.00     0.049 A 
ATOM     28  C   UNL     1       7.454   5.278   7.756  1.00  0.00     0.074 A 
ATOM     29  C   UNL     1       7.194  10.559   4.167  1.00  0.00     0.029 A 
ATOM     30  N   UNL     1       6.888   8.509   4.981  1.00  0.00    -0.354 N 
ATOM     31  N   UNL     1       7.317   6.313   6.962  1.00  0.00    -0.248 NA
ATOM     32  C   UNL     1       8.358   5.502   8.889  1.00  0.00     0.031 C 
ATOM     33  C   UNL     1       7.991  10.406   5.308  1.00  0.00     0.029 A 
ATOM     34  C   UNL     1       7.778   9.141   5.834  1.00  0.00     0.049 A 
ATOM     35  H   UNL     1       6.560   7.588   5.089  1.00  0.00     0.167 HD
ATOM     36  C   UNL     1       8.109   7.314   7.499  1.00  0.00     0.074 A 
ATOM     37  C   UNL     1       8.694   6.771   8.710  1.00  0.00     0.031 C 
ATOM     38  C   UNL     1       8.343   8.564   7.029  1.00  0.00     0.037 A 
BRANCH  25  39
ATOM     39  C   UNL     1       5.297  10.027   1.822  1.00  0.00     0.064 A 
ATOM     40  C   UNL     1       3.999  10.553   1.717  1.00  0.00     0.173 A 
ATOM     41  C   UNL     1       6.250  10.432   0.878  1.00  0.00     0.173 A 
ATOM     42  F   UNL     1       3.043  10.171   2.578  1.00  0.00    -0.203 F 
ATOM     43  C   UNL     1       3.660  11.422   0.684  1.00  0.00     0.198 A 
ATOM     44  C   UNL     1       5.914  11.322  -0.138  1.00  0.00     0.198 A 
ATOM     45  F   UNL     1       7.499   9.947   0.927  1.00  0.00    -0.203 F 
ATOM     46  F   UNL     1       2.399  11.859   0.564  1.00  0.00    -0.200 F 
ATOM     47  C   UNL     1       4.619  11.808  -0.241  1.00  0.00     0.200 A 
ATOM     48  F   UNL     1       6.840  11.695  -1.032  1.00  0.00    -0.200 F 
ATOM     49  F   UNL     1       4.289  12.635  -1.242  1.00  0.00    -0.200 F 
ENDBRANCH  25  39
BRANCH  26  50
ATOM     50  C   UNL     1       7.076   2.855   8.660  1.00  0.00     0.064 A 
ATOM     51  C   UNL     1       6.702   3.002  10.004  1.00  0.00     0.173 A 
ATOM     52  C   UNL     1       7.739   1.669   8.305  1.00  0.00     0.173 A 
ATOM     53  F   UNL     1       6.077   4.119  10.408  1.00  0.00    -0.203 F 
ATOM     54  C   UNL     1       7.008   2.026  10.954  1.00  0.00     0.198 A 
ATOM     55  C   UNL     1       8.012   0.677   9.247  1.00  0.00     0.198 A 
ATOM     56  F   UNL     1       8.117   1.465   7.035  1.00  0.00    -0.203 F 
ATOM     57  F   UNL     1       6.691   2.223  12.241  1.00  0.00    -0.200 F 
ATOM     58  C   UNL     1       7.659   0.862  10.574  1.00  0.00     0.200 A 
ATOM     59  F   UNL     1       8.623  -0.453   8.868  1.00  0.00    -0.200 F 
ATOM     60  F   UNL     1       7.953  -0.074  11.486  1.00  0.00    -0.200 F 
ENDBRANCH  26  50
BRANCH  38  61
ATOM     61  C   UNL     1       9.251   9.424   7.854  1.00  0.00     0.064 A 
ATOM     62  C   UNL     1      10.629   9.176   7.933  1.00  0.00     0.173 A 
ATOM     63  C   UNL     1       8.733  10.518   8.562  1.00  0.00     0.173 A 
ATOM     64  F   UNL     1      11.165   8.127   7.290  1.00  0.00    -0.203 F 
ATOM     65  C   UNL     1      11.452   9.976   8.720  1.00  0.00     0.198 A 
ATOM     66  C   UNL     1       9.564  11.336   9.319  1.00  0.00     0.198 A 
ATOM     67  F   UNL     1       7.421  10.795   8.514  1.00  0.00    -0.203 F 
ATOM     68  F   UNL     1      12.755   9.685   8.832  1.00  0.00    -0.200 F 
ATOM     69  C   UNL     1      10.920  11.058   9.405  1.00  0.00     0.200 A 
ATOM     70  F   UNL     1       9.052  12.389   9.970  1.00  0.00    -0.200 F 
ATOM     71  F   UNL     1      11.715  11.829  10.160  1.00  0.00    -0.200 F 
ENDBRANCH  38  61
ENDBRANCH  12  13
ENDBRANCH   5   7
ENDBRANCH   4   5
ENDBRANCH   3   4
ENDBRANCH   2   3
ENDBRANCH   1   2
BRANCH   1  72
ATOM     72  C   UNL     1       0.342  -0.880   3.154  1.00  0.00     0.328 C 
ATOM     73  O   UNL     1      -0.359  -1.840   2.844  1.00  0.00    -0.250 OA
BRANCH  72  74
ATOM     74  C   UNL     1       1.879  -0.848   3.063  1.00  0.00     0.195 C 
ATOM     75  C   UNL     1       2.499   0.122   4.064  1.00  0.00     0.037 C 
ATOM     76  N   UNL     1       2.573  -2.127   3.279  1.00  0.00    -0.328 N 
ATOM     77  C   UNL     1       2.353  -0.355   5.511  1.00  0.00     0.005 C 
ATOM     78  C   UNL     1       2.357  -2.714   4.604  1.00  0.00     0.120 C 
ATOM     79  C   UNL     1       2.911  -1.766   5.677  1.00  0.00     0.022 C 
BRANCH  76  80
ATOM     80  C   UNL     1       3.680  -2.390   2.472  1.00  0.00     0.233 C 
ATOM     81  O   UNL     1       4.045  -1.597   1.598  1.00  0.00    -0.274 OA
BRANCH  80  82
ATOM     82  C   UNL     1       4.449  -3.683   2.677  1.00  0.00     0.170 C 
BRANCH  82  83
ATOM     83  S   UNL     1       5.632  -3.580   4.064  1.00  0.00    -0.147 SA
BRANCH  83  84
ATOM     84  C   UNL     1       6.849  -2.407   3.388  1.00  0.00     0.105 C 
BRANCH  84  85
ATOM     85  C   UNL     1       7.715  -2.902   2.252  1.00  0.00    -0.038 A 
ATOM     86  C   UNL     1       7.904  -4.259   1.949  1.00  0.00     0.004 A 
ATOM     87  C   UNL     1       8.427  -1.952   1.499  1.00  0.00     0.004 A 
ATOM     88  C   UNL     1       8.724  -4.651   0.890  1.00  0.00     0.000 A 
ATOM     89  C   UNL     1       9.263  -2.346   0.451  1.00  0.00     0.000 A 
ATOM     90  C   UNL     1       9.402  -3.695   0.140  1.00  0.00     0.000 A 
ENDBRANCH  84  85
ENDBRANCH  83  84
ENDBRANCH  82  83
ENDBRANCH  80  82
ENDBRANCH  76  80
ENDBRANCH  72  74
ENDBRANCH   1  72
TORSDOF 16
