REMARK SMILES CN(C)c1ccc(C(=O)N[C@@H](CO)C(=O)OCCOC(=O)c2ccc(-c3c4nc(c(-c5c(F)c(F)c(F)c(F)c5F)c5ccc([nH]5)c(-c5c(F)c(F)c(F)c(F)c5F)c5nc(c(-c6c(F)c(F)c(F)c(F)c6F)c6ccc3[nH]6)C=C5)C=C4)cc2)cn1
REMARK SMILES IDX 17 1 16 2 14 3 15 4 11 5 10 6 8 7 9 8 7 10 4 11 5 12 86 13
REMARK SMILES IDX 6 14 85 15 2 16 1 17 3 18 12 19 13 20 18 22 19 23 20 24
REMARK SMILES IDX 21 25 22 26 23 27 84 28 24 29 83 30 25 31 26 32 27 33 77 34
REMARK SMILES IDX 28 35 82 36 76 37 78 38 29 39 81 40 75 41 74 42 30 44 62 45
REMARK SMILES IDX 42 46 61 47 43 48 46 49 60 50 79 51 44 52 45 53 59 55 80 56
REMARK SMILES IDX 47 57 31 58 32 59 40 60 33 61 34 62 38 63 41 64 35 65 36 66
REMARK SMILES IDX 39 67 37 68 63 69 64 70 72 71 65 72 66 73 70 74 73 75 67 76
REMARK SMILES IDX 68 77 71 78 69 79 48 80 49 81 57 82 50 83 51 84 55 85 58 86
REMARK SMILES IDX 52 87 53 88 56 89 54 90
REMARK H PARENT 10 9 13 21 78 43 46 54
REMARK Flexibility Score: inf
ROOT
ATOM      1  C   UNL     1       5.559  -0.740  -8.023  1.00  0.00     0.274 C 
ENDROOT
BRANCH   1   2
ATOM      2  O   UNL     1       4.894  -1.786  -7.285  1.00  0.00    -0.460 OA
BRANCH   2   3
ATOM      3  C   UNL     1       5.420  -2.088  -6.068  1.00  0.00     0.331 C 
ATOM      4  O   UNL     1       6.431  -1.580  -5.592  1.00  0.00    -0.250 OA
BRANCH   3   5
ATOM      5  C   UNL     1       4.616  -3.159  -5.320  1.00  0.00     0.218 C 
BRANCH   5   6
ATOM      6  N   UNL     1       3.304  -3.481  -5.895  1.00  0.00    -0.337 N 
ATOM      7  C   UNL     1       2.058  -3.659  -5.349  1.00  0.00     0.253 C 
ATOM      8  O   UNL     1       1.141  -3.968  -6.109  1.00  0.00    -0.269 OA
ATOM      9  H   UNL     1       3.322  -3.593  -6.873  1.00  0.00     0.164 HD
BRANCH   7  10
ATOM     10  C   UNL     1       1.744  -3.447  -3.914  1.00  0.00     0.058 A 
ATOM     11  C   UNL     1       0.877  -2.886  -1.320  1.00  0.00     0.127 A 
ATOM     12  C   UNL     1       2.175  -3.344  -1.543  1.00  0.00     0.048 A 
ATOM     13  N   UNL     1       0.015  -2.740  -2.345  1.00  0.00    -0.239 NA
ATOM     14  C   UNL     1       2.601  -3.656  -2.840  1.00  0.00     0.019 A 
ATOM     15  C   UNL     1       0.458  -3.018  -3.601  1.00  0.00     0.127 A 
BRANCH  11  16
ATOM     16  N   UNL     1       0.480  -2.568  -0.019  1.00  0.00    -0.363 N 
ATOM     17  C   UNL     1       0.952  -1.264   0.428  1.00  0.00     0.144 C 
ATOM     18  C   UNL     1      -0.916  -2.860   0.281  1.00  0.00     0.144 C 
ENDBRANCH  11  16
ENDBRANCH   7  10
ENDBRANCH   5   6
BRANCH   5  19
ATOM     19  C   UNL     1       5.474  -4.426  -5.230  1.00  0.00     0.193 C 
BRANCH  19  20
ATOM     20  O   UNL     1       5.556  -5.086  -6.494  1.00  0.00    -0.394 OA
ATOM     21  H   UNL     1       4.668  -5.346  -6.782  1.00  0.00     0.210 HD
ENDBRANCH  19  20
ENDBRANCH   5  19
ENDBRANCH   3   5
ENDBRANCH   2   3
ENDBRANCH   1   2
BRANCH   1  22
ATOM     22  C   UNL     1       4.646   0.477  -8.187  1.00  0.00     0.275 C 
BRANCH  22  23
ATOM     23  O   UNL     1       4.268   1.032  -6.912  1.00  0.00    -0.458 OA
BRANCH  23  24
ATOM     24  C   UNL     1       3.095   0.567  -6.426  1.00  0.00     0.338 C 
ATOM     25  O   UNL     1       2.344  -0.244  -6.947  1.00  0.00    -0.246 OA
BRANCH  24  26
ATOM     26  C   UNL     1       2.872   1.068  -5.066  1.00  0.00     0.060 A 
ATOM     27  C   UNL     1       2.997   0.156  -4.021  1.00  0.00     0.016 A 
ATOM     28  C   UNL     1       2.394   2.358  -4.826  1.00  0.00     0.016 A 
ATOM     29  C   UNL     1       2.601   0.509  -2.737  1.00  0.00     0.010 A 
ATOM     30  C   UNL     1       2.015   2.721  -3.525  1.00  0.00     0.010 A 
ATOM     31  C   UNL     1       2.087   1.788  -2.476  1.00  0.00    -0.014 A 
BRANCH  31  32
ATOM     32  C   UNL     1       1.542   2.068  -1.120  1.00  0.00     0.031 A 
ATOM     33  C   UNL     1       0.053   2.137  -0.906  1.00  0.00     0.074 A 
ATOM     34  C   UNL     1       2.365   2.079  -0.053  1.00  0.00     0.049 A 
ATOM     35  N   UNL     1      -0.615   2.291   0.212  1.00  0.00    -0.248 NA
ATOM     36  C   UNL     1      -0.796   1.978  -2.096  1.00  0.00     0.031 C 
ATOM     37  C   UNL     1       3.817   1.919  -0.109  1.00  0.00     0.029 A 
ATOM     38  N   UNL     1       2.090   2.169   1.291  1.00  0.00    -0.354 N 
ATOM     39  C   UNL     1      -1.957   2.267  -0.143  1.00  0.00     0.074 A 
ATOM     40  C   UNL     1      -2.012   2.090  -1.579  1.00  0.00     0.031 C 
ATOM     41  C   UNL     1       4.299   1.860   1.143  1.00  0.00     0.029 A 
ATOM     42  C   UNL     1       3.200   2.037   2.089  1.00  0.00     0.049 A 
ATOM     43  H   UNL     1       1.184   2.315   1.647  1.00  0.00     0.167 HD
ATOM     44  C   UNL     1      -3.048   2.372   0.653  1.00  0.00     0.037 A 
ATOM     45  C   UNL     1       3.323   2.061   3.431  1.00  0.00     0.037 A 
ATOM     46  C   UNL     1      -3.012   2.513   2.084  1.00  0.00     0.049 A 
ATOM     47  C   UNL     1       2.101   2.268   4.284  1.00  0.00     0.074 A 
ATOM     48  C   UNL     1      -4.070   2.668   2.964  1.00  0.00     0.029 A 
ATOM     49  N   UNL     1      -1.856   2.501   2.849  1.00  0.00    -0.354 N 
ATOM     50  N   UNL     1       0.841   2.319   3.927  1.00  0.00    -0.248 NA
ATOM     51  C   UNL     1       2.324   2.440   5.727  1.00  0.00     0.031 C 
ATOM     52  C   UNL     1      -3.552   2.779   4.259  1.00  0.00     0.029 A 
ATOM     53  C   UNL     1      -2.174   2.659   4.189  1.00  0.00     0.049 A 
ATOM     54  H   UNL     1      -0.945   2.396   2.493  1.00  0.00     0.167 HD
ATOM     55  C   UNL     1       0.123   2.526   5.098  1.00  0.00     0.074 A 
ATOM     56  C   UNL     1       1.084   2.556   6.181  1.00  0.00     0.031 C 
ATOM     57  C   UNL     1      -1.212   2.691   5.258  1.00  0.00     0.037 A 
BRANCH  44  58
ATOM     58  C   UNL     1      -4.389   2.375  -0.014  1.00  0.00     0.064 A 
ATOM     59  C   UNL     1      -4.986   1.193  -0.474  1.00  0.00     0.173 A 
ATOM     60  C   UNL     1      -5.104   3.575  -0.153  1.00  0.00     0.173 A 
ATOM     61  F   UNL     1      -4.336   0.025  -0.370  1.00  0.00    -0.203 F 
ATOM     62  C   UNL     1      -6.247   1.215  -1.064  1.00  0.00     0.198 A 
ATOM     63  C   UNL     1      -6.372   3.589  -0.724  1.00  0.00     0.198 A 
ATOM     64  F   UNL     1      -4.575   4.729   0.279  1.00  0.00    -0.203 F 
ATOM     65  F   UNL     1      -6.791   0.079  -1.524  1.00  0.00    -0.200 F 
ATOM     66  C   UNL     1      -6.941   2.411  -1.183  1.00  0.00     0.200 A 
ATOM     67  F   UNL     1      -7.046   4.744  -0.829  1.00  0.00    -0.200 F 
ATOM     68  F   UNL     1      -8.159   2.428  -1.744  1.00  0.00    -0.200 F 
ENDBRANCH  44  58
BRANCH  45  69
ATOM     69  C   UNL     1       4.659   1.898   4.062  1.00  0.00     0.064 A 
ATOM     70  C   UNL     1       4.956   0.769   4.837  1.00  0.00     0.173 A 
ATOM     71  C   UNL     1       5.654   2.876   3.924  1.00  0.00     0.173 A 
ATOM     72  F   UNL     1       4.026  -0.179   5.023  1.00  0.00    -0.203 F 
ATOM     73  C   UNL     1       6.196   0.629   5.458  1.00  0.00     0.198 A 
ATOM     74  C   UNL     1       6.903   2.722   4.521  1.00  0.00     0.198 A 
ATOM     75  F   UNL     1       5.416   3.980   3.200  1.00  0.00    -0.203 F 
ATOM     76  F   UNL     1       6.440  -0.440   6.229  1.00  0.00    -0.200 F 
ATOM     77  C   UNL     1       7.171   1.602   5.293  1.00  0.00     0.200 A 
ATOM     78  F   UNL     1       7.845   3.659   4.350  1.00  0.00    -0.200 F 
ATOM     79  F   UNL     1       8.364   1.465   5.886  1.00  0.00    -0.200 F 
ENDBRANCH  45  69
BRANCH  57  80
ATOM     80  C   UNL     1      -1.715   2.919   6.653  1.00  0.00     0.064 A 
ATOM     81  C   UNL     1      -1.517   4.145   7.306  1.00  0.00     0.173 A 
ATOM     82  C   UNL     1      -2.429   1.920   7.331  1.00  0.00     0.173 A 
ATOM     83  F   UNL     1      -0.827   5.125   6.705  1.00  0.00    -0.203 F 
ATOM     84  C   UNL     1      -1.997   4.354   8.597  1.00  0.00     0.198 A 
ATOM     85  C   UNL     1      -2.928   2.141   8.612  1.00  0.00     0.198 A 
ATOM     86  F   UNL     1      -2.649   0.732   6.747  1.00  0.00    -0.203 F 
ATOM     87  F   UNL     1      -1.759   5.517   9.217  1.00  0.00    -0.200 F 
ATOM     88  C   UNL     1      -2.706   3.354   9.246  1.00  0.00     0.200 A 
ATOM     89  F   UNL     1      -3.621   1.178   9.235  1.00  0.00    -0.200 F 
ATOM     90  F   UNL     1      -3.169   3.558  10.487  1.00  0.00    -0.200 F 
ENDBRANCH  57  80
ENDBRANCH  31  32
ENDBRANCH  24  26
ENDBRANCH  23  24
ENDBRANCH  22  23
ENDBRANCH   1  22
TORSDOF 16
