REMARK SMILES CCCCCCOC(=O)Nc1cccc(-c2ccc([C@@H](C)C(=O)OCCOC(=O)c3ccc(-c4c5nc(c(-c6c(F)c(F)c(F)c(F)c6F)c6ccc([nH]6)c(-c6c(F)c(F)c(F)c(F)c6F)c6nc(c(-c7c(F)c(F)c(F)c(F)c7F)c7ccc4[nH]7)C=C6)C=C5)cc3)cc2F)c1
REMARK SMILES IDX 20 1 21 2 19 3 16 4 17 5 94 6 18 7 93 8 95 9 15 10 11 11
REMARK SMILES IDX 12 12 96 13 13 14 14 15 10 16 8 17 9 18 7 20 6 21 5 22 4 23
REMARK SMILES IDX 3 24 2 25 1 26 22 27 23 28 24 29 25 30 26 31 27 32 28 33
REMARK SMILES IDX 29 34 30 35 31 36 92 37 32 38 91 39 33 40 34 41 35 42 85 43
REMARK SMILES IDX 36 44 90 45 84 46 86 47 37 48 89 49 83 50 82 51 38 53 70 54
REMARK SMILES IDX 50 55 69 56 51 57 54 58 68 59 87 60 52 61 53 62 67 64 88 65
REMARK SMILES IDX 55 66 39 67 40 68 48 69 41 70 42 71 46 72 49 73 43 74 44 75
REMARK SMILES IDX 47 76 45 77 71 78 72 79 80 80 73 81 74 82 78 83 81 84 75 85
REMARK SMILES IDX 76 86 79 87 77 88 56 89 57 90 65 91 58 92 59 93 63 94 66 95
REMARK SMILES IDX 60 96 61 97 64 98 62 99
REMARK H PARENT 10 19 86 52 54 63
REMARK Flexibility Score: inf
ROOT
ATOM      1  C   UNL     1      -6.674   8.252   7.487  1.00  0.00     0.126 C 
ATOM      2  C   UNL     1      -7.290   9.632   7.709  1.00  0.00     0.025 C 
ENDROOT
BRANCH   1   3
ATOM      3  C   UNL     1      -5.532   8.280   6.484  1.00  0.00    -0.031 A 
ATOM      4  C   UNL     1      -3.349   8.375   4.660  1.00  0.00     0.018 A 
ATOM      5  C   UNL     1      -4.631   8.788   4.274  1.00  0.00     0.012 A 
ATOM      6  C   UNL     1      -3.190   7.895   5.967  1.00  0.00     0.131 A 
ATOM      7  C   UNL     1      -5.705   8.745   5.172  1.00  0.00     0.005 A 
ATOM      8  C   UNL     1      -4.254   7.851   6.867  1.00  0.00     0.044 A 
ATOM      9  F   UNL     1      -1.985   7.491   6.402  1.00  0.00    -0.206 F 
BRANCH   4  10
ATOM     10  C   UNL     1      -2.207   8.479   3.740  1.00  0.00    -0.013 A 
ATOM     11  C   UNL     1      -0.253   7.480   2.672  1.00  0.00     0.045 A 
ATOM     12  C   UNL     1       0.112   8.726   2.163  1.00  0.00     0.026 A 
ATOM     13  C   UNL     1      -1.410   7.362   3.450  1.00  0.00     0.035 A 
ATOM     14  C   UNL     1      -0.700   9.836   2.391  1.00  0.00     0.003 A 
ATOM     15  C   UNL     1      -1.848   9.713   3.176  1.00  0.00     0.009 A 
BRANCH  11  16
ATOM     16  N   UNL     1       0.620   6.401   2.477  1.00  0.00    -0.291 N 
ATOM     17  C   UNL     1       0.323   5.067   2.525  1.00  0.00     0.411 C 
ATOM     18  O   UNL     1       1.190   4.233   2.751  1.00  0.00    -0.224 OA
ATOM     19  H   UNL     1       1.558   6.630   2.283  1.00  0.00     0.173 HD
BRANCH  17  20
ATOM     20  O   UNL     1      -0.959   4.792   2.173  1.00  0.00    -0.449 OA
BRANCH  20  21
ATOM     21  C   UNL     1      -1.346   3.416   2.039  1.00  0.00     0.235 C 
BRANCH  21  22
ATOM     22  C   UNL     1      -1.065   2.871   0.634  1.00  0.00     0.042 C 
BRANCH  22  23
ATOM     23  C   UNL     1       0.404   2.562   0.320  1.00  0.00     0.003 C 
BRANCH  23  24
ATOM     24  C   UNL     1       1.062   1.524   1.238  1.00  0.00    -0.000 C 
BRANCH  24  25
ATOM     25  C   UNL     1       0.527   0.099   1.093  1.00  0.00    -0.003 C 
ATOM     26  C   UNL     1       0.898  -0.536  -0.237  1.00  0.00     0.004 C 
ENDBRANCH  24  25
ENDBRANCH  23  24
ENDBRANCH  22  23
ENDBRANCH  21  22
ENDBRANCH  20  21
ENDBRANCH  17  20
ENDBRANCH  11  16
ENDBRANCH   4  10
ENDBRANCH   1   3
BRANCH   1  27
ATOM     27  C   UNL     1      -7.767   7.221   7.230  1.00  0.00     0.313 C 
ATOM     28  O   UNL     1      -8.430   6.735   8.143  1.00  0.00    -0.252 OA
BRANCH  27  29
ATOM     29  O   UNL     1      -7.945   6.928   5.916  1.00  0.00    -0.462 OA
BRANCH  29  30
ATOM     30  C   UNL     1      -8.919   5.915   5.599  1.00  0.00     0.274 C 
BRANCH  30  31
ATOM     31  C   UNL     1      -8.251   4.566   5.325  1.00  0.00     0.275 C 
BRANCH  31  32
ATOM     32  O   UNL     1      -7.672   4.015   6.524  1.00  0.00    -0.458 OA
BRANCH  32  33
ATOM     33  C   UNL     1      -6.346   4.236   6.669  1.00  0.00     0.338 C 
ATOM     34  O   UNL     1      -5.595   4.794   5.888  1.00  0.00    -0.246 OA
BRANCH  33  35
ATOM     35  C   UNL     1      -5.913   3.813   8.008  1.00  0.00     0.060 A 
ATOM     36  C   UNL     1      -5.526   4.807   8.907  1.00  0.00     0.016 A 
ATOM     37  C   UNL     1      -5.772   2.466   8.341  1.00  0.00     0.016 A 
ATOM     38  C   UNL     1      -4.964   4.468  10.132  1.00  0.00     0.010 A 
ATOM     39  C   UNL     1      -5.226   2.123   9.584  1.00  0.00     0.010 A 
ATOM     40  C   UNL     1      -4.799   3.122  10.478  1.00  0.00    -0.014 A 
BRANCH  40  41
ATOM     41  C   UNL     1      -4.125   2.785  11.757  1.00  0.00     0.031 A 
ATOM     42  C   UNL     1      -2.732   2.221  11.746  1.00  0.00     0.074 A 
ATOM     43  C   UNL     1      -4.740   3.044  12.925  1.00  0.00     0.049 A 
ATOM     44  N   UNL     1      -1.984   1.840  12.752  1.00  0.00    -0.248 NA
ATOM     45  C   UNL     1      -2.094   2.066  10.430  1.00  0.00     0.031 C 
ATOM     46  C   UNL     1      -6.072   3.634  13.063  1.00  0.00     0.029 A 
ATOM     47  N   UNL     1      -4.323   2.855  14.219  1.00  0.00    -0.354 N 
ATOM     48  C   UNL     1      -0.798   1.384  12.190  1.00  0.00     0.074 A 
ATOM     49  C   UNL     1      -0.933   1.514  10.755  1.00  0.00     0.031 C 
ATOM     50  C   UNL     1      -6.357   3.773  14.367  1.00  0.00     0.029 A 
ATOM     51  C   UNL     1      -5.250   3.238  15.156  1.00  0.00     0.049 A 
ATOM     52  H   UNL     1      -3.443   2.481  14.452  1.00  0.00     0.167 HD
ATOM     53  C   UNL     1       0.305   0.910  12.818  1.00  0.00     0.037 A 
ATOM     54  C   UNL     1      -5.220   3.147  16.499  1.00  0.00     0.037 A 
ATOM     55  C   UNL     1       0.442   0.801  14.248  1.00  0.00     0.049 A 
ATOM     56  C   UNL     1      -4.003   2.564  17.166  1.00  0.00     0.074 A 
ATOM     57  C   UNL     1       1.522   0.339  14.980  1.00  0.00     0.029 A 
ATOM     58  N   UNL     1      -0.535   1.163  15.165  1.00  0.00    -0.354 N 
ATOM     59  N   UNL     1      -2.889   2.131  16.627  1.00  0.00    -0.248 NA
ATOM     60  C   UNL     1      -4.041   2.456  18.631  1.00  0.00     0.031 C 
ATOM     61  C   UNL     1       1.182   0.378  16.336  1.00  0.00     0.029 A 
ATOM     62  C   UNL     1      -0.090   0.915  16.454  1.00  0.00     0.049 A 
ATOM     63  H   UNL     1      -1.415   1.540  14.933  1.00  0.00     0.167 HD
ATOM     64  C   UNL     1      -2.086   1.724  17.684  1.00  0.00     0.074 A 
ATOM     65  C   UNL     1      -2.833   1.980  18.898  1.00  0.00     0.031 C 
ATOM     66  C   UNL     1      -0.844   1.182  17.652  1.00  0.00     0.037 A 
BRANCH  53  67
ATOM     67  C   UNL     1       1.446   0.445  11.960  1.00  0.00     0.064 A 
ATOM     68  C   UNL     1       2.257   1.347  11.255  1.00  0.00     0.173 A 
ATOM     69  C   UNL     1       1.758  -0.920  11.875  1.00  0.00     0.173 A 
ATOM     70  F   UNL     1       1.995   2.662  11.293  1.00  0.00    -0.203 F 
ATOM     71  C   UNL     1       3.322   0.897  10.478  1.00  0.00     0.198 A 
ATOM     72  C   UNL     1       2.841  -1.365  11.121  1.00  0.00     0.198 A 
ATOM     73  F   UNL     1       1.019  -1.825  12.535  1.00  0.00    -0.203 F 
ATOM     74  F   UNL     1       4.058   1.773   9.780  1.00  0.00    -0.200 F 
ATOM     75  C   UNL     1       3.618  -0.457  10.418  1.00  0.00     0.200 A 
ATOM     76  F   UNL     1       3.133  -2.672  11.076  1.00  0.00    -0.200 F 
ATOM     77  F   UNL     1       4.649  -0.887   9.678  1.00  0.00    -0.200 F 
ENDBRANCH  53  67
BRANCH  54  78
ATOM     78  C   UNL     1      -6.384   3.604  17.303  1.00  0.00     0.064 A 
ATOM     79  C   UNL     1      -6.286   4.714  18.153  1.00  0.00     0.173 A 
ATOM     80  C   UNL     1      -7.612   2.927  17.253  1.00  0.00     0.173 A 
ATOM     81  F   UNL     1      -5.126   5.378  18.256  1.00  0.00    -0.203 F 
ATOM     82  C   UNL     1      -7.365   5.118  18.936  1.00  0.00     0.198 A 
ATOM     83  C   UNL     1      -8.700   3.351  18.012  1.00  0.00     0.198 A 
ATOM     84  F   UNL     1      -7.758   1.857  16.458  1.00  0.00    -0.203 F 
ATOM     85  F   UNL     1      -7.229   6.151  19.779  1.00  0.00    -0.200 F 
ATOM     86  C   UNL     1      -8.573   4.440  18.860  1.00  0.00     0.200 A 
ATOM     87  F   UNL     1      -9.868   2.701  17.926  1.00  0.00    -0.200 F 
ATOM     88  F   UNL     1      -9.611   4.830  19.613  1.00  0.00    -0.200 F 
ENDBRANCH  54  78
BRANCH  66  89
ATOM     89  C   UNL     1      -0.202   0.866  18.973  1.00  0.00     0.064 A 
ATOM     90  C   UNL     1      -0.648  -0.195  19.774  1.00  0.00     0.173 A 
ATOM     91  C   UNL     1       0.886   1.624  19.432  1.00  0.00     0.173 A 
ATOM     92  F   UNL     1      -1.696  -0.939  19.388  1.00  0.00    -0.203 F 
ATOM     93  C   UNL     1      -0.050  -0.464  21.003  1.00  0.00     0.198 A 
ATOM     94  C   UNL     1       1.502   1.332  20.645  1.00  0.00     0.198 A 
ATOM     95  F   UNL     1       1.357   2.645  18.700  1.00  0.00    -0.203 F 
ATOM     96  F   UNL     1      -0.530  -1.447  21.778  1.00  0.00    -0.200 F 
ATOM     97  C   UNL     1       1.027   0.295  21.434  1.00  0.00     0.200 A 
ATOM     98  F   UNL     1       2.551   2.058  21.055  1.00  0.00    -0.200 F 
ATOM     99  F   UNL     1       1.602   0.033  22.616  1.00  0.00    -0.200 F 
ENDBRANCH  66  89
ENDBRANCH  40  41
ENDBRANCH  33  35
ENDBRANCH  32  33
ENDBRANCH  31  32
ENDBRANCH  30  31
ENDBRANCH  29  30
ENDBRANCH  27  29
ENDBRANCH   1  27
TORSDOF 20
