REMARK SMILES O=C(OCCOC(=O)c1ccc(-c2c3nc(c(-c4c(F)c(F)c(F)c(F)c4F)c4ccc([nH]4)c(-c4c(F)c(F)c(F)c(F)c4F)c4nc(c(-c5c(F)c(F)c(F)c(F)c5F)c5ccc2[nH]5)C=C4)C=C3)cc1)C1=Cc2cc(Cl)ccc2O[C@@H]1C(F)(F)F
REMARK SMILES IDX 5 1 4 2 3 3 2 4 1 5 72 6 73 7 82 8 74 9 81 10 75 11 80 12
REMARK SMILES IDX 76 13 79 14 77 15 78 16 83 17 84 18 85 19 86 20 6 21 7 22
REMARK SMILES IDX 8 23 9 24 10 25 71 26 11 27 70 28 12 29 13 30 14 31 64 32
REMARK SMILES IDX 15 33 69 34 63 35 65 36 16 37 68 38 62 39 61 40 17 42 49 43
REMARK SMILES IDX 29 44 48 45 30 46 33 47 47 48 66 49 31 50 32 51 46 53 67 54
REMARK SMILES IDX 34 55 18 56 19 57 27 58 20 59 21 60 25 61 28 62 22 63 23 64
REMARK SMILES IDX 26 65 24 66 50 67 51 68 59 69 52 70 53 71 57 72 60 73 54 74
REMARK SMILES IDX 55 75 58 76 56 77 35 78 36 79 44 80 37 81 38 82 42 83 45 84
REMARK SMILES IDX 39 85 40 86 43 87 41 88
REMARK H PARENT 65 41 33 52
REMARK Flexibility Score: inf
ROOT
ATOM      1  C   UNL     1       4.749   0.793  -0.156  1.00  0.00     0.275 C 
ENDROOT
BRANCH   1   2
ATOM      2  C   UNL     1       3.991  -0.813   1.069  1.00  0.00     0.275 C 
BRANCH   2   3
ATOM      3  O   UNL     1       3.230  -0.654   2.432  1.00  0.00    -0.459 OA
BRANCH   3   4
ATOM      4  C   UNL     1       3.463   0.515   3.039  1.00  0.00     0.338 C 
ATOM      5  O   UNL     1       2.952   1.018   4.007  1.00  0.00    -0.246 OA
BRANCH   4   6
ATOM      6  C   UNL     1       4.223   1.068   1.950  1.00  0.00     0.087 C 
ATOM      7  C   UNL     1       5.594   0.500   1.922  1.00  0.00     0.027 C 
ATOM      8  C   UNL     1       2.882   0.799   0.582  1.00  0.00     0.316 C 
ATOM      9  C   UNL     1       6.158  -0.662   0.649  1.00  0.00     0.019 A 
ATOM     10  O   UNL     1       3.457  -0.454  -0.755  1.00  0.00    -0.475 OA
ATOM     11  C   UNL     1       7.355  -1.299   0.825  1.00  0.00     0.032 A 
ATOM     12  C   UNL     1       5.111  -1.202  -0.632  1.00  0.00     0.128 A 
ATOM     13  C   UNL     1       7.599  -2.344  -0.082  1.00  0.00     0.041 A 
ATOM     14  C   UNL     1       5.439  -2.217  -1.483  1.00  0.00     0.048 A 
ATOM     15  Cl  UNL     1       9.076  -3.231   0.146  1.00  0.00    -0.084 Cl
ATOM     16  C   UNL     1       6.708  -2.772  -1.164  1.00  0.00     0.024 A 
BRANCH   8  17
ATOM     17  C   UNL     1       2.293   2.243   0.473  1.00  0.00     0.430 C 
ATOM     18  F   UNL     1       1.057   2.244  -0.046  1.00  0.00    -0.167 F 
ATOM     19  F   UNL     1       2.130   2.728   1.742  1.00  0.00    -0.167 F 
ATOM     20  F   UNL     1       3.063   3.177  -0.107  1.00  0.00    -0.167 F 
ENDBRANCH   8  17
ENDBRANCH   4   6
ENDBRANCH   3   4
ENDBRANCH   2   3
ENDBRANCH   1   2
BRANCH   1  21
ATOM     21  O   UNL     1       3.926   1.569  -1.429  1.00  0.00    -0.458 OA
BRANCH  21  22
ATOM     22  C   UNL     1       3.146   1.348  -2.531  1.00  0.00     0.338 C 
ATOM     23  O   UNL     1       2.806   0.308  -3.061  1.00  0.00    -0.246 OA
BRANCH  22  24
ATOM     24  C   UNL     1       2.478   2.662  -2.778  1.00  0.00     0.060 A 
ATOM     25  C   UNL     1       1.108   2.788  -2.496  1.00  0.00     0.016 A 
ATOM     26  C   UNL     1       3.272   3.804  -2.894  1.00  0.00     0.016 A 
ATOM     27  C   UNL     1       0.593   4.033  -2.095  1.00  0.00     0.010 A 
ATOM     28  C   UNL     1       2.749   5.044  -2.524  1.00  0.00     0.010 A 
ATOM     29  C   UNL     1       1.430   5.158  -2.050  1.00  0.00    -0.014 A 
BRANCH  29  30
ATOM     30  C   UNL     1       0.901   6.513  -1.742  1.00  0.00     0.031 A 
ATOM     31  C   UNL     1       0.380   7.290  -2.912  1.00  0.00     0.074 A 
ATOM     32  C   UNL     1       0.966   7.085  -0.522  1.00  0.00     0.049 A 
ATOM     33  N   UNL     1      -0.018   8.531  -2.986  1.00  0.00    -0.248 NA
ATOM     34  C   UNL     1       0.342   6.559  -4.190  1.00  0.00     0.031 C 
ATOM     35  C   UNL     1       1.454   6.451   0.702  1.00  0.00     0.029 A 
ATOM     36  N   UNL     1       0.634   8.361  -0.118  1.00  0.00    -0.354 N 
ATOM     37  C   UNL     1      -0.350   8.726  -4.318  1.00  0.00     0.074 A 
ATOM     38  C   UNL     1      -0.051   7.502  -5.025  1.00  0.00     0.031 C 
ATOM     39  C   UNL     1       1.405   7.343   1.712  1.00  0.00     0.029 A 
ATOM     40  C   UNL     1       0.901   8.621   1.208  1.00  0.00     0.049 A 
ATOM     41  H   UNL     1       0.242   9.029  -0.726  1.00  0.00     0.167 HD
ATOM     42  C   UNL     1      -0.878   9.822  -4.906  1.00  0.00     0.037 A 
ATOM     43  C   UNL     1       0.760   9.763   1.917  1.00  0.00     0.037 A 
ATOM     44  C   UNL     1      -1.142  11.051  -4.220  1.00  0.00     0.049 A 
ATOM     45  C   UNL     1       0.227  11.001   1.222  1.00  0.00     0.074 A 
ATOM     46  C   UNL     1      -1.665  12.225  -4.723  1.00  0.00     0.029 A 
ATOM     47  N   UNL     1      -0.884  11.263  -2.873  1.00  0.00    -0.354 N 
ATOM     48  N   UNL     1      -0.155  11.157  -0.024  1.00  0.00    -0.248 NA
ATOM     49  C   UNL     1       0.099  12.222   2.036  1.00  0.00     0.031 C 
ATOM     50  C   UNL     1      -1.687  13.166  -3.688  1.00  0.00     0.029 A 
ATOM     51  C   UNL     1      -1.228  12.558  -2.530  1.00  0.00     0.049 A 
ATOM     52  H   UNL     1      -0.512  10.593  -2.255  1.00  0.00     0.167 HD
ATOM     53  C   UNL     1      -0.610  12.468  -0.128  1.00  0.00     0.074 A 
ATOM     54  C   UNL     1      -0.460  13.067   1.180  1.00  0.00     0.031 C 
ATOM     55  C   UNL     1      -1.109  13.118  -1.208  1.00  0.00     0.037 A 
BRANCH  42  56
ATOM     56  C   UNL     1      -1.169   9.709  -6.370  1.00  0.00     0.064 A 
ATOM     57  C   UNL     1      -2.188   8.866  -6.845  1.00  0.00     0.173 A 
ATOM     58  C   UNL     1      -0.373  10.377  -7.309  1.00  0.00     0.173 A 
ATOM     59  F   UNL     1      -2.951   8.177  -5.982  1.00  0.00    -0.203 F 
ATOM     60  C   UNL     1      -2.364   8.658  -8.208  1.00  0.00     0.198 A 
ATOM     61  C   UNL     1      -0.576  10.194  -8.673  1.00  0.00     0.198 A 
ATOM     62  F   UNL     1       0.620  11.184  -6.904  1.00  0.00    -0.203 F 
ATOM     63  F   UNL     1      -3.282   7.781  -8.637  1.00  0.00    -0.200 F 
ATOM     64  C   UNL     1      -1.559   9.323  -9.121  1.00  0.00     0.200 A 
ATOM     65  F   UNL     1       0.201  10.837  -9.556  1.00  0.00    -0.200 F 
ATOM     66  F   UNL     1      -1.718   9.109 -10.434  1.00  0.00    -0.200 F 
ENDBRANCH  42  56
BRANCH  43  67
ATOM     67  C   UNL     1       1.105   9.828   3.369  1.00  0.00     0.064 A 
ATOM     68  C   UNL     1       0.108  10.041   4.336  1.00  0.00     0.173 A 
ATOM     69  C   UNL     1       2.433   9.778   3.816  1.00  0.00     0.173 A 
ATOM     70  F   UNL     1      -1.176  10.139   3.961  1.00  0.00    -0.203 F 
ATOM     71  C   UNL     1       0.428  10.235   5.680  1.00  0.00     0.198 A 
ATOM     72  C   UNL     1       2.751   9.944   5.166  1.00  0.00     0.198 A 
ATOM     73  F   UNL     1       3.431   9.594   2.939  1.00  0.00    -0.203 F 
ATOM     74  F   UNL     1      -0.540  10.511   6.565  1.00  0.00    -0.200 F 
ATOM     75  C   UNL     1       1.749  10.185   6.095  1.00  0.00     0.200 A 
ATOM     76  F   UNL     1       4.030   9.898   5.563  1.00  0.00    -0.200 F 
ATOM     77  F   UNL     1       2.059  10.390   7.383  1.00  0.00    -0.200 F 
ENDBRANCH  43  67
BRANCH  55  78
ATOM     78  C   UNL     1      -1.601  14.524  -1.021  1.00  0.00     0.064 A 
ATOM     79  C   UNL     1      -0.722  15.601  -0.846  1.00  0.00     0.173 A 
ATOM     80  C   UNL     1      -2.974  14.805  -1.123  1.00  0.00     0.173 A 
ATOM     81  F   UNL     1       0.597  15.385  -0.733  1.00  0.00    -0.203 F 
ATOM     82  C   UNL     1      -1.199  16.907  -0.769  1.00  0.00     0.198 A 
ATOM     83  C   UNL     1      -3.443  16.114  -1.077  1.00  0.00     0.198 A 
ATOM     84  F   UNL     1      -3.856  13.810  -1.302  1.00  0.00    -0.203 F 
ATOM     85  F   UNL     1      -0.344  17.921  -0.572  1.00  0.00    -0.200 F 
ATOM     86  C   UNL     1      -2.557  17.163  -0.897  1.00  0.00     0.200 A 
ATOM     87  F   UNL     1      -4.753  16.360  -1.222  1.00  0.00    -0.200 F 
ATOM     88  F   UNL     1      -3.010  18.424  -0.848  1.00  0.00    -0.200 F 
ENDBRANCH  55  78
ENDBRANCH  29  30
ENDBRANCH  22  24
ENDBRANCH  21  22
ENDBRANCH   1  21
TORSDOF 12
