REMARK SMILES Cc1cc(SC[C@H]([NH3+])C(=O)OCCOC(=O)c2ccc(-c3c4nc(c(-c5c(F)c(F)c(F)c(F)c5F)c5ccc([nH]5)c(-c5c(F)c(F)c(F)c(F)c5F)c5nc(c(-c6c(F)c(F)c(F)c(F)c6F)c6ccc3[nH]6)C=C5)C=C4)cc2)ccc1N
REMARK SMILES IDX 12 1 11 2 9 3 10 4 7 5 6 6 5 7 4 8 1 9 2 10 3 11 82 12 81 13
REMARK SMILES IDX 80 14 83 15 8 18 13 22 14 23 15 24 16 25 17 26 18 27 79 28
REMARK SMILES IDX 19 29 78 30 20 31 21 32 22 33 72 34 23 35 77 36 71 37 73 38
REMARK SMILES IDX 24 39 76 40 70 41 69 42 25 44 57 45 37 46 56 47 38 48 41 49
REMARK SMILES IDX 55 50 74 51 39 52 40 53 54 55 75 56 42 57 26 58 27 59 35 60
REMARK SMILES IDX 28 61 29 62 33 63 36 64 30 65 31 66 34 67 32 68 58 69 59 70
REMARK SMILES IDX 67 71 60 72 61 73 65 74 68 75 62 76 63 77 66 78 64 79 43 80
REMARK SMILES IDX 44 81 52 82 45 83 46 84 50 85 53 86 47 87 48 88 51 89 49 90
REMARK H PARENT 83 16 83 17 8 19 8 20 8 21 73 43 41 54
REMARK Flexibility Score: inf
ROOT
ATOM      1  C   UNL     1      -2.631   6.623  -0.795  1.00  0.00     0.274 C 
ENDROOT
BRANCH   1   2
ATOM      2  O   UNL     1      -2.552   5.233  -0.444  1.00  0.00    -0.458 OA
BRANCH   2   3
ATOM      3  C   UNL     1      -2.172   4.968   0.840  1.00  0.00     0.365 C 
ATOM      4  O   UNL     1      -2.194   5.788   1.750  1.00  0.00    -0.245 OA
BRANCH   3   5
ATOM      5  C   UNL     1      -1.672   3.533   1.031  1.00  0.00     0.302 C 
BRANCH   5   6
ATOM      6  C   UNL     1      -0.147   3.475   0.827  1.00  0.00     0.152 C 
BRANCH   6   7
ATOM      7  S   UNL     1       0.887   4.068   2.235  1.00  0.00    -0.119 SA
BRANCH   7   8
ATOM      8  C   UNL     1       0.771   5.851   2.165  1.00  0.00     0.008 A 
ATOM      9  C   UNL     1       0.407   8.732  -0.306  1.00  0.00     0.046 C 
ATOM     10  C   UNL     1       0.533   7.991   0.999  1.00  0.00    -0.027 A 
ATOM     11  C   UNL     1       0.720   6.590   0.981  1.00  0.00     0.020 A 
ATOM     12  C   UNL     1       0.424   8.663   2.227  1.00  0.00     0.034 A 
ATOM     13  C   UNL     1       0.589   7.932   3.406  1.00  0.00     0.027 A 
ATOM     14  C   UNL     1       0.745   6.543   3.379  1.00  0.00     0.017 A 
BRANCH  12  15
ATOM     15  N   UNL     1       0.287  10.044   2.300  1.00  0.00    -0.399 N 
ATOM     16  H   UNL     1       0.170  10.572   1.477  1.00  0.00     0.156 HD
ATOM     17  H   UNL     1       0.306  10.495   3.175  1.00  0.00     0.156 HD
ENDBRANCH  12  15
ENDBRANCH   7   8
ENDBRANCH   6   7
ENDBRANCH   5   6
BRANCH   5  18
ATOM     18  N   UNL     1      -2.341   2.600   0.081  1.00  0.00    -0.345 N 
ATOM     19  H   UNL     1      -2.123   2.877  -0.876  1.00  0.00     0.345 HD
ATOM     20  H   UNL     1      -3.350   2.636   0.224  1.00  0.00     0.345 HD
ATOM     21  H   UNL     1      -2.007   1.651   0.245  1.00  0.00     0.345 HD
ENDBRANCH   5  18
ENDBRANCH   3   5
ENDBRANCH   2   3
ENDBRANCH   1   2
BRANCH   1  22
ATOM     22  C   UNL     1      -3.958   7.342  -0.523  1.00  0.00     0.275 C 
BRANCH  22  23
ATOM     23  O   UNL     1      -4.398   7.246   0.837  1.00  0.00    -0.458 OA
BRANCH  23  24
ATOM     24  C   UNL     1      -5.092   6.115   1.095  1.00  0.00     0.338 C 
ATOM     25  O   UNL     1      -5.435   5.265   0.288  1.00  0.00    -0.246 OA
BRANCH  24  26
ATOM     26  C   UNL     1      -5.290   5.931   2.542  1.00  0.00     0.060 A 
ATOM     27  C   UNL     1      -5.050   4.649   3.050  1.00  0.00     0.016 A 
ATOM     28  C   UNL     1      -5.821   6.936   3.354  1.00  0.00     0.016 A 
ATOM     29  C   UNL     1      -5.416   4.338   4.352  1.00  0.00     0.010 A 
ATOM     30  C   UNL     1      -6.200   6.620   4.661  1.00  0.00     0.010 A 
ATOM     31  C   UNL     1      -6.048   5.306   5.140  1.00  0.00    -0.014 A 
BRANCH  31  32
ATOM     32  C   UNL     1      -6.739   4.865   6.370  1.00  0.00     0.031 A 
ATOM     33  C   UNL     1      -8.211   4.570   6.293  1.00  0.00     0.074 A 
ATOM     34  C   UNL     1      -6.051   4.656   7.504  1.00  0.00     0.049 A 
ATOM     35  N   UNL     1      -9.031   4.170   7.231  1.00  0.00    -0.248 NA
ATOM     36  C   UNL     1      -8.845   4.747   4.976  1.00  0.00     0.031 C 
ATOM     37  C   UNL     1      -4.612   4.853   7.665  1.00  0.00     0.029 A 
ATOM     38  N   UNL     1      -6.475   4.222   8.733  1.00  0.00    -0.354 N 
ATOM     39  C   UNL     1     -10.274   4.059   6.620  1.00  0.00     0.074 A 
ATOM     40  C   UNL     1     -10.109   4.454   5.239  1.00  0.00     0.031 C 
ATOM     41  C   UNL     1      -4.271   4.544   8.927  1.00  0.00     0.029 A 
ATOM     42  C   UNL     1      -5.471   4.155   9.665  1.00  0.00     0.049 A 
ATOM     43  H   UNL     1      -7.410   3.981   8.927  1.00  0.00     0.167 HD
ATOM     44  C   UNL     1     -11.445   3.656   7.165  1.00  0.00     0.037 A 
ATOM     45  C   UNL     1      -5.527   3.830  10.970  1.00  0.00     0.037 A 
ATOM     46  C   UNL     1     -11.596   3.261   8.540  1.00  0.00     0.049 A 
ATOM     47  C   UNL     1      -6.853   3.432  11.565  1.00  0.00     0.074 A 
ATOM     48  C   UNL     1     -12.737   2.848   9.203  1.00  0.00     0.029 A 
ATOM     49  N   UNL     1     -10.561   3.232   9.464  1.00  0.00    -0.354 N 
ATOM     50  N   UNL     1      -8.025   3.335  10.986  1.00  0.00    -0.248 NA
ATOM     51  C   UNL     1      -6.861   3.092  12.994  1.00  0.00     0.031 C 
ATOM     52  C   UNL     1     -12.399   2.604  10.539  1.00  0.00     0.029 A 
ATOM     53  C   UNL     1     -11.039   2.821  10.697  1.00  0.00     0.049 A 
ATOM     54  H   UNL     1      -9.625   3.469   9.272  1.00  0.00     0.167 HD
ATOM     55  C   UNL     1      -8.905   2.904  11.969  1.00  0.00     0.074 A 
ATOM     56  C   UNL     1      -8.126   2.742  13.180  1.00  0.00     0.031 C 
ATOM     57  C   UNL     1     -10.236   2.663  11.882  1.00  0.00     0.037 A 
BRANCH  44  58
ATOM     58  C   UNL     1     -12.655   3.659   6.279  1.00  0.00     0.064 A 
ATOM     59  C   UNL     1     -12.826   2.710   5.259  1.00  0.00     0.173 A 
ATOM     60  C   UNL     1     -13.662   4.620   6.456  1.00  0.00     0.173 A 
ATOM     61  F   UNL     1     -11.883   1.782   5.035  1.00  0.00    -0.203 F 
ATOM     62  C   UNL     1     -13.948   2.740   4.433  1.00  0.00     0.198 A 
ATOM     63  C   UNL     1     -14.794   4.631   5.646  1.00  0.00     0.198 A 
ATOM     64  F   UNL     1     -13.546   5.550   7.415  1.00  0.00    -0.203 F 
ATOM     65  F   UNL     1     -14.067   1.854   3.435  1.00  0.00    -0.200 F 
ATOM     66  C   UNL     1     -14.933   3.696   4.631  1.00  0.00     0.200 A 
ATOM     67  F   UNL     1     -15.748   5.551   5.843  1.00  0.00    -0.200 F 
ATOM     68  F   UNL     1     -16.012   3.723   3.837  1.00  0.00    -0.200 F 
ENDBRANCH  44  58
BRANCH  45  69
ATOM     69  C   UNL     1      -4.294   3.873  11.797  1.00  0.00     0.064 A 
ATOM     70  C   UNL     1      -3.711   2.699  12.291  1.00  0.00     0.173 A 
ATOM     71  C   UNL     1      -3.674   5.092  12.109  1.00  0.00     0.173 A 
ATOM     72  F   UNL     1      -4.281   1.512  12.040  1.00  0.00    -0.203 F 
ATOM     73  C   UNL     1      -2.561   2.743  13.077  1.00  0.00     0.198 A 
ATOM     74  C   UNL     1      -2.509   5.133  12.873  1.00  0.00     0.198 A 
ATOM     75  F   UNL     1      -4.194   6.245  11.662  1.00  0.00    -0.203 F 
ATOM     76  F   UNL     1      -2.046   1.609  13.571  1.00  0.00    -0.200 F 
ATOM     77  C   UNL     1      -1.957   3.959  13.361  1.00  0.00     0.200 A 
ATOM     78  F   UNL     1      -1.924   6.309  13.136  1.00  0.00    -0.200 F 
ATOM     79  F   UNL     1      -0.848   4.000  14.113  1.00  0.00    -0.200 F 
ENDBRANCH  45  69
BRANCH  57  80
ATOM     80  C   UNL     1     -10.923   2.170  13.121  1.00  0.00     0.064 A 
ATOM     81  C   UNL     1     -11.183   3.021  14.204  1.00  0.00     0.173 A 
ATOM     82  C   UNL     1     -11.357   0.839  13.208  1.00  0.00     0.173 A 
ATOM     83  F   UNL     1     -10.775   4.299  14.172  1.00  0.00    -0.203 F 
ATOM     84  C   UNL     1     -11.830   2.550  15.343  1.00  0.00     0.198 A 
ATOM     85  C   UNL     1     -12.027   0.378  14.337  1.00  0.00     0.198 A 
ATOM     86  F   UNL     1     -11.138  -0.011  12.194  1.00  0.00    -0.203 F 
ATOM     87  F   UNL     1     -12.028   3.368  16.386  1.00  0.00    -0.200 F 
ATOM     88  C   UNL     1     -12.257   1.231  15.406  1.00  0.00     0.200 A 
ATOM     89  F   UNL     1     -12.450  -0.893  14.391  1.00  0.00    -0.200 F 
ATOM     90  F   UNL     1     -12.883   0.780  16.501  1.00  0.00    -0.200 F 
ENDBRANCH  57  80
ENDBRANCH  31  32
ENDBRANCH  24  26
ENDBRANCH  23  24
ENDBRANCH  22  23
ENDBRANCH   1  22
TORSDOF 16
