REMARK SMILES CCc1ccsc1Cn1cccc1C(=O)OCCOC(=O)c1ccc(-c2c3nc(c(-c4c(F)c(F)c(F)c(F)c4F)c4ccc([nH]4)c(-c4c(F)c(F)c(F)c(F)c4F)c4nc(c(-c5c(F)c(F)c(F)c(F)c5F)c5ccc2[nH]5)C=C4)C=C3)cc1
REMARK SMILES IDX 17 1 16 2 14 3 15 4 13 5 9 6 10 7 11 8 12 9 8 10 7 11 3 12
REMARK SMILES IDX 4 13 5 14 6 15 2 16 1 17 18 18 19 19 20 20 21 21 22 22 23 23
REMARK SMILES IDX 84 24 24 25 83 26 25 27 26 28 27 29 77 30 28 31 82 32 76 33
REMARK SMILES IDX 78 34 29 35 81 36 75 37 74 38 30 40 62 41 42 42 61 43 43 44
REMARK SMILES IDX 46 45 60 46 79 47 44 48 45 49 59 51 80 52 47 53 31 54 32 55
REMARK SMILES IDX 40 56 33 57 34 58 38 59 41 60 35 61 36 62 39 63 37 64 63 65
REMARK SMILES IDX 64 66 72 67 65 68 66 69 70 70 73 71 67 72 68 73 71 74 69 75
REMARK SMILES IDX 48 76 49 77 57 78 50 79 51 80 55 81 58 82 52 83 53 84 56 85
REMARK SMILES IDX 54 86
REMARK H PARENT 78 39 46 50
REMARK Flexibility Score: inf
ROOT
ATOM      1  C   UNL     1      -1.784   0.856  -1.538  1.00  0.00     0.275 C 
ENDROOT
BRANCH   1   2
ATOM      2  O   UNL     1      -1.377   1.605  -0.379  1.00  0.00    -0.457 OA
BRANCH   2   3
ATOM      3  C   UNL     1      -2.205   2.627  -0.033  1.00  0.00     0.355 C 
ATOM      4  O   UNL     1      -3.141   3.009  -0.736  1.00  0.00    -0.244 OA
BRANCH   3   5
ATOM      5  C   UNL     1      -1.938   3.147   1.296  1.00  0.00     0.127 A 
ATOM      6  N   UNL     1      -0.809   3.061   2.105  1.00  0.00    -0.337 N 
ATOM      7  C   UNL     1      -1.030   3.808   3.250  1.00  0.00     0.087 A 
ATOM      8  C   UNL     1      -2.324   4.259   3.252  1.00  0.00     0.020 A 
ATOM      9  C   UNL     1      -2.887   3.857   2.031  1.00  0.00     0.035 A 
BRANCH   6  10
ATOM     10  C   UNL     1       0.512   2.511   1.774  1.00  0.00     0.169 C 
BRANCH  10  11
ATOM     11  C   UNL     1       0.970   1.392   2.686  1.00  0.00     0.027 A 
ATOM     12  C   UNL     1       1.020   0.015   2.475  1.00  0.00    -0.033 A 
ATOM     13  C   UNL     1       1.547  -0.669   3.627  1.00  0.00     0.016 A 
ATOM     14  C   UNL     1       1.910   0.181   4.641  1.00  0.00     0.065 A 
ATOM     15  S   UNL     1       1.671   1.806   4.210  1.00  0.00    -0.147 S 
BRANCH  12  16
ATOM     16  C   UNL     1       0.572  -0.737   1.253  1.00  0.00     0.033 C 
ATOM     17  C   UNL     1       1.422  -0.481   0.018  1.00  0.00     0.009 C 
ENDBRANCH  12  16
ENDBRANCH  10  11
ENDBRANCH   6  10
ENDBRANCH   3   5
ENDBRANCH   2   3
ENDBRANCH   1   2
BRANCH   1  18
ATOM     18  C   UNL     1      -2.635  -0.366  -1.183  1.00  0.00     0.275 C 
BRANCH  18  19
ATOM     19  O   UNL     1      -3.905  -0.060  -0.592  1.00  0.00    -0.458 OA
BRANCH  19  20
ATOM     20  C   UNL     1      -3.852   0.048   0.754  1.00  0.00     0.338 C 
ATOM     21  O   UNL     1      -2.861   0.248   1.438  1.00  0.00    -0.246 OA
BRANCH  20  22
ATOM     22  C   UNL     1      -5.099  -0.374   1.386  1.00  0.00     0.060 A 
ATOM     23  C   UNL     1      -5.366   0.126   2.665  1.00  0.00     0.016 A 
ATOM     24  C   UNL     1      -5.785  -1.479   0.867  1.00  0.00     0.016 A 
ATOM     25  C   UNL     1      -6.274  -0.539   3.467  1.00  0.00     0.010 A 
ATOM     26  C   UNL     1      -6.670  -2.166   1.682  1.00  0.00     0.010 A 
ATOM     27  C   UNL     1      -6.900  -1.697   2.982  1.00  0.00    -0.014 A 
BRANCH  27  28
ATOM     28  C   UNL     1      -8.028  -2.226   3.770  1.00  0.00     0.031 A 
ATOM     29  C   UNL     1      -9.284  -1.341   3.463  1.00  0.00     0.074 A 
ATOM     30  C   UNL     1      -7.750  -3.283   4.607  1.00  0.00     0.049 A 
ATOM     31  N   UNL     1     -10.294  -1.013   4.210  1.00  0.00    -0.248 NA
ATOM     32  C   UNL     1      -9.385  -0.647   2.138  1.00  0.00     0.031 C 
ATOM     33  C   UNL     1      -6.458  -4.017   4.677  1.00  0.00     0.029 A 
ATOM     34  N   UNL     1      -8.470  -3.965   5.572  1.00  0.00    -0.354 N 
ATOM     35  C   UNL     1     -11.219  -0.298   3.403  1.00  0.00     0.074 A 
ATOM     36  C   UNL     1     -10.540   0.017   2.190  1.00  0.00     0.031 C 
ATOM     37  C   UNL     1      -6.461  -4.941   5.670  1.00  0.00     0.029 A 
ATOM     38  C   UNL     1      -7.741  -4.922   6.351  1.00  0.00     0.049 A 
ATOM     39  H   UNL     1      -9.430  -3.802   5.715  1.00  0.00     0.167 HD
ATOM     40  C   UNL     1     -12.543  -0.182   3.724  1.00  0.00     0.037 A 
ATOM     41  C   UNL     1      -8.138  -5.583   7.494  1.00  0.00     0.037 A 
ATOM     42  C   UNL     1     -12.761  -0.774   4.996  1.00  0.00     0.049 A 
ATOM     43  C   UNL     1      -9.541  -5.185   7.642  1.00  0.00     0.074 A 
ATOM     44  C   UNL     1     -12.447  -0.379   6.266  1.00  0.00     0.029 A 
ATOM     45  N   UNL     1     -13.033  -2.117   4.985  1.00  0.00    -0.354 N 
ATOM     46  N   UNL     1     -10.514  -5.602   6.890  1.00  0.00    -0.248 NA
ATOM     47  C   UNL     1      -9.849  -4.117   8.599  1.00  0.00     0.031 C 
ATOM     48  C   UNL     1     -12.030  -1.585   6.866  1.00  0.00     0.029 A 
ATOM     49  C   UNL     1     -12.379  -2.670   6.052  1.00  0.00     0.049 A 
ATOM     50  H   UNL     1     -13.595  -2.595   4.332  1.00  0.00     0.167 HD
ATOM     51  C   UNL     1     -11.449  -4.612   7.063  1.00  0.00     0.074 A 
ATOM     52  C   UNL     1     -11.132  -3.943   8.306  1.00  0.00     0.031 C 
ATOM     53  C   UNL     1     -12.072  -4.074   5.987  1.00  0.00     0.037 A 
BRANCH  40  54
ATOM     54  C   UNL     1     -13.785   0.105   2.913  1.00  0.00     0.064 A 
ATOM     55  C   UNL     1     -15.004   0.255   3.630  1.00  0.00     0.173 A 
ATOM     56  C   UNL     1     -13.907  -0.219   1.557  1.00  0.00     0.173 A 
ATOM     57  F   UNL     1     -15.002   0.641   4.917  1.00  0.00    -0.203 F 
ATOM     58  C   UNL     1     -16.230  -0.117   3.087  1.00  0.00     0.198 A 
ATOM     59  C   UNL     1     -15.152  -0.525   0.996  1.00  0.00     0.198 A 
ATOM     60  F   UNL     1     -12.832  -0.359   0.774  1.00  0.00    -0.203 F 
ATOM     61  F   UNL     1     -17.321  -0.160   3.866  1.00  0.00    -0.200 F 
ATOM     62  C   UNL     1     -16.300  -0.532   1.774  1.00  0.00     0.200 A 
ATOM     63  F   UNL     1     -15.222  -0.909  -0.286  1.00  0.00    -0.200 F 
ATOM     64  F   UNL     1     -17.458  -0.977   1.269  1.00  0.00    -0.200 F 
ENDBRANCH  40  54
BRANCH  41  65
ATOM     65  C   UNL     1      -7.570  -6.415   8.643  1.00  0.00     0.064 A 
ATOM     66  C   UNL     1      -6.324  -7.050   8.683  1.00  0.00     0.173 A 
ATOM     67  C   UNL     1      -8.303  -6.532   9.869  1.00  0.00     0.173 A 
ATOM     68  F   UNL     1      -5.586  -7.170   7.572  1.00  0.00    -0.203 F 
ATOM     69  C   UNL     1      -5.805  -7.609   9.877  1.00  0.00     0.198 A 
ATOM     70  C   UNL     1      -7.764  -7.013  11.064  1.00  0.00     0.198 A 
ATOM     71  F   UNL     1      -9.593  -6.185   9.957  1.00  0.00    -0.203 F 
ATOM     72  F   UNL     1      -4.607  -8.213   9.867  1.00  0.00    -0.200 F 
ATOM     73  C   UNL     1      -6.499  -7.536  11.075  1.00  0.00     0.200 A 
ATOM     74  F   UNL     1      -8.484  -6.943  12.195  1.00  0.00    -0.200 F 
ATOM     75  F   UNL     1      -5.966  -7.984  12.221  1.00  0.00    -0.200 F 
ENDBRANCH  41  65
BRANCH  53  76
ATOM     76  C   UNL     1     -12.059  -4.936   4.734  1.00  0.00     0.064 A 
ATOM     77  C   UNL     1     -12.756  -6.151   4.717  1.00  0.00     0.173 A 
ATOM     78  C   UNL     1     -11.316  -4.646   3.576  1.00  0.00     0.173 A 
ATOM     79  F   UNL     1     -13.513  -6.497   5.768  1.00  0.00    -0.203 F 
ATOM     80  C   UNL     1     -12.705  -7.016   3.618  1.00  0.00     0.198 A 
ATOM     81  C   UNL     1     -11.253  -5.509   2.477  1.00  0.00     0.198 A 
ATOM     82  F   UNL     1     -10.643  -3.505   3.473  1.00  0.00    -0.203 F 
ATOM     83  F   UNL     1     -13.404  -8.159   3.637  1.00  0.00    -0.200 F 
ATOM     84  C   UNL     1     -11.950  -6.698   2.500  1.00  0.00     0.200 A 
ATOM     85  F   UNL     1     -10.530  -5.173   1.397  1.00  0.00    -0.200 F 
ATOM     86  F   UNL     1     -11.916  -7.521   1.442  1.00  0.00    -0.200 F 
ENDBRANCH  53  76
ENDBRANCH  27  28
ENDBRANCH  20  22
ENDBRANCH  19  20
ENDBRANCH  18  19
ENDBRANCH   1  18
TORSDOF 14
