REMARK SMILES CC(C)C[C@H](CNc1nc(-c2ccccc2)cs1)C(=O)OCCOC(=O)c1ccc(-c2c3nc(c(-c4c(F)c(F)c(F)c(F)c4F)c4ccc([nH]4)c(-c4c(F)c(F)c(F)c(F)c4F)c4nc(c(-c5c(F)c(F)c(F)c(F)c5F)c5ccc2[nH]5)C=C4)C=C3)cc1
REMARK SMILES IDX 22 1 21 2 19 3 20 4 5 5 4 6 2 7 1 8 3 9 6 10 7 11 8 13 9 14
REMARK SMILES IDX 18 15 10 16 17 17 11 18 12 19 16 20 13 21 15 22 14 23 23 24
REMARK SMILES IDX 24 25 25 26 26 27 27 28 28 29 89 30 29 31 88 32 30 33 31 34
REMARK SMILES IDX 32 35 82 36 33 37 87 38 81 39 83 40 34 41 86 42 80 43 79 44
REMARK SMILES IDX 35 46 67 47 47 48 66 49 48 50 51 51 65 52 84 53 49 54 50 55
REMARK SMILES IDX 64 57 85 58 52 59 36 60 37 61 45 62 38 63 39 64 43 65 46 66
REMARK SMILES IDX 40 67 41 68 44 69 42 70 68 71 69 72 77 73 70 74 71 75 75 76
REMARK SMILES IDX 78 77 72 78 73 79 76 80 74 81 53 82 54 83 62 84 55 85 56 86
REMARK SMILES IDX 60 87 63 88 57 89 58 90 61 91 59 92
REMARK H PARENT 7 12 83 45 51 56
REMARK Flexibility Score: inf
ROOT
ATOM      1  C   UNL     1      -5.172   0.675  -1.895  1.00  0.00     0.274 C 
ENDROOT
BRANCH   1   2
ATOM      2  O   UNL     1      -3.743   0.753  -2.084  1.00  0.00    -0.462 OA
BRANCH   2   3
ATOM      3  C   UNL     1      -3.075   1.418  -1.109  1.00  0.00     0.310 C 
ATOM      4  O   UNL     1      -3.625   1.953  -0.151  1.00  0.00    -0.252 OA
BRANCH   3   5
ATOM      5  C   UNL     1      -1.570   1.480  -1.309  1.00  0.00     0.118 C 
BRANCH   5   6
ATOM      6  C   UNL     1      -1.103   2.803  -1.959  1.00  0.00     0.020 C 
BRANCH   6   7
ATOM      7  C   UNL     1      -1.821   4.096  -1.518  1.00  0.00    -0.017 C 
ATOM      8  C   UNL     1      -1.667   4.419  -0.032  1.00  0.00     0.007 C 
ATOM      9  C   UNL     1      -1.301   5.277  -2.347  1.00  0.00     0.007 C 
ENDBRANCH   6   7
ENDBRANCH   5   6
BRANCH   5  10
ATOM     10  C   UNL     1      -0.986   0.181  -1.925  1.00  0.00     0.130 C 
BRANCH  10  11
ATOM     11  N   UNL     1      -0.470   0.379  -3.267  1.00  0.00    -0.361 N 
ATOM     12  H   UNL     1      -1.047   0.799  -3.945  1.00  0.00     0.162 HD
BRANCH  11  13
ATOM     13  C   UNL     1       0.778   0.003  -3.609  1.00  0.00     0.183 A 
ATOM     14  N   UNL     1       1.452  -0.996  -3.087  1.00  0.00    -0.220 NA
ATOM     15  S   UNL     1       1.611   0.879  -4.840  1.00  0.00    -0.105 S 
ATOM     16  C   UNL     1       2.689  -1.105  -3.699  1.00  0.00     0.083 A 
ATOM     17  C   UNL     1       2.978  -0.125  -4.626  1.00  0.00     0.097 A 
BRANCH  16  18
ATOM     18  C   UNL     1       3.576  -2.227  -3.458  1.00  0.00     0.001 A 
ATOM     19  C   UNL     1       4.878  -2.038  -2.980  1.00  0.00     0.010 A 
ATOM     20  C   UNL     1       3.142  -3.520  -3.779  1.00  0.00     0.010 A 
ATOM     21  C   UNL     1       5.740  -3.130  -2.843  1.00  0.00     0.001 A 
ATOM     22  C   UNL     1       4.008  -4.607  -3.653  1.00  0.00     0.001 A 
ATOM     23  C   UNL     1       5.308  -4.411  -3.188  1.00  0.00     0.000 A 
ENDBRANCH  16  18
ENDBRANCH  11  13
ENDBRANCH  10  11
ENDBRANCH   5  10
ENDBRANCH   3   5
ENDBRANCH   2   3
ENDBRANCH   1   2
BRANCH   1  24
ATOM     24  C   UNL     1      -5.612  -0.544  -1.069  1.00  0.00     0.275 C 
BRANCH  24  25
ATOM     25  O   UNL     1      -5.224  -0.465   0.319  1.00  0.00    -0.458 OA
BRANCH  25  26
ATOM     26  C   UNL     1      -4.032  -1.036   0.611  1.00  0.00     0.338 C 
ATOM     27  O   UNL     1      -3.291  -1.617  -0.165  1.00  0.00    -0.246 OA
BRANCH  26  28
ATOM     28  C   UNL     1      -3.627  -0.746   1.998  1.00  0.00     0.060 A 
ATOM     29  C   UNL     1      -2.383  -0.136   2.190  1.00  0.00     0.016 A 
ATOM     30  C   UNL     1      -4.383  -1.159   3.096  1.00  0.00     0.016 A 
ATOM     31  C   UNL     1      -1.883   0.063   3.472  1.00  0.00     0.010 A 
ATOM     32  C   UNL     1      -3.874  -0.972   4.388  1.00  0.00     0.010 A 
ATOM     33  C   UNL     1      -2.615  -0.372   4.581  1.00  0.00    -0.014 A 
BRANCH  33  34
ATOM     34  C   UNL     1      -2.012  -0.269   5.931  1.00  0.00     0.031 A 
ATOM     35  C   UNL     1      -1.411  -1.486   6.571  1.00  0.00     0.074 A 
ATOM     36  C   UNL     1      -1.957   0.920   6.557  1.00  0.00     0.049 A 
ATOM     37  N   UNL     1      -0.902  -1.629   7.768  1.00  0.00    -0.248 NA
ATOM     38  C   UNL     1      -1.375  -2.707   5.751  1.00  0.00     0.031 C 
ATOM     39  C   UNL     1      -2.443   2.184   6.007  1.00  0.00     0.029 A 
ATOM     40  N   UNL     1      -1.466   1.256   7.793  1.00  0.00    -0.354 N 
ATOM     41  C   UNL     1      -0.506  -2.956   7.854  1.00  0.00     0.074 A 
ATOM     42  C   UNL     1      -0.838  -3.581   6.590  1.00  0.00     0.031 C 
ATOM     43  C   UNL     1      -2.232   3.160   6.906  1.00  0.00     0.029 A 
ATOM     44  C   UNL     1      -1.638   2.580   8.109  1.00  0.00     0.049 A 
ATOM     45  H   UNL     1      -1.032   0.609   8.396  1.00  0.00     0.167 HD
ATOM     46  C   UNL     1       0.081  -3.594   8.895  1.00  0.00     0.037 A 
ATOM     47  C   UNL     1      -1.375   3.242   9.252  1.00  0.00     0.037 A 
ATOM     48  C   UNL     1       0.428  -2.965  10.142  1.00  0.00     0.049 A 
ATOM     49  C   UNL     1      -0.778   2.498  10.415  1.00  0.00     0.074 A 
ATOM     50  C   UNL     1       1.031  -3.526  11.255  1.00  0.00     0.029 A 
ATOM     51  N   UNL     1       0.203  -1.629  10.440  1.00  0.00    -0.354 N 
ATOM     52  N   UNL     1      -0.428   1.237  10.498  1.00  0.00    -0.248 NA
ATOM     53  C   UNL     1      -0.547   3.267  11.646  1.00  0.00     0.031 C 
ATOM     54  C   UNL     1       1.137  -2.538  12.240  1.00  0.00     0.029 A 
ATOM     55  C   UNL     1       0.637  -1.352  11.726  1.00  0.00     0.049 A 
ATOM     56  H   UNL     1      -0.205  -0.975   9.828  1.00  0.00     0.167 HD
ATOM     57  C   UNL     1       0.077   1.065  11.780  1.00  0.00     0.074 A 
ATOM     58  C   UNL     1       0.004   2.354  12.435  1.00  0.00     0.031 C 
ATOM     59  C   UNL     1       0.558  -0.061  12.361  1.00  0.00     0.037 A 
BRANCH  46  60
ATOM     60  C   UNL     1       0.350  -5.061   8.743  1.00  0.00     0.064 A 
ATOM     61  C   UNL     1       1.395  -5.542   7.941  1.00  0.00     0.173 A 
ATOM     62  C   UNL     1      -0.431  -5.996   9.439  1.00  0.00     0.173 A 
ATOM     63  F   UNL     1       2.160  -4.688   7.246  1.00  0.00    -0.203 F 
ATOM     64  C   UNL     1       1.635  -6.909   7.826  1.00  0.00     0.198 A 
ATOM     65  C   UNL     1      -0.173  -7.360   9.339  1.00  0.00     0.198 A 
ATOM     66  F   UNL     1      -1.440  -5.585  10.222  1.00  0.00    -0.203 F 
ATOM     67  F   UNL     1       2.615  -7.351   7.025  1.00  0.00    -0.200 F 
ATOM     68  C   UNL     1       0.855  -7.816   8.529  1.00  0.00     0.200 A 
ATOM     69  F   UNL     1      -0.922  -8.234  10.027  1.00  0.00    -0.200 F 
ATOM     70  F   UNL     1       1.092  -9.131   8.421  1.00  0.00    -0.200 F 
ENDBRANCH  46  60
BRANCH  47  71
ATOM     71  C   UNL     1      -1.708   4.686   9.360  1.00  0.00     0.064 A 
ATOM     72  C   UNL     1      -0.702   5.658   9.428  1.00  0.00     0.173 A 
ATOM     73  C   UNL     1      -3.041   5.119   9.401  1.00  0.00     0.173 A 
ATOM     74  F   UNL     1       0.588   5.289   9.421  1.00  0.00    -0.203 F 
ATOM     75  C   UNL     1      -1.017   7.011   9.542  1.00  0.00     0.198 A 
ATOM     76  C   UNL     1      -3.355   6.473   9.489  1.00  0.00     0.198 A 
ATOM     77  F   UNL     1      -4.040   4.226   9.346  1.00  0.00    -0.203 F 
ATOM     78  F   UNL     1      -0.037   7.918   9.644  1.00  0.00    -0.200 F 
ATOM     79  C   UNL     1      -2.343   7.418   9.565  1.00  0.00     0.200 A 
ATOM     80  F   UNL     1      -4.637   6.862   9.502  1.00  0.00    -0.200 F 
ATOM     81  F   UNL     1      -2.645   8.719   9.668  1.00  0.00    -0.200 F 
ENDBRANCH  47  71
BRANCH  59  82
ATOM     82  C   UNL     1       1.062   0.055  13.769  1.00  0.00     0.064 A 
ATOM     83  C   UNL     1       0.182   0.176  14.854  1.00  0.00     0.173 A 
ATOM     84  C   UNL     1       2.438   0.005  14.037  1.00  0.00     0.173 A 
ATOM     85  F   UNL     1      -1.141   0.245  14.646  1.00  0.00    -0.203 F 
ATOM     86  C   UNL     1       0.664   0.262  16.158  1.00  0.00     0.198 A 
ATOM     87  C   UNL     1       2.914   0.067  15.344  1.00  0.00     0.198 A 
ATOM     88  F   UNL     1       3.319  -0.115  13.033  1.00  0.00    -0.203 F 
ATOM     89  F   UNL     1      -0.192   0.416  17.177  1.00  0.00    -0.200 F 
ATOM     90  C   UNL     1       2.028   0.201  16.402  1.00  0.00     0.200 A 
ATOM     91  F   UNL     1       4.232  -0.003  15.579  1.00  0.00    -0.200 F 
ATOM     92  F   UNL     1       2.489   0.278  17.658  1.00  0.00    -0.200 F 
ENDBRANCH  59  82
ENDBRANCH  33  34
ENDBRANCH  26  28
ENDBRANCH  25  26
ENDBRANCH  24  25
ENDBRANCH   1  24
TORSDOF 17
