REMARK SMILES COCC[C@H](NC(=O)c1ccc(Br)nc1)C(=O)OCCOC(=O)c1ccc(-c2c3nc(c(-c4c(F)c(F)c(F)c(F)c4F)c4ccc([nH]4)c(-c4c(F)c(F)c(F)c(F)c4F)c4nc(c(-c5c(F)c(F)c(F)c(F)c5F)c5ccc2[nH]5)C=C4)C=C3)cc1
REMARK SMILES IDX 19 1 18 2 16 3 17 4 5 5 4 6 3 7 2 8 1 9 6 10 7 11 8 13 9 14
REMARK SMILES IDX 10 15 15 16 11 17 14 18 12 19 13 20 20 21 21 22 22 23 23 24
REMARK SMILES IDX 24 25 25 26 86 27 26 28 85 29 27 30 28 31 29 32 79 33 30 34
REMARK SMILES IDX 84 35 78 36 80 37 31 38 83 39 77 40 76 41 32 43 64 44 44 45
REMARK SMILES IDX 63 46 45 47 48 48 62 49 81 50 46 51 47 52 61 54 82 55 49 56
REMARK SMILES IDX 33 57 34 58 42 59 35 60 36 61 40 62 43 63 37 64 38 65 41 66
REMARK SMILES IDX 39 67 65 68 66 69 74 70 67 71 68 72 72 73 75 74 69 75 70 76
REMARK SMILES IDX 73 77 71 78 50 79 51 80 59 81 52 82 53 83 57 84 60 85 54 86
REMARK SMILES IDX 55 87 58 88 56 89
REMARK H PARENT 6 12 80 42 48 53
REMARK Flexibility Score: inf
ROOT
ATOM      1  C   UNL     1       0.248   1.841  -5.691  1.00  0.00     0.274 C 
ENDROOT
BRANCH   1   2
ATOM      2  O   UNL     1       0.700   0.853  -4.743  1.00  0.00    -0.461 OA
BRANCH   2   3
ATOM      3  C   UNL     1       1.260   1.324  -3.599  1.00  0.00     0.328 C 
ATOM      4  O   UNL     1       1.472   2.509  -3.365  1.00  0.00    -0.250 OA
BRANCH   3   5
ATOM      5  C   UNL     1       1.518   0.216  -2.553  1.00  0.00     0.194 C 
BRANCH   5   6
ATOM      6  C   UNL     1       2.862   0.428  -1.841  1.00  0.00     0.065 C 
BRANCH   6   7
ATOM      7  C   UNL     1       2.813   1.522  -0.764  1.00  0.00     0.162 C 
BRANCH   7   8
ATOM      8  O   UNL     1       2.808   0.962   0.550  1.00  0.00    -0.385 OA
ATOM      9  C   UNL     1       1.536   0.497   0.975  1.00  0.00     0.194 C 
ENDBRANCH   7   8
ENDBRANCH   6   7
ENDBRANCH   5   6
BRANCH   5  10
ATOM     10  N   UNL     1       1.250  -1.170  -2.961  1.00  0.00    -0.338 N 
ATOM     11  C   UNL     1       1.925  -2.030  -3.777  1.00  0.00     0.253 C 
ATOM     12  H   UNL     1       0.429  -1.549  -2.573  1.00  0.00     0.164 HD
ATOM     13  O   UNL     1       1.511  -3.164  -3.983  1.00  0.00    -0.269 OA
BRANCH  11  14
ATOM     14  C   UNL     1       3.132  -1.580  -4.461  1.00  0.00     0.058 A 
ATOM     15  C   UNL     1       4.376  -1.582  -3.839  1.00  0.00     0.018 A 
ATOM     16  C   UNL     1       3.038  -1.175  -5.782  1.00  0.00     0.126 A 
ATOM     17  C   UNL     1       5.474  -1.095  -4.544  1.00  0.00     0.037 A 
ATOM     18  N   UNL     1       4.088  -0.698  -6.488  1.00  0.00    -0.249 NA
ATOM     19  C   UNL     1       5.282  -0.662  -5.852  1.00  0.00     0.106 A 
ATOM     20  Br  UNL     1       6.763   0.035  -6.808  1.00  0.00    -0.029 Br
ENDBRANCH  11  14
ENDBRANCH   5  10
ENDBRANCH   3   5
ENDBRANCH   2   3
ENDBRANCH   1   2
BRANCH   1  21
ATOM     21  C   UNL     1      -1.281   1.958  -5.682  1.00  0.00     0.275 C 
BRANCH  21  22
ATOM     22  O   UNL     1      -1.780   2.545  -4.461  1.00  0.00    -0.458 OA
BRANCH  22  23
ATOM     23  C   UNL     1      -2.027   1.667  -3.468  1.00  0.00     0.338 C 
ATOM     24  O   UNL     1      -1.855   0.451  -3.489  1.00  0.00    -0.246 OA
BRANCH  23  25
ATOM     25  C   UNL     1      -2.400   2.359  -2.229  1.00  0.00     0.060 A 
ATOM     26  C   UNL     1      -1.528   2.231  -1.149  1.00  0.00     0.016 A 
ATOM     27  C   UNL     1      -3.641   2.974  -2.061  1.00  0.00     0.016 A 
ATOM     28  C   UNL     1      -1.911   2.643   0.117  1.00  0.00     0.010 A 
ATOM     29  C   UNL     1      -4.009   3.436  -0.787  1.00  0.00     0.010 A 
ATOM     30  C   UNL     1      -3.159   3.244   0.316  1.00  0.00    -0.014 A 
BRANCH  30  31
ATOM     31  C   UNL     1      -3.550   3.595   1.705  1.00  0.00     0.031 A 
ATOM     32  C   UNL     1      -4.638   2.826   2.401  1.00  0.00     0.074 A 
ATOM     33  C   UNL     1      -2.846   4.524   2.380  1.00  0.00     0.049 A 
ATOM     34  N   UNL     1      -5.124   2.988   3.607  1.00  0.00    -0.248 NA
ATOM     35  C   UNL     1      -5.258   1.726   1.648  1.00  0.00     0.031 C 
ATOM     36  C   UNL     1      -1.722   5.287   1.837  1.00  0.00     0.029 A 
ATOM     37  N   UNL     1      -2.950   4.960   3.676  1.00  0.00    -0.354 N 
ATOM     38  C   UNL     1      -6.128   2.039   3.742  1.00  0.00     0.074 A 
ATOM     39  C   UNL     1      -6.186   1.305   2.496  1.00  0.00     0.031 C 
ATOM     40  C   UNL     1      -1.213   6.067   2.803  1.00  0.00     0.029 A 
ATOM     41  C   UNL     1      -2.014   5.907   4.013  1.00  0.00     0.049 A 
ATOM     42  H   UNL     1      -3.629   4.626   4.306  1.00  0.00     0.167 HD
ATOM     43  C   UNL     1      -6.927   1.803   4.810  1.00  0.00     0.037 A 
ATOM     44  C   UNL     1      -1.834   6.587   5.161  1.00  0.00     0.037 A 
ATOM     45  C   UNL     1      -6.843   2.509   6.062  1.00  0.00     0.049 A 
ATOM     46  C   UNL     1      -2.758   6.330   6.317  1.00  0.00     0.074 A 
ATOM     47  C   UNL     1      -7.617   2.349   7.198  1.00  0.00     0.029 A 
ATOM     48  N   UNL     1      -5.918   3.503   6.346  1.00  0.00    -0.354 N 
ATOM     49  N   UNL     1      -3.740   5.466   6.415  1.00  0.00    -0.248 NA
ATOM     50  C   UNL     1      -2.558   7.151   7.519  1.00  0.00     0.031 C 
ATOM     51  C   UNL     1      -7.180   3.267   8.160  1.00  0.00     0.029 A 
ATOM     52  C   UNL     1      -6.109   3.972   7.636  1.00  0.00     0.049 A 
ATOM     53  H   UNL     1      -5.228   3.827   5.724  1.00  0.00     0.167 HD
ATOM     54  C   UNL     1      -4.269   5.634   7.686  1.00  0.00     0.074 A 
ATOM     55  C   UNL     1      -3.483   6.664   8.334  1.00  0.00     0.031 C 
ATOM     56  C   UNL     1      -5.318   4.998   8.263  1.00  0.00     0.037 A 
BRANCH  43  57
ATOM     57  C   UNL     1      -7.992   0.759   4.657  1.00  0.00     0.064 A 
ATOM     58  C   UNL     1      -7.694  -0.611   4.663  1.00  0.00     0.173 A 
ATOM     59  C   UNL     1      -9.338   1.139   4.534  1.00  0.00     0.173 A 
ATOM     60  F   UNL     1      -6.421  -1.024   4.760  1.00  0.00    -0.203 F 
ATOM     61  C   UNL     1      -8.703  -1.562   4.530  1.00  0.00     0.198 A 
ATOM     62  C   UNL     1     -10.345   0.185   4.425  1.00  0.00     0.198 A 
ATOM     63  F   UNL     1      -9.675   2.438   4.525  1.00  0.00    -0.203 F 
ATOM     64  F   UNL     1      -8.392  -2.866   4.497  1.00  0.00    -0.200 F 
ATOM     65  C   UNL     1     -10.027  -1.164   4.418  1.00  0.00     0.200 A 
ATOM     66  F   UNL     1     -11.625   0.572   4.325  1.00  0.00    -0.200 F 
ATOM     67  F   UNL     1     -10.996  -2.082   4.294  1.00  0.00    -0.200 F 
ENDBRANCH  43  57
BRANCH  44  68
ATOM     68  C   UNL     1      -0.751   7.599   5.260  1.00  0.00     0.064 A 
ATOM     69  C   UNL     1       0.360   7.391   6.088  1.00  0.00     0.173 A 
ATOM     70  C   UNL     1      -0.806   8.794   4.527  1.00  0.00     0.173 A 
ATOM     71  F   UNL     1       0.444   6.276   6.827  1.00  0.00    -0.203 F 
ATOM     72  C   UNL     1       1.370   8.346   6.187  1.00  0.00     0.198 A 
ATOM     73  C   UNL     1       0.217   9.734   4.605  1.00  0.00     0.198 A 
ATOM     74  F   UNL     1      -1.850   9.040   3.722  1.00  0.00    -0.203 F 
ATOM     75  F   UNL     1       2.402   8.142   7.017  1.00  0.00    -0.200 F 
ATOM     76  C   UNL     1       1.302   9.513   5.441  1.00  0.00     0.200 A 
ATOM     77  F   UNL     1       0.153  10.854   3.873  1.00  0.00    -0.200 F 
ATOM     78  F   UNL     1       2.277  10.427   5.531  1.00  0.00    -0.200 F 
ENDBRANCH  44  68
BRANCH  56  79
ATOM     79  C   UNL     1      -5.660   5.391   9.669  1.00  0.00     0.064 A 
ATOM     80  C   UNL     1      -6.291   6.610   9.954  1.00  0.00     0.173 A 
ATOM     81  C   UNL     1      -5.372   4.530  10.738  1.00  0.00     0.173 A 
ATOM     82  F   UNL     1      -6.570   7.473   8.966  1.00  0.00    -0.203 F 
ATOM     83  C   UNL     1      -6.598   6.966  11.265  1.00  0.00     0.198 A 
ATOM     84  C   UNL     1      -5.703   4.878  12.045  1.00  0.00     0.198 A 
ATOM     85  F   UNL     1      -4.773   3.351  10.515  1.00  0.00    -0.203 F 
ATOM     86  F   UNL     1      -7.159   8.156  11.520  1.00  0.00    -0.200 F 
ATOM     87  C   UNL     1      -6.308   6.098  12.308  1.00  0.00     0.200 A 
ATOM     88  F   UNL     1      -5.430   4.036  13.051  1.00  0.00    -0.200 F 
ATOM     89  F   UNL     1      -6.604   6.442  13.569  1.00  0.00    -0.200 F 
ENDBRANCH  56  79
ENDBRANCH  30  31
ENDBRANCH  23  25
ENDBRANCH  22  23
ENDBRANCH  21  22
ENDBRANCH   1  21
TORSDOF 16
