REMARK SMILES O=C(OCCOC(=O)[C@H]1Cc2[nH]cnc2CN1C(=O)C[C@]12C[C@H]3C[C@H](C[C@H](C3)C1)C2)c1ccc(-c2c3nc(c(-c4c(F)c(F)c(F)c(F)c4F)c4ccc([nH]4)c(-c4c(F)c(F)c(F)c(F)c4F)c4nc(c(-c5c(F)c(F)c(F)c(F)c5F)c5ccc2[nH]5)C=C4)C=C3)cc1
REMARK SMILES IDX 5 1 4 2 3 3 2 4 1 5 31 6 32 7 93 8 33 9 92 10 34 11 35 12
REMARK SMILES IDX 36 13 86 14 37 15 91 16 85 17 87 18 38 19 90 20 84 21 83 22
REMARK SMILES IDX 39 24 71 25 51 26 70 27 52 28 55 29 69 30 88 31 53 32 54 33
REMARK SMILES IDX 68 35 89 36 56 37 40 38 41 39 49 40 42 41 43 42 47 43 50 44
REMARK SMILES IDX 44 45 45 46 48 47 46 48 72 49 73 50 81 51 74 52 75 53 79 54
REMARK SMILES IDX 82 55 76 56 77 57 80 58 78 59 57 60 58 61 66 62 59 63 60 64
REMARK SMILES IDX 64 65 67 66 61 67 62 68 65 69 63 70 6 71 7 72 8 73 9 74
REMARK SMILES IDX 10 75 17 76 11 77 16 78 12 79 15 80 13 81 14 83 18 84 19 85
REMARK SMILES IDX 20 86 21 87 22 88 29 89 30 90 23 91 27 92 25 93 24 94 28 95
REMARK SMILES IDX 26 96
REMARK H PARENT 87 23 55 34 12 82
REMARK Flexibility Score: inf
ROOT
ATOM      1  C   UNL     1       5.617   0.733   2.033  1.00  0.00     0.274 C 
ENDROOT
BRANCH   1   2
ATOM      2  C   UNL     1       5.650   1.118   0.546  1.00  0.00     0.275 C 
BRANCH   2   3
ATOM      3  O   UNL     1       4.421   0.914  -0.172  1.00  0.00    -0.458 OA
BRANCH   3   4
ATOM      4  C   UNL     1       3.394   0.393   0.519  1.00  0.00     0.338 C 
ATOM      5  O   UNL     1       2.606   0.993   1.223  1.00  0.00    -0.246 OA
BRANCH   4   6
ATOM      6  C   UNL     1       3.292  -1.052   0.247  1.00  0.00     0.060 A 
ATOM      7  C   UNL     1       4.712  -2.103  -0.230  1.00  0.00     0.016 A 
ATOM      8  C   UNL     1       1.608  -1.834   0.253  1.00  0.00     0.016 A 
ATOM      9  C   UNL     1       4.424  -3.824  -0.736  1.00  0.00     0.010 A 
ATOM     10  C   UNL     1       1.338  -3.491  -0.384  1.00  0.00     0.010 A 
ATOM     11  C   UNL     1       2.718  -4.461  -0.929  1.00  0.00    -0.014 A 
BRANCH  11  12
ATOM     12  C   UNL     1       2.392  -5.649  -1.761  1.00  0.00     0.031 A 
ATOM     13  C   UNL     1       3.042  -6.837  -1.202  1.00  0.00     0.074 A 
ATOM     14  C   UNL     1       1.482  -5.758  -2.769  1.00  0.00     0.049 A 
ATOM     15  N   UNL     1       4.219  -7.292  -1.482  1.00  0.00    -0.248 NA
ATOM     16  C   UNL     1       2.463  -7.368   0.044  1.00  0.00     0.031 C 
ATOM     17  C   UNL     1       0.552  -4.750  -3.286  1.00  0.00     0.029 A 
ATOM     18  N   UNL     1       1.147  -6.859  -3.534  1.00  0.00    -0.354 N 
ATOM     19  C   UNL     1       4.375  -8.336  -0.590  1.00  0.00     0.074 A 
ATOM     20  C   UNL     1       3.518  -8.034   0.520  1.00  0.00     0.031 C 
ATOM     21  C   UNL     1      -0.375  -5.328  -4.091  1.00  0.00     0.029 A 
ATOM     22  C   UNL     1      -0.040  -6.726  -4.282  1.00  0.00     0.049 A 
ATOM     23  H   UNL     1       1.696  -7.676  -3.555  1.00  0.00     0.167 HD
ATOM     24  C   UNL     1       4.774  -9.560  -1.022  1.00  0.00     0.037 A 
ATOM     25  C   UNL     1      -0.689  -7.706  -4.983  1.00  0.00     0.037 A 
ATOM     26  C   UNL     1       5.346  -9.486  -2.349  1.00  0.00     0.049 A 
ATOM     27  C   UNL     1       0.283  -8.807  -5.184  1.00  0.00     0.074 A 
ATOM     28  C   UNL     1       6.339  -8.718  -2.932  1.00  0.00     0.029 A 
ATOM     29  N   UNL     1       4.590  -9.967  -3.389  1.00  0.00    -0.354 N 
ATOM     30  N   UNL     1       1.311  -8.735  -5.979  1.00  0.00    -0.248 NA
ATOM     31  C   UNL     1       0.352  -9.820  -4.146  1.00  0.00     0.031 C 
ATOM     32  C   UNL     1       5.865  -8.412  -4.241  1.00  0.00     0.029 A 
ATOM     33  C   UNL     1       4.662  -9.085  -4.438  1.00  0.00     0.049 A 
ATOM     34  H   UNL     1       4.079 -10.809  -3.384  1.00  0.00     0.167 HD
ATOM     35  C   UNL     1       2.331  -9.332  -5.258  1.00  0.00     0.074 A 
ATOM     36  C   UNL     1       1.667 -10.049  -4.172  1.00  0.00     0.031 C 
ATOM     37  C   UNL     1       3.621  -8.928  -5.428  1.00  0.00     0.037 A 
BRANCH  24  38
ATOM     38  C   UNL     1       4.250 -10.834  -0.406  1.00  0.00     0.064 A 
ATOM     39  C   UNL     1       4.936 -12.031  -0.646  1.00  0.00     0.173 A 
ATOM     40  C   UNL     1       2.995 -10.977   0.239  1.00  0.00     0.173 A 
ATOM     41  F   UNL     1       6.106 -12.021  -1.301  1.00  0.00    -0.203 F 
ATOM     42  C   UNL     1       4.399 -13.270  -0.283  1.00  0.00     0.198 A 
ATOM     43  C   UNL     1       2.500 -12.200   0.671  1.00  0.00     0.198 A 
ATOM     44  F   UNL     1       2.128  -9.971   0.383  1.00  0.00    -0.203 F 
ATOM     45  F   UNL     1       5.037 -14.394  -0.631  1.00  0.00    -0.200 F 
ATOM     46  C   UNL     1       3.189 -13.352   0.385  1.00  0.00     0.200 A 
ATOM     47  F   UNL     1       1.312 -12.247   1.291  1.00  0.00    -0.200 F 
ATOM     48  F   UNL     1       2.658 -14.539   0.701  1.00  0.00    -0.200 F 
ENDBRANCH  24  38
BRANCH  25  49
ATOM     49  C   UNL     1      -2.134  -7.944  -5.293  1.00  0.00     0.064 A 
ATOM     50  C   UNL     1      -2.535  -8.952  -6.202  1.00  0.00     0.173 A 
ATOM     51  C   UNL     1      -3.151  -7.430  -4.471  1.00  0.00     0.173 A 
ATOM     52  F   UNL     1      -1.636  -9.535  -7.009  1.00  0.00    -0.203 F 
ATOM     53  C   UNL     1      -3.848  -9.445  -6.243  1.00  0.00     0.198 A 
ATOM     54  C   UNL     1      -4.463  -7.921  -4.515  1.00  0.00     0.198 A 
ATOM     55  F   UNL     1      -2.873  -6.511  -3.537  1.00  0.00    -0.203 F 
ATOM     56  F   UNL     1      -4.162 -10.456  -7.066  1.00  0.00    -0.200 F 
ATOM     57  C   UNL     1      -4.807  -8.940  -5.386  1.00  0.00     0.200 A 
ATOM     58  F   UNL     1      -5.378  -7.448  -3.656  1.00  0.00    -0.200 F 
ATOM     59  F   UNL     1      -6.044  -9.458  -5.368  1.00  0.00    -0.200 F 
ENDBRANCH  25  49
BRANCH  37  60
ATOM     60  C   UNL     1       3.943  -8.084  -6.635  1.00  0.00     0.064 A 
ATOM     61  C   UNL     1       3.414  -6.805  -6.891  1.00  0.00     0.173 A 
ATOM     62  C   UNL     1       4.943  -8.550  -7.501  1.00  0.00     0.173 A 
ATOM     63  F   UNL     1       2.506  -6.255  -6.074  1.00  0.00    -0.203 F 
ATOM     64  C   UNL     1       3.856  -6.045  -7.977  1.00  0.00     0.198 A 
ATOM     65  C   UNL     1       5.408  -7.775  -8.559  1.00  0.00     0.198 A 
ATOM     66  F   UNL     1       5.505  -9.751  -7.290  1.00  0.00    -0.203 F 
ATOM     67  F   UNL     1       3.332  -4.832  -8.211  1.00  0.00    -0.200 F 
ATOM     68  C   UNL     1       4.862  -6.526  -8.800  1.00  0.00     0.200 A 
ATOM     69  F   UNL     1       6.408  -8.230  -9.327  1.00  0.00    -0.200 F 
ATOM     70  F   UNL     1       5.320  -5.778  -9.815  1.00  0.00    -0.200 F 
ENDBRANCH  37  60
ENDBRANCH  11  12
ENDBRANCH   4   6
ENDBRANCH   3   4
ENDBRANCH   2   3
ENDBRANCH   1   2
BRANCH   1  71
ATOM     71  O   UNL     1       5.240  -0.664   2.124  1.00  0.00    -0.461 OA
BRANCH  71  72
ATOM     72  C   UNL     1       4.121  -0.910   2.859  1.00  0.00     0.329 C 
ATOM     73  O   UNL     1       3.852  -0.286   3.881  1.00  0.00    -0.250 OA
BRANCH  72  74
ATOM     74  C   UNL     1       3.220  -2.087   2.287  1.00  0.00     0.201 C 
ATOM     75  C   UNL     1       1.825  -2.047   3.020  1.00  0.00     0.093 C 
ATOM     76  N   UNL     1       3.128  -3.005   0.720  1.00  0.00    -0.322 N 
ATOM     77  C   UNL     1       1.263  -3.412   2.979  1.00  0.00     0.042 A 
ATOM     78  C   UNL     1       3.074  -4.484   1.474  1.00  0.00     0.178 C 
ATOM     79  N   UNL     1       0.075  -3.818   3.507  1.00  0.00    -0.348 N 
ATOM     80  C   UNL     1       1.808  -4.510   2.341  1.00  0.00     0.081 A 
ATOM     81  C   UNL     1      -0.022  -5.159   3.252  1.00  0.00     0.197 A 
ATOM     82  H   UNL     1      -0.584  -3.258   3.978  1.00  0.00     0.167 HD
ATOM     83  N   UNL     1       1.005  -5.605   2.554  1.00  0.00    -0.240 NA
BRANCH  76  84
ATOM     84  C   UNL     1       2.904  -2.403  -1.174  1.00  0.00     0.224 C 
ATOM     85  O   UNL     1       3.261  -2.888  -2.309  1.00  0.00    -0.275 OA
BRANCH  84  86
ATOM     86  C   UNL     1       2.181  -0.808  -1.781  1.00  0.00     0.107 C 
BRANCH  86  87
ATOM     87  C   UNL     1       0.776   0.021  -1.655  1.00  0.00    -0.020 C 
ATOM     88  C   UNL     1      -0.191  -0.003  -0.402  1.00  0.00     0.011 C 
ATOM     89  C   UNL     1      -0.058  -0.418  -2.884  1.00  0.00     0.011 C 
ATOM     90  C   UNL     1       1.086   1.544  -1.835  1.00  0.00     0.011 C 
ATOM     91  C   UNL     1      -1.482   0.787  -0.544  1.00  0.00    -0.010 C 
ATOM     92  C   UNL     1      -1.357   0.378  -3.004  1.00  0.00    -0.010 C 
ATOM     93  C   UNL     1      -0.211   2.381  -1.960  1.00  0.00    -0.010 C 
ATOM     94  C   UNL     1      -1.090   2.246  -0.710  1.00  0.00     0.007 C 
ATOM     95  C   UNL     1      -2.201   0.170  -1.745  1.00  0.00     0.007 C 
ATOM     96  C   UNL     1      -1.025   1.872  -3.159  1.00  0.00     0.007 C 
ENDBRANCH  86  87
ENDBRANCH  84  86
ENDBRANCH  76  84
ENDBRANCH  72  74
ENDBRANCH  71  72
ENDBRANCH   1  71
TORSDOF 14
