REMARK SMILES O=C(OCCOC(=O)c1c[nH]c(=O)c(-c2cccc([N+](=O)[O-])c2)c1)c1ccc(-c2c3nc(c(-c4c(F)c(F)c(F)c(F)c4F)c4ccc([nH]4)c(-c4c(F)c(F)c(F)c(F)c4F)c4nc(c(-c5c(F)c(F)c(F)c(F)c5F)c5ccc2[nH]5)C=C4)C=C3)cc1
REMARK SMILES IDX 4 1 3 2 2 3 1 4 25 5 26 6 87 7 27 8 86 9 28 10 29 11 30 12
REMARK SMILES IDX 80 13 31 14 85 15 79 16 81 17 32 18 84 19 78 20 77 21 33 23
REMARK SMILES IDX 65 24 45 25 64 26 46 27 49 28 63 29 82 30 47 31 48 32 62 34
REMARK SMILES IDX 83 35 50 36 34 37 35 38 43 39 36 40 37 41 41 42 44 43 38 44
REMARK SMILES IDX 39 45 42 46 40 47 66 48 67 49 75 50 68 51 69 52 73 53 76 54
REMARK SMILES IDX 70 55 71 56 74 57 72 58 51 59 52 60 60 61 53 62 54 63 58 64
REMARK SMILES IDX 61 65 55 66 56 67 59 68 57 69 5 70 6 71 7 72 8 73 9 74 10 75
REMARK SMILES IDX 24 76 11 77 14 78 12 79 13 81 15 82 16 83 23 84 17 85 19 86
REMARK SMILES IDX 18 87 20 88 21 89 22 90
REMARK H PARENT 81 22 49 33 11 80
REMARK Flexibility Score: inf
ROOT
ATOM      1  C   UNL     1       4.218   1.345   0.843  1.00  0.00     0.275 C 
ENDROOT
BRANCH   1   2
ATOM      2  O   UNL     1       3.243   1.090  -0.185  1.00  0.00    -0.458 OA
BRANCH   2   3
ATOM      3  C   UNL     1       3.174   0.095  -1.100  1.00  0.00     0.338 C 
ATOM      4  O   UNL     1       2.360   0.191  -2.017  1.00  0.00    -0.246 OA
BRANCH   3   5
ATOM      5  C   UNL     1       3.922  -1.197  -0.978  1.00  0.00     0.060 A 
ATOM      6  C   UNL     1       5.199  -1.360  -0.437  1.00  0.00     0.016 A 
ATOM      7  C   UNL     1       3.280  -2.336  -1.501  1.00  0.00     0.016 A 
ATOM      8  C   UNL     1       5.804  -2.623  -0.378  1.00  0.00     0.010 A 
ATOM      9  C   UNL     1       3.874  -3.600  -1.439  1.00  0.00     0.010 A 
ATOM     10  C   UNL     1       5.154  -3.749  -0.890  1.00  0.00    -0.014 A 
BRANCH  10  11
ATOM     11  C   UNL     1       5.899  -5.019  -1.079  1.00  0.00     0.031 A 
ATOM     12  C   UNL     1       6.372  -5.329  -2.480  1.00  0.00     0.074 A 
ATOM     13  C   UNL     1       6.188  -5.833  -0.043  1.00  0.00     0.049 A 
ATOM     14  N   UNL     1       7.004  -6.378  -2.934  1.00  0.00    -0.248 NA
ATOM     15  C   UNL     1       6.127  -4.295  -3.506  1.00  0.00     0.031 C 
ATOM     16  C   UNL     1       5.882  -5.568   1.365  1.00  0.00     0.029 A 
ATOM     17  N   UNL     1       6.785  -7.071  -0.013  1.00  0.00    -0.354 N 
ATOM     18  C   UNL     1       7.261  -6.112  -4.274  1.00  0.00     0.074 A 
ATOM     19  C   UNL     1       6.659  -4.840  -4.588  1.00  0.00     0.031 C 
ATOM     20  C   UNL     1       6.242  -6.633   2.108  1.00  0.00     0.029 A 
ATOM     21  C   UNL     1       6.780  -7.666   1.231  1.00  0.00     0.049 A 
ATOM     22  H   UNL     1       7.181  -7.494  -0.809  1.00  0.00     0.167 HD
ATOM     23  C   UNL     1       7.982  -6.850  -5.149  1.00  0.00     0.037 A 
ATOM     24  C   UNL     1       7.120  -8.923   1.584  1.00  0.00     0.037 A 
ATOM     25  C   UNL     1       8.552  -8.125  -4.813  1.00  0.00     0.049 A 
ATOM     26  C   UNL     1       7.673  -9.824   0.514  1.00  0.00     0.074 A 
ATOM     27  C   UNL     1       9.357  -8.948  -5.576  1.00  0.00     0.029 A 
ATOM     28  N   UNL     1       8.345  -8.769  -3.600  1.00  0.00    -0.354 N 
ATOM     29  N   UNL     1       7.906  -9.563  -0.749  1.00  0.00    -0.248 NA
ATOM     30  C   UNL     1       8.045 -11.182   0.932  1.00  0.00     0.031 C 
ATOM     31  C   UNL     1       9.604 -10.111  -4.840  1.00  0.00     0.029 A 
ATOM     32  C   UNL     1       8.992  -9.990  -3.602  1.00  0.00     0.049 A 
ATOM     33  H   UNL     1       7.816  -8.409  -2.852  1.00  0.00     0.167 HD
ATOM     34  C   UNL     1       8.487 -10.707  -1.270  1.00  0.00     0.074 A 
ATOM     35  C   UNL     1       8.538 -11.676  -0.193  1.00  0.00     0.031 C 
ATOM     36  C   UNL     1       8.986 -10.927  -2.511  1.00  0.00     0.037 A 
BRANCH  23  37
ATOM     37  C   UNL     1       8.218  -6.290  -6.522  1.00  0.00     0.064 A 
ATOM     38  C   UNL     1       9.068  -5.190  -6.723  1.00  0.00     0.173 A 
ATOM     39  C   UNL     1       7.639  -6.882  -7.654  1.00  0.00     0.173 A 
ATOM     40  F   UNL     1       9.639  -4.577  -5.675  1.00  0.00    -0.203 F 
ATOM     41  C   UNL     1       9.318  -4.697  -8.002  1.00  0.00     0.198 A 
ATOM     42  C   UNL     1       7.909  -6.400  -8.934  1.00  0.00     0.198 A 
ATOM     43  F   UNL     1       6.819  -7.935  -7.521  1.00  0.00    -0.203 F 
ATOM     44  F   UNL     1      10.109  -3.627  -8.164  1.00  0.00    -0.200 F 
ATOM     45  C   UNL     1       8.745  -5.308  -9.107  1.00  0.00     0.200 A 
ATOM     46  F   UNL     1       7.361  -6.997 -10.002  1.00  0.00    -0.200 F 
ATOM     47  F   UNL     1       8.996  -4.841 -10.338  1.00  0.00    -0.200 F 
ENDBRANCH  23  37
BRANCH  24  48
ATOM     48  C   UNL     1       6.907  -9.459   2.959  1.00  0.00     0.064 A 
ATOM     49  C   UNL     1       7.779  -9.194   4.019  1.00  0.00     0.173 A 
ATOM     50  C   UNL     1       5.845 -10.340   3.218  1.00  0.00     0.173 A 
ATOM     51  F   UNL     1       8.862  -8.429   3.818  1.00  0.00    -0.203 F 
ATOM     52  C   UNL     1       7.567  -9.748   5.286  1.00  0.00     0.198 A 
ATOM     53  C   UNL     1       5.606 -10.860   4.488  1.00  0.00     0.198 A 
ATOM     54  F   UNL     1       5.060 -10.747   2.215  1.00  0.00    -0.203 F 
ATOM     55  F   UNL     1       8.438  -9.506   6.275  1.00  0.00    -0.200 F 
ATOM     56  C   UNL     1       6.468 -10.562   5.525  1.00  0.00     0.200 A 
ATOM     57  F   UNL     1       4.550 -11.659   4.696  1.00  0.00    -0.200 F 
ATOM     58  F   UNL     1       6.255 -11.075   6.744  1.00  0.00    -0.200 F 
ENDBRANCH  24  48
BRANCH  36  59
ATOM     59  C   UNL     1       9.685 -12.232  -2.714  1.00  0.00     0.064 A 
ATOM     60  C   UNL     1       8.983 -13.433  -2.863  1.00  0.00     0.173 A 
ATOM     61  C   UNL     1      11.088 -12.269  -2.735  1.00  0.00     0.173 A 
ATOM     62  F   UNL     1       7.642 -13.443  -2.816  1.00  0.00    -0.203 F 
ATOM     63  C   UNL     1       9.664 -14.638  -2.998  1.00  0.00     0.198 A 
ATOM     64  C   UNL     1      11.764 -13.471  -2.900  1.00  0.00     0.198 A 
ATOM     65  F   UNL     1      11.798 -11.140  -2.589  1.00  0.00    -0.203 F 
ATOM     66  F   UNL     1       8.980 -15.787  -3.076  1.00  0.00    -0.200 F 
ATOM     67  C   UNL     1      11.052 -14.655  -3.021  1.00  0.00     0.200 A 
ATOM     68  F   UNL     1      13.103 -13.485  -2.925  1.00  0.00    -0.200 F 
ATOM     69  F   UNL     1      11.706 -15.818  -3.142  1.00  0.00    -0.200 F 
ENDBRANCH  36  59
ENDBRANCH  10  11
ENDBRANCH   3   5
ENDBRANCH   2   3
ENDBRANCH   1   2
BRANCH   1  70
ATOM     70  C   UNL     1       3.977   0.613   2.167  1.00  0.00     0.275 C 
BRANCH  70  71
ATOM     71  O   UNL     1       3.351  -0.661   1.991  1.00  0.00    -0.458 OA
BRANCH  71  72
ATOM     72  C   UNL     1       1.990  -0.629   2.002  1.00  0.00     0.339 C 
ATOM     73  O   UNL     1       1.290   0.330   2.283  1.00  0.00    -0.246 OA
BRANCH  72  74
ATOM     74  C   UNL     1       1.478  -1.912   1.470  1.00  0.00     0.077 A 
ATOM     75  C   UNL     1       0.513  -1.845   0.541  1.00  0.00     0.101 A 
ATOM     76  C   UNL     1       2.039  -3.196   1.835  1.00  0.00     0.031 A 
ATOM     77  N   UNL     1       0.066  -2.987  -0.072  1.00  0.00    -0.328 N 
ATOM     78  C   UNL     1       1.611  -4.340   1.265  1.00  0.00     0.048 A 
ATOM     79  C   UNL     1       0.538  -4.248   0.204  1.00  0.00     0.255 A 
ATOM     80  H   UNL     1      -0.638  -2.898  -0.754  1.00  0.00     0.169 HD
ATOM     81  O   UNL     1       0.113  -5.228  -0.398  1.00  0.00    -0.269 OA
BRANCH  78  82
ATOM     82  C   UNL     1       2.201  -5.639   1.638  1.00  0.00    -0.006 A 
ATOM     83  C   UNL     1       2.376  -5.997   2.986  1.00  0.00     0.009 A 
ATOM     84  C   UNL     1       2.566  -6.552   0.640  1.00  0.00     0.094 A 
ATOM     85  C   UNL     1       2.860  -7.259   3.333  1.00  0.00     0.008 A 
ATOM     86  C   UNL     1       3.057  -7.811   0.988  1.00  0.00     0.270 A 
ATOM     87  C   UNL     1       3.170  -8.178   2.333  1.00  0.00     0.085 A 
BRANCH  86  88
ATOM     88  N   UNL     1       3.467  -8.734  -0.074  1.00  0.00     0.062 N 
ATOM     89  O   UNL     1       3.551  -9.936   0.212  1.00  0.00    -0.258 OA
ATOM     90  O   UNL     1       3.699  -8.256  -1.193  1.00  0.00    -0.258 OA
ENDBRANCH  86  88
ENDBRANCH  78  82
ENDBRANCH  72  74
ENDBRANCH  71  72
ENDBRANCH  70  71
ENDBRANCH   1  70
TORSDOF 13
