REMARK SMILES Cc1cccc(CS[C@@H]2CC[C@]([NH3+])(C(=O)OCCOC(=O)c3ccc(-c4c5nc(c(-c6c(F)c(F)c(F)c(F)c6F)c6ccc([nH]6)c(-c6c(F)c(F)c(F)c(F)c6F)c6nc(c(-c7c(F)c(F)c(F)c(F)c7F)c7ccc4[nH]7)C=C6)C=C5)cc3)C2)c1
REMARK SMILES IDX 17 1 16 2 14 3 15 4 12 5 9 6 10 7 85 8 11 9 8 10 7 11 6 12
REMARK SMILES IDX 1 13 2 14 3 15 86 16 4 17 5 18 13 19 18 23 19 24 20 25 21 26
REMARK SMILES IDX 22 27 23 28 84 29 24 30 83 31 25 32 26 33 27 34 77 35 28 36
REMARK SMILES IDX 82 37 76 38 78 39 29 40 81 41 75 42 74 43 30 45 62 46 42 47
REMARK SMILES IDX 61 48 43 49 46 50 60 51 79 52 44 53 45 54 59 56 80 57 47 58
REMARK SMILES IDX 31 59 32 60 40 61 33 62 34 63 38 64 41 65 35 66 36 67 39 68
REMARK SMILES IDX 37 69 63 70 64 71 72 72 65 73 66 74 70 75 73 76 67 77 68 78
REMARK SMILES IDX 71 79 69 80 48 81 49 82 57 83 50 84 51 85 55 86 58 87 52 88
REMARK SMILES IDX 53 89 56 90 54 91
REMARK H PARENT 13 20 13 21 13 22 78 44 46 55
REMARK Flexibility Score: inf
ROOT
ATOM      1  C   UNL     1       3.115   2.814  -5.975  1.00  0.00     0.274 C 
ENDROOT
BRANCH   1   2
ATOM      2  O   UNL     1       1.899   2.733  -5.219  1.00  0.00    -0.457 OA
BRANCH   2   3
ATOM      3  C   UNL     1       0.775   3.118  -5.863  1.00  0.00     0.368 C 
ATOM      4  O   UNL     1       0.776   3.817  -6.874  1.00  0.00    -0.245 OA
BRANCH   3   5
ATOM      5  C   UNL     1      -0.527   2.458  -5.328  1.00  0.00     0.193 C 
ATOM      6  C   UNL     1      -2.320   2.125  -3.798  1.00  0.00     0.054 C 
ATOM      7  C   UNL     1      -1.432   0.895  -3.626  1.00  0.00     0.022 C 
ATOM      8  C   UNL     1      -1.307   3.204  -4.218  1.00  0.00     0.095 C 
ATOM      9  C   UNL     1      -0.331   1.058  -4.696  1.00  0.00     0.082 C 
BRANCH   6  10
ATOM     10  S   UNL     1      -3.627   2.505  -2.588  1.00  0.00    -0.154 SA
BRANCH  10  11
ATOM     11  C   UNL     1      -2.762   2.829  -1.041  1.00  0.00     0.105 C 
BRANCH  11  12
ATOM     12  C   UNL     1      -2.067   1.663  -0.399  1.00  0.00    -0.038 A 
ATOM     13  C   UNL     1       1.038   1.301   1.695  1.00  0.00     0.044 C 
ATOM     14  C   UNL     1      -0.166   0.923   0.910  1.00  0.00    -0.051 A 
ATOM     15  C   UNL     1      -0.615  -0.398   0.840  1.00  0.00     0.003 A 
ATOM     16  C   UNL     1      -0.895   1.940   0.303  1.00  0.00     0.008 A 
ATOM     17  C   UNL     1      -1.813  -0.684   0.192  1.00  0.00     0.001 A 
ATOM     18  C   UNL     1      -2.548   0.345  -0.403  1.00  0.00     0.004 A 
ENDBRANCH  11  12
ENDBRANCH  10  11
ENDBRANCH   6  10
BRANCH   5  19
ATOM     19  N   UNL     1      -1.410   2.302  -6.533  1.00  0.00    -0.343 N 
ATOM     20  H   UNL     1      -2.292   1.871  -6.255  1.00  0.00     0.345 HD
ATOM     21  H   UNL     1      -0.945   1.711  -7.221  1.00  0.00     0.345 HD
ATOM     22  H   UNL     1      -1.594   3.219  -6.941  1.00  0.00     0.345 HD
ENDBRANCH   5  19
ENDBRANCH   3   5
ENDBRANCH   2   3
ENDBRANCH   1   2
BRANCH   1  23
ATOM     23  C   UNL     1       3.651   4.183  -6.455  1.00  0.00     0.275 C 
BRANCH  23  24
ATOM     24  O   UNL     1       2.948   5.413  -6.144  1.00  0.00    -0.458 OA
BRANCH  24  25
ATOM     25  C   UNL     1       2.654   5.938  -4.932  1.00  0.00     0.338 C 
ATOM     26  O   UNL     1       2.068   7.001  -4.778  1.00  0.00    -0.246 OA
BRANCH  25  27
ATOM     27  C   UNL     1       2.971   5.096  -3.778  1.00  0.00     0.060 A 
ATOM     28  C   UNL     1       1.921   4.644  -2.967  1.00  0.00     0.016 A 
ATOM     29  C   UNL     1       4.271   4.635  -3.616  1.00  0.00     0.016 A 
ATOM     30  C   UNL     1       2.151   3.602  -2.070  1.00  0.00     0.010 A 
ATOM     31  C   UNL     1       4.481   3.552  -2.791  1.00  0.00     0.010 A 
ATOM     32  C   UNL     1       3.429   3.036  -2.008  1.00  0.00    -0.014 A 
BRANCH  32  33
ATOM     33  C   UNL     1       3.875   2.189  -0.904  1.00  0.00     0.031 A 
ATOM     34  C   UNL     1       3.595   0.745  -0.733  1.00  0.00     0.074 A 
ATOM     35  C   UNL     1       4.558   2.895   0.024  1.00  0.00     0.049 A 
ATOM     36  N   UNL     1       3.880   0.108   0.355  1.00  0.00    -0.248 NA
ATOM     37  C   UNL     1       2.919  -0.103  -1.715  1.00  0.00     0.031 C 
ATOM     38  C   UNL     1       5.337   2.438   1.158  1.00  0.00     0.029 A 
ATOM     39  N   UNL     1       4.485   4.290   0.183  1.00  0.00    -0.354 N 
ATOM     40  C   UNL     1       3.454  -1.192   0.245  1.00  0.00     0.074 A 
ATOM     41  C   UNL     1       2.924  -1.299  -1.097  1.00  0.00     0.031 C 
ATOM     42  C   UNL     1       5.455   3.456   2.028  1.00  0.00     0.029 A 
ATOM     43  C   UNL     1       4.617   4.544   1.547  1.00  0.00     0.049 A 
ATOM     44  H   UNL     1       4.363   4.957  -0.530  1.00  0.00     0.167 HD
ATOM     45  C   UNL     1       3.583  -2.030   1.313  1.00  0.00     0.037 A 
ATOM     46  C   UNL     1       3.595   5.126   2.232  1.00  0.00     0.037 A 
ATOM     47  C   UNL     1       3.937  -1.316   2.534  1.00  0.00     0.049 A 
ATOM     48  C   UNL     1       3.113   4.268   3.373  1.00  0.00     0.074 A 
ATOM     49  C   UNL     1       5.132  -0.804   3.006  1.00  0.00     0.029 A 
ATOM     50  N   UNL     1       2.935  -0.755   3.315  1.00  0.00    -0.354 N 
ATOM     51  N   UNL     1       3.238   2.969   3.419  1.00  0.00    -0.248 NA
ATOM     52  C   UNL     1       2.452   4.819   4.547  1.00  0.00     0.031 C 
ATOM     53  C   UNL     1       4.821   0.214   3.946  1.00  0.00     0.029 A 
ATOM     54  C   UNL     1       3.443   0.282   4.086  1.00  0.00     0.049 A 
ATOM     55  H   UNL     1       1.996  -1.051   3.321  1.00  0.00     0.167 HD
ATOM     56  C   UNL     1       2.677   2.504   4.579  1.00  0.00     0.074 A 
ATOM     57  C   UNL     1       2.235   3.706   5.265  1.00  0.00     0.031 C 
ATOM     58  C   UNL     1       2.573   1.168   4.861  1.00  0.00     0.037 A 
BRANCH  45  59
ATOM     59  C   UNL     1       3.538  -3.525   1.230  1.00  0.00     0.064 A 
ATOM     60  C   UNL     1       4.521  -4.278   1.911  1.00  0.00     0.173 A 
ATOM     61  C   UNL     1       2.611  -4.262   0.479  1.00  0.00     0.173 A 
ATOM     62  F   UNL     1       5.453  -3.674   2.662  1.00  0.00    -0.203 F 
ATOM     63  C   UNL     1       4.595  -5.668   1.812  1.00  0.00     0.198 A 
ATOM     64  C   UNL     1       2.710  -5.653   0.350  1.00  0.00     0.198 A 
ATOM     65  F   UNL     1       1.581  -3.654  -0.126  1.00  0.00    -0.203 F 
ATOM     66  F   UNL     1       5.549  -6.335   2.477  1.00  0.00    -0.200 F 
ATOM     67  C   UNL     1       3.703  -6.354   1.013  1.00  0.00     0.200 A 
ATOM     68  F   UNL     1       1.840  -6.314  -0.427  1.00  0.00    -0.200 F 
ATOM     69  F   UNL     1       3.798  -7.685   0.884  1.00  0.00    -0.200 F 
ENDBRANCH  45  59
BRANCH  46  70
ATOM     70  C   UNL     1       2.740   6.054   1.427  1.00  0.00     0.064 A 
ATOM     71  C   UNL     1       3.351   7.138   0.759  1.00  0.00     0.173 A 
ATOM     72  C   UNL     1       1.414   5.768   1.079  1.00  0.00     0.173 A 
ATOM     73  F   UNL     1       4.624   7.463   1.039  1.00  0.00    -0.203 F 
ATOM     74  C   UNL     1       2.701   7.843  -0.254  1.00  0.00     0.198 A 
ATOM     75  C   UNL     1       0.758   6.484   0.069  1.00  0.00     0.198 A 
ATOM     76  F   UNL     1       0.762   4.752   1.661  1.00  0.00    -0.203 F 
ATOM     77  F   UNL     1       3.351   8.811  -0.917  1.00  0.00    -0.200 F 
ATOM     78  C   UNL     1       1.407   7.506  -0.608  1.00  0.00     0.200 A 
ATOM     79  F   UNL     1      -0.487   6.139  -0.291  1.00  0.00    -0.200 F 
ATOM     80  F   UNL     1       0.794   8.146  -1.614  1.00  0.00    -0.200 F 
ENDBRANCH  46  70
BRANCH  58  81
ATOM     81  C   UNL     1       1.678   0.616   5.943  1.00  0.00     0.064 A 
ATOM     82  C   UNL     1       0.509   1.260   6.393  1.00  0.00     0.173 A 
ATOM     83  C   UNL     1       1.913  -0.662   6.493  1.00  0.00     0.173 A 
ATOM     84  F   UNL     1       0.069   2.389   5.822  1.00  0.00    -0.203 F 
ATOM     85  C   UNL     1      -0.286   0.732   7.411  1.00  0.00     0.198 A 
ATOM     86  C   UNL     1       1.074  -1.222   7.457  1.00  0.00     0.198 A 
ATOM     87  F   UNL     1       2.945  -1.417   6.088  1.00  0.00    -0.203 F 
ATOM     88  F   UNL     1      -1.341   1.428   7.857  1.00  0.00    -0.200 F 
ATOM     89  C   UNL     1      -0.006  -0.511   7.941  1.00  0.00     0.200 A 
ATOM     90  F   UNL     1       1.311  -2.464   7.903  1.00  0.00    -0.200 F 
ATOM     91  F   UNL     1      -0.791  -1.034   8.891  1.00  0.00    -0.200 F 
ENDBRANCH  58  81
ENDBRANCH  32  33
ENDBRANCH  25  27
ENDBRANCH  24  25
ENDBRANCH  23  24
ENDBRANCH   1  23
TORSDOF 15
