REMARK SMILES C[NH+](C)[C@H]1COC[C@]1(C)C(=O)OCCOC(=O)c1ccc(-c2c3nc(c(-c4c(F)c(F)c(F)c(F)c4F)c4ccc([nH]4)c(-c4c(F)c(F)c(F)c(F)c4F)c4nc(c(-c5c(F)c(F)c(F)c(F)c5F)c5ccc2[nH]5)C=C4)C=C3)cc1
REMARK SMILES IDX 14 1 13 2 12 3 10 4 11 5 8 6 4 7 5 8 6 9 7 10 9 11 2 12 1 13
REMARK SMILES IDX 3 14 15 16 16 17 17 18 18 19 19 20 80 21 20 22 79 23 21 24
REMARK SMILES IDX 22 25 23 26 73 27 24 28 78 29 72 30 74 31 25 32 77 33 71 34
REMARK SMILES IDX 70 35 26 37 58 38 38 39 57 40 39 41 42 42 56 43 75 44 40 45
REMARK SMILES IDX 41 46 55 48 76 49 43 50 27 51 28 52 36 53 29 54 30 55 34 56
REMARK SMILES IDX 37 57 31 58 32 59 35 60 33 61 59 62 60 63 68 64 61 65 62 66
REMARK SMILES IDX 66 67 69 68 63 69 64 70 67 71 65 72 44 73 45 74 53 75 46 76
REMARK SMILES IDX 47 77 51 78 54 79 48 80 49 81 52 82 50 83
REMARK H PARENT 2 15 74 36 42 47
REMARK Flexibility Score: inf
ROOT
ATOM      1  C   UNL     1      -2.715   3.248  -1.542  1.00  0.00     0.275 C 
ENDROOT
BRANCH   1   2
ATOM      2  C   UNL     1      -1.415   3.633  -2.243  1.00  0.00     0.274 C 
BRANCH   2   3
ATOM      3  O   UNL     1      -0.271   3.300  -1.426  1.00  0.00    -0.461 OA
BRANCH   3   4
ATOM      4  C   UNL     1       0.243   4.311  -0.672  1.00  0.00     0.320 C 
ATOM      5  O   UNL     1      -0.207   5.452  -0.664  1.00  0.00    -0.251 OA
BRANCH   4   6
ATOM      6  C   UNL     1       1.540   3.913   0.048  1.00  0.00     0.142 C 
ATOM      7  C   UNL     1       1.524   2.447   0.537  1.00  0.00     0.229 C 
ATOM      8  C   UNL     1       0.775   2.591   1.876  1.00  0.00     0.226 C 
ATOM      9  O   UNL     1       1.017   3.905   2.390  1.00  0.00    -0.374 OA
ATOM     10  C   UNL     1       1.608   4.705   1.355  1.00  0.00     0.185 C 
ATOM     11  C   UNL     1       2.643   4.325  -0.929  1.00  0.00     0.033 C 
BRANCH   7  12
ATOM     12  N   UNL     1       2.756   1.664   0.790  1.00  0.00    -0.334 N 
ATOM     13  C   UNL     1       3.939   2.345   1.283  1.00  0.00     0.332 C 
ATOM     14  C   UNL     1       3.071   0.733  -0.286  1.00  0.00     0.332 C 
ATOM     15  H   UNL     1       2.465   1.143   1.618  1.00  0.00     0.347 HD
ENDBRANCH   7  12
ENDBRANCH   4   6
ENDBRANCH   3   4
ENDBRANCH   2   3
ENDBRANCH   1   2
BRANCH   1  16
ATOM     16  O   UNL     1      -2.831   4.007  -0.328  1.00  0.00    -0.458 OA
BRANCH  16  17
ATOM     17  C   UNL     1      -3.416   3.376   0.711  1.00  0.00     0.338 C 
ATOM     18  O   UNL     1      -3.940   2.269   0.702  1.00  0.00    -0.246 OA
BRANCH  17  19
ATOM     19  C   UNL     1      -3.323   4.221   1.915  1.00  0.00     0.060 A 
ATOM     20  C   UNL     1      -2.123   4.856   2.235  1.00  0.00     0.016 A 
ATOM     21  C   UNL     1      -4.404   4.300   2.793  1.00  0.00     0.016 A 
ATOM     22  C   UNL     1      -1.967   5.499   3.460  1.00  0.00     0.010 A 
ATOM     23  C   UNL     1      -4.275   5.020   3.985  1.00  0.00     0.010 A 
ATOM     24  C   UNL     1      -3.042   5.593   4.350  1.00  0.00    -0.014 A 
BRANCH  24  25
ATOM     25  C   UNL     1      -2.858   6.211   5.691  1.00  0.00     0.031 A 
ATOM     26  C   UNL     1      -3.074   5.385   6.929  1.00  0.00     0.074 A 
ATOM     27  C   UNL     1      -2.483   7.499   5.813  1.00  0.00     0.049 A 
ATOM     28  N   UNL     1      -3.153   5.764   8.180  1.00  0.00    -0.248 NA
ATOM     29  C   UNL     1      -3.244   3.937   6.729  1.00  0.00     0.031 C 
ATOM     30  C   UNL     1      -2.193   8.407   4.704  1.00  0.00     0.029 A 
ATOM     31  N   UNL     1      -2.281   8.267   6.934  1.00  0.00    -0.354 N 
ATOM     32  C   UNL     1      -3.454   4.618   8.903  1.00  0.00     0.074 A 
ATOM     33  C   UNL     1      -3.536   3.527   7.955  1.00  0.00     0.031 C 
ATOM     34  C   UNL     1      -1.824   9.599   5.198  1.00  0.00     0.029 A 
ATOM     35  C   UNL     1      -1.922   9.562   6.655  1.00  0.00     0.049 A 
ATOM     36  H   UNL     1      -2.383   7.922   7.851  1.00  0.00     0.167 HD
ATOM     37  C   UNL     1      -3.650   4.489  10.237  1.00  0.00     0.037 A 
ATOM     38  C   UNL     1      -1.730  10.614   7.474  1.00  0.00     0.037 A 
ATOM     39  C   UNL     1      -3.488   5.557  11.189  1.00  0.00     0.049 A 
ATOM     40  C   UNL     1      -1.921  10.443   8.955  1.00  0.00     0.074 A 
ATOM     41  C   UNL     1      -3.634   5.518  12.565  1.00  0.00     0.029 A 
ATOM     42  N   UNL     1      -3.119   6.853  10.862  1.00  0.00    -0.354 N 
ATOM     43  N   UNL     1      -2.270   9.371   9.624  1.00  0.00    -0.248 NA
ATOM     44  C   UNL     1      -1.710  11.632   9.793  1.00  0.00     0.031 C 
ATOM     45  C   UNL     1      -3.376   6.798  13.069  1.00  0.00     0.029 A 
ATOM     46  C   UNL     1      -3.036   7.625  12.011  1.00  0.00     0.049 A 
ATOM     47  H   UNL     1      -2.941   7.177   9.950  1.00  0.00     0.167 HD
ATOM     48  C   UNL     1      -2.321   9.753  10.957  1.00  0.00     0.074 A 
ATOM     49  C   UNL     1      -1.942  11.150  11.006  1.00  0.00     0.031 C 
ATOM     50  C   UNL     1      -2.662   9.015  12.041  1.00  0.00     0.037 A 
BRANCH  37  51
ATOM     51  C   UNL     1      -4.105   3.152  10.741  1.00  0.00     0.064 A 
ATOM     52  C   UNL     1      -3.244   2.048  10.810  1.00  0.00     0.173 A 
ATOM     53  C   UNL     1      -5.429   2.982  11.174  1.00  0.00     0.173 A 
ATOM     54  F   UNL     1      -1.973   2.155  10.394  1.00  0.00    -0.203 F 
ATOM     55  C   UNL     1      -3.700   0.814  11.267  1.00  0.00     0.198 A 
ATOM     56  C   UNL     1      -5.875   1.754  11.654  1.00  0.00     0.198 A 
ATOM     57  F   UNL     1      -6.292   4.008  11.132  1.00  0.00    -0.203 F 
ATOM     58  F   UNL     1      -2.874  -0.242  11.278  1.00  0.00    -0.200 F 
ATOM     59  C   UNL     1      -5.013   0.669  11.693  1.00  0.00     0.200 A 
ATOM     60  F   UNL     1      -7.140   1.619  12.075  1.00  0.00    -0.200 F 
ATOM     61  F   UNL     1      -5.449  -0.520  12.132  1.00  0.00    -0.200 F 
ENDBRANCH  37  51
BRANCH  38  62
ATOM     62  C   UNL     1      -1.366  11.932   6.895  1.00  0.00     0.064 A 
ATOM     63  C   UNL     1      -0.079  12.461   7.055  1.00  0.00     0.173 A 
ATOM     64  C   UNL     1      -2.291  12.674   6.145  1.00  0.00     0.173 A 
ATOM     65  F   UNL     1       0.830  11.800   7.787  1.00  0.00    -0.203 F 
ATOM     66  C   UNL     1       0.270  13.683   6.485  1.00  0.00     0.198 A 
ATOM     67  C   UNL     1      -1.933  13.882   5.554  1.00  0.00     0.198 A 
ATOM     68  F   UNL     1      -3.537  12.209   5.966  1.00  0.00    -0.203 F 
ATOM     69  F   UNL     1       1.499  14.182   6.675  1.00  0.00    -0.200 F 
ATOM     70  C   UNL     1      -0.654  14.388   5.727  1.00  0.00     0.200 A 
ATOM     71  F   UNL     1      -2.825  14.553   4.812  1.00  0.00    -0.200 F 
ATOM     72  F   UNL     1      -0.312  15.556   5.166  1.00  0.00    -0.200 F 
ENDBRANCH  38  62
BRANCH  50  73
ATOM     73  C   UNL     1      -2.633   9.702  13.372  1.00  0.00     0.064 A 
ATOM     74  C   UNL     1      -3.640  10.602  13.751  1.00  0.00     0.173 A 
ATOM     75  C   UNL     1      -1.610   9.431  14.292  1.00  0.00     0.173 A 
ATOM     76  F   UNL     1      -4.630  10.904  12.898  1.00  0.00    -0.203 F 
ATOM     77  C   UNL     1      -3.613  11.220  14.998  1.00  0.00     0.198 A 
ATOM     78  C   UNL     1      -1.598  10.035  15.546  1.00  0.00     0.198 A 
ATOM     79  F   UNL     1      -0.627   8.574  13.977  1.00  0.00    -0.203 F 
ATOM     80  F   UNL     1      -4.566  12.104  15.326  1.00  0.00    -0.200 F 
ATOM     81  C   UNL     1      -2.596  10.932  15.896  1.00  0.00     0.200 A 
ATOM     82  F   UNL     1      -0.619   9.751  16.416  1.00  0.00    -0.200 F 
ATOM     83  F   UNL     1      -2.574  11.526  17.097  1.00  0.00    -0.200 F 
ENDBRANCH  50  73
ENDBRANCH  24  25
ENDBRANCH  17  19
ENDBRANCH  16  17
ENDBRANCH   1  16
TORSDOF 12
