REMARK SMILES Cc1c(NC(=O)c2ccc(-c3cccc(Cl)c3)o2)cccc1C(=O)OCCOC(=O)c1ccc(-c2c3nc(c(-c4c(F)c(F)c(F)c(F)c4F)c4ccc([nH]4)c(-c4c(F)c(F)c(F)c(F)c4F)c4nc(c(-c5c(F)c(F)c(F)c(F)c5F)c5ccc2[nH]5)C=C4)C=C3)cc1
REMARK SMILES IDX 26 1 25 2 23 3 24 4 22 5 1 6 2 7 3 8 19 9 21 10 20 11 4 12
REMARK SMILES IDX 5 13 6 15 7 16 8 17 18 18 9 19 10 20 11 21 12 22 17 23 13 24
REMARK SMILES IDX 15 25 14 26 16 27 27 28 28 29 29 30 30 31 31 32 32 33 93 34
REMARK SMILES IDX 33 35 92 36 34 37 35 38 36 39 86 40 37 41 91 42 85 43 87 44
REMARK SMILES IDX 38 45 90 46 84 47 83 48 39 50 71 51 51 52 70 53 52 54 55 55
REMARK SMILES IDX 69 56 88 57 53 58 54 59 68 61 89 62 56 63 40 64 41 65 49 66
REMARK SMILES IDX 42 67 43 68 47 69 50 70 44 71 45 72 48 73 46 74 72 75 73 76
REMARK SMILES IDX 81 77 74 78 75 79 79 80 82 81 76 82 77 83 80 84 78 85 57 86
REMARK SMILES IDX 58 87 66 88 59 89 60 90 64 91 67 92 61 93 62 94 65 95 63 96
REMARK H PARENT 4 14 87 49 55 60
REMARK Flexibility Score: inf
ROOT
ATOM      1  C   UNL     1       3.267   2.974  -2.194  1.00  0.00     0.275 C 
ENDROOT
BRANCH   1   2
ATOM      2  O   UNL     1       2.179   2.038  -2.149  1.00  0.00    -0.458 OA
BRANCH   2   3
ATOM      3  C   UNL     1       2.231   1.272  -1.029  1.00  0.00     0.338 C 
ATOM      4  O   UNL     1       3.064   1.384  -0.139  1.00  0.00    -0.246 OA
BRANCH   3   5
ATOM      5  C   UNL     1       1.175   0.243  -0.928  1.00  0.00     0.065 A 
ATOM      6  C   UNL     1       2.948  -1.522  -0.469  1.00  0.00     0.047 C 
ATOM      7  C   UNL     1       1.515  -1.048  -0.467  1.00  0.00    -0.013 A 
ATOM      8  C   UNL     1       0.475  -1.913  -0.072  1.00  0.00     0.045 A 
ATOM      9  C   UNL     1      -0.818  -1.398   0.060  1.00  0.00     0.026 A 
ATOM     10  C   UNL     1      -0.166   0.623  -1.054  1.00  0.00     0.016 A 
ATOM     11  C   UNL     1      -1.156  -0.165  -0.485  1.00  0.00     0.003 A 
BRANCH   8  12
ATOM     12  N   UNL     1       0.779  -3.268   0.173  1.00  0.00    -0.319 N 
ATOM     13  C   UNL     1      -0.013  -4.399   0.216  1.00  0.00     0.291 C 
ATOM     14  H   UNL     1       1.733  -3.440   0.345  1.00  0.00     0.170 HD
ATOM     15  O   UNL     1       0.535  -5.453   0.545  1.00  0.00    -0.265 OA
BRANCH  13  16
ATOM     16  C   UNL     1      -1.401  -4.328  -0.171  1.00  0.00     0.192 A 
ATOM     17  C   UNL     1      -2.042  -3.826  -1.292  1.00  0.00     0.057 A 
ATOM     18  O   UNL     1      -2.332  -4.782   0.720  1.00  0.00    -0.451 OA
ATOM     19  C   UNL     1      -3.430  -3.914  -1.036  1.00  0.00     0.052 A 
ATOM     20  C   UNL     1      -3.560  -4.527   0.192  1.00  0.00     0.135 A 
BRANCH  20  21
ATOM     21  C   UNL     1      -4.694  -4.965   0.982  1.00  0.00     0.019 A 
ATOM     22  C   UNL     1      -5.765  -5.607   0.347  1.00  0.00     0.012 A 
ATOM     23  C   UNL     1      -4.737  -4.766   2.368  1.00  0.00     0.032 A 
ATOM     24  C   UNL     1      -6.863  -6.053   1.082  1.00  0.00     0.002 A 
ATOM     25  C   UNL     1      -5.844  -5.201   3.096  1.00  0.00     0.041 A 
ATOM     26  C   UNL     1      -6.904  -5.847   2.460  1.00  0.00     0.020 A 
ATOM     27  Cl  UNL     1      -5.908  -4.937   4.796  1.00  0.00    -0.084 Cl
ENDBRANCH  20  21
ENDBRANCH  13  16
ENDBRANCH   8  12
ENDBRANCH   3   5
ENDBRANCH   2   3
ENDBRANCH   1   2
BRANCH   1  28
ATOM     28  C   UNL     1       2.965   4.272  -2.955  1.00  0.00     0.275 C 
BRANCH  28  29
ATOM     29  O   UNL     1       1.695   4.969  -2.821  1.00  0.00    -0.458 OA
BRANCH  29  30
ATOM     30  C   UNL     1       0.638   4.527  -2.108  1.00  0.00     0.338 C 
ATOM     31  O   UNL     1      -0.469   4.328  -2.598  1.00  0.00    -0.246 OA
BRANCH  30  32
ATOM     32  C   UNL     1       0.882   4.366  -0.665  1.00  0.00     0.060 A 
ATOM     33  C   UNL     1      -0.008   3.590   0.098  1.00  0.00     0.016 A 
ATOM     34  C   UNL     1       2.061   4.854  -0.115  1.00  0.00     0.016 A 
ATOM     35  C   UNL     1       0.342   3.179   1.374  1.00  0.00     0.010 A 
ATOM     36  C   UNL     1       2.480   4.342   1.080  1.00  0.00     0.010 A 
ATOM     37  C   UNL     1       1.595   3.559   1.839  1.00  0.00    -0.014 A 
BRANCH  37  38
ATOM     38  C   UNL     1       1.940   3.558   3.243  1.00  0.00     0.031 A 
ATOM     39  C   UNL     1       2.538   2.380   3.879  1.00  0.00     0.074 A 
ATOM     40  C   UNL     1       1.816   4.814   3.733  1.00  0.00     0.049 A 
ATOM     41  N   UNL     1       2.614   2.224   5.149  1.00  0.00    -0.248 NA
ATOM     42  C   UNL     1       3.065   1.229   3.152  1.00  0.00     0.031 C 
ATOM     43  C   UNL     1       2.327   5.463   4.921  1.00  0.00     0.029 A 
ATOM     44  N   UNL     1       0.993   5.803   3.147  1.00  0.00    -0.354 N 
ATOM     45  C   UNL     1       3.494   1.186   5.396  1.00  0.00     0.074 A 
ATOM     46  C   UNL     1       3.615   0.504   4.136  1.00  0.00     0.031 C 
ATOM     47  C   UNL     1       1.569   6.555   5.162  1.00  0.00     0.029 A 
ATOM     48  C   UNL     1       0.468   6.548   4.199  1.00  0.00     0.049 A 
ATOM     49  H   UNL     1       0.824   5.938   2.187  1.00  0.00     0.167 HD
ATOM     50  C   UNL     1       4.129   1.181   6.605  1.00  0.00     0.037 A 
ATOM     51  C   UNL     1      -0.854   6.353   4.487  1.00  0.00     0.037 A 
ATOM     52  C   UNL     1       3.585   2.274   7.413  1.00  0.00     0.049 A 
ATOM     53  C   UNL     1      -0.965   5.661   5.822  1.00  0.00     0.074 A 
ATOM     54  C   UNL     1       4.012   3.580   7.592  1.00  0.00     0.029 A 
ATOM     55  N   UNL     1       2.243   2.237   7.779  1.00  0.00    -0.354 N 
ATOM     56  N   UNL     1      -0.142   4.737   6.249  1.00  0.00    -0.248 NA
ATOM     57  C   UNL     1      -1.929   6.088   6.824  1.00  0.00     0.031 C 
ATOM     58  C   UNL     1       2.877   4.352   7.965  1.00  0.00     0.029 A 
ATOM     59  C   UNL     1       1.770   3.516   8.011  1.00  0.00     0.049 A 
ATOM     60  H   UNL     1       1.706   1.416   7.862  1.00  0.00     0.167 HD
ATOM     61  C   UNL     1      -0.379   4.527   7.582  1.00  0.00     0.074 A 
ATOM     62  C   UNL     1      -1.522   5.375   7.885  1.00  0.00     0.031 C 
ATOM     63  C   UNL     1       0.385   3.733   8.390  1.00  0.00     0.037 A 
BRANCH  50  64
ATOM     64  C   UNL     1       5.400   0.444   6.993  1.00  0.00     0.064 A 
ATOM     65  C   UNL     1       6.110   0.840   8.155  1.00  0.00     0.173 A 
ATOM     66  C   UNL     1       6.016  -0.596   6.270  1.00  0.00     0.173 A 
ATOM     67  F   UNL     1       5.629   1.778   8.982  1.00  0.00    -0.203 F 
ATOM     68  C   UNL     1       7.346   0.295   8.517  1.00  0.00     0.198 A 
ATOM     69  C   UNL     1       7.257  -1.141   6.633  1.00  0.00     0.198 A 
ATOM     70  F   UNL     1       5.444  -1.150   5.198  1.00  0.00    -0.203 F 
ATOM     71  F   UNL     1       7.973   0.742   9.615  1.00  0.00    -0.200 F 
ATOM     72  C   UNL     1       7.927  -0.689   7.749  1.00  0.00     0.200 A 
ATOM     73  F   UNL     1       7.801  -2.111   5.882  1.00  0.00    -0.200 F 
ATOM     74  F   UNL     1       9.115  -1.206   8.089  1.00  0.00    -0.200 F 
ENDBRANCH  50  64
BRANCH  51  75
ATOM     75  C   UNL     1      -1.723   6.118   3.280  1.00  0.00     0.064 A 
ATOM     76  C   UNL     1      -1.646   7.039   2.205  1.00  0.00     0.173 A 
ATOM     77  C   UNL     1      -2.408   4.924   3.022  1.00  0.00     0.173 A 
ATOM     78  F   UNL     1      -1.020   8.216   2.377  1.00  0.00    -0.203 F 
ATOM     79  C   UNL     1      -2.116   6.737   0.926  1.00  0.00     0.198 A 
ATOM     80  C   UNL     1      -2.907   4.634   1.741  1.00  0.00     0.198 A 
ATOM     81  F   UNL     1      -2.537   3.992   3.977  1.00  0.00    -0.203 F 
ATOM     82  F   UNL     1      -1.904   7.592  -0.086  1.00  0.00    -0.200 F 
ATOM     83  C   UNL     1      -2.736   5.526   0.692  1.00  0.00     0.200 A 
ATOM     84  F   UNL     1      -3.477   3.443   1.498  1.00  0.00    -0.200 F 
ATOM     85  F   UNL     1      -3.121   5.194  -0.549  1.00  0.00    -0.200 F 
ENDBRANCH  51  75
BRANCH  63  86
ATOM     86  C   UNL     1      -0.097   3.163   9.700  1.00  0.00     0.064 A 
ATOM     87  C   UNL     1      -1.456   2.961   9.990  1.00  0.00     0.173 A 
ATOM     88  C   UNL     1       0.816   2.630  10.642  1.00  0.00     0.173 A 
ATOM     89  F   UNL     1      -2.417   3.274   9.110  1.00  0.00    -0.203 F 
ATOM     90  C   UNL     1      -1.874   2.370  11.179  1.00  0.00     0.198 A 
ATOM     91  C   UNL     1       0.393   1.958  11.784  1.00  0.00     0.198 A 
ATOM     92  F   UNL     1       2.143   2.707  10.467  1.00  0.00    -0.203 F 
ATOM     93  F   UNL     1      -3.184   2.274  11.442  1.00  0.00    -0.200 F 
ATOM     94  C   UNL     1      -0.951   1.856  12.069  1.00  0.00     0.200 A 
ATOM     95  F   UNL     1       1.299   1.393  12.594  1.00  0.00    -0.200 F 
ATOM     96  F   UNL     1      -1.359   1.241  13.185  1.00  0.00    -0.200 F 
ENDBRANCH  63  86
ENDBRANCH  37  38
ENDBRANCH  30  32
ENDBRANCH  29  30
ENDBRANCH  28  29
ENDBRANCH   1  28
TORSDOF 14
