REMARK SMILES O=C(CSC(=S)N1CCCC1)OCCOC(=O)c1ccc(-c2c3nc(c(-c4c(F)c(F)c(F)c(F)c4F)c4ccc([nH]4)c(-c4c(F)c(F)c(F)c(F)c4F)c4nc(c(-c5c(F)c(F)c(F)c(F)c5F)c5ccc2[nH]5)C=C4)C=C3)cc1
REMARK SMILES IDX 13 1 12 2 2 3 1 4 3 5 4 6 5 7 6 8 7 9 8 10 11 11 9 12 10 13
REMARK SMILES IDX 14 14 15 15 16 16 17 17 18 18 19 19 80 20 20 21 79 22 21 23
REMARK SMILES IDX 22 24 23 25 73 26 24 27 78 28 72 29 74 30 25 31 77 32 71 33
REMARK SMILES IDX 70 34 26 36 58 37 38 38 57 39 39 40 42 41 56 42 75 43 40 44
REMARK SMILES IDX 41 45 55 47 76 48 43 49 27 50 28 51 36 52 29 53 30 54 34 55
REMARK SMILES IDX 37 56 31 57 32 58 35 59 33 60 59 61 60 62 68 63 61 64 62 65
REMARK SMILES IDX 66 66 69 67 63 68 64 69 67 70 65 71 44 72 45 73 53 74 46 75
REMARK SMILES IDX 47 76 51 77 54 78 48 79 49 80 52 81 50 82
REMARK H PARENT 74 35 42 46
REMARK Flexibility Score: inf
ROOT
ATOM      1  C   UNL     1       4.636  -0.118  -0.899  1.00  0.00     0.274 C 
ENDROOT
BRANCH   1   2
ATOM      2  O   UNL     1       3.279  -0.602  -0.797  1.00  0.00    -0.461 OA
BRANCH   2   3
ATOM      3  C   UNL     1       2.497  -0.558   0.310  1.00  0.00     0.316 C 
ATOM      4  O   UNL     1       1.297  -0.805   0.213  1.00  0.00    -0.251 OA
BRANCH   3   5
ATOM      5  C   UNL     1       3.112  -0.180   1.639  1.00  0.00     0.199 C 
BRANCH   5   6
ATOM      6  S   UNL     1       4.103  -1.491   2.358  1.00  0.00    -0.085 SA
BRANCH   6   7
ATOM      7  C   UNL     1       2.998  -2.468   3.312  1.00  0.00     0.136 C 
ATOM      8  S   UNL     1       1.328  -2.432   3.282  1.00  0.00    -0.053 S 
BRANCH   7   9
ATOM      9  N   UNL     1       3.679  -3.410   4.063  1.00  0.00    -0.358 N 
ATOM     10  C   UNL     1       4.891  -3.172   4.840  1.00  0.00     0.118 C 
ATOM     11  C   UNL     1       3.543  -4.831   3.758  1.00  0.00     0.118 C 
ATOM     12  C   UNL     1       5.789  -4.330   4.453  1.00  0.00     0.023 C 
ATOM     13  C   UNL     1       4.797  -5.482   4.334  1.00  0.00     0.023 C 
ENDBRANCH   7   9
ENDBRANCH   6   7
ENDBRANCH   5   6
ENDBRANCH   3   5
ENDBRANCH   2   3
ENDBRANCH   1   2
BRANCH   1  14
ATOM     14  C   UNL     1       4.675   1.337  -1.372  1.00  0.00     0.275 C 
BRANCH  14  15
ATOM     15  O   UNL     1       4.168   2.202  -0.338  1.00  0.00    -0.458 OA
BRANCH  15  16
ATOM     16  C   UNL     1       2.891   2.626  -0.500  1.00  0.00     0.338 C 
ATOM     17  O   UNL     1       2.185   2.463  -1.480  1.00  0.00    -0.246 OA
BRANCH  16  18
ATOM     18  C   UNL     1       2.393   3.168   0.786  1.00  0.00     0.060 A 
ATOM     19  C   UNL     1       1.075   2.870   1.153  1.00  0.00     0.016 A 
ATOM     20  C   UNL     1       3.200   3.936   1.632  1.00  0.00     0.016 A 
ATOM     21  C   UNL     1       0.549   3.377   2.342  1.00  0.00     0.010 A 
ATOM     22  C   UNL     1       2.671   4.442   2.826  1.00  0.00     0.010 A 
ATOM     23  C   UNL     1       1.333   4.191   3.172  1.00  0.00    -0.014 A 
BRANCH  23  24
ATOM     24  C   UNL     1       0.701   4.872   4.329  1.00  0.00     0.031 A 
ATOM     25  C   UNL     1       0.248   6.299   4.185  1.00  0.00     0.074 A 
ATOM     26  C   UNL     1       0.485   4.217   5.484  1.00  0.00     0.049 A 
ATOM     27  N   UNL     1      -0.410   7.052   5.030  1.00  0.00    -0.248 NA
ATOM     28  C   UNL     1       0.582   6.967   2.918  1.00  0.00     0.031 C 
ATOM     29  C   UNL     1       0.878   2.837   5.760  1.00  0.00     0.029 A 
ATOM     30  N   UNL     1      -0.125   4.633   6.642  1.00  0.00    -0.354 N 
ATOM     31  C   UNL     1      -0.596   8.268   4.386  1.00  0.00     0.074 A 
ATOM     32  C   UNL     1       0.073   8.176   3.106  1.00  0.00     0.031 C 
ATOM     33  C   UNL     1       0.501   2.519   7.011  1.00  0.00     0.029 A 
ATOM     34  C   UNL     1      -0.157   3.673   7.623  1.00  0.00     0.049 A 
ATOM     35  H   UNL     1      -0.504   5.534   6.757  1.00  0.00     0.167 HD
ATOM     36  C   UNL     1      -1.286   9.354   4.809  1.00  0.00     0.037 A 
ATOM     37  C   UNL     1      -0.664   3.720   8.870  1.00  0.00     0.037 A 
ATOM     38  C   UNL     1      -1.936   9.463   6.088  1.00  0.00     0.049 A 
ATOM     39  C   UNL     1      -1.384   4.960   9.337  1.00  0.00     0.074 A 
ATOM     40  C   UNL     1      -2.661  10.525   6.602  1.00  0.00     0.029 A 
ATOM     41  N   UNL     1      -1.932   8.476   7.061  1.00  0.00    -0.354 N 
ATOM     42  N   UNL     1      -1.609   6.081   8.696  1.00  0.00    -0.248 NA
ATOM     43  C   UNL     1      -1.939   4.930  10.699  1.00  0.00     0.031 C 
ATOM     44  C   UNL     1      -3.061  10.196   7.902  1.00  0.00     0.029 A 
ATOM     45  C   UNL     1      -2.625   8.911   8.180  1.00  0.00     0.049 A 
ATOM     46  H   UNL     1      -1.501   7.595   6.971  1.00  0.00     0.167 HD
ATOM     47  C   UNL     1      -2.353   6.874   9.562  1.00  0.00     0.074 A 
ATOM     48  C   UNL     1      -2.558   6.100  10.767  1.00  0.00     0.031 C 
ATOM     49  C   UNL     1      -2.824   8.132   9.374  1.00  0.00     0.037 A 
BRANCH  36  50
ATOM     50  C   UNL     1      -1.377  10.518   3.867  1.00  0.00     0.064 A 
ATOM     51  C   UNL     1      -2.182  10.461   2.719  1.00  0.00     0.173 A 
ATOM     52  C   UNL     1      -0.686  11.709   4.130  1.00  0.00     0.173 A 
ATOM     53  F   UNL     1      -2.850   9.338   2.417  1.00  0.00    -0.203 F 
ATOM     54  C   UNL     1      -2.275  11.550   1.856  1.00  0.00     0.198 A 
ATOM     55  C   UNL     1      -0.802  12.805   3.278  1.00  0.00     0.198 A 
ATOM     56  F   UNL     1       0.094  11.814   5.216  1.00  0.00    -0.203 F 
ATOM     57  F   UNL     1      -3.017  11.460   0.744  1.00  0.00    -0.200 F 
ATOM     58  C   UNL     1      -1.591  12.722   2.140  1.00  0.00     0.200 A 
ATOM     59  F   UNL     1      -0.148  13.941   3.558  1.00  0.00    -0.200 F 
ATOM     60  F   UNL     1      -1.686  13.772   1.312  1.00  0.00    -0.200 F 
ENDBRANCH  36  50
BRANCH  37  61
ATOM     61  C   UNL     1      -0.525   2.549   9.773  1.00  0.00     0.064 A 
ATOM     62  C   UNL     1      -1.638   1.781  10.146  1.00  0.00     0.173 A 
ATOM     63  C   UNL     1       0.721   2.199  10.314  1.00  0.00     0.173 A 
ATOM     64  F   UNL     1      -2.854   2.096   9.677  1.00  0.00    -0.203 F 
ATOM     65  C   UNL     1      -1.514   0.726  11.046  1.00  0.00     0.198 A 
ATOM     66  C   UNL     1       0.848   1.126  11.193  1.00  0.00     0.198 A 
ATOM     67  F   UNL     1       1.815   2.905   9.991  1.00  0.00    -0.203 F 
ATOM     68  F   UNL     1      -2.602   0.045  11.431  1.00  0.00    -0.200 F 
ATOM     69  C   UNL     1      -0.271   0.397  11.566  1.00  0.00     0.200 A 
ATOM     70  F   UNL     1       2.051   0.808  11.688  1.00  0.00    -0.200 F 
ATOM     71  F   UNL     1      -0.153  -0.614  12.439  1.00  0.00    -0.200 F 
ENDBRANCH  37  61
BRANCH  49  72
ATOM     72  C   UNL     1      -3.628   8.740  10.489  1.00  0.00     0.064 A 
ATOM     73  C   UNL     1      -3.030   9.140  11.694  1.00  0.00     0.173 A 
ATOM     74  C   UNL     1      -5.008   8.947  10.341  1.00  0.00     0.173 A 
ATOM     75  F   UNL     1      -1.716   8.952  11.890  1.00  0.00    -0.203 F 
ATOM     76  C   UNL     1      -3.790   9.693  12.721  1.00  0.00     0.198 A 
ATOM     77  C   UNL     1      -5.759   9.527  11.360  1.00  0.00     0.198 A 
ATOM     78  F   UNL     1      -5.628   8.591   9.207  1.00  0.00    -0.203 F 
ATOM     79  F   UNL     1      -3.206  10.018  13.883  1.00  0.00    -0.200 F 
ATOM     80  C   UNL     1      -5.152   9.891  12.552  1.00  0.00     0.200 A 
ATOM     81  F   UNL     1      -7.073   9.730  11.190  1.00  0.00    -0.200 F 
ATOM     82  F   UNL     1      -5.881  10.424  13.542  1.00  0.00    -0.200 F 
ENDBRANCH  49  72
ENDBRANCH  23  24
ENDBRANCH  16  18
ENDBRANCH  15  16
ENDBRANCH  14  15
ENDBRANCH   1  14
TORSDOF 14
