REMARK SMILES COc1ccc(/C=C/c2cc(OC)cc(OC)c2/C=C/C(=O)OCCOC(=O)c2ccc(-c3c4nc(c(-c5c(F)c(F)c(F)c(F)c5F)c5ccc([nH]5)c(-c5c(F)c(F)c(F)c(F)c5F)c5nc(c(-c6c(F)c(F)c(F)c(F)c6F)c6ccc3[nH]6)C=C5)C=C4)cc2)cc1
REMARK SMILES IDX 24 1 23 2 21 3 22 4 20 5 19 6 18 7 9 8 10 9 11 10 15 11
REMARK SMILES IDX 14 12 8 13 7 14 6 15 3 16 4 17 93 18 5 19 92 20 2 21 1 22
REMARK SMILES IDX 12 23 13 24 16 25 17 26 25 27 26 28 27 29 28 30 29 31 30 32
REMARK SMILES IDX 91 33 31 34 90 35 32 36 33 37 34 38 84 39 35 40 89 41 83 42
REMARK SMILES IDX 85 43 36 44 88 45 82 46 81 47 37 49 69 50 49 51 68 52 50 53
REMARK SMILES IDX 53 54 67 55 86 56 51 57 52 58 66 60 87 61 54 62 38 63 39 64
REMARK SMILES IDX 47 65 40 66 41 67 45 68 48 69 42 70 43 71 46 72 44 73 70 74
REMARK SMILES IDX 71 75 79 76 72 77 73 78 77 79 80 80 74 81 75 82 78 83 76 84
REMARK SMILES IDX 55 85 56 86 64 87 57 88 58 89 62 90 65 91 59 92 60 93 63 94
REMARK SMILES IDX 61 95
REMARK H PARENT 85 48 53 59
REMARK Flexibility Score: inf
ROOT
ATOM      1  C   UNL     1       6.346  -4.574   4.568  1.00  0.00     0.275 C 
ENDROOT
BRANCH   1   2
ATOM      2  O   UNL     1       5.410  -5.624   4.251  1.00  0.00    -0.459 OA
BRANCH   2   3
ATOM      3  C   UNL     1       5.905  -6.678   3.559  1.00  0.00     0.330 C 
ATOM      4  O   UNL     1       7.069  -6.841   3.225  1.00  0.00    -0.247 OA
BRANCH   3   5
ATOM      5  C   UNL     1       4.865  -7.668   3.209  1.00  0.00     0.094 C 
ATOM      6  C   UNL     1       3.620  -7.680   3.708  1.00  0.00     0.020 C 
BRANCH   6   7
ATOM      7  C   UNL     1       2.595  -8.675   3.316  1.00  0.00     0.024 A 
ATOM      8  C   UNL     1       1.337  -8.237   2.845  1.00  0.00    -0.011 A 
ATOM      9  C   UNL     1       0.336  -9.177   2.539  1.00  0.00     0.055 A 
ATOM     10  C   UNL     1       0.553 -10.547   2.689  1.00  0.00     0.123 A 
ATOM     11  C   UNL     1       2.797 -10.065   3.444  1.00  0.00     0.130 A 
ATOM     12  C   UNL     1       1.797 -10.989   3.119  1.00  0.00     0.093 A 
BRANCH   8  13
ATOM     13  C   UNL     1       0.984  -6.817   2.672  1.00  0.00     0.009 C 
ATOM     14  C   UNL     1       1.643  -6.002   1.832  1.00  0.00     0.009 C 
BRANCH  14  15
ATOM     15  C   UNL     1       1.353  -4.571   1.657  1.00  0.00    -0.025 A 
ATOM     16  C   UNL     1       0.875  -1.827   1.237  1.00  0.00     0.118 A 
ATOM     17  C   UNL     1      -0.140  -2.654   1.711  1.00  0.00     0.047 A 
ATOM     18  C   UNL     1       2.139  -2.361   0.991  1.00  0.00     0.047 A 
ATOM     19  C   UNL     1       0.090  -4.019   1.903  1.00  0.00     0.012 A 
ATOM     20  C   UNL     1       2.372  -3.726   1.195  1.00  0.00     0.012 A 
BRANCH  16  21
ATOM     21  O   UNL     1       0.546  -0.508   1.090  1.00  0.00    -0.497 OA
ATOM     22  C   UNL     1       1.142   0.126  -0.037  1.00  0.00     0.278 C 
ENDBRANCH  16  21
ENDBRANCH  14  15
ENDBRANCH   8  13
BRANCH  10  23
ATOM     23  O   UNL     1      -0.510 -11.347   2.373  1.00  0.00    -0.497 OA
ATOM     24  C   UNL     1      -0.443 -12.696   2.825  1.00  0.00     0.278 C 
ENDBRANCH  10  23
BRANCH  11  25
ATOM     25  O   UNL     1       3.989 -10.623   3.826  1.00  0.00    -0.496 OA
ATOM     26  C   UNL     1       4.266 -10.402   5.204  1.00  0.00     0.278 C 
ENDBRANCH  11  25
ENDBRANCH   6   7
ENDBRANCH   3   5
ENDBRANCH   2   3
ENDBRANCH   1   2
BRANCH   1  27
ATOM     27  C   UNL     1       6.625  -4.529   6.067  1.00  0.00     0.275 C 
BRANCH  27  28
ATOM     28  O   UNL     1       7.262  -5.752   6.477  1.00  0.00    -0.458 OA
BRANCH  28  29
ATOM     29  C   UNL     1       6.582  -6.490   7.377  1.00  0.00     0.338 C 
ATOM     30  O   UNL     1       5.526  -6.217   7.934  1.00  0.00    -0.246 OA
BRANCH  29  31
ATOM     31  C   UNL     1       7.260  -7.775   7.579  1.00  0.00     0.060 A 
ATOM     32  C   UNL     1       7.170  -8.732   6.575  1.00  0.00     0.016 A 
ATOM     33  C   UNL     1       7.821  -8.102   8.813  1.00  0.00     0.016 A 
ATOM     34  C   UNL     1       7.530 -10.052   6.845  1.00  0.00     0.010 A 
ATOM     35  C   UNL     1       8.277  -9.408   9.043  1.00  0.00     0.010 A 
ATOM     36  C   UNL     1       8.087 -10.417   8.082  1.00  0.00    -0.014 A 
BRANCH  36  37
ATOM     37  C   UNL     1       8.408 -11.851   8.365  1.00  0.00     0.031 A 
ATOM     38  C   UNL     1       7.789 -12.569   9.542  1.00  0.00     0.074 A 
ATOM     39  C   UNL     1       9.214 -12.547   7.536  1.00  0.00     0.049 A 
ATOM     40  N   UNL     1       8.024 -13.779   9.994  1.00  0.00    -0.248 NA
ATOM     41  C   UNL     1       6.783 -11.833  10.322  1.00  0.00     0.031 C 
ATOM     42  C   UNL     1       9.864 -12.011   6.340  1.00  0.00     0.029 A 
ATOM     43  N   UNL     1       9.602 -13.867   7.556  1.00  0.00    -0.354 N 
ATOM     44  C   UNL     1       7.246 -13.922  11.137  1.00  0.00     0.074 A 
ATOM     45  C   UNL     1       6.528 -12.678  11.312  1.00  0.00     0.031 C 
ATOM     46  C   UNL     1      10.508 -13.001   5.705  1.00  0.00     0.029 A 
ATOM     47  C   UNL     1      10.395 -14.224   6.493  1.00  0.00     0.049 A 
ATOM     48  H   UNL     1       9.337 -14.495   8.266  1.00  0.00     0.167 HD
ATOM     49  C   UNL     1       7.137 -14.990  11.965  1.00  0.00     0.037 A 
ATOM     50  C   UNL     1      10.992 -15.393   6.190  1.00  0.00     0.037 A 
ATOM     51  C   UNL     1       7.787 -16.259  11.762  1.00  0.00     0.049 A 
ATOM     52  C   UNL     1      10.850 -16.564   7.120  1.00  0.00     0.074 A 
ATOM     53  C   UNL     1       7.713 -17.402  12.541  1.00  0.00     0.029 A 
ATOM     54  N   UNL     1       8.614 -16.563  10.692  1.00  0.00    -0.354 N 
ATOM     55  N   UNL     1      10.160 -16.660   8.229  1.00  0.00    -0.248 NA
ATOM     56  C   UNL     1      11.594 -17.782   6.767  1.00  0.00     0.031 C 
ATOM     57  C   UNL     1       8.516 -18.389  11.958  1.00  0.00     0.029 A 
ATOM     58  C   UNL     1       9.063 -17.871  10.796  1.00  0.00     0.049 A 
ATOM     59  H   UNL     1       8.849 -15.941   9.965  1.00  0.00     0.167 HD
ATOM     60  C   UNL     1      10.387 -17.942   8.707  1.00  0.00     0.074 A 
ATOM     61  C   UNL     1      11.253 -18.601   7.752  1.00  0.00     0.031 C 
ATOM     62  C   UNL     1       9.930 -18.516   9.846  1.00  0.00     0.037 A 
BRANCH  49  63
ATOM     63  C   UNL     1       6.296 -14.833  13.198  1.00  0.00     0.064 A 
ATOM     64  C   UNL     1       4.896 -14.831  13.147  1.00  0.00     0.173 A 
ATOM     65  C   UNL     1       6.909 -14.744  14.459  1.00  0.00     0.173 A 
ATOM     66  F   UNL     1       4.263 -14.902  11.967  1.00  0.00    -0.203 F 
ATOM     67  C   UNL     1       4.138 -14.726  14.312  1.00  0.00     0.198 A 
ATOM     68  C   UNL     1       6.148 -14.665  15.622  1.00  0.00     0.198 A 
ATOM     69  F   UNL     1       8.246 -14.751  14.562  1.00  0.00    -0.203 F 
ATOM     70  F   UNL     1       2.800 -14.691  14.238  1.00  0.00    -0.200 F 
ATOM     71  C   UNL     1       4.764 -14.651  15.548  1.00  0.00     0.200 A 
ATOM     72  F   UNL     1       6.756 -14.605  16.816  1.00  0.00    -0.200 F 
ATOM     73  F   UNL     1       4.033 -14.562  16.668  1.00  0.00    -0.200 F 
ENDBRANCH  49  63
BRANCH  50  74
ATOM     74  C   UNL     1      11.808 -15.504   4.954  1.00  0.00     0.064 A 
ATOM     75  C   UNL     1      11.378 -16.288   3.874  1.00  0.00     0.173 A 
ATOM     76  C   UNL     1      13.029 -14.826   4.825  1.00  0.00     0.173 A 
ATOM     77  F   UNL     1      10.232 -16.979   3.964  1.00  0.00    -0.203 F 
ATOM     78  C   UNL     1      12.142 -16.392   2.714  1.00  0.00     0.198 A 
ATOM     79  C   UNL     1      13.777 -14.907   3.653  1.00  0.00     0.198 A 
ATOM     80  F   UNL     1      13.486 -14.068   5.832  1.00  0.00    -0.203 F 
ATOM     81  F   UNL     1      11.727 -17.178   1.710  1.00  0.00    -0.200 F 
ATOM     82  C   UNL     1      13.335 -15.694   2.600  1.00  0.00     0.200 A 
ATOM     83  F   UNL     1      14.922 -14.221   3.543  1.00  0.00    -0.200 F 
ATOM     84  F   UNL     1      14.064 -15.787   1.480  1.00  0.00    -0.200 F 
ENDBRANCH  50  74
BRANCH  62  85
ATOM     85  C   UNL     1      10.354 -19.929  10.116  1.00  0.00     0.064 A 
ATOM     86  C   UNL     1      11.658 -20.231  10.534  1.00  0.00     0.173 A 
ATOM     87  C   UNL     1       9.446 -20.988   9.970  1.00  0.00     0.173 A 
ATOM     88  F   UNL     1      12.566 -19.253  10.671  1.00  0.00    -0.203 F 
ATOM     89  C   UNL     1      12.046 -21.547  10.771  1.00  0.00     0.198 A 
ATOM     90  C   UNL     1       9.832 -22.301  10.229  1.00  0.00     0.198 A 
ATOM     91  F   UNL     1       8.187 -20.750   9.575  1.00  0.00    -0.203 F 
ATOM     92  F   UNL     1      13.310 -21.818  11.125  1.00  0.00    -0.200 F 
ATOM     93  C   UNL     1      11.132 -22.580  10.622  1.00  0.00     0.200 A 
ATOM     94  F   UNL     1       8.946 -23.297  10.092  1.00  0.00    -0.200 F 
ATOM     95  F   UNL     1      11.508 -23.846  10.848  1.00  0.00    -0.200 F 
ENDBRANCH  62  85
ENDBRANCH  36  37
ENDBRANCH  29  31
ENDBRANCH  28  29
ENDBRANCH  27  28
ENDBRANCH   1  27
TORSDOF 17
